MODEL 1
REMARK VINA RESULT:     -11.5      0.000      0.000
REMARK SMILES [NH3+]CCC1=c2cc([N+](=O)[O-])ccc2=N[C@H]1C(=O)NCCCNC(=O)c1ccc(-c2c3nc(c(-c4c(F)cccc4F)c4ccc([nH]4)c(-c4c(F)cccc4F)c4nc(c(-c5c(F)cccc5F)c5ccc2[nH]5)C=C4)C=C3)cc1
REMARK SMILES IDX 19 1 18 2 16 3 17 4 15 6 4 7 5 8 6 9 13 10 14 11 7 12 12 13
REMARK SMILES IDX 11 14 3 15 2 16 1 17 8 21 9 22 10 23 20 24 21 25 22 26 23 27
REMARK SMILES IDX 24 29 25 30 26 31 78 32 27 33 77 34 28 35 29 36 30 37 71 38
REMARK SMILES IDX 31 39 76 40 70 41 72 42 32 43 75 44 69 45 68 46 33 48 59 49
REMARK SMILES IDX 42 50 58 51 43 52 46 53 57 54 73 55 44 56 45 57 56 59 74 60
REMARK SMILES IDX 47 61 34 62 35 63 40 64 36 65 37 66 39 67 41 68 38 69 60 70
REMARK SMILES IDX 61 71 66 72 62 73 63 74 65 75 67 76 64 77 48 78 49 79 54 80
REMARK SMILES IDX 50 81 51 82 53 83 55 84 52 85
REMARK H PARENT 18 5 1 18 1 19 1 20 22 28 72 47 46 58
REMARK Flexibility Score: inf
ROOT
ATOM      1  C   UNL A   1      31.820  30.527  26.091  1.00  0.00     0.117 C 
ENDROOT
BRANCH   1   2
ATOM      2  N   UNL A   1      31.932  29.641  27.236  1.00  0.00    -0.354 N 
ATOM      3  C   UNL A   1      31.676  28.301  27.330  1.00  0.00     0.249 C 
ATOM      4  O   UNL A   1      31.710  27.793  28.454  1.00  0.00    -0.272 OA
ATOM      5  H   UNL A   1      32.237  30.068  28.069  1.00  0.00     0.163 HD
BRANCH   3   6
ATOM      6  C   UNL A   1      31.420  27.485  26.046  1.00  0.00     0.222 C 
ATOM      7  C   UNL A   1      32.677  26.815  25.559  1.00  0.00    -0.021 C 
ATOM      8  C   UNL A   1      32.518  25.492  25.564  1.00  0.00     0.009 A 
ATOM      9  C   UNL A   1      33.348  24.377  25.227  1.00  0.00     0.096 A 
ATOM     10  C   UNL A   1      31.145  25.318  26.076  1.00  0.00     0.067 A 
ATOM     11  N   UNL A   1      30.462  26.383  26.361  1.00  0.00    -0.267 NA
ATOM     12  C   UNL A   1      32.843  23.138  25.377  1.00  0.00     0.270 A 
ATOM     13  C   UNL A   1      30.667  23.925  26.215  1.00  0.00     0.035 A 
ATOM     14  C   UNL A   1      31.489  22.914  25.877  1.00  0.00     0.088 A 
BRANCH   7  15
ATOM     15  C   UNL A   1      33.903  27.597  25.185  1.00  0.00     0.096 C 
BRANCH  15  16
ATOM     16  C   UNL A   1      34.037  27.976  23.699  1.00  0.00     0.263 C 
BRANCH  16  17
ATOM     17  N   UNL A   1      33.588  29.329  23.378  1.00  0.00    -0.357 N 
ATOM     18  H   UNL A   1      32.605  29.306  23.107  1.00  0.00     0.344 HD
ATOM     19  H   UNL A   1      34.146  29.699  22.608  1.00  0.00     0.344 HD
ATOM     20  H   UNL A   1      33.701  29.927  24.196  1.00  0.00     0.344 HD
ENDBRANCH  16  17
ENDBRANCH  15  16
ENDBRANCH   7  15
BRANCH  12  21
ATOM     21  N   UNL A   1      33.705  22.004  25.016  1.00  0.00     0.062 N 
ATOM     22  O   UNL A   1      34.578  21.646  25.819  1.00  0.00    -0.258 OA
ATOM     23  O   UNL A   1      33.509  21.474  23.912  1.00  0.00    -0.258 OA
ENDBRANCH  12  21
ENDBRANCH   3   6
ENDBRANCH   1   2
BRANCH   1  24
ATOM     24  C   UNL A   1      31.500  31.954  26.507  1.00  0.00     0.042 C 
BRANCH  24  25
ATOM     25  C   UNL A   1      32.611  32.640  27.292  1.00  0.00     0.118 C 
BRANCH  25  26
ATOM     26  N   UNL A   1      32.316  34.029  27.623  1.00  0.00    -0.352 N 
ATOM     27  C   UNL A   1      32.936  34.877  28.512  1.00  0.00     0.251 C 
ATOM     28  H   UNL A   1      31.556  34.422  27.134  1.00  0.00     0.163 HD
ATOM     29  O   UNL A   1      32.455  35.983  28.738  1.00  0.00    -0.269 OA
BRANCH  27  30
ATOM     30  C   UNL A   1      34.155  34.442  29.227  1.00  0.00     0.039 A 
ATOM     31  C   UNL A   1      35.417  34.597  28.653  1.00  0.00     0.014 A 
ATOM     32  C   UNL A   1      34.029  33.850  30.488  1.00  0.00     0.014 A 
ATOM     33  C   UNL A   1      36.519  33.986  29.240  1.00  0.00     0.010 A 
ATOM     34  C   UNL A   1      35.157  33.322  31.125  1.00  0.00     0.010 A 
ATOM     35  C   UNL A   1      36.401  33.332  30.477  1.00  0.00    -0.014 A 
BRANCH  35  36
ATOM     36  C   UNL A   1      37.592  32.650  31.051  1.00  0.00     0.031 A 
ATOM     37  C   UNL A   1      38.095  33.002  32.427  1.00  0.00     0.074 A 
ATOM     38  C   UNL A   1      38.171  31.649  30.362  1.00  0.00     0.049 A 
ATOM     39  N   UNL A   1      39.061  32.450  33.120  1.00  0.00    -0.248 NA
ATOM     40  C   UNL A   1      37.433  34.122  33.113  1.00  0.00     0.031 C 
ATOM     41  C   UNL A   1      37.771  31.204  29.026  1.00  0.00     0.029 A 
ATOM     42  N   UNL A   1      39.188  30.796  30.708  1.00  0.00    -0.354 N 
ATOM     43  C   UNL A   1      39.131  33.162  34.311  1.00  0.00     0.074 A 
ATOM     44  C   UNL A   1      38.137  34.211  34.232  1.00  0.00     0.031 C 
ATOM     45  C   UNL A   1      38.480  30.113  28.697  1.00  0.00     0.029 A 
ATOM     46  C   UNL A   1      39.421  29.819  29.771  1.00  0.00     0.049 A 
ATOM     47  H   UNL A   1      39.700  30.877  31.544  1.00  0.00     0.167 HD
ATOM     48  C   UNL A   1      39.938  32.955  35.381  1.00  0.00     0.037 A 
ATOM     49  C   UNL A   1      40.294  28.796  29.779  1.00  0.00     0.037 A 
ATOM     50  C   UNL A   1      40.921  31.905  35.470  1.00  0.00     0.049 A 
ATOM     51  C   UNL A   1      41.213  28.624  30.953  1.00  0.00     0.074 A 
ATOM     52  C   UNL A   1      41.770  31.599  36.520  1.00  0.00     0.029 A 
ATOM     53  N   UNL A   1      41.188  30.989  34.463  1.00  0.00    -0.354 N 
ATOM     54  N   UNL A   1      41.256  29.294  32.078  1.00  0.00    -0.248 NA
ATOM     55  C   UNL A   1      42.216  27.555  30.846  1.00  0.00     0.031 C 
ATOM     56  C   UNL A   1      42.578  30.523  36.132  1.00  0.00     0.029 A 
ATOM     57  C   UNL A   1      42.205  30.133  34.856  1.00  0.00     0.049 A 
ATOM     58  H   UNL A   1      40.723  30.952  33.596  1.00  0.00     0.167 HD
ATOM     59  C   UNL A   1      42.278  28.719  32.821  1.00  0.00     0.074 A 
ATOM     60  C   UNL A   1      42.812  27.632  32.027  1.00  0.00     0.031 C 
ATOM     61  C   UNL A   1      42.734  29.063  34.051  1.00  0.00     0.037 A 
BRANCH  48  62
ATOM     62  C   UNL A   1      39.798  33.906  36.536  1.00  0.00     0.057 A 
ATOM     63  C   UNL A   1      40.513  35.112  36.559  1.00  0.00     0.134 A 
ATOM     64  C   UNL A   1      38.954  33.636  37.621  1.00  0.00     0.134 A 
ATOM     65  F   UNL A   1      41.343  35.430  35.554  1.00  0.00    -0.206 F 
ATOM     66  C   UNL A   1      40.384  36.017  37.613  1.00  0.00     0.040 A 
ATOM     67  C   UNL A   1      38.798  34.546  38.670  1.00  0.00     0.040 A 
ATOM     68  F   UNL A   1      38.229  32.508  37.655  1.00  0.00    -0.206 F 
ATOM     69  C   UNL A   1      39.517  35.740  38.668  1.00  0.00     0.006 A 
ENDBRANCH  48  62
BRANCH  49  70
ATOM     70  C   UNL A   1      40.330  27.841  28.645  1.00  0.00     0.057 A 
ATOM     71  C   UNL A   1      41.076  28.099  27.491  1.00  0.00     0.134 A 
ATOM     72  C   UNL A   1      39.619  26.636  28.701  1.00  0.00     0.134 A 
ATOM     73  F   UNL A   1      41.775  29.238  27.377  1.00  0.00    -0.206 F 
ATOM     74  C   UNL A   1      41.106  27.200  26.425  1.00  0.00     0.040 A 
ATOM     75  C   UNL A   1      39.659  25.716  27.654  1.00  0.00     0.040 A 
ATOM     76  F   UNL A   1      38.903  26.325  29.792  1.00  0.00    -0.206 F 
ATOM     77  C   UNL A   1      40.402  26.000  26.508  1.00  0.00     0.006 A 
ENDBRANCH  49  70
BRANCH  61  78
ATOM     78  C   UNL A   1      43.853  28.233  34.606  1.00  0.00     0.057 A 
ATOM     79  C   UNL A   1      43.586  27.077  35.350  1.00  0.00     0.134 A 
ATOM     80  C   UNL A   1      45.197  28.566  34.388  1.00  0.00     0.134 A 
ATOM     81  F   UNL A   1      42.321  26.704  35.599  1.00  0.00    -0.206 F 
ATOM     82  C   UNL A   1      44.615  26.277  35.848  1.00  0.00     0.040 A 
ATOM     83  C   UNL A   1      46.235  27.760  34.859  1.00  0.00     0.040 A 
ATOM     84  F   UNL A   1      45.520  29.650  33.666  1.00  0.00    -0.206 F 
ATOM     85  C   UNL A   1      45.943  26.612  35.595  1.00  0.00     0.006 A 
ENDBRANCH  61  78
ENDBRANCH  35  36
ENDBRANCH  27  30
ENDBRANCH  25  26
ENDBRANCH  24  25
ENDBRANCH   1  24
TORSDOF 14
ENDMDL
MODEL 2
REMARK VINA RESULT:     -11.5      5.070     10.316
REMARK SMILES [NH3+]CCC1=c2cc([N+](=O)[O-])ccc2=N[C@H]1C(=O)NCCCNC(=O)c1ccc(-c2c3nc(c(-c4c(F)cccc4F)c4ccc([nH]4)c(-c4c(F)cccc4F)c4nc(c(-c5c(F)cccc5F)c5ccc2[nH]5)C=C4)C=C3)cc1
REMARK SMILES IDX 19 1 18 2 16 3 17 4 15 6 4 7 5 8 6 9 13 10 14 11 7 12 12 13
REMARK SMILES IDX 11 14 3 15 2 16 1 17 8 21 9 22 10 23 20 24 21 25 22 26 23 27
REMARK SMILES IDX 24 29 25 30 26 31 78 32 27 33 77 34 28 35 29 36 30 37 71 38
REMARK SMILES IDX 31 39 76 40 70 41 72 42 32 43 75 44 69 45 68 46 33 48 59 49
REMARK SMILES IDX 42 50 58 51 43 52 46 53 57 54 73 55 44 56 45 57 56 59 74 60
REMARK SMILES IDX 47 61 34 62 35 63 40 64 36 65 37 66 39 67 41 68 38 69 60 70
REMARK SMILES IDX 61 71 66 72 62 73 63 74 65 75 67 76 64 77 48 78 49 79 54 80
REMARK SMILES IDX 50 81 51 82 53 83 55 84 52 85
REMARK H PARENT 18 5 1 18 1 19 1 20 22 28 72 47 46 58
REMARK Flexibility Score: inf
ROOT
ATOM      1  C   UNL A   1      36.994  21.167  24.546  1.00  0.00     0.117 C 
ENDROOT
BRANCH   1   2
ATOM      2  N   UNL A   1      35.672  21.216  25.143  1.00  0.00    -0.354 N 
ATOM      3  C   UNL A   1      34.775  22.248  25.193  1.00  0.00     0.249 C 
ATOM      4  O   UNL A   1      33.766  22.091  25.885  1.00  0.00    -0.272 OA
ATOM      5  H   UNL A   1      35.376  20.384  25.578  1.00  0.00     0.163 HD
BRANCH   3   6
ATOM      6  C   UNL A   1      35.029  23.516  24.351  1.00  0.00     0.222 C 
ATOM      7  C   UNL A   1      33.875  23.805  23.429  1.00  0.00    -0.021 C 
ATOM      8  C   UNL A   1      33.341  24.989  23.727  1.00  0.00     0.009 A 
ATOM      9  C   UNL A   1      32.250  25.758  23.214  1.00  0.00     0.096 A 
ATOM     10  C   UNL A   1      34.158  25.452  24.865  1.00  0.00     0.067 A 
ATOM     11  N   UNL A   1      35.127  24.690  25.269  1.00  0.00    -0.267 NA
ATOM     12  C   UNL A   1      31.979  26.944  23.792  1.00  0.00     0.270 A 
ATOM     13  C   UNL A   1      33.793  26.763  25.445  1.00  0.00     0.035 A 
ATOM     14  C   UNL A   1      32.761  27.447  24.919  1.00  0.00     0.088 A 
BRANCH   7  15
ATOM     15  C   UNL A   1      33.428  22.826  22.381  1.00  0.00     0.096 C 
BRANCH  15  16
ATOM     16  C   UNL A   1      32.176  21.997  22.720  1.00  0.00     0.263 C 
BRANCH  16  17
ATOM     17  N   UNL A   1      31.731  21.110  21.647  1.00  0.00    -0.357 N 
ATOM     18  H   UNL A   1      30.720  21.190  21.536  1.00  0.00     0.344 HD
ATOM     19  H   UNL A   1      31.973  20.146  21.881  1.00  0.00     0.344 HD
ATOM     20  H   UNL A   1      32.190  21.374  20.776  1.00  0.00     0.344 HD
ENDBRANCH  16  17
ENDBRANCH  15  16
ENDBRANCH   7  15
BRANCH  12  21
ATOM     21  N   UNL A   1      30.862  27.727  23.247  1.00  0.00     0.062 N 
ATOM     22  O   UNL A   1      30.559  27.573  22.055  1.00  0.00    -0.258 OA
ATOM     23  O   UNL A   1      30.290  28.510  24.019  1.00  0.00    -0.258 OA
ENDBRANCH  12  21
ENDBRANCH   3   6
ENDBRANCH   1   2
BRANCH   1  24
ATOM     24  C   UNL A   1      37.781  19.950  25.008  1.00  0.00     0.042 C 
BRANCH  24  25
ATOM     25  C   UNL A   1      39.054  20.286  25.775  1.00  0.00     0.118 C 
BRANCH  25  26
ATOM     26  N   UNL A   1      40.030  19.203  25.782  1.00  0.00    -0.352 N 
ATOM     27  C   UNL A   1      41.380  19.232  26.047  1.00  0.00     0.251 C 
ATOM     28  H   UNL A   1      39.668  18.314  25.564  1.00  0.00     0.163 HD
ATOM     29  O   UNL A   1      42.058  18.222  25.879  1.00  0.00    -0.269 OA
BRANCH  27  30
ATOM     30  C   UNL A   1      42.024  20.486  26.494  1.00  0.00     0.039 A 
ATOM     31  C   UNL A   1      42.058  20.833  27.844  1.00  0.00     0.014 A 
ATOM     32  C   UNL A   1      42.585  21.340  25.539  1.00  0.00     0.014 A 
ATOM     33  C   UNL A   1      42.467  22.109  28.216  1.00  0.00     0.010 A 
ATOM     34  C   UNL A   1      43.088  22.585  25.928  1.00  0.00     0.010 A 
ATOM     35  C   UNL A   1      42.976  23.004  27.262  1.00  0.00    -0.014 A 
BRANCH  35  36
ATOM     36  C   UNL A   1      43.360  24.376  27.689  1.00  0.00     0.031 A 
ATOM     37  C   UNL A   1      44.789  24.843  27.596  1.00  0.00     0.074 A 
ATOM     38  C   UNL A   1      42.400  25.234  28.084  1.00  0.00     0.049 A 
ATOM     39  N   UNL A   1      45.289  26.030  27.840  1.00  0.00    -0.248 NA
ATOM     40  C   UNL A   1      45.791  23.849  27.183  1.00  0.00     0.031 C 
ATOM     41  C   UNL A   1      40.978  24.909  28.205  1.00  0.00     0.029 A 
ATOM     42  N   UNL A   1      42.468  26.563  28.411  1.00  0.00    -0.354 N 
ATOM     43  C   UNL A   1      46.657  25.921  27.624  1.00  0.00     0.074 A 
ATOM     44  C   UNL A   1      46.916  24.542  27.268  1.00  0.00     0.031 C 
ATOM     45  C   UNL A   1      40.297  26.025  28.504  1.00  0.00     0.029 A 
ATOM     46  C   UNL A   1      41.239  27.128  28.652  1.00  0.00     0.049 A 
ATOM     47  H   UNL A   1      43.313  27.063  28.469  1.00  0.00     0.167 HD
ATOM     48  C   UNL A   1      47.611  26.882  27.699  1.00  0.00     0.037 A 
ATOM     49  C   UNL A   1      40.907  28.396  28.953  1.00  0.00     0.037 A 
ATOM     50  C   UNL A   1      47.357  28.258  28.041  1.00  0.00     0.049 A 
ATOM     51  C   UNL A   1      41.990  29.427  29.085  1.00  0.00     0.074 A 
ATOM     52  C   UNL A   1      48.252  29.311  28.122  1.00  0.00     0.029 A 
ATOM     53  N   UNL A   1      46.109  28.771  28.365  1.00  0.00    -0.354 N 
ATOM     54  N   UNL A   1      43.276  29.313  28.861  1.00  0.00    -0.248 NA
ATOM     55  C   UNL A   1      41.569  30.764  29.525  1.00  0.00     0.031 C 
ATOM     56  C   UNL A   1      47.552  30.453  28.533  1.00  0.00     0.029 A 
ATOM     57  C   UNL A   1      46.215  30.120  28.669  1.00  0.00     0.049 A 
ATOM     58  H   UNL A   1      45.271  28.254  28.376  1.00  0.00     0.167 HD
ATOM     59  C   UNL A   1      43.817  30.565  29.117  1.00  0.00     0.074 A 
ATOM     60  C   UNL A   1      42.715  31.428  29.490  1.00  0.00     0.031 C 
ATOM     61  C   UNL A   1      45.111  30.963  29.050  1.00  0.00     0.037 A 
BRANCH  48  62
ATOM     62  C   UNL A   1      49.027  26.461  27.424  1.00  0.00     0.057 A 
ATOM     63  C   UNL A   1      49.859  26.030  28.466  1.00  0.00     0.134 A 
ATOM     64  C   UNL A   1      49.566  26.474  26.131  1.00  0.00     0.134 A 
ATOM     65  F   UNL A   1      49.408  25.998  29.729  1.00  0.00    -0.206 F 
ATOM     66  C   UNL A   1      51.172  25.618  28.229  1.00  0.00     0.040 A 
ATOM     67  C   UNL A   1      50.870  26.040  25.878  1.00  0.00     0.040 A 
ATOM     68  F   UNL A   1      48.819  26.860  25.086  1.00  0.00    -0.206 F 
ATOM     69  C   UNL A   1      51.678  25.613  26.931  1.00  0.00     0.006 A 
ENDBRANCH  48  62
BRANCH  49  70
ATOM     70  C   UNL A   1      39.484  28.770  29.135  1.00  0.00     0.057 A 
ATOM     71  C   UNL A   1      38.709  29.247  28.072  1.00  0.00     0.134 A 
ATOM     72  C   UNL A   1      38.864  28.646  30.384  1.00  0.00     0.134 A 
ATOM     73  F   UNL A   1      39.247  29.391  26.852  1.00  0.00    -0.206 F 
ATOM     74  C   UNL A   1      37.371  29.600  28.246  1.00  0.00     0.040 A 
ATOM     75  C   UNL A   1      37.520  28.971  30.567  1.00  0.00     0.040 A 
ATOM     76  F   UNL A   1      39.551  28.174  31.435  1.00  0.00    -0.206 F 
ATOM     77  C   UNL A   1      36.770  29.455  29.496  1.00  0.00     0.006 A 
ENDBRANCH  49  70
BRANCH  61  78
ATOM     78  C   UNL A   1      45.386  32.402  29.372  1.00  0.00     0.057 A 
ATOM     79  C   UNL A   1      45.312  33.385  28.378  1.00  0.00     0.134 A 
ATOM     80  C   UNL A   1      45.705  32.819  30.672  1.00  0.00     0.134 A 
ATOM     81  F   UNL A   1      45.016  33.052  27.112  1.00  0.00    -0.206 F 
ATOM     82  C   UNL A   1      45.536  34.732  28.665  1.00  0.00     0.040 A 
ATOM     83  C   UNL A   1      45.905  34.167  30.978  1.00  0.00     0.040 A 
ATOM     84  F   UNL A   1      45.772  31.929  31.674  1.00  0.00    -0.206 F 
ATOM     85  C   UNL A   1      45.823  35.127  29.971  1.00  0.00     0.006 A 
ENDBRANCH  61  78
ENDBRANCH  35  36
ENDBRANCH  27  30
ENDBRANCH  25  26
ENDBRANCH  24  25
ENDBRANCH   1  24
TORSDOF 14
ENDMDL
MODEL 3
REMARK VINA RESULT:     -11.4      5.183     10.410
REMARK SMILES [NH3+]CCC1=c2cc([N+](=O)[O-])ccc2=N[C@H]1C(=O)NCCCNC(=O)c1ccc(-c2c3nc(c(-c4c(F)cccc4F)c4ccc([nH]4)c(-c4c(F)cccc4F)c4nc(c(-c5c(F)cccc5F)c5ccc2[nH]5)C=C4)C=C3)cc1
REMARK SMILES IDX 19 1 18 2 16 3 17 4 15 6 4 7 5 8 6 9 13 10 14 11 7 12 12 13
REMARK SMILES IDX 11 14 3 15 2 16 1 17 8 21 9 22 10 23 20 24 21 25 22 26 23 27
REMARK SMILES IDX 24 29 25 30 26 31 78 32 27 33 77 34 28 35 29 36 30 37 71 38
REMARK SMILES IDX 31 39 76 40 70 41 72 42 32 43 75 44 69 45 68 46 33 48 59 49
REMARK SMILES IDX 42 50 58 51 43 52 46 53 57 54 73 55 44 56 45 57 56 59 74 60
REMARK SMILES IDX 47 61 34 62 35 63 40 64 36 65 37 66 39 67 41 68 38 69 60 70
REMARK SMILES IDX 61 71 66 72 62 73 63 74 65 75 67 76 64 77 48 78 49 79 54 80
REMARK SMILES IDX 50 81 51 82 53 83 55 84 52 85
REMARK H PARENT 18 5 1 18 1 19 1 20 22 28 72 47 46 58
REMARK Flexibility Score: inf
ROOT
ATOM      1  C   UNL A   1      36.883  20.858  25.010  1.00  0.00     0.117 C 
ENDROOT
BRANCH   1   2
ATOM      2  N   UNL A   1      37.259  21.979  24.168  1.00  0.00    -0.354 N 
ATOM      3  C   UNL A   1      36.469  22.844  23.464  1.00  0.00     0.249 C 
ATOM      4  O   UNL A   1      37.031  23.637  22.703  1.00  0.00    -0.272 OA
ATOM      5  H   UNL A   1      38.228  22.140  24.092  1.00  0.00     0.163 HD
BRANCH   3   6
ATOM      6  C   UNL A   1      34.943  22.836  23.692  1.00  0.00     0.222 C 
ATOM      7  C   UNL A   1      34.541  23.814  24.762  1.00  0.00    -0.021 C 
ATOM      8  C   UNL A   1      33.729  24.739  24.251  1.00  0.00     0.009 A 
ATOM      9  C   UNL A   1      33.060  25.891  24.773  1.00  0.00     0.096 A 
ATOM     10  C   UNL A   1      33.627  24.352  22.831  1.00  0.00     0.067 A 
ATOM     11  N   UNL A   1      34.269  23.294  22.441  1.00  0.00    -0.267 NA
ATOM     12  C   UNL A   1      32.309  26.627  23.931  1.00  0.00     0.270 A 
ATOM     13  C   UNL A   1      32.785  25.215  21.973  1.00  0.00     0.035 A 
ATOM     14  C   UNL A   1      32.174  26.283  22.518  1.00  0.00     0.088 A 
BRANCH   7  15
ATOM     15  C   UNL A   1      35.060  23.716  26.169  1.00  0.00     0.096 C 
BRANCH  15  16
ATOM     16  C   UNL A   1      34.163  22.969  27.171  1.00  0.00     0.263 C 
BRANCH  16  17
ATOM     17  N   UNL A   1      34.591  21.602  27.461  1.00  0.00    -0.357 N 
ATOM     18  H   UNL A   1      34.901  21.152  26.599  1.00  0.00     0.344 HD
ATOM     19  H   UNL A   1      33.810  21.078  27.857  1.00  0.00     0.344 HD
ATOM     20  H   UNL A   1      35.360  21.622  28.130  1.00  0.00     0.344 HD
ENDBRANCH  16  17
ENDBRANCH  15  16
ENDBRANCH   7  15
BRANCH  12  21
ATOM     21  N   UNL A   1      31.619  27.800  24.485  1.00  0.00     0.062 N 
ATOM     22  O   UNL A   1      31.064  27.693  25.588  1.00  0.00    -0.258 OA
ATOM     23  O   UNL A   1      31.629  28.835  23.804  1.00  0.00    -0.258 OA
ENDBRANCH  12  21
ENDBRANCH   3   6
ENDBRANCH   1   2
BRANCH   1  24
ATOM     24  C   UNL A   1      37.943  19.767  25.011  1.00  0.00     0.042 C 
BRANCH  24  25
ATOM     25  C   UNL A   1      39.214  20.133  25.769  1.00  0.00     0.118 C 
BRANCH  25  26
ATOM     26  N   UNL A   1      40.197  19.056  25.807  1.00  0.00    -0.352 N 
ATOM     27  C   UNL A   1      41.543  19.098  26.089  1.00  0.00     0.251 C 
ATOM     28  H   UNL A   1      39.843  18.161  25.601  1.00  0.00     0.163 HD
ATOM     29  O   UNL A   1      42.229  18.090  25.947  1.00  0.00    -0.269 OA
BRANCH  27  30
ATOM     30  C   UNL A   1      42.174  20.365  26.520  1.00  0.00     0.039 A 
ATOM     31  C   UNL A   1      42.158  20.754  27.859  1.00  0.00     0.014 A 
ATOM     32  C   UNL A   1      42.773  21.187  25.560  1.00  0.00     0.014 A 
ATOM     33  C   UNL A   1      42.557  22.039  28.206  1.00  0.00     0.010 A 
ATOM     34  C   UNL A   1      43.265  22.443  25.929  1.00  0.00     0.010 A 
ATOM     35  C   UNL A   1      43.105  22.904  27.244  1.00  0.00    -0.014 A 
BRANCH  35  36
ATOM     36  C   UNL A   1      43.477  24.288  27.643  1.00  0.00     0.031 A 
ATOM     37  C   UNL A   1      44.900  24.767  27.534  1.00  0.00     0.074 A 
ATOM     38  C   UNL A   1      42.510  25.143  28.025  1.00  0.00     0.049 A 
ATOM     39  N   UNL A   1      45.389  25.963  27.752  1.00  0.00    -0.248 NA
ATOM     40  C   UNL A   1      45.910  23.774  27.136  1.00  0.00     0.031 C 
ATOM     41  C   UNL A   1      41.091  24.806  28.159  1.00  0.00     0.029 A 
ATOM     42  N   UNL A   1      42.565  26.479  28.326  1.00  0.00    -0.354 N 
ATOM     43  C   UNL A   1      46.757  25.863  27.532  1.00  0.00     0.074 A 
ATOM     44  C   UNL A   1      47.029  24.481  27.202  1.00  0.00     0.031 C 
ATOM     45  C   UNL A   1      40.401  25.921  28.440  1.00  0.00     0.029 A 
ATOM     46  C   UNL A   1      41.332  27.036  28.562  1.00  0.00     0.049 A 
ATOM     47  H   UNL A   1      43.406  26.989  28.371  1.00  0.00     0.167 HD
ATOM     48  C   UNL A   1      47.702  26.835  27.584  1.00  0.00     0.037 A 
ATOM     49  C   UNL A   1      40.989  28.307  28.840  1.00  0.00     0.037 A 
ATOM     50  C   UNL A   1      47.435  28.215  27.900  1.00  0.00     0.049 A 
ATOM     51  C   UNL A   1      42.062  29.351  28.946  1.00  0.00     0.074 A 
ATOM     52  C   UNL A   1      48.320  29.278  27.957  1.00  0.00     0.029 A 
ATOM     53  N   UNL A   1      46.184  28.722  28.219  1.00  0.00    -0.354 N 
ATOM     54  N   UNL A   1      43.348  29.245  28.718  1.00  0.00    -0.248 NA
ATOM     55  C   UNL A   1      41.630  30.692  29.362  1.00  0.00     0.031 C 
ATOM     56  C   UNL A   1      47.611  30.421  28.348  1.00  0.00     0.029 A 
ATOM     57  C   UNL A   1      46.277  30.077  28.497  1.00  0.00     0.049 A 
ATOM     58  H   UNL A   1      45.352  28.197  28.245  1.00  0.00     0.167 HD
ATOM     59  C   UNL A   1      43.877  30.507  28.947  1.00  0.00     0.074 A 
ATOM     60  C   UNL A   1      42.769  31.366  29.309  1.00  0.00     0.031 C 
ATOM     61  C   UNL A   1      45.167  30.917  28.867  1.00  0.00     0.037 A 
BRANCH  48  62
ATOM     62  C   UNL A   1      49.121  26.423  27.310  1.00  0.00     0.057 A 
ATOM     63  C   UNL A   1      49.655  26.515  26.018  1.00  0.00     0.134 A 
ATOM     64  C   UNL A   1      49.961  25.941  28.323  1.00  0.00     0.134 A 
ATOM     65  F   UNL A   1      48.903  26.963  25.001  1.00  0.00    -0.206 F 
ATOM     66  C   UNL A   1      50.975  26.153  25.747  1.00  0.00     0.040 A 
ATOM     67  C   UNL A   1      51.292  25.600  28.068  1.00  0.00     0.040 A 
ATOM     68  F   UNL A   1      49.518  25.842  29.586  1.00  0.00    -0.206 F 
ATOM     69  C   UNL A   1      51.801  25.704  26.774  1.00  0.00     0.006 A 
ENDBRANCH  48  62
BRANCH  49  70
ATOM     70  C   UNL A   1      39.562  28.669  29.020  1.00  0.00     0.057 A 
ATOM     71  C   UNL A   1      38.796  29.180  27.968  1.00  0.00     0.134 A 
ATOM     72  C   UNL A   1      38.932  28.502  30.260  1.00  0.00     0.134 A 
ATOM     73  F   UNL A   1      39.345  29.366  26.758  1.00  0.00    -0.206 F 
ATOM     74  C   UNL A   1      37.455  29.522  28.141  1.00  0.00     0.040 A 
ATOM     75  C   UNL A   1      37.585  28.816  30.441  1.00  0.00     0.040 A 
ATOM     76  F   UNL A   1      39.612  27.997  31.300  1.00  0.00    -0.206 F 
ATOM     77  C   UNL A   1      36.844  29.333  29.380  1.00  0.00     0.006 A 
ENDBRANCH  49  70
BRANCH  61  78
ATOM     78  C   UNL A   1      45.429  32.365  29.159  1.00  0.00     0.057 A 
ATOM     79  C   UNL A   1      45.763  32.785  30.453  1.00  0.00     0.134 A 
ATOM     80  C   UNL A   1      45.371  33.342  28.156  1.00  0.00     0.134 A 
ATOM     81  F   UNL A   1      45.832  31.901  31.459  1.00  0.00    -0.206 F 
ATOM     82  C   UNL A   1      46.039  34.123  30.736  1.00  0.00     0.040 A 
ATOM     83  C   UNL A   1      45.671  34.679  28.422  1.00  0.00     0.040 A 
ATOM     84  F   UNL A   1      45.077  33.001  26.892  1.00  0.00    -0.206 F 
ATOM     85  C   UNL A   1      46.003  35.073  29.717  1.00  0.00     0.006 A 
ENDBRANCH  61  78
ENDBRANCH  35  36
ENDBRANCH  27  30
ENDBRANCH  25  26
ENDBRANCH  24  25
ENDBRANCH   1  24
TORSDOF 14
ENDMDL
