MODEL 1
REMARK VINA RESULT:     -11.8      0.000      0.000
REMARK SMILES [NH3+][C@@]1(C(=O)NCCCNC(=O)c2ccc(-c3c4nc(c(-c5c(F)cccc5F)c5ccc([nH]5)c(-c5c(F)cccc5F)c5nc(c(-c6c(F)cccc6F)c6ccc3[nH]6)C=C5)C=C4)cc2)CCC[C@H]([N@@H+]2CC[N@@H+]3CCC[C@@H]3C2)C1
REMARK SMILES IDX 7 1 6 2 5 3 3 4 4 5 2 7 66 8 79 9 67 10 69 11 68 12 1 13
REMARK SMILES IDX 70 17 71 18 78 19 72 21 77 22 73 23 76 24 74 25 75 27 8 28
REMARK SMILES IDX 9 29 10 30 11 32 12 33 13 34 65 35 14 36 64 37 15 38 16 39
REMARK SMILES IDX 17 40 58 41 18 42 63 43 57 44 59 45 19 46 62 47 56 48 55 49
REMARK SMILES IDX 20 51 46 52 29 53 45 54 30 55 33 56 44 57 60 58 31 59 32 60
REMARK SMILES IDX 43 62 61 63 34 64 21 65 22 66 27 67 23 68 24 69 26 70 28 71
REMARK SMILES IDX 25 72 47 73 48 74 53 75 49 76 50 77 52 78 54 79 51 80 35 81
REMARK SMILES IDX 36 82 41 83 37 84 38 85 40 86 42 87 39 88
REMARK H PARENT 5 6 1 14 1 15 1 16 70 20 73 26 9 31 59 50 33 61
REMARK Flexibility Score: inf
ROOT
ATOM      1  C   UNL A   1      37.799  19.643  24.864  1.00  0.00     0.042 C 
ENDROOT
BRANCH   1   2
ATOM      2  C   UNL A   1      36.507  20.419  25.014  1.00  0.00     0.118 C 
BRANCH   2   3
ATOM      3  N   UNL A   1      36.725  21.756  25.545  1.00  0.00    -0.351 N 
ATOM      4  C   UNL A   1      35.951  22.878  25.558  1.00  0.00     0.281 C 
ATOM      5  O   UNL A   1      36.430  23.856  26.144  1.00  0.00    -0.268 OA
ATOM      6  H   UNL A   1      37.602  21.874  25.978  1.00  0.00     0.163 HD
BRANCH   4   7
ATOM      7  C   UNL A   1      34.589  22.982  24.814  1.00  0.00     0.179 C 
ATOM      8  C   UNL A   1      34.867  22.996  23.297  1.00  0.00     0.079 C 
ATOM      9  C   UNL A   1      33.899  24.305  25.219  1.00  0.00     0.144 C 
ATOM     10  C   UNL A   1      33.623  23.291  22.453  1.00  0.00     0.013 C 
ATOM     11  C   UNL A   1      32.575  24.471  24.456  1.00  0.00     0.191 C 
ATOM     12  C   UNL A   1      32.856  24.526  22.940  1.00  0.00     0.065 C 
BRANCH   7  13
ATOM     13  N   UNL A   1      33.684  21.873  25.175  1.00  0.00    -0.345 N 
ATOM     14  H   UNL A   1      33.199  22.098  26.045  1.00  0.00     0.345 HD
ATOM     15  H   UNL A   1      34.227  21.019  25.300  1.00  0.00     0.345 HD
ATOM     16  H   UNL A   1      33.001  21.736  24.431  1.00  0.00     0.345 HD
ENDBRANCH   7  13
BRANCH  11  17
ATOM     17  N   UNL A   1      31.762  25.550  25.022  1.00  0.00    -0.323 N 
ATOM     18  C   UNL A   1      31.189  26.437  23.992  1.00  0.00     0.324 C 
ATOM     19  C   UNL A   1      32.362  26.272  26.151  1.00  0.00     0.328 C 
ATOM     20  H   UNL A   1      30.976  25.064  25.454  1.00  0.00     0.348 HD
ATOM     21  C   UNL A   1      31.706  27.883  24.030  1.00  0.00     0.324 C 
ATOM     22  C   UNL A   1      31.674  27.622  26.472  1.00  0.00     0.240 C 
ATOM     23  N   UNL A   1      31.432  28.518  25.319  1.00  0.00    -0.323 N 
ATOM     24  C   UNL A   1      32.494  28.449  27.464  1.00  0.00     0.077 C 
ATOM     25  C   UNL A   1      32.193  29.750  25.510  1.00  0.00     0.263 C 
ATOM     26  H   UNL A   1      30.438  28.743  25.286  1.00  0.00     0.348 HD
ATOM     27  C   UNL A   1      32.273  29.882  27.017  1.00  0.00     0.068 C 
ENDBRANCH  11  17
ENDBRANCH   4   7
ENDBRANCH   2   3
ENDBRANCH   1   2
BRANCH   1  28
ATOM     28  C   UNL A   1      38.918  20.202  25.721  1.00  0.00     0.118 C 
BRANCH  28  29
ATOM     29  N   UNL A   1      40.046  19.283  25.824  1.00  0.00    -0.352 N 
ATOM     30  C   UNL A   1      41.375  19.531  26.074  1.00  0.00     0.251 C 
ATOM     31  H   UNL A   1      39.821  18.333  25.693  1.00  0.00     0.163 HD
ATOM     32  O   UNL A   1      42.213  18.663  25.867  1.00  0.00    -0.269 OA
BRANCH  30  33
ATOM     33  C   UNL A   1      41.786  20.857  26.578  1.00  0.00     0.039 A 
ATOM     34  C   UNL A   1      42.253  21.820  25.682  1.00  0.00     0.014 A 
ATOM     35  C   UNL A   1      41.705  21.146  27.940  1.00  0.00     0.014 A 
ATOM     36  C   UNL A   1      42.568  23.096  26.149  1.00  0.00     0.010 A 
ATOM     37  C   UNL A   1      41.890  22.447  28.380  1.00  0.00     0.010 A 
ATOM     38  C   UNL A   1      42.345  23.432  27.495  1.00  0.00    -0.014 A 
BRANCH  38  39
ATOM     39  C   UNL A   1      42.616  24.792  28.020  1.00  0.00     0.031 A 
ATOM     40  C   UNL A   1      44.005  25.149  28.478  1.00  0.00     0.074 A 
ATOM     41  C   UNL A   1      41.605  25.671  28.161  1.00  0.00     0.049 A 
ATOM     42  N   UNL A   1      44.427  26.235  29.073  1.00  0.00    -0.248 NA
ATOM     43  C   UNL A   1      45.053  24.133  28.277  1.00  0.00     0.031 C 
ATOM     44  C   UNL A   1      40.206  25.422  27.805  1.00  0.00     0.029 A 
ATOM     45  N   UNL A   1      41.597  26.950  28.656  1.00  0.00    -0.354 N 
ATOM     46  C   UNL A   1      45.776  26.023  29.330  1.00  0.00     0.074 A 
ATOM     47  C   UNL A   1      46.087  24.681  28.895  1.00  0.00     0.031 C 
ATOM     48  C   UNL A   1      39.482  26.521  28.069  1.00  0.00     0.029 A 
ATOM     49  C   UNL A   1      40.353  27.533  28.656  1.00  0.00     0.049 A 
ATOM     50  H   UNL A   1      42.406  27.407  28.981  1.00  0.00     0.167 HD
ATOM     51  C   UNL A   1      46.683  26.882  29.850  1.00  0.00     0.037 A 
ATOM     52  C   UNL A   1      39.959  28.744  29.095  1.00  0.00     0.037 A 
ATOM     53  C   UNL A   1      46.374  28.227  30.252  1.00  0.00     0.049 A 
ATOM     54  C   UNL A   1      40.986  29.677  29.677  1.00  0.00     0.074 A 
ATOM     55  C   UNL A   1      47.229  29.197  30.745  1.00  0.00     0.029 A 
ATOM     56  N   UNL A   1      45.108  28.791  30.208  1.00  0.00    -0.354 N 
ATOM     57  N   UNL A   1      42.271  29.487  29.855  1.00  0.00    -0.248 NA
ATOM     58  C   UNL A   1      40.509  30.997  30.114  1.00  0.00     0.031 C 
ATOM     59  C   UNL A   1      46.472  30.333  31.042  1.00  0.00     0.029 A 
ATOM     60  C   UNL A   1      45.155  30.092  30.680  1.00  0.00     0.049 A 
ATOM     61  H   UNL A   1      44.296  28.335  29.887  1.00  0.00     0.167 HD
ATOM     62  C   UNL A   1      42.761  30.672  30.388  1.00  0.00     0.074 A 
ATOM     63  C   UNL A   1      41.637  31.579  30.494  1.00  0.00     0.031 C 
ATOM     64  C   UNL A   1      44.027  30.984  30.759  1.00  0.00     0.037 A 
BRANCH  51  65
ATOM     65  C   UNL A   1      48.096  26.395  29.997  1.00  0.00     0.057 A 
ATOM     66  C   UNL A   1      48.545  25.774  31.170  1.00  0.00     0.134 A 
ATOM     67  C   UNL A   1      49.010  26.518  28.943  1.00  0.00     0.134 A 
ATOM     68  F   UNL A   1      47.726  25.637  32.224  1.00  0.00    -0.206 F 
ATOM     69  C   UNL A   1      49.858  25.317  31.299  1.00  0.00     0.040 A 
ATOM     70  C   UNL A   1      50.316  26.036  29.049  1.00  0.00     0.040 A 
ATOM     71  F   UNL A   1      48.646  27.098  27.789  1.00  0.00    -0.206 F 
ATOM     72  C   UNL A   1      50.745  25.440  30.233  1.00  0.00     0.006 A 
ENDBRANCH  51  65
BRANCH  52  73
ATOM     73  C   UNL A   1      38.534  29.152  28.989  1.00  0.00     0.057 A 
ATOM     74  C   UNL A   1      38.008  29.644  27.789  1.00  0.00     0.134 A 
ATOM     75  C   UNL A   1      37.670  29.081  30.090  1.00  0.00     0.134 A 
ATOM     76  F   UNL A   1      38.789  29.750  26.704  1.00  0.00    -0.206 F 
ATOM     77  C   UNL A   1      36.685  30.078  27.693  1.00  0.00     0.040 A 
ATOM     78  C   UNL A   1      36.337  29.485  29.999  1.00  0.00     0.040 A 
ATOM     79  F   UNL A   1      38.107  28.609  31.266  1.00  0.00    -0.206 F 
ATOM     80  C   UNL A   1      35.844  29.996  28.800  1.00  0.00     0.006 A 
ENDBRANCH  52  73
BRANCH  64  81
ATOM     81  C   UNL A   1      44.276  32.376  31.264  1.00  0.00     0.057 A 
ATOM     82  C   UNL A   1      44.580  33.435  30.401  1.00  0.00     0.134 A 
ATOM     83  C   UNL A   1      44.164  32.664  32.630  1.00  0.00     0.134 A 
ATOM     84  F   UNL A   1      44.713  33.224  29.083  1.00  0.00    -0.206 F 
ATOM     85  C   UNL A   1      44.785  34.730  30.883  1.00  0.00     0.040 A 
ATOM     86  C   UNL A   1      44.336  33.957  33.119  1.00  0.00     0.040 A 
ATOM     87  F   UNL A   1      43.864  31.695  33.509  1.00  0.00    -0.206 F 
ATOM     88  C   UNL A   1      44.655  34.994  32.245  1.00  0.00     0.006 A 
ENDBRANCH  64  81
ENDBRANCH  38  39
ENDBRANCH  30  33
ENDBRANCH  28  29
ENDBRANCH   1  28
TORSDOF 12
ENDMDL
MODEL 2
REMARK VINA RESULT:     -11.7      1.081      6.346
REMARK SMILES [NH3+][C@@]1(C(=O)NCCCNC(=O)c2ccc(-c3c4nc(c(-c5c(F)cccc5F)c5ccc([nH]5)c(-c5c(F)cccc5F)c5nc(c(-c6c(F)cccc6F)c6ccc3[nH]6)C=C5)C=C4)cc2)CCC[C@H]([N@@H+]2CC[N@@H+]3CCC[C@@H]3C2)C1
REMARK SMILES IDX 7 1 6 2 5 3 3 4 4 5 2 7 66 8 79 9 67 10 69 11 68 12 1 13
REMARK SMILES IDX 70 17 71 18 78 19 72 21 77 22 73 23 76 24 74 25 75 27 8 28
REMARK SMILES IDX 9 29 10 30 11 32 12 33 13 34 65 35 14 36 64 37 15 38 16 39
REMARK SMILES IDX 17 40 58 41 18 42 63 43 57 44 59 45 19 46 62 47 56 48 55 49
REMARK SMILES IDX 20 51 46 52 29 53 45 54 30 55 33 56 44 57 60 58 31 59 32 60
REMARK SMILES IDX 43 62 61 63 34 64 21 65 22 66 27 67 23 68 24 69 26 70 28 71
REMARK SMILES IDX 25 72 47 73 48 74 53 75 49 76 50 77 52 78 54 79 51 80 35 81
REMARK SMILES IDX 36 82 41 83 37 84 38 85 40 86 42 87 39 88
REMARK H PARENT 5 6 1 14 1 15 1 16 70 20 73 26 9 31 59 50 33 61
REMARK Flexibility Score: inf
ROOT
ATOM      1  C   UNL A   1      37.394  20.077  24.980  1.00  0.00     0.042 C 
ENDROOT
BRANCH   1   2
ATOM      2  C   UNL A   1      36.291  21.114  24.946  1.00  0.00     0.118 C 
BRANCH   2   3
ATOM      3  N   UNL A   1      35.607  21.234  26.225  1.00  0.00    -0.351 N 
ATOM      4  C   UNL A   1      34.297  21.419  26.554  1.00  0.00     0.281 C 
ATOM      5  O   UNL A   1      34.043  21.432  27.764  1.00  0.00    -0.268 OA
ATOM      6  H   UNL A   1      36.207  21.171  27.004  1.00  0.00     0.163 HD
BRANCH   4   7
ATOM      7  C   UNL A   1      33.185  21.691  25.502  1.00  0.00     0.179 C 
ATOM      8  C   UNL A   1      33.193  20.535  24.480  1.00  0.00     0.079 C 
ATOM      9  C   UNL A   1      33.499  23.018  24.774  1.00  0.00     0.144 C 
ATOM     10  C   UNL A   1      32.273  20.778  23.278  1.00  0.00     0.013 C 
ATOM     11  C   UNL A   1      32.450  23.289  23.684  1.00  0.00     0.191 C 
ATOM     12  C   UNL A   1      32.485  22.155  22.639  1.00  0.00     0.065 C 
BRANCH   7  13
ATOM     13  N   UNL A   1      31.858  21.826  26.134  1.00  0.00    -0.345 N 
ATOM     14  H   UNL A   1      31.472  20.899  26.319  1.00  0.00     0.345 HD
ATOM     15  H   UNL A   1      31.234  22.336  25.510  1.00  0.00     0.345 HD
ATOM     16  H   UNL A   1      31.950  22.335  27.013  1.00  0.00     0.345 HD
ENDBRANCH   7  13
BRANCH  11  17
ATOM     17  N   UNL A   1      32.543  24.662  23.180  1.00  0.00    -0.323 N 
ATOM     18  C   UNL A   1      33.539  25.472  23.907  1.00  0.00     0.324 C 
ATOM     19  C   UNL A   1      31.264  25.351  22.972  1.00  0.00     0.328 C 
ATOM     20  H   UNL A   1      32.900  24.551  22.231  1.00  0.00     0.348 HD
ATOM     21  C   UNL A   1      32.952  26.650  24.700  1.00  0.00     0.324 C 
ATOM     22  C   UNL A   1      31.394  26.886  22.816  1.00  0.00     0.240 C 
ATOM     23  N   UNL A   1      32.224  27.574  23.830  1.00  0.00    -0.323 N 
ATOM     24  C   UNL A   1      30.029  27.576  22.873  1.00  0.00     0.077 C 
ATOM     25  C   UNL A   1      31.382  28.503  24.579  1.00  0.00     0.263 C 
ATOM     26  H   UNL A   1      32.953  28.100  23.350  1.00  0.00     0.348 HD
ATOM     27  C   UNL A   1      30.310  28.888  23.579  1.00  0.00     0.068 C 
ENDBRANCH  11  17
ENDBRANCH   4   7
ENDBRANCH   2   3
ENDBRANCH   1   2
BRANCH   1  28
ATOM     28  C   UNL A   1      38.646  20.580  25.669  1.00  0.00     0.118 C 
BRANCH  28  29
ATOM     29  N   UNL A   1      39.675  19.549  25.766  1.00  0.00    -0.352 N 
ATOM     30  C   UNL A   1      41.017  19.656  26.042  1.00  0.00     0.251 C 
ATOM     31  H   UNL A   1      39.357  18.630  25.610  1.00  0.00     0.163 HD
ATOM     32  O   UNL A   1      41.767  18.712  25.827  1.00  0.00    -0.269 OA
BRANCH  30  33
ATOM     33  C   UNL A   1      41.551  20.922  26.584  1.00  0.00     0.039 A 
ATOM     34  C   UNL A   1      42.059  21.885  25.710  1.00  0.00     0.014 A 
ATOM     35  C   UNL A   1      41.546  21.154  27.959  1.00  0.00     0.014 A 
ATOM     36  C   UNL A   1      42.491  23.111  26.217  1.00  0.00     0.010 A 
ATOM     37  C   UNL A   1      41.851  22.416  28.445  1.00  0.00     0.010 A 
ATOM     38  C   UNL A   1      42.348  23.402  27.584  1.00  0.00    -0.014 A 
BRANCH  38  39
ATOM     39  C   UNL A   1      42.745  24.712  28.154  1.00  0.00     0.031 A 
ATOM     40  C   UNL A   1      41.702  25.776  28.369  1.00  0.00     0.074 A 
ATOM     41  C   UNL A   1      44.044  24.970  28.400  1.00  0.00     0.049 A 
ATOM     42  N   UNL A   1      41.854  27.020  28.743  1.00  0.00    -0.248 NA
ATOM     43  C   UNL A   1      40.305  25.404  28.084  1.00  0.00     0.031 C 
ATOM     44  C   UNL A   1      45.154  24.039  28.181  1.00  0.00     0.029 A 
ATOM     45  N   UNL A   1      44.654  26.103  28.877  1.00  0.00    -0.354 N 
ATOM     46  C   UNL A   1      40.582  27.577  28.722  1.00  0.00     0.074 A 
ATOM     47  C   UNL A   1      39.680  26.562  28.228  1.00  0.00     0.031 C 
ATOM     48  C   UNL A   1      46.303  24.629  28.546  1.00  0.00     0.029 A 
ATOM     49  C   UNL A   1      46.019  25.993  28.980  1.00  0.00     0.049 A 
ATOM     50  H   UNL A   1      44.159  26.918  29.123  1.00  0.00     0.167 HD
ATOM     51  C   UNL A   1      40.193  28.813  29.111  1.00  0.00     0.037 A 
ATOM     52  C   UNL A   1      46.938  26.897  29.366  1.00  0.00     0.037 A 
ATOM     53  C   UNL A   1      41.090  29.809  29.631  1.00  0.00     0.049 A 
ATOM     54  C   UNL A   1      46.481  28.268  29.786  1.00  0.00     0.074 A 
ATOM     55  C   UNL A   1      40.792  31.076  30.100  1.00  0.00     0.029 A 
ATOM     56  N   UNL A   1      42.462  29.648  29.748  1.00  0.00    -0.354 N 
ATOM     57  N   UNL A   1      45.266  28.761  29.822  1.00  0.00    -0.248 NA
ATOM     58  C   UNL A   1      47.522  29.207  30.227  1.00  0.00     0.031 C 
ATOM     59  C   UNL A   1      41.991  31.698  30.460  1.00  0.00     0.029 A 
ATOM     60  C   UNL A   1      43.029  30.799  30.268  1.00  0.00     0.049 A 
ATOM     61  H   UNL A   1      42.960  28.836  29.500  1.00  0.00     0.167 HD
ATOM     62  C   UNL A   1      45.393  30.050  30.321  1.00  0.00     0.074 A 
ATOM     63  C   UNL A   1      46.801  30.259  30.586  1.00  0.00     0.031 C 
ATOM     64  C   UNL A   1      44.431  30.980  30.541  1.00  0.00     0.037 A 
BRANCH  51  65
ATOM     65  C   UNL A   1      38.733  29.148  29.003  1.00  0.00     0.057 A 
ATOM     66  C   UNL A   1      37.870  29.054  30.103  1.00  0.00     0.134 A 
ATOM     67  C   UNL A   1      38.188  29.600  27.795  1.00  0.00     0.134 A 
ATOM     68  F   UNL A   1      38.322  28.614  31.287  1.00  0.00    -0.206 F 
ATOM     69  C   UNL A   1      36.514  29.372  29.999  1.00  0.00     0.040 A 
ATOM     70  C   UNL A   1      36.842  29.951  27.686  1.00  0.00     0.040 A 
ATOM     71  F   UNL A   1      38.957  29.717  26.702  1.00  0.00    -0.206 F 
ATOM     72  C   UNL A   1      35.998  29.831  28.790  1.00  0.00     0.006 A 
ENDBRANCH  51  65
BRANCH  52  73
ATOM     73  C   UNL A   1      48.380  26.537  29.390  1.00  0.00     0.057 A 
ATOM     74  C   UNL A   1      49.210  26.798  28.293  1.00  0.00     0.134 A 
ATOM     75  C   UNL A   1      48.959  25.906  30.499  1.00  0.00     0.134 A 
ATOM     76  F   UNL A   1      48.712  27.386  27.195  1.00  0.00    -0.206 F 
ATOM     77  C   UNL A   1      50.553  26.418  28.285  1.00  0.00     0.040 A 
ATOM     78  C   UNL A   1      50.307  25.547  30.515  1.00  0.00     0.040 A 
ATOM     79  F   UNL A   1      48.223  25.638  31.587  1.00  0.00    -0.206 F 
ATOM     80  C   UNL A   1      51.107  25.793  29.399  1.00  0.00     0.006 A 
ENDBRANCH  52  73
BRANCH  64  81
ATOM     81  C   UNL A   1      44.860  32.287  31.143  1.00  0.00     0.057 A 
ATOM     82  C   UNL A   1      45.214  33.388  30.354  1.00  0.00     0.134 A 
ATOM     83  C   UNL A   1      44.871  32.455  32.534  1.00  0.00     0.134 A 
ATOM     84  F   UNL A   1      45.235  33.288  29.017  1.00  0.00    -0.206 F 
ATOM     85  C   UNL A   1      45.587  34.604  30.929  1.00  0.00     0.040 A 
ATOM     86  C   UNL A   1      45.212  33.674  33.118  1.00  0.00     0.040 A 
ATOM     87  F   UNL A   1      44.532  31.443  33.346  1.00  0.00    -0.206 F 
ATOM     88  C   UNL A   1      45.579  34.751  32.314  1.00  0.00     0.006 A 
ENDBRANCH  64  81
ENDBRANCH  38  39
ENDBRANCH  30  33
ENDBRANCH  28  29
ENDBRANCH   1  28
TORSDOF 12
ENDMDL
MODEL 3
REMARK VINA RESULT:     -11.6      3.990      9.780
REMARK SMILES [NH3+][C@@]1(C(=O)NCCCNC(=O)c2ccc(-c3c4nc(c(-c5c(F)cccc5F)c5ccc([nH]5)c(-c5c(F)cccc5F)c5nc(c(-c6c(F)cccc6F)c6ccc3[nH]6)C=C5)C=C4)cc2)CCC[C@H]([N@@H+]2CC[N@@H+]3CCC[C@@H]3C2)C1
REMARK SMILES IDX 7 1 6 2 5 3 3 4 4 5 2 7 66 8 79 9 67 10 69 11 68 12 1 13
REMARK SMILES IDX 70 17 71 18 78 19 72 21 77 22 73 23 76 24 74 25 75 27 8 28
REMARK SMILES IDX 9 29 10 30 11 32 12 33 13 34 65 35 14 36 64 37 15 38 16 39
REMARK SMILES IDX 17 40 58 41 18 42 63 43 57 44 59 45 19 46 62 47 56 48 55 49
REMARK SMILES IDX 20 51 46 52 29 53 45 54 30 55 33 56 44 57 60 58 31 59 32 60
REMARK SMILES IDX 43 62 61 63 34 64 21 65 22 66 27 67 23 68 24 69 26 70 28 71
REMARK SMILES IDX 25 72 47 73 48 74 53 75 49 76 50 77 52 78 54 79 51 80 35 81
REMARK SMILES IDX 36 82 41 83 37 84 38 85 40 86 42 87 39 88
REMARK H PARENT 5 6 1 14 1 15 1 16 70 20 73 26 9 31 59 50 33 61
REMARK Flexibility Score: inf
ROOT
ATOM      1  C   UNL A   1      34.595  33.615  28.000  1.00  0.00     0.042 C 
ENDROOT
BRANCH   1   2
ATOM      2  C   UNL A   1      33.276  34.199  28.460  1.00  0.00     0.118 C 
BRANCH   2   3
ATOM      3  N   UNL A   1      33.278  35.654  28.435  1.00  0.00    -0.351 N 
ATOM      4  C   UNL A   1      33.274  36.590  29.425  1.00  0.00     0.281 C 
ATOM      5  O   UNL A   1      33.324  37.769  29.052  1.00  0.00    -0.268 OA
ATOM      6  H   UNL A   1      33.282  36.036  27.527  1.00  0.00     0.163 HD
BRANCH   4   7
ATOM      7  C   UNL A   1      33.123  36.238  30.932  1.00  0.00     0.179 C 
ATOM      8  C   UNL A   1      33.409  37.509  31.757  1.00  0.00     0.079 C 
ATOM      9  C   UNL A   1      34.158  35.149  31.297  1.00  0.00     0.144 C 
ATOM     10  C   UNL A   1      33.483  37.252  33.266  1.00  0.00     0.013 C 
ATOM     11  C   UNL A   1      34.078  34.818  32.796  1.00  0.00     0.191 C 
ATOM     12  C   UNL A   1      34.403  36.079  33.621  1.00  0.00     0.065 C 
BRANCH   7  13
ATOM     13  N   UNL A   1      31.781  35.703  31.234  1.00  0.00    -0.345 N 
ATOM     14  H   UNL A   1      31.101  36.101  30.586  1.00  0.00     0.345 HD
ATOM     15  H   UNL A   1      31.524  35.949  32.190  1.00  0.00     0.345 HD
ATOM     16  H   UNL A   1      31.789  34.688  31.136  1.00  0.00     0.345 HD
ENDBRANCH   7  13
BRANCH  11  17
ATOM     17  N   UNL A   1      34.827  33.600  33.116  1.00  0.00    -0.323 N 
ATOM     18  C   UNL A   1      35.283  33.560  34.518  1.00  0.00     0.324 C 
ATOM     19  C   UNL A   1      35.864  33.220  32.149  1.00  0.00     0.328 C 
ATOM     20  H   UNL A   1      34.137  32.855  33.015  1.00  0.00     0.348 HD
ATOM     21  C   UNL A   1      36.809  33.591  34.698  1.00  0.00     0.324 C 
ATOM     22  C   UNL A   1      36.877  32.180  32.689  1.00  0.00     0.240 C 
ATOM     23  N   UNL A   1      37.453  32.465  34.022  1.00  0.00    -0.323 N 
ATOM     24  C   UNL A   1      38.077  32.024  31.752  1.00  0.00     0.077 C 
ATOM     25  C   UNL A   1      38.896  32.644  33.885  1.00  0.00     0.263 C 
ATOM     26  H   UNL A   1      37.273  31.666  34.630  1.00  0.00     0.348 HD
ATOM     27  C   UNL A   1      39.243  31.779  32.690  1.00  0.00     0.068 C 
ENDBRANCH  11  17
ENDBRANCH   4   7
ENDBRANCH   2   3
ENDBRANCH   1   2
BRANCH   1  28
ATOM     28  C   UNL A   1      35.051  32.454  28.861  1.00  0.00     0.118 C 
BRANCH  28  29
ATOM     29  N   UNL A   1      34.384  31.206  28.504  1.00  0.00    -0.352 N 
ATOM     30  C   UNL A   1      34.910  29.990  28.137  1.00  0.00     0.251 C 
ATOM     31  H   UNL A   1      33.400  31.239  28.529  1.00  0.00     0.163 HD
ATOM     32  O   UNL A   1      34.195  29.138  27.627  1.00  0.00    -0.269 OA
BRANCH  30  33
ATOM     33  C   UNL A   1      36.347  29.725  28.350  1.00  0.00     0.039 A 
ATOM     34  C   UNL A   1      36.785  29.262  29.593  1.00  0.00     0.014 A 
ATOM     35  C   UNL A   1      37.261  29.934  27.317  1.00  0.00     0.014 A 
ATOM     36  C   UNL A   1      38.131  28.938  29.769  1.00  0.00     0.010 A 
ATOM     37  C   UNL A   1      38.566  29.488  27.452  1.00  0.00     0.010 A 
ATOM     38  C   UNL A   1      39.022  29.007  28.686  1.00  0.00    -0.014 A 
BRANCH  38  39
ATOM     39  C   UNL A   1      40.449  28.621  28.816  1.00  0.00     0.031 A 
ATOM     40  C   UNL A   1      41.455  29.642  29.276  1.00  0.00     0.074 A 
ATOM     41  C   UNL A   1      40.848  27.389  28.447  1.00  0.00     0.049 A 
ATOM     42  N   UNL A   1      42.758  29.547  29.346  1.00  0.00    -0.248 NA
ATOM     43  C   UNL A   1      40.931  30.961  29.671  1.00  0.00     0.031 C 
ATOM     44  C   UNL A   1      39.974  26.330  27.934  1.00  0.00     0.029 A 
ATOM     45  N   UNL A   1      42.097  26.822  28.433  1.00  0.00    -0.354 N 
ATOM     46  C   UNL A   1      43.203  30.792  29.773  1.00  0.00     0.074 A 
ATOM     47  C   UNL A   1      42.044  31.647  29.876  1.00  0.00     0.031 C 
ATOM     48  C   UNL A   1      40.710  25.237  27.680  1.00  0.00     0.029 A 
ATOM     49  C   UNL A   1      42.111  25.530  27.967  1.00  0.00     0.049 A 
ATOM     50  H   UNL A   1      42.907  27.297  28.730  1.00  0.00     0.167 HD
ATOM     51  C   UNL A   1      44.462  31.178  30.086  1.00  0.00     0.037 A 
ATOM     52  C   UNL A   1      43.141  24.684  27.779  1.00  0.00     0.037 A 
ATOM     53  C   UNL A   1      45.608  30.313  30.011  1.00  0.00     0.049 A 
ATOM     54  C   UNL A   1      44.532  25.140  28.126  1.00  0.00     0.074 A 
ATOM     55  C   UNL A   1      46.920  30.589  30.352  1.00  0.00     0.029 A 
ATOM     56  N   UNL A   1      45.576  29.001  29.563  1.00  0.00    -0.354 N 
ATOM     57  N   UNL A   1      44.931  26.300  28.590  1.00  0.00    -0.248 NA
ATOM     58  C   UNL A   1      45.616  24.168  27.929  1.00  0.00     0.031 C 
ATOM     59  C   UNL A   1      47.690  29.458  30.067  1.00  0.00     0.029 A 
ATOM     60  C   UNL A   1      46.849  28.458  29.604  1.00  0.00     0.049 A 
ATOM     61  H   UNL A   1      44.768  28.525  29.263  1.00  0.00     0.167 HD
ATOM     62  C   UNL A   1      46.302  26.185  28.775  1.00  0.00     0.074 A 
ATOM     63  C   UNL A   1      46.665  24.838  28.384  1.00  0.00     0.031 C 
ATOM     64  C   UNL A   1      47.185  27.109  29.227  1.00  0.00     0.037 A 
BRANCH  51  65
ATOM     65  C   UNL A   1      44.659  32.592  30.551  1.00  0.00     0.057 A 
ATOM     66  C   UNL A   1      44.922  33.636  29.653  1.00  0.00     0.134 A 
ATOM     67  C   UNL A   1      44.553  32.922  31.908  1.00  0.00     0.134 A 
ATOM     68  F   UNL A   1      45.051  33.387  28.341  1.00  0.00    -0.206 F 
ATOM     69  C   UNL A   1      45.098  34.950  30.090  1.00  0.00     0.040 A 
ATOM     70  C   UNL A   1      44.696  34.237  32.353  1.00  0.00     0.040 A 
ATOM     71  F   UNL A   1      44.299  31.974  32.822  1.00  0.00    -0.206 F 
ATOM     72  C   UNL A   1      44.977  35.255  31.443  1.00  0.00     0.006 A 
ENDBRANCH  51  65
BRANCH  52  73
ATOM     73  C   UNL A   1      42.900  23.316  27.250  1.00  0.00     0.057 A 
ATOM     74  C   UNL A   1      43.060  23.026  25.890  1.00  0.00     0.134 A 
ATOM     75  C   UNL A   1      42.484  22.271  28.086  1.00  0.00     0.134 A 
ATOM     76  F   UNL A   1      43.441  23.988  25.036  1.00  0.00    -0.206 F 
ATOM     77  C   UNL A   1      42.787  21.758  25.375  1.00  0.00     0.040 A 
ATOM     78  C   UNL A   1      42.237  20.991  27.588  1.00  0.00     0.040 A 
ATOM     79  F   UNL A   1      42.323  22.478  29.401  1.00  0.00    -0.206 F 
ATOM     80  C   UNL A   1      42.377  20.734  26.225  1.00  0.00     0.006 A 
ENDBRANCH  52  73
BRANCH  64  81
ATOM     81  C   UNL A   1      48.617  26.683  29.373  1.00  0.00     0.057 A 
ATOM     82  C   UNL A   1      49.572  26.936  28.382  1.00  0.00     0.134 A 
ATOM     83  C   UNL A   1      49.051  26.051  30.545  1.00  0.00     0.134 A 
ATOM     84  F   UNL A   1      49.219  27.527  27.230  1.00  0.00    -0.206 F 
ATOM     85  C   UNL A   1      50.906  26.555  28.542  1.00  0.00     0.040 A 
ATOM     86  C   UNL A   1      50.385  25.694  30.730  1.00  0.00     0.040 A 
ATOM     87  F   UNL A   1      48.187  25.790  31.539  1.00  0.00    -0.206 F 
ATOM     88  C   UNL A   1      51.316  25.939  29.723  1.00  0.00     0.006 A 
ENDBRANCH  64  81
ENDBRANCH  38  39
ENDBRANCH  30  33
ENDBRANCH  28  29
ENDBRANCH   1  28
TORSDOF 12
ENDMDL
