MODEL 1
REMARK VINA RESULT:     -10.1      0.000      0.000
REMARK SMILES O=C(COc1nc(NCc2ccc(F)cc2)nc2c1CCC2)NCCCNC(=O)c1ccc(-c2c3nc(c(-c4c(F)cccc4F)c4ccc([nH]4)c(-c4c(F)cccc4F)c4nc(c(-c5c(F)cccc5F)c5ccc2[nH]5)C=C4)C=C3)cc1
REMARK SMILES IDX 1 1 2 2 23 3 3 5 4 6 5 7 6 8 19 9 7 10 18 11 20 12 17 13
REMARK SMILES IDX 22 14 21 15 8 16 9 18 10 19 11 20 16 21 12 22 15 23 13 24
REMARK SMILES IDX 14 25 24 26 25 27 26 28 27 29 28 30 29 32 30 33 31 34 83 35
REMARK SMILES IDX 32 36 82 37 33 38 34 39 35 40 76 41 36 42 81 43 75 44 77 45
REMARK SMILES IDX 37 46 80 47 74 48 73 49 38 51 64 52 47 53 63 54 48 55 51 56
REMARK SMILES IDX 62 57 78 58 49 59 50 60 61 62 79 63 52 64 39 65 40 66 45 67
REMARK SMILES IDX 41 68 42 69 44 70 46 71 43 72 65 73 66 74 71 75 67 76 68 77
REMARK SMILES IDX 70 78 72 79 69 80 53 81 54 82 59 83 55 84 56 85 58 86 60 87
REMARK SMILES IDX 57 88
REMARK H PARENT 23 4 8 17 27 31 77 50 51 61
REMARK Flexibility Score: inf
ROOT
ATOM      1  O   UNL A   1      46.028  22.097  26.147  1.00  0.00    -0.271 OA
ATOM      2  C   UNL A   1      45.918  22.228  24.931  1.00  0.00     0.258 C 
ATOM      3  N   UNL A   1      45.716  21.169  24.070  1.00  0.00    -0.353 N 
ATOM      4  H   UNL A   1      45.482  21.355  23.132  1.00  0.00     0.163 HD
ENDROOT
BRANCH   2   5
ATOM      5  C   UNL A   1      45.911  23.609  24.253  1.00  0.00     0.331 C 
BRANCH   5   6
ATOM      6  O   UNL A   1      44.768  24.446  24.407  1.00  0.00    -0.467 OA
BRANCH   6   7
ATOM      7  C   UNL A   1      45.101  25.640  25.001  1.00  0.00     0.222 A 
ATOM      8  N   UNL A   1      46.403  25.923  25.152  1.00  0.00    -0.177 NA
ATOM      9  C   UNL A   1      44.124  26.530  25.314  1.00  0.00     0.036 A 
ATOM     10  C   UNL A   1      46.730  27.112  25.688  1.00  0.00     0.226 A 
ATOM     11  C   UNL A   1      44.555  27.715  25.860  1.00  0.00     0.053 A 
ATOM     12  C   UNL A   1      42.643  26.450  25.252  1.00  0.00     0.043 C 
ATOM     13  N   UNL A   1      45.838  28.037  26.067  1.00  0.00    -0.218 NA
ATOM     14  C   UNL A   1      43.390  28.582  26.247  1.00  0.00     0.057 C 
ATOM     15  C   UNL A   1      42.263  27.929  25.432  1.00  0.00     0.011 C 
BRANCH  10  16
ATOM     16  N   UNL A   1      48.069  27.330  25.804  1.00  0.00    -0.350 N 
ATOM     17  H   UNL A   1      48.421  27.564  26.692  1.00  0.00     0.164 HD
BRANCH  16  18
ATOM     18  C   UNL A   1      49.002  27.241  24.715  1.00  0.00     0.152 C 
BRANCH  18  19
ATOM     19  C   UNL A   1      50.288  26.544  25.117  1.00  0.00    -0.029 A 
ATOM     20  C   UNL A   1      50.365  25.674  26.221  1.00  0.00     0.008 A 
ATOM     21  C   UNL A   1      51.430  26.704  24.312  1.00  0.00     0.008 A 
ATOM     22  C   UNL A   1      51.555  25.010  26.525  1.00  0.00     0.039 A 
ATOM     23  C   UNL A   1      52.618  26.035  24.615  1.00  0.00     0.039 A 
ATOM     24  C   UNL A   1      52.671  25.196  25.720  1.00  0.00     0.123 A 
ATOM     25  F   UNL A   1      53.810  24.552  26.008  1.00  0.00    -0.207 F 
ENDBRANCH  18  19
ENDBRANCH  16  18
ENDBRANCH  10  16
ENDBRANCH   6   7
ENDBRANCH   5   6
ENDBRANCH   2   5
BRANCH   3  26
ATOM     26  C   UNL A   1      45.838  19.793  24.501  1.00  0.00     0.117 C 
BRANCH  26  27
ATOM     27  C   UNL A   1      44.528  19.023  24.421  1.00  0.00     0.042 C 
BRANCH  27  28
ATOM     28  C   UNL A   1      43.833  18.830  25.764  1.00  0.00     0.118 C 
BRANCH  28  29
ATOM     29  N   UNL A   1      42.378  18.838  25.666  1.00  0.00    -0.352 N 
ATOM     30  C   UNL A   1      41.457  19.750  26.118  1.00  0.00     0.251 C 
ATOM     31  H   UNL A   1      41.993  18.061  25.200  1.00  0.00     0.163 HD
ATOM     32  O   UNL A   1      40.258  19.489  26.047  1.00  0.00    -0.269 OA
BRANCH  30  33
ATOM     33  C   UNL A   1      41.890  21.030  26.718  1.00  0.00     0.039 A 
ATOM     34  C   UNL A   1      42.278  22.070  25.869  1.00  0.00     0.014 A 
ATOM     35  C   UNL A   1      41.937  21.207  28.104  1.00  0.00     0.014 A 
ATOM     36  C   UNL A   1      42.637  23.309  26.406  1.00  0.00     0.010 A 
ATOM     37  C   UNL A   1      42.220  22.463  28.635  1.00  0.00     0.010 A 
ATOM     38  C   UNL A   1      42.571  23.528  27.791  1.00  0.00    -0.014 A 
BRANCH  38  39
ATOM     39  C   UNL A   1      42.861  24.866  28.369  1.00  0.00     0.031 A 
ATOM     40  C   UNL A   1      41.766  25.886  28.510  1.00  0.00     0.074 A 
ATOM     41  C   UNL A   1      44.121  25.176  28.731  1.00  0.00     0.049 A 
ATOM     42  N   UNL A   1      41.835  27.114  28.962  1.00  0.00    -0.248 NA
ATOM     43  C   UNL A   1      40.420  25.484  28.072  1.00  0.00     0.031 C 
ATOM     44  C   UNL A   1      45.276  24.284  28.613  1.00  0.00     0.029 A 
ATOM     45  N   UNL A   1      44.643  26.324  29.273  1.00  0.00    -0.354 N 
ATOM     46  C   UNL A   1      40.548  27.625  28.863  1.00  0.00     0.074 A 
ATOM     47  C   UNL A   1      39.731  26.601  28.252  1.00  0.00     0.031 C 
ATOM     48  C   UNL A   1      46.362  24.905  29.102  1.00  0.00     0.029 A 
ATOM     49  C   UNL A   1      45.991  26.251  29.529  1.00  0.00     0.049 A 
ATOM     50  H   UNL A   1      44.102  27.125  29.461  1.00  0.00     0.167 HD
ATOM     51  C   UNL A   1      40.084  28.829  29.274  1.00  0.00     0.037 A 
ATOM     52  C   UNL A   1      46.835  27.164  30.047  1.00  0.00     0.037 A 
ATOM     53  C   UNL A   1      40.897  29.841  29.894  1.00  0.00     0.049 A 
ATOM     54  C   UNL A   1      46.302  28.510  30.455  1.00  0.00     0.074 A 
ATOM     55  C   UNL A   1      40.508  31.079  30.377  1.00  0.00     0.029 A 
ATOM     56  N   UNL A   1      42.261  29.735  30.117  1.00  0.00    -0.354 N 
ATOM     57  N   UNL A   1      45.072  28.961  30.405  1.00  0.00    -0.248 NA
ATOM     58  C   UNL A   1      47.273  29.475  30.992  1.00  0.00     0.031 C 
ATOM     59  C   UNL A   1      41.644  31.742  30.846  1.00  0.00     0.029 A 
ATOM     60  C   UNL A   1      42.734  30.896  30.709  1.00  0.00     0.049 A 
ATOM     61  H   UNL A   1      42.812  28.951  29.891  1.00  0.00     0.167 HD
ATOM     62  C   UNL A   1      45.116  30.247  30.928  1.00  0.00     0.074 A 
ATOM     63  C   UNL A   1      46.491  30.502  31.300  1.00  0.00     0.031 C 
ATOM     64  C   UNL A   1      44.104  31.135  31.084  1.00  0.00     0.037 A 
BRANCH  51  65
ATOM     65  C   UNL A   1      38.624  29.117  29.082  1.00  0.00     0.057 A 
ATOM     66  C   UNL A   1      37.710  29.009  30.140  1.00  0.00     0.134 A 
ATOM     67  C   UNL A   1      38.135  29.570  27.850  1.00  0.00     0.134 A 
ATOM     68  F   UNL A   1      38.111  28.572  31.342  1.00  0.00    -0.206 F 
ATOM     69  C   UNL A   1      36.361  29.328  29.975  1.00  0.00     0.040 A 
ATOM     70  C   UNL A   1      36.793  29.918  27.681  1.00  0.00     0.040 A 
ATOM     71  F   UNL A   1      38.955  29.703  26.798  1.00  0.00    -0.206 F 
ATOM     72  C   UNL A   1      35.901  29.795  28.745  1.00  0.00     0.006 A 
ENDBRANCH  51  65
BRANCH  52  73
ATOM     73  C   UNL A   1      48.266  26.819  30.245  1.00  0.00     0.057 A 
ATOM     74  C   UNL A   1      48.666  25.978  31.290  1.00  0.00     0.134 A 
ATOM     75  C   UNL A   1      49.264  27.302  29.388  1.00  0.00     0.134 A 
ATOM     76  F   UNL A   1      47.760  25.499  32.155  1.00  0.00    -0.206 F 
ATOM     77  C   UNL A   1      50.006  25.636  31.482  1.00  0.00     0.040 A 
ATOM     78  C   UNL A   1      50.604  26.947  29.554  1.00  0.00     0.040 A 
ATOM     79  F   UNL A   1      48.946  28.108  28.365  1.00  0.00    -0.206 F 
ATOM     80  C   UNL A   1      50.978  26.116  30.607  1.00  0.00     0.006 A 
ENDBRANCH  52  73
BRANCH  64  81
ATOM     81  C   UNL A   1      44.428  32.463  31.704  1.00  0.00     0.057 A 
ATOM     82  C   UNL A   1      44.752  33.581  30.926  1.00  0.00     0.134 A 
ATOM     83  C   UNL A   1      44.323  32.647  33.090  1.00  0.00     0.134 A 
ATOM     84  F   UNL A   1      44.878  33.470  29.595  1.00  0.00    -0.206 F 
ATOM     85  C   UNL A   1      44.968  34.833  31.504  1.00  0.00     0.040 A 
ATOM     86  C   UNL A   1      44.509  33.899  33.676  1.00  0.00     0.040 A 
ATOM     87  F   UNL A   1      44.004  31.620  33.891  1.00  0.00    -0.206 F 
ATOM     88  C   UNL A   1      44.835  34.996  32.882  1.00  0.00     0.006 A 
ENDBRANCH  64  81
ENDBRANCH  38  39
ENDBRANCH  30  33
ENDBRANCH  28  29
ENDBRANCH  27  28
ENDBRANCH  26  27
ENDBRANCH   3  26
TORSDOF 15
ENDMDL
MODEL 2
REMARK VINA RESULT:     -10.1      0.687      6.198
REMARK SMILES O=C(COc1nc(NCc2ccc(F)cc2)nc2c1CCC2)NCCCNC(=O)c1ccc(-c2c3nc(c(-c4c(F)cccc4F)c4ccc([nH]4)c(-c4c(F)cccc4F)c4nc(c(-c5c(F)cccc5F)c5ccc2[nH]5)C=C4)C=C3)cc1
REMARK SMILES IDX 1 1 2 2 23 3 3 5 4 6 5 7 6 8 19 9 7 10 18 11 20 12 17 13
REMARK SMILES IDX 22 14 21 15 8 16 9 18 10 19 11 20 16 21 12 22 15 23 13 24
REMARK SMILES IDX 14 25 24 26 25 27 26 28 27 29 28 30 29 32 30 33 31 34 83 35
REMARK SMILES IDX 32 36 82 37 33 38 34 39 35 40 76 41 36 42 81 43 75 44 77 45
REMARK SMILES IDX 37 46 80 47 74 48 73 49 38 51 64 52 47 53 63 54 48 55 51 56
REMARK SMILES IDX 62 57 78 58 49 59 50 60 61 62 79 63 52 64 39 65 40 66 45 67
REMARK SMILES IDX 41 68 42 69 44 70 46 71 43 72 65 73 66 74 71 75 67 76 68 77
REMARK SMILES IDX 70 78 72 79 69 80 53 81 54 82 59 83 55 84 56 85 58 86 60 87
REMARK SMILES IDX 57 88
REMARK H PARENT 23 4 8 17 27 31 77 50 51 61
REMARK Flexibility Score: inf
ROOT
ATOM      1  O   UNL A   1      45.905  22.295  26.318  1.00  0.00    -0.271 OA
ATOM      2  C   UNL A   1      46.039  22.494  25.113  1.00  0.00     0.258 C 
ATOM      3  N   UNL A   1      46.162  21.480  24.186  1.00  0.00    -0.353 N 
ATOM      4  H   UNL A   1      46.110  21.701  23.228  1.00  0.00     0.163 HD
ENDROOT
BRANCH   2   5
ATOM      5  C   UNL A   1      45.999  23.908  24.508  1.00  0.00     0.331 C 
BRANCH   5   6
ATOM      6  O   UNL A   1      44.797  24.667  24.610  1.00  0.00    -0.467 OA
BRANCH   6   7
ATOM      7  C   UNL A   1      45.024  25.880  25.216  1.00  0.00     0.222 A 
ATOM      8  N   UNL A   1      46.296  26.249  25.420  1.00  0.00    -0.177 NA
ATOM      9  C   UNL A   1      43.977  26.701  25.487  1.00  0.00     0.036 A 
ATOM     10  C   UNL A   1      46.520  27.457  25.968  1.00  0.00     0.226 A 
ATOM     11  C   UNL A   1      44.304  27.912  26.049  1.00  0.00     0.053 A 
ATOM     12  C   UNL A   1      42.509  26.521  25.363  1.00  0.00     0.043 C 
ATOM     13  N   UNL A   1      45.552  28.320  26.308  1.00  0.00    -0.218 NA
ATOM     14  C   UNL A   1      43.069  28.698  26.385  1.00  0.00     0.057 C 
ATOM     15  C   UNL A   1      42.022  27.972  25.526  1.00  0.00     0.011 C 
BRANCH  10  16
ATOM     16  N   UNL A   1      47.835  27.765  26.138  1.00  0.00    -0.350 N 
ATOM     17  H   UNL A   1      48.132  28.029  27.038  1.00  0.00     0.164 HD
BRANCH  16  18
ATOM     18  C   UNL A   1      48.818  27.730  25.092  1.00  0.00     0.152 C 
BRANCH  18  19
ATOM     19  C   UNL A   1      50.032  26.902  25.472  1.00  0.00    -0.029 A 
ATOM     20  C   UNL A   1      49.951  25.790  26.331  1.00  0.00     0.008 A 
ATOM     21  C   UNL A   1      51.274  27.204  24.885  1.00  0.00     0.008 A 
ATOM     22  C   UNL A   1      51.083  25.022  26.613  1.00  0.00     0.039 A 
ATOM     23  C   UNL A   1      52.404  26.432  25.165  1.00  0.00     0.039 A 
ATOM     24  C   UNL A   1      52.299  25.350  26.028  1.00  0.00     0.123 A 
ATOM     25  F   UNL A   1      53.382  24.608  26.294  1.00  0.00    -0.207 F 
ENDBRANCH  18  19
ENDBRANCH  16  18
ENDBRANCH  10  16
ENDBRANCH   6   7
ENDBRANCH   5   6
ENDBRANCH   2   5
BRANCH   3  26
ATOM     26  C   UNL A   1      46.366  20.101  24.576  1.00  0.00     0.117 C 
BRANCH  26  27
ATOM     27  C   UNL A   1      45.111  19.250  24.441  1.00  0.00     0.042 C 
BRANCH  27  28
ATOM     28  C   UNL A   1      44.317  19.097  25.733  1.00  0.00     0.118 C 
BRANCH  28  29
ATOM     29  N   UNL A   1      42.907  18.801  25.511  1.00  0.00    -0.352 N 
ATOM     30  C   UNL A   1      41.780  19.499  25.871  1.00  0.00     0.251 C 
ATOM     31  H   UNL A   1      42.733  17.963  25.024  1.00  0.00     0.163 HD
ATOM     32  O   UNL A   1      40.672  18.994  25.700  1.00  0.00    -0.269 OA
BRANCH  30  33
ATOM     33  C   UNL A   1      41.884  20.838  26.488  1.00  0.00     0.039 A 
ATOM     34  C   UNL A   1      41.544  20.983  27.836  1.00  0.00     0.014 A 
ATOM     35  C   UNL A   1      42.291  21.952  25.749  1.00  0.00     0.014 A 
ATOM     36  C   UNL A   1      41.687  22.224  28.461  1.00  0.00     0.010 A 
ATOM     37  C   UNL A   1      42.509  23.170  26.390  1.00  0.00     0.010 A 
ATOM     38  C   UNL A   1      42.210  23.318  27.753  1.00  0.00    -0.014 A 
BRANCH  38  39
ATOM     39  C   UNL A   1      42.456  24.619  28.428  1.00  0.00     0.031 A 
ATOM     40  C   UNL A   1      43.786  24.905  29.066  1.00  0.00     0.074 A 
ATOM     41  C   UNL A   1      41.464  25.528  28.500  1.00  0.00     0.049 A 
ATOM     42  N   UNL A   1      44.173  25.969  29.725  1.00  0.00    -0.248 NA
ATOM     43  C   UNL A   1      44.812  23.855  28.967  1.00  0.00     0.031 C 
ATOM     44  C   UNL A   1      40.119  25.355  27.949  1.00  0.00     0.029 A 
ATOM     45  N   UNL A   1      41.433  26.780  29.063  1.00  0.00    -0.354 N 
ATOM     46  C   UNL A   1      45.481  25.716  30.115  1.00  0.00     0.074 A 
ATOM     47  C   UNL A   1      45.803  24.377  29.675  1.00  0.00     0.031 C 
ATOM     48  C   UNL A   1      39.406  26.471  28.170  1.00  0.00     0.029 A 
ATOM     49  C   UNL A   1      40.228  27.423  28.913  1.00  0.00     0.049 A 
ATOM     50  H   UNL A   1      42.201  27.179  29.531  1.00  0.00     0.167 HD
ATOM     51  C   UNL A   1      46.346  26.539  30.754  1.00  0.00     0.037 A 
ATOM     52  C   UNL A   1      39.827  28.641  29.327  1.00  0.00     0.037 A 
ATOM     53  C   UNL A   1      46.027  27.877  31.178  1.00  0.00     0.049 A 
ATOM     54  C   UNL A   1      40.794  29.518  30.075  1.00  0.00     0.074 A 
ATOM     55  C   UNL A   1      46.850  28.799  31.802  1.00  0.00     0.029 A 
ATOM     56  N   UNL A   1      44.790  28.483  31.024  1.00  0.00    -0.354 N 
ATOM     57  N   UNL A   1      42.045  29.287  30.389  1.00  0.00    -0.248 NA
ATOM     58  C   UNL A   1      40.294  30.826  30.523  1.00  0.00     0.031 C 
ATOM     59  C   UNL A   1      46.097  29.944  32.070  1.00  0.00     0.029 A 
ATOM     60  C   UNL A   1      44.821  29.759  31.563  1.00  0.00     0.049 A 
ATOM     61  H   UNL A   1      44.007  28.069  30.594  1.00  0.00     0.167 HD
ATOM     62  C   UNL A   1      42.490  30.426  31.046  1.00  0.00     0.074 A 
ATOM     63  C   UNL A   1      41.379  31.354  31.076  1.00  0.00     0.031 C 
ATOM     64  C   UNL A   1      43.711  30.678  31.578  1.00  0.00     0.037 A 
BRANCH  51  65
ATOM     65  C   UNL A   1      47.730  26.025  31.022  1.00  0.00     0.057 A 
ATOM     66  C   UNL A   1      48.750  26.130  30.067  1.00  0.00     0.134 A 
ATOM     67  C   UNL A   1      48.067  25.482  32.269  1.00  0.00     0.134 A 
ATOM     68  F   UNL A   1      48.491  26.632  28.850  1.00  0.00    -0.206 F 
ATOM     69  C   UNL A   1      50.051  25.700  30.335  1.00  0.00     0.040 A 
ATOM     70  C   UNL A   1      49.371  25.074  32.559  1.00  0.00     0.040 A 
ATOM     71  F   UNL A   1      47.142  25.358  33.231  1.00  0.00    -0.206 F 
ATOM     72  C   UNL A   1      50.366  25.180  31.589  1.00  0.00     0.006 A 
ENDBRANCH  51  65
BRANCH  52  73
ATOM     73  C   UNL A   1      38.456  29.115  29.009  1.00  0.00     0.057 A 
ATOM     74  C   UNL A   1      38.133  29.577  27.728  1.00  0.00     0.134 A 
ATOM     75  C   UNL A   1      37.434  29.102  29.966  1.00  0.00     0.134 A 
ATOM     76  F   UNL A   1      39.074  29.632  26.774  1.00  0.00    -0.206 F 
ATOM     77  C   UNL A   1      36.847  30.016  27.411  1.00  0.00     0.040 A 
ATOM     78  C   UNL A   1      36.136  29.514  29.656  1.00  0.00     0.040 A 
ATOM     79  F   UNL A   1      37.676  28.666  31.211  1.00  0.00    -0.206 F 
ATOM     80  C   UNL A   1      35.842  29.978  28.376  1.00  0.00     0.006 A 
ENDBRANCH  52  73
BRANCH  64  81
ATOM     81  C   UNL A   1      43.933  32.017  32.220  1.00  0.00     0.057 A 
ATOM     82  C   UNL A   1      44.348  33.130  31.478  1.00  0.00     0.134 A 
ATOM     83  C   UNL A   1      43.637  32.215  33.575  1.00  0.00     0.134 A 
ATOM     84  F   UNL A   1      44.656  33.006  30.179  1.00  0.00    -0.206 F 
ATOM     85  C   UNL A   1      44.469  34.391  32.066  1.00  0.00     0.040 A 
ATOM     86  C   UNL A   1      43.727  33.476  34.165  1.00  0.00     0.040 A 
ATOM     87  F   UNL A   1      43.223  31.193  34.339  1.00  0.00    -0.206 F 
ATOM     88  C   UNL A   1      44.147  34.568  33.410  1.00  0.00     0.006 A 
ENDBRANCH  64  81
ENDBRANCH  38  39
ENDBRANCH  30  33
ENDBRANCH  28  29
ENDBRANCH  27  28
ENDBRANCH  26  27
ENDBRANCH   3  26
TORSDOF 15
ENDMDL
MODEL 3
REMARK VINA RESULT:      -9.8      4.884     10.923
REMARK SMILES O=C(COc1nc(NCc2ccc(F)cc2)nc2c1CCC2)NCCCNC(=O)c1ccc(-c2c3nc(c(-c4c(F)cccc4F)c4ccc([nH]4)c(-c4c(F)cccc4F)c4nc(c(-c5c(F)cccc5F)c5ccc2[nH]5)C=C4)C=C3)cc1
REMARK SMILES IDX 1 1 2 2 23 3 3 5 4 6 5 7 6 8 19 9 7 10 18 11 20 12 17 13
REMARK SMILES IDX 22 14 21 15 8 16 9 18 10 19 11 20 16 21 12 22 15 23 13 24
REMARK SMILES IDX 14 25 24 26 25 27 26 28 27 29 28 30 29 32 30 33 31 34 83 35
REMARK SMILES IDX 32 36 82 37 33 38 34 39 35 40 76 41 36 42 81 43 75 44 77 45
REMARK SMILES IDX 37 46 80 47 74 48 73 49 38 51 64 52 47 53 63 54 48 55 51 56
REMARK SMILES IDX 62 57 78 58 49 59 50 60 61 62 79 63 52 64 39 65 40 66 45 67
REMARK SMILES IDX 41 68 42 69 44 70 46 71 43 72 65 73 66 74 71 75 67 76 68 77
REMARK SMILES IDX 70 78 72 79 69 80 53 81 54 82 59 83 55 84 56 85 58 86 60 87
REMARK SMILES IDX 57 88
REMARK H PARENT 23 4 8 17 27 31 77 50 51 61
REMARK Flexibility Score: inf
ROOT
ATOM      1  O   UNL A   1      36.071  22.895  26.138  1.00  0.00    -0.271 OA
ATOM      2  C   UNL A   1      35.466  21.835  25.998  1.00  0.00     0.258 C 
ATOM      3  N   UNL A   1      36.013  20.726  25.385  1.00  0.00    -0.353 N 
ATOM      4  H   UNL A   1      35.537  19.867  25.444  1.00  0.00     0.163 HD
ENDROOT
BRANCH   2   5
ATOM      5  C   UNL A   1      34.056  21.615  26.572  1.00  0.00     0.331 C 
BRANCH   5   6
ATOM      6  O   UNL A   1      33.382  20.392  26.291  1.00  0.00    -0.467 OA
BRANCH   6   7
ATOM      7  C   UNL A   1      32.860  20.391  25.020  1.00  0.00     0.222 A 
ATOM      8  N   UNL A   1      32.393  21.551  24.534  1.00  0.00    -0.177 NA
ATOM      9  C   UNL A   1      32.928  19.264  24.266  1.00  0.00     0.036 A 
ATOM     10  C   UNL A   1      31.927  21.562  23.273  1.00  0.00     0.226 A 
ATOM     11  C   UNL A   1      32.423  19.372  22.992  1.00  0.00     0.053 A 
ATOM     12  C   UNL A   1      33.381  17.884  24.572  1.00  0.00     0.043 C 
ATOM     13  N   UNL A   1      31.913  20.492  22.466  1.00  0.00    -0.218 NA
ATOM     14  C   UNL A   1      32.470  18.048  22.283  1.00  0.00     0.057 C 
ATOM     15  C   UNL A   1      33.481  17.288  23.157  1.00  0.00     0.011 C 
BRANCH  10  16
ATOM     16  N   UNL A   1      31.477  22.774  22.848  1.00  0.00    -0.350 N 
ATOM     17  H   UNL A   1      30.543  22.838  22.545  1.00  0.00     0.164 HD
BRANCH  16  18
ATOM     18  C   UNL A   1      32.274  23.969  22.813  1.00  0.00     0.152 C 
BRANCH  18  19
ATOM     19  C   UNL A   1      31.437  25.224  22.975  1.00  0.00    -0.029 A 
ATOM     20  C   UNL A   1      31.700  26.407  22.257  1.00  0.00     0.008 A 
ATOM     21  C   UNL A   1      30.307  25.187  23.810  1.00  0.00     0.008 A 
ATOM     22  C   UNL A   1      30.873  27.523  22.395  1.00  0.00     0.039 A 
ATOM     23  C   UNL A   1      29.478  26.303  23.943  1.00  0.00     0.039 A 
ATOM     24  C   UNL A   1      29.770  27.462  23.237  1.00  0.00     0.123 A 
ATOM     25  F   UNL A   1      28.973  28.531  23.362  1.00  0.00    -0.207 F 
ENDBRANCH  18  19
ENDBRANCH  16  18
ENDBRANCH  10  16
ENDBRANCH   6   7
ENDBRANCH   5   6
ENDBRANCH   2   5
BRANCH   3  26
ATOM     26  C   UNL A   1      37.263  20.787  24.659  1.00  0.00     0.117 C 
BRANCH  26  27
ATOM     27  C   UNL A   1      38.185  19.613  24.958  1.00  0.00     0.042 C 
BRANCH  27  28
ATOM     28  C   UNL A   1      39.271  19.915  25.985  1.00  0.00     0.118 C 
BRANCH  28  29
ATOM     29  N   UNL A   1      40.418  19.021  25.891  1.00  0.00    -0.352 N 
ATOM     30  C   UNL A   1      41.761  19.272  26.039  1.00  0.00     0.251 C 
ATOM     31  H   UNL A   1      40.195  18.084  25.687  1.00  0.00     0.163 HD
ATOM     32  O   UNL A   1      42.575  18.389  25.781  1.00  0.00    -0.269 OA
BRANCH  30  33
ATOM     33  C   UNL A   1      42.239  20.600  26.477  1.00  0.00     0.039 A 
ATOM     34  C   UNL A   1      42.720  21.490  25.514  1.00  0.00     0.014 A 
ATOM     35  C   UNL A   1      42.237  20.967  27.826  1.00  0.00     0.014 A 
ATOM     36  C   UNL A   1      43.124  22.773  25.891  1.00  0.00     0.010 A 
ATOM     37  C   UNL A   1      42.566  22.271  28.192  1.00  0.00     0.010 A 
ATOM     38  C   UNL A   1      43.012  23.187  27.228  1.00  0.00    -0.014 A 
BRANCH  38  39
ATOM     39  C   UNL A   1      43.350  24.578  27.629  1.00  0.00     0.031 A 
ATOM     40  C   UNL A   1      44.785  25.020  27.700  1.00  0.00     0.074 A 
ATOM     41  C   UNL A   1      42.364  25.431  27.966  1.00  0.00     0.049 A 
ATOM     42  N   UNL A   1      45.273  26.182  28.058  1.00  0.00    -0.248 NA
ATOM     43  C   UNL A   1      45.808  24.026  27.339  1.00  0.00     0.031 C 
ATOM     44  C   UNL A   1      40.935  25.112  27.970  1.00  0.00     0.029 A 
ATOM     45  N   UNL A   1      42.411  26.743  28.371  1.00  0.00    -0.354 N 
ATOM     46  C   UNL A   1      46.653  26.056  27.964  1.00  0.00     0.074 A 
ATOM     47  C   UNL A   1      46.928  24.691  27.576  1.00  0.00     0.031 C 
ATOM     48  C   UNL A   1      40.241  26.206  28.321  1.00  0.00     0.029 A 
ATOM     49  C   UNL A   1      41.174  27.292  28.609  1.00  0.00     0.049 A 
ATOM     50  H   UNL A   1      43.252  27.242  28.480  1.00  0.00     0.167 HD
ATOM     51  C   UNL A   1      47.601  27.003  28.153  1.00  0.00     0.037 A 
ATOM     52  C   UNL A   1      40.828  28.529  29.014  1.00  0.00     0.037 A 
ATOM     53  C   UNL A   1      47.323  28.365  28.525  1.00  0.00     0.049 A 
ATOM     54  C   UNL A   1      41.905  29.550  29.260  1.00  0.00     0.074 A 
ATOM     55  C   UNL A   1      48.218  29.407  28.704  1.00  0.00     0.029 A 
ATOM     56  N   UNL A   1      46.059  28.876  28.775  1.00  0.00    -0.354 N 
ATOM     57  N   UNL A   1      43.203  29.433  29.115  1.00  0.00    -0.248 NA
ATOM     58  C   UNL A   1      41.471  30.876  29.724  1.00  0.00     0.031 C 
ATOM     59  C   UNL A   1      47.500  30.533  29.111  1.00  0.00     0.029 A 
ATOM     60  C   UNL A   1      46.152  30.211  29.131  1.00  0.00     0.049 A 
ATOM     61  H   UNL A   1      45.219  28.366  28.708  1.00  0.00     0.167 HD
ATOM     62  C   UNL A   1      43.737  30.673  29.442  1.00  0.00     0.074 A 
ATOM     63  C   UNL A   1      42.623  31.532  29.782  1.00  0.00     0.031 C 
ATOM     64  C   UNL A   1      45.035  31.060  29.459  1.00  0.00     0.037 A 
BRANCH  51  65
ATOM     65  C   UNL A   1      49.034  26.608  27.944  1.00  0.00     0.057 A 
ATOM     66  C   UNL A   1      49.637  26.671  26.680  1.00  0.00     0.134 A 
ATOM     67  C   UNL A   1      49.840  26.225  29.025  1.00  0.00     0.134 A 
ATOM     68  F   UNL A   1      48.919  27.021  25.603  1.00  0.00    -0.206 F 
ATOM     69  C   UNL A   1      50.984  26.355  26.496  1.00  0.00     0.040 A 
ATOM     70  C   UNL A   1      51.194  25.932  28.857  1.00  0.00     0.040 A 
ATOM     71  F   UNL A   1      49.329  26.149  30.262  1.00  0.00    -0.206 F 
ATOM     72  C   UNL A   1      51.769  25.994  27.589  1.00  0.00     0.006 A 
ENDBRANCH  51  65
BRANCH  52  73
ATOM     73  C   UNL A   1      39.394  28.880  29.176  1.00  0.00     0.057 A 
ATOM     74  C   UNL A   1      38.643  29.356  28.095  1.00  0.00     0.134 A 
ATOM     75  C   UNL A   1      38.735  28.731  30.402  1.00  0.00     0.134 A 
ATOM     76  F   UNL A   1      39.223  29.539  26.899  1.00  0.00    -0.206 F 
ATOM     77  C   UNL A   1      37.292  29.681  28.228  1.00  0.00     0.040 A 
ATOM     78  C   UNL A   1      37.378  29.027  30.544  1.00  0.00     0.040 A 
ATOM     79  F   UNL A   1      39.396  28.274  31.476  1.00  0.00    -0.206 F 
ATOM     80  C   UNL A   1      36.654  29.508  29.455  1.00  0.00     0.006 A 
ENDBRANCH  52  73
BRANCH  64  81
ATOM     81  C   UNL A   1      45.336  32.483  29.833  1.00  0.00     0.057 A 
ATOM     82  C   UNL A   1      45.659  32.846  31.146  1.00  0.00     0.134 A 
ATOM     83  C   UNL A   1      45.394  33.481  28.852  1.00  0.00     0.134 A 
ATOM     84  F   UNL A   1      45.614  31.941  32.134  1.00  0.00    -0.206 F 
ATOM     85  C   UNL A   1      46.021  34.156  31.471  1.00  0.00     0.040 A 
ATOM     86  C   UNL A   1      45.781  34.786  29.159  1.00  0.00     0.040 A 
ATOM     87  F   UNL A   1      45.107  33.197  27.572  1.00  0.00    -0.206 F 
ATOM     88  C   UNL A   1      46.094  35.126  30.473  1.00  0.00     0.006 A 
ENDBRANCH  64  81
ENDBRANCH  38  39
ENDBRANCH  30  33
ENDBRANCH  28  29
ENDBRANCH  27  28
ENDBRANCH  26  27
ENDBRANCH   3  26
TORSDOF 15
ENDMDL
