MODEL 1
REMARK VINA RESULT:     -12.4      0.000      0.000
REMARK SMILES Cc1c(NS(=O)(=O)c2ncn(C)c2Cl)cccc1C(=O)NCCCNC(=O)c1ccc(-c2c3nc(c(-c4c(F)cccc4F)c4ccc([nH]4)c(-c4c(F)cccc4F)c4nc(c(-c5c(F)cccc5F)c5ccc2[nH]5)C=C4)C=C3)cc1
REMARK SMILES IDX 22 1 21 2 19 3 20 4 18 6 1 7 2 8 3 9 15 10 17 11 16 12 4 13
REMARK SMILES IDX 5 15 6 16 7 17 8 18 9 19 13 20 10 21 11 22 14 23 12 24 23 25
REMARK SMILES IDX 24 26 25 27 26 28 27 30 28 31 29 32 81 33 30 34 80 35 31 36
REMARK SMILES IDX 32 37 33 38 74 39 34 40 79 41 73 42 75 43 35 44 78 45 72 46
REMARK SMILES IDX 71 47 36 49 62 50 45 51 61 52 46 53 49 54 60 55 76 56 47 57
REMARK SMILES IDX 48 58 59 60 77 61 50 62 37 63 38 64 43 65 39 66 40 67 42 68
REMARK SMILES IDX 44 69 41 70 63 71 64 72 69 73 65 74 66 75 68 76 70 77 67 78
REMARK SMILES IDX 51 79 52 80 57 81 53 82 54 83 56 84 58 85 55 86
REMARK H PARENT 21 5 4 14 25 29 75 48 49 59
REMARK Flexibility Score: inf
ROOT
ATOM      1  C   UNL A   1      31.130  30.164  25.247  1.00  0.00     0.118 C 
ENDROOT
BRANCH   1   2
ATOM      2  N   UNL A   1      30.836  29.778  23.879  1.00  0.00    -0.352 N 
ATOM      3  C   UNL A   1      30.945  28.656  23.103  1.00  0.00     0.251 C 
ATOM      4  O   UNL A   1      30.556  28.844  21.942  1.00  0.00    -0.269 OA
ATOM      5  H   UNL A   1      30.451  30.528  23.370  1.00  0.00     0.163 HD
BRANCH   3   6
ATOM      6  C   UNL A   1      31.427  27.262  23.464  1.00  0.00     0.044 A 
ATOM      7  C   UNL A   1      29.416  26.249  24.677  1.00  0.00     0.047 C 
ATOM      8  C   UNL A   1      30.755  26.146  24.033  1.00  0.00    -0.014 A 
ATOM      9  C   UNL A   1      31.423  24.910  24.235  1.00  0.00     0.053 A 
ATOM     10  C   UNL A   1      32.808  24.944  24.296  1.00  0.00     0.027 A 
ATOM     11  C   UNL A   1      32.826  27.135  23.317  1.00  0.00     0.014 A 
ATOM     12  C   UNL A   1      33.516  26.028  23.797  1.00  0.00     0.003 A 
BRANCH   9  13
ATOM     13  N   UNL A   1      30.677  23.769  24.722  1.00  0.00    -0.278 N 
ATOM     14  H   UNL A   1      30.031  23.345  24.112  1.00  0.00     0.180 HD
BRANCH  13  15
ATOM     15  S   UNL A   1      30.848  23.115  26.286  1.00  0.00     0.282 S 
ATOM     16  O   UNL A   1      30.983  24.253  27.166  1.00  0.00    -0.199 OA
ATOM     17  O   UNL A   1      29.751  22.181  26.468  1.00  0.00    -0.199 OA
BRANCH  15  18
ATOM     18  C   UNL A   1      32.295  22.192  26.476  1.00  0.00     0.213 A 
ATOM     19  N   UNL A   1      33.174  22.359  27.539  1.00  0.00    -0.222 NA
ATOM     20  C   UNL A   1      32.854  21.358  25.535  1.00  0.00     0.149 A 
ATOM     21  C   UNL A   1      34.264  21.718  27.187  1.00  0.00     0.202 A 
ATOM     22  N   UNL A   1      34.162  21.225  25.911  1.00  0.00    -0.324 N 
ATOM     23  Cl  UNL A   1      32.304  20.775  24.032  1.00  0.00    -0.061 Cl
ATOM     24  C   UNL A   1      35.307  20.997  25.063  1.00  0.00     0.152 C 
ENDBRANCH  15  18
ENDBRANCH  13  15
ENDBRANCH   9  13
ENDBRANCH   3   6
ENDBRANCH   1   2
BRANCH   1  25
ATOM     25  C   UNL A   1      32.527  29.708  25.651  1.00  0.00     0.042 C 
BRANCH  25  26
ATOM     26  C   UNL A   1      32.858  29.714  27.118  1.00  0.00     0.118 C 
BRANCH  26  27
ATOM     27  N   UNL A   1      33.418  30.976  27.599  1.00  0.00    -0.352 N 
ATOM     28  C   UNL A   1      34.677  31.201  28.135  1.00  0.00     0.251 C 
ATOM     29  H   UNL A   1      32.828  31.761  27.534  1.00  0.00     0.163 HD
ATOM     30  O   UNL A   1      35.043  32.335  28.423  1.00  0.00    -0.269 OA
BRANCH  28  31
ATOM     31  C   UNL A   1      35.628  30.063  28.188  1.00  0.00     0.039 A 
ATOM     32  C   UNL A   1      35.807  29.515  29.460  1.00  0.00     0.014 A 
ATOM     33  C   UNL A   1      36.634  30.001  27.233  1.00  0.00     0.014 A 
ATOM     34  C   UNL A   1      37.102  29.288  29.901  1.00  0.00     0.010 A 
ATOM     35  C   UNL A   1      37.927  29.902  27.700  1.00  0.00     0.010 A 
ATOM     36  C   UNL A   1      38.152  29.638  29.056  1.00  0.00    -0.014 A 
BRANCH  36  37
ATOM     37  C   UNL A   1      39.533  29.684  29.498  1.00  0.00     0.031 A 
ATOM     38  C   UNL A   1      40.306  28.447  29.330  1.00  0.00     0.074 A 
ATOM     39  C   UNL A   1      40.080  30.784  30.061  1.00  0.00     0.049 A 
ATOM     40  N   UNL A   1      41.270  28.087  30.099  1.00  0.00    -0.248 NA
ATOM     41  C   UNL A   1      39.965  27.457  28.318  1.00  0.00     0.031 C 
ATOM     42  C   UNL A   1      41.482  30.999  30.408  1.00  0.00     0.029 A 
ATOM     43  N   UNL A   1      39.416  31.878  30.622  1.00  0.00    -0.354 N 
ATOM     44  C   UNL A   1      41.849  26.974  29.534  1.00  0.00     0.074 A 
ATOM     45  C   UNL A   1      40.933  26.560  28.502  1.00  0.00     0.031 C 
ATOM     46  C   UNL A   1      41.556  31.964  31.340  1.00  0.00     0.029 A 
ATOM     47  C   UNL A   1      40.201  32.318  31.717  1.00  0.00     0.049 A 
ATOM     48  H   UNL A   1      38.565  32.268  30.317  1.00  0.00     0.167 HD
ATOM     49  C   UNL A   1      43.108  26.630  29.925  1.00  0.00     0.037 A 
ATOM     50  C   UNL A   1      39.695  32.286  32.987  1.00  0.00     0.037 A 
ATOM     51  C   UNL A   1      43.556  27.500  31.021  1.00  0.00     0.049 A 
ATOM     52  C   UNL A   1      40.347  31.247  33.870  1.00  0.00     0.074 A 
ATOM     53  C   UNL A   1      44.329  28.649  31.083  1.00  0.00     0.029 A 
ATOM     54  N   UNL A   1      42.889  27.435  32.233  1.00  0.00    -0.354 N 
ATOM     55  N   UNL A   1      41.343  30.487  33.507  1.00  0.00    -0.248 NA
ATOM     56  C   UNL A   1      39.849  30.914  35.204  1.00  0.00     0.031 C 
ATOM     57  C   UNL A   1      44.097  29.277  32.343  1.00  0.00     0.029 A 
ATOM     58  C   UNL A   1      43.211  28.495  33.062  1.00  0.00     0.049 A 
ATOM     59  H   UNL A   1      42.259  26.719  32.477  1.00  0.00     0.167 HD
ATOM     60  C   UNL A   1      41.589  29.557  34.481  1.00  0.00     0.074 A 
ATOM     61  C   UNL A   1      40.611  29.854  35.514  1.00  0.00     0.031 C 
ATOM     62  C   UNL A   1      42.550  28.591  34.358  1.00  0.00     0.037 A 
BRANCH  49  63
ATOM     63  C   UNL A   1      44.019  25.712  29.139  1.00  0.00     0.057 A 
ATOM     64  C   UNL A   1      44.746  26.211  28.040  1.00  0.00     0.134 A 
ATOM     65  C   UNL A   1      44.187  24.330  29.348  1.00  0.00     0.134 A 
ATOM     66  F   UNL A   1      44.784  27.521  27.760  1.00  0.00    -0.206 F 
ATOM     67  C   UNL A   1      45.475  25.392  27.168  1.00  0.00     0.040 A 
ATOM     68  C   UNL A   1      44.869  23.489  28.456  1.00  0.00     0.040 A 
ATOM     69  F   UNL A   1      43.767  23.721  30.460  1.00  0.00    -0.206 F 
ATOM     70  C   UNL A   1      45.509  24.019  27.350  1.00  0.00     0.006 A 
ENDBRANCH  49  63
BRANCH  50  71
ATOM     71  C   UNL A   1      38.250  32.655  33.000  1.00  0.00     0.057 A 
ATOM     72  C   UNL A   1      37.947  34.005  32.744  1.00  0.00     0.134 A 
ATOM     73  C   UNL A   1      37.282  31.704  32.672  1.00  0.00     0.134 A 
ATOM     74  F   UNL A   1      38.808  34.971  33.101  1.00  0.00    -0.206 F 
ATOM     75  C   UNL A   1      36.865  34.361  31.939  1.00  0.00     0.040 A 
ATOM     76  C   UNL A   1      36.177  32.059  31.897  1.00  0.00     0.040 A 
ATOM     77  F   UNL A   1      37.472  30.406  32.947  1.00  0.00    -0.206 F 
ATOM     78  C   UNL A   1      36.015  33.372  31.455  1.00  0.00     0.006 A 
ENDBRANCH  50  71
BRANCH  62  79
ATOM     79  C   UNL A   1      42.901  27.623  35.463  1.00  0.00     0.057 A 
ATOM     80  C   UNL A   1      42.222  26.409  35.655  1.00  0.00     0.134 A 
ATOM     81  C   UNL A   1      43.874  27.915  36.443  1.00  0.00     0.134 A 
ATOM     82  F   UNL A   1      41.155  26.081  34.912  1.00  0.00    -0.206 F 
ATOM     83  C   UNL A   1      42.583  25.493  36.651  1.00  0.00     0.040 A 
ATOM     84  C   UNL A   1      44.205  27.034  37.474  1.00  0.00     0.040 A 
ATOM     85  F   UNL A   1      44.561  29.065  36.452  1.00  0.00    -0.206 F 
ATOM     86  C   UNL A   1      43.583  25.801  37.562  1.00  0.00     0.006 A 
ENDBRANCH  62  79
ENDBRANCH  36  37
ENDBRANCH  28  31
ENDBRANCH  26  27
ENDBRANCH  25  26
ENDBRANCH   1  25
TORSDOF 13
ENDMDL
MODEL 2
REMARK VINA RESULT:     -12.4      2.625      4.153
REMARK SMILES Cc1c(NS(=O)(=O)c2ncn(C)c2Cl)cccc1C(=O)NCCCNC(=O)c1ccc(-c2c3nc(c(-c4c(F)cccc4F)c4ccc([nH]4)c(-c4c(F)cccc4F)c4nc(c(-c5c(F)cccc5F)c5ccc2[nH]5)C=C4)C=C3)cc1
REMARK SMILES IDX 22 1 21 2 19 3 20 4 18 6 1 7 2 8 3 9 15 10 17 11 16 12 4 13
REMARK SMILES IDX 5 15 6 16 7 17 8 18 9 19 13 20 10 21 11 22 14 23 12 24 23 25
REMARK SMILES IDX 24 26 25 27 26 28 27 30 28 31 29 32 81 33 30 34 80 35 31 36
REMARK SMILES IDX 32 37 33 38 74 39 34 40 79 41 73 42 75 43 35 44 78 45 72 46
REMARK SMILES IDX 71 47 36 49 62 50 45 51 61 52 46 53 49 54 60 55 76 56 47 57
REMARK SMILES IDX 48 58 59 60 77 61 50 62 37 63 38 64 43 65 39 66 40 67 42 68
REMARK SMILES IDX 44 69 41 70 63 71 64 72 69 73 65 74 66 75 68 76 70 77 67 78
REMARK SMILES IDX 51 79 52 80 57 81 53 82 54 83 56 84 58 85 55 86
REMARK H PARENT 21 5 4 14 25 29 75 48 49 59
REMARK Flexibility Score: inf
ROOT
ATOM      1  C   UNL A   1      33.236  30.383  26.732  1.00  0.00     0.118 C 
ENDROOT
BRANCH   1   2
ATOM      2  N   UNL A   1      33.326  30.058  25.320  1.00  0.00    -0.352 N 
ATOM      3  C   UNL A   1      32.761  29.161  24.455  1.00  0.00     0.251 C 
ATOM      4  O   UNL A   1      33.199  29.278  23.301  1.00  0.00    -0.269 OA
ATOM      5  H   UNL A   1      33.969  30.643  24.859  1.00  0.00     0.163 HD
BRANCH   3   6
ATOM      6  C   UNL A   1      31.693  28.110  24.696  1.00  0.00     0.044 A 
ATOM      7  C   UNL A   1      32.873  26.424  26.214  1.00  0.00     0.047 C 
ATOM      8  C   UNL A   1      31.658  26.975  25.551  1.00  0.00    -0.014 A 
ATOM      9  C   UNL A   1      30.504  26.153  25.637  1.00  0.00     0.053 A 
ATOM     10  C   UNL A   1      29.615  26.203  24.575  1.00  0.00     0.027 A 
ATOM     11  C   UNL A   1      30.613  28.241  23.795  1.00  0.00     0.014 A 
ATOM     12  C   UNL A   1      29.632  27.264  23.680  1.00  0.00     0.003 A 
BRANCH   9  13
ATOM     13  N   UNL A   1      30.472  25.068  26.595  1.00  0.00    -0.278 N 
ATOM     14  H   UNL A   1      30.312  25.290  27.540  1.00  0.00     0.180 HD
BRANCH  13  15
ATOM     15  S   UNL A   1      30.696  23.429  26.186  1.00  0.00     0.282 S 
ATOM     16  O   UNL A   1      29.793  22.693  27.041  1.00  0.00    -0.199 OA
ATOM     17  O   UNL A   1      30.566  23.339  24.743  1.00  0.00    -0.199 OA
BRANCH  15  18
ATOM     18  C   UNL A   1      32.280  22.853  26.558  1.00  0.00     0.213 A 
ATOM     19  N   UNL A   1      32.693  22.530  27.845  1.00  0.00    -0.222 NA
ATOM     20  C   UNL A   1      33.360  22.840  25.706  1.00  0.00     0.149 A 
ATOM     21  C   UNL A   1      34.000  22.426  27.770  1.00  0.00     0.202 A 
ATOM     22  N   UNL A   1      34.455  22.757  26.520  1.00  0.00    -0.324 N 
ATOM     23  Cl  UNL A   1      33.521  23.148  24.038  1.00  0.00    -0.061 Cl
ATOM     24  C   UNL A   1      35.778  23.278  26.277  1.00  0.00     0.152 C 
ENDBRANCH  15  18
ENDBRANCH  13  15
ENDBRANCH   9  13
ENDBRANCH   3   6
ENDBRANCH   1   2
BRANCH   1  25
ATOM     25  C   UNL A   1      34.569  30.905  27.255  1.00  0.00     0.042 C 
BRANCH  25  26
ATOM     26  C   UNL A   1      34.750  30.967  28.747  1.00  0.00     0.118 C 
BRANCH  26  27
ATOM     27  N   UNL A   1      35.927  31.720  29.175  1.00  0.00    -0.352 N 
ATOM     28  C   UNL A   1      37.236  31.273  29.278  1.00  0.00     0.251 C 
ATOM     29  H   UNL A   1      35.771  32.660  29.421  1.00  0.00     0.163 HD
ATOM     30  O   UNL A   1      38.141  32.043  29.576  1.00  0.00    -0.269 OA
BRANCH  28  31
ATOM     31  C   UNL A   1      37.535  29.883  28.852  1.00  0.00     0.039 A 
ATOM     32  C   UNL A   1      37.782  28.994  29.900  1.00  0.00     0.014 A 
ATOM     33  C   UNL A   1      38.097  29.686  27.598  1.00  0.00     0.014 A 
ATOM     34  C   UNL A   1      38.894  28.171  29.815  1.00  0.00     0.010 A 
ATOM     35  C   UNL A   1      39.274  28.969  27.552  1.00  0.00     0.010 A 
ATOM     36  C   UNL A   1      39.713  28.291  28.695  1.00  0.00    -0.014 A 
BRANCH  36  37
ATOM     37  C   UNL A   1      41.023  27.674  28.611  1.00  0.00     0.031 A 
ATOM     38  C   UNL A   1      41.042  26.229  28.351  1.00  0.00     0.074 A 
ATOM     39  C   UNL A   1      42.168  28.370  28.789  1.00  0.00     0.049 A 
ATOM     40  N   UNL A   1      41.955  25.430  28.772  1.00  0.00    -0.248 NA
ATOM     41  C   UNL A   1      39.945  25.556  27.669  1.00  0.00     0.031 C 
ATOM     42  C   UNL A   1      43.534  27.899  28.587  1.00  0.00     0.029 A 
ATOM     43  N   UNL A   1      42.323  29.620  29.395  1.00  0.00    -0.354 N 
ATOM     44  C   UNL A   1      41.721  24.202  28.196  1.00  0.00     0.074 A 
ATOM     45  C   UNL A   1      40.404  24.305  27.621  1.00  0.00     0.031 C 
ATOM     46  C   UNL A   1      44.372  28.676  29.292  1.00  0.00     0.029 A 
ATOM     47  C   UNL A   1      43.568  29.598  30.071  1.00  0.00     0.049 A 
ATOM     48  H   UNL A   1      41.688  30.373  29.358  1.00  0.00     0.167 HD
ATOM     49  C   UNL A   1      42.740  23.299  28.161  1.00  0.00     0.037 A 
ATOM     50  C   UNL A   1      43.618  29.746  31.429  1.00  0.00     0.037 A 
ATOM     51  C   UNL A   1      43.902  23.813  28.900  1.00  0.00     0.049 A 
ATOM     52  C   UNL A   1      44.020  28.484  32.159  1.00  0.00     0.074 A 
ATOM     53  C   UNL A   1      45.063  24.471  28.528  1.00  0.00     0.029 A 
ATOM     54  N   UNL A   1      43.784  24.008  30.266  1.00  0.00    -0.354 N 
ATOM     55  N   UNL A   1      44.358  27.368  31.575  1.00  0.00    -0.248 NA
ATOM     56  C   UNL A   1      43.967  28.358  33.615  1.00  0.00     0.031 C 
ATOM     57  C   UNL A   1      45.626  25.078  29.691  1.00  0.00     0.029 A 
ATOM     58  C   UNL A   1      44.828  24.761  30.776  1.00  0.00     0.049 A 
ATOM     59  H   UNL A   1      43.046  23.653  30.811  1.00  0.00     0.167 HD
ATOM     60  C   UNL A   1      44.510  26.386  32.517  1.00  0.00     0.074 A 
ATOM     61  C   UNL A   1      44.234  27.053  33.778  1.00  0.00     0.031 C 
ATOM     62  C   UNL A   1      44.818  25.092  32.195  1.00  0.00     0.037 A 
BRANCH  49  63
ATOM     63  C   UNL A   1      42.780  22.101  27.237  1.00  0.00     0.057 A 
ATOM     64  C   UNL A   1      41.911  21.014  27.453  1.00  0.00     0.134 A 
ATOM     65  C   UNL A   1      43.674  21.907  26.166  1.00  0.00     0.134 A 
ATOM     66  F   UNL A   1      40.928  21.071  28.362  1.00  0.00    -0.206 F 
ATOM     67  C   UNL A   1      42.002  19.807  26.746  1.00  0.00     0.040 A 
ATOM     68  C   UNL A   1      43.814  20.688  25.486  1.00  0.00     0.040 A 
ATOM     69  F   UNL A   1      44.414  22.900  25.666  1.00  0.00    -0.206 F 
ATOM     70  C   UNL A   1      42.981  19.625  25.783  1.00  0.00     0.006 A 
ENDBRANCH  49  63
BRANCH  50  71
ATOM     71  C   UNL A   1      42.610  30.739  31.901  1.00  0.00     0.057 A 
ATOM     72  C   UNL A   1      41.455  30.217  32.510  1.00  0.00     0.134 A 
ATOM     73  C   UNL A   1      43.015  32.021  32.278  1.00  0.00     0.134 A 
ATOM     74  F   UNL A   1      40.977  29.019  32.137  1.00  0.00    -0.206 F 
ATOM     75  C   UNL A   1      40.903  30.816  33.642  1.00  0.00     0.040 A 
ATOM     76  C   UNL A   1      42.444  32.644  33.389  1.00  0.00     0.040 A 
ATOM     77  F   UNL A   1      44.067  32.610  31.693  1.00  0.00    -0.206 F 
ATOM     78  C   UNL A   1      41.448  32.002  34.125  1.00  0.00     0.006 A 
ENDBRANCH  50  71
BRANCH  62  79
ATOM     79  C   UNL A   1      45.090  24.022  33.227  1.00  0.00     0.057 A 
ATOM     80  C   UNL A   1      46.308  23.923  33.918  1.00  0.00     0.134 A 
ATOM     81  C   UNL A   1      44.173  22.985  33.497  1.00  0.00     0.134 A 
ATOM     82  F   UNL A   1      47.340  24.731  33.632  1.00  0.00    -0.206 F 
ATOM     83  C   UNL A   1      46.537  22.958  34.907  1.00  0.00     0.040 A 
ATOM     84  C   UNL A   1      44.411  21.984  34.442  1.00  0.00     0.040 A 
ATOM     85  F   UNL A   1      42.994  22.886  32.869  1.00  0.00    -0.206 F 
ATOM     86  C   UNL A   1      45.584  21.987  35.177  1.00  0.00     0.006 A 
ENDBRANCH  62  79
ENDBRANCH  36  37
ENDBRANCH  28  31
ENDBRANCH  26  27
ENDBRANCH  25  26
ENDBRANCH   1  25
TORSDOF 13
ENDMDL
MODEL 3
REMARK VINA RESULT:     -12.2      3.480      8.710
REMARK SMILES Cc1c(NS(=O)(=O)c2ncn(C)c2Cl)cccc1C(=O)NCCCNC(=O)c1ccc(-c2c3nc(c(-c4c(F)cccc4F)c4ccc([nH]4)c(-c4c(F)cccc4F)c4nc(c(-c5c(F)cccc5F)c5ccc2[nH]5)C=C4)C=C3)cc1
REMARK SMILES IDX 22 1 21 2 19 3 20 4 18 6 1 7 2 8 3 9 15 10 17 11 16 12 4 13
REMARK SMILES IDX 5 15 6 16 7 17 8 18 9 19 13 20 10 21 11 22 14 23 12 24 23 25
REMARK SMILES IDX 24 26 25 27 26 28 27 30 28 31 29 32 81 33 30 34 80 35 31 36
REMARK SMILES IDX 32 37 33 38 74 39 34 40 79 41 73 42 75 43 35 44 78 45 72 46
REMARK SMILES IDX 71 47 36 49 62 50 45 51 61 52 46 53 49 54 60 55 76 56 47 57
REMARK SMILES IDX 48 58 59 60 77 61 50 62 37 63 38 64 43 65 39 66 40 67 42 68
REMARK SMILES IDX 44 69 41 70 63 71 64 72 69 73 65 74 66 75 68 76 70 77 67 78
REMARK SMILES IDX 51 79 52 80 57 81 53 82 54 83 56 84 58 85 55 86
REMARK H PARENT 21 5 4 14 25 29 75 48 49 59
REMARK Flexibility Score: inf
ROOT
ATOM      1  C   UNL A   1      38.140  20.956  25.387  1.00  0.00     0.118 C 
ENDROOT
BRANCH   1   2
ATOM      2  N   UNL A   1      37.688  21.786  24.286  1.00  0.00    -0.352 N 
ATOM      3  C   UNL A   1      36.518  22.363  23.873  1.00  0.00     0.251 C 
ATOM      4  O   UNL A   1      36.648  22.991  22.813  1.00  0.00    -0.269 OA
ATOM      5  H   UNL A   1      38.425  21.991  23.667  1.00  0.00     0.163 HD
BRANCH   3   6
ATOM      6  C   UNL A   1      35.146  22.366  24.525  1.00  0.00     0.044 A 
ATOM      7  C   UNL A   1      34.996  24.706  25.545  1.00  0.00     0.047 C 
ATOM      8  C   UNL A   1      34.398  23.400  25.150  1.00  0.00    -0.014 A 
ATOM      9  C   UNL A   1      33.092  23.162  25.653  1.00  0.00     0.053 A 
ATOM     10  C   UNL A   1      32.753  21.847  25.928  1.00  0.00     0.027 A 
ATOM     11  C   UNL A   1      34.610  21.063  24.627  1.00  0.00     0.014 A 
ATOM     12  C   UNL A   1      33.475  20.795  25.383  1.00  0.00     0.003 A 
BRANCH   9  13
ATOM     13  N   UNL A   1      32.324  24.266  26.189  1.00  0.00    -0.278 N 
ATOM     14  H   UNL A   1      32.690  24.750  26.964  1.00  0.00     0.180 HD
BRANCH  13  15
ATOM     15  S   UNL A   1      30.825  24.778  25.561  1.00  0.00     0.282 S 
ATOM     16  O   UNL A   1      30.626  24.002  24.359  1.00  0.00    -0.199 OA
ATOM     17  O   UNL A   1      29.868  24.692  26.649  1.00  0.00    -0.199 OA
BRANCH  15  18
ATOM     18  C   UNL A   1      30.833  26.432  25.065  1.00  0.00     0.213 A 
ATOM     19  N   UNL A   1      30.150  26.898  23.948  1.00  0.00    -0.222 NA
ATOM     20  C   UNL A   1      31.649  27.424  25.559  1.00  0.00     0.149 A 
ATOM     21  C   UNL A   1      30.627  28.102  23.732  1.00  0.00     0.202 A 
ATOM     22  N   UNL A   1      31.648  28.397  24.600  1.00  0.00    -0.324 N 
ATOM     23  Cl  UNL A   1      32.726  27.486  26.878  1.00  0.00    -0.061 Cl
ATOM     24  C   UNL A   1      32.703  29.328  24.284  1.00  0.00     0.152 C 
ENDBRANCH  15  18
ENDBRANCH  13  15
ENDBRANCH   9  13
ENDBRANCH   3   6
ENDBRANCH   1   2
BRANCH   1  25
ATOM     25  C   UNL A   1      39.453  21.478  25.958  1.00  0.00     0.042 C 
BRANCH  25  26
ATOM     26  C   UNL A   1      39.527  22.943  26.293  1.00  0.00     0.118 C 
BRANCH  26  27
ATOM     27  N   UNL A   1      40.857  23.399  26.689  1.00  0.00    -0.352 N 
ATOM     28  C   UNL A   1      41.244  24.675  27.070  1.00  0.00     0.251 C 
ATOM     29  H   UNL A   1      41.566  22.715  26.687  1.00  0.00     0.163 HD
ATOM     30  O   UNL A   1      42.385  24.897  27.457  1.00  0.00    -0.269 OA
BRANCH  28  31
ATOM     31  C   UNL A   1      40.198  25.725  27.158  1.00  0.00     0.039 A 
ATOM     32  C   UNL A   1      40.511  26.915  26.500  1.00  0.00     0.014 A 
ATOM     33  C   UNL A   1      39.349  25.716  28.258  1.00  0.00     0.014 A 
ATOM     34  C   UNL A   1      40.321  28.110  27.176  1.00  0.00     0.010 A 
ATOM     35  C   UNL A   1      39.272  26.881  28.990  1.00  0.00     0.010 A 
ATOM     36  C   UNL A   1      39.844  28.054  28.484  1.00  0.00    -0.014 A 
BRANCH  36  37
ATOM     37  C   UNL A   1      39.844  29.203  29.369  1.00  0.00     0.031 A 
ATOM     38  C   UNL A   1      38.789  30.197  29.136  1.00  0.00     0.074 A 
ATOM     39  C   UNL A   1      40.771  29.376  30.336  1.00  0.00     0.049 A 
ATOM     40  N   UNL A   1      38.913  31.453  29.375  1.00  0.00    -0.248 NA
ATOM     41  C   UNL A   1      37.525  29.845  28.503  1.00  0.00     0.031 C 
ATOM     42  C   UNL A   1      40.791  30.403  31.373  1.00  0.00     0.029 A 
ATOM     43  N   UNL A   1      42.016  28.751  30.449  1.00  0.00    -0.354 N 
ATOM     44  C   UNL A   1      37.677  32.028  29.190  1.00  0.00     0.074 A 
ATOM     45  C   UNL A   1      36.887  31.014  28.540  1.00  0.00     0.031 C 
ATOM     46  C   UNL A   1      42.049  30.544  31.823  1.00  0.00     0.029 A 
ATOM     47  C   UNL A   1      42.905  29.703  31.008  1.00  0.00     0.049 A 
ATOM     48  H   UNL A   1      42.235  27.827  30.189  1.00  0.00     0.167 HD
ATOM     49  C   UNL A   1      37.443  33.250  29.746  1.00  0.00     0.037 A 
ATOM     50  C   UNL A   1      43.996  30.127  30.301  1.00  0.00     0.037 A 
ATOM     51  C   UNL A   1      38.673  33.778  30.352  1.00  0.00     0.049 A 
ATOM     52  C   UNL A   1      43.897  31.563  29.841  1.00  0.00     0.074 A 
ATOM     53  C   UNL A   1      39.184  33.784  31.640  1.00  0.00     0.029 A 
ATOM     54  N   UNL A   1      39.743  34.077  29.525  1.00  0.00    -0.354 N 
ATOM     55  N   UNL A   1      42.910  32.366  30.132  1.00  0.00    -0.248 NA
ATOM     56  C   UNL A   1      44.859  32.172  28.924  1.00  0.00     0.031 C 
ATOM     57  C   UNL A   1      40.579  34.073  31.566  1.00  0.00     0.029 A 
ATOM     58  C   UNL A   1      40.912  34.276  30.239  1.00  0.00     0.049 A 
ATOM     59  H   UNL A   1      39.680  34.141  28.545  1.00  0.00     0.167 HD
ATOM     60  C   UNL A   1      43.051  33.536  29.435  1.00  0.00     0.074 A 
ATOM     61  C   UNL A   1      44.278  33.355  28.676  1.00  0.00     0.031 C 
ATOM     62  C   UNL A   1      42.139  34.553  29.502  1.00  0.00     0.037 A 
BRANCH  49  63
ATOM     63  C   UNL A   1      36.062  33.824  29.981  1.00  0.00     0.057 A 
ATOM     64  C   UNL A   1      35.267  34.222  28.890  1.00  0.00     0.134 A 
ATOM     65  C   UNL A   1      35.471  34.078  31.234  1.00  0.00     0.134 A 
ATOM     66  F   UNL A   1      35.629  33.961  27.625  1.00  0.00    -0.206 F 
ATOM     67  C   UNL A   1      34.055  34.910  29.034  1.00  0.00     0.040 A 
ATOM     68  C   UNL A   1      34.286  34.812  31.397  1.00  0.00     0.040 A 
ATOM     69  F   UNL A   1      35.961  33.573  32.370  1.00  0.00    -0.206 F 
ATOM     70  C   UNL A   1      33.577  35.243  30.290  1.00  0.00     0.006 A 
ENDBRANCH  49  63
BRANCH  50  71
ATOM     71  C   UNL A   1      44.605  29.006  29.528  1.00  0.00     0.057 A 
ATOM     72  C   UNL A   1      44.352  28.991  28.144  1.00  0.00     0.134 A 
ATOM     73  C   UNL A   1      45.786  28.409  29.973  1.00  0.00     0.134 A 
ATOM     74  F   UNL A   1      43.201  29.488  27.662  1.00  0.00    -0.206 F 
ATOM     75  C   UNL A   1      45.353  28.663  27.231  1.00  0.00     0.040 A 
ATOM     76  C   UNL A   1      46.780  28.044  29.063  1.00  0.00     0.040 A 
ATOM     77  F   UNL A   1      46.063  28.326  31.282  1.00  0.00    -0.206 F 
ATOM     78  C   UNL A   1      46.599  28.254  27.697  1.00  0.00     0.006 A 
ENDBRANCH  50  71
BRANCH  62  79
ATOM     79  C   UNL A   1      42.330  35.888  28.820  1.00  0.00     0.057 A 
ATOM     80  C   UNL A   1      43.022  36.954  29.416  1.00  0.00     0.134 A 
ATOM     81  C   UNL A   1      41.742  36.190  27.574  1.00  0.00     0.134 A 
ATOM     82  F   UNL A   1      43.480  36.873  30.673  1.00  0.00    -0.206 F 
ATOM     83  C   UNL A   1      43.238  38.173  28.760  1.00  0.00     0.040 A 
ATOM     84  C   UNL A   1      41.903  37.421  26.933  1.00  0.00     0.040 A 
ATOM     85  F   UNL A   1      40.985  35.311  26.904  1.00  0.00    -0.206 F 
ATOM     86  C   UNL A   1      42.683  38.407  27.511  1.00  0.00     0.006 A 
ENDBRANCH  62  79
ENDBRANCH  36  37
ENDBRANCH  28  31
ENDBRANCH  26  27
ENDBRANCH  25  26
ENDBRANCH   1  25
TORSDOF 13
ENDMDL
