MODEL 1
REMARK VINA RESULT:     -11.8      0.000      0.000
REMARK SMILES N#Cc1ccccc1S(=O)(=O)N1CCC(C(=O)NCCCNC(=O)c2ccc(-c3c4nc(c(-c5c(F)cccc5F)c5ccc([nH]5)c(-c5c(F)cccc5F)c5nc(c(-c6c(F)cccc6F)c6ccc3[nH]6)C=C5)C=C4)cc2)CC1
REMARK SMILES IDX 19 1 18 2 16 3 17 4 15 6 12 7 13 8 80 9 14 10 79 11 9 12
REMARK SMILES IDX 10 13 11 14 8 15 3 16 4 17 5 18 7 19 6 20 2 21 1 22 20 23
REMARK SMILES IDX 21 24 22 25 23 26 24 28 25 29 26 30 78 31 27 32 77 33 28 34
REMARK SMILES IDX 29 35 30 36 71 37 31 38 76 39 70 40 72 41 32 42 75 43 69 44
REMARK SMILES IDX 68 45 33 47 59 48 42 49 58 50 43 51 46 52 57 53 73 54 44 55
REMARK SMILES IDX 45 56 56 58 74 59 47 60 34 61 35 62 40 63 36 64 37 65 39 66
REMARK SMILES IDX 41 67 38 68 60 69 61 70 66 71 62 72 63 73 65 74 67 75 64 76
REMARK SMILES IDX 48 77 49 78 54 79 50 80 51 81 53 82 55 83 52 84
REMARK H PARENT 18 5 22 27 72 46 46 57
REMARK Flexibility Score: inf
ROOT
ATOM      1  C   UNL A   1      36.196  20.374  24.914  1.00  0.00     0.117 C 
ENDROOT
BRANCH   1   2
ATOM      2  N   UNL A   1      34.950  19.627  25.005  1.00  0.00    -0.356 N 
ATOM      3  C   UNL A   1      33.659  20.053  25.083  1.00  0.00     0.223 C 
ATOM      4  O   UNL A   1      32.779  19.202  25.217  1.00  0.00    -0.275 OA
ATOM      5  H   UNL A   1      35.059  18.649  25.013  1.00  0.00     0.163 HD
BRANCH   3   6
ATOM      6  C   UNL A   1      33.317  21.531  24.995  1.00  0.00     0.081 C 
ATOM      7  N   UNL A   1      31.414  23.709  25.358  1.00  0.00    -0.198 NA
ATOM      8  C   UNL A   1      31.512  23.098  24.024  1.00  0.00     0.103 C 
ATOM      9  C   UNL A   1      32.403  23.456  26.417  1.00  0.00     0.103 C 
ATOM     10  C   UNL A   1      32.228  21.769  23.960  1.00  0.00     0.030 C 
ATOM     11  C   UNL A   1      33.043  22.089  26.385  1.00  0.00     0.030 C 
BRANCH   7  12
ATOM     12  S   UNL A   1      30.601  25.195  25.429  1.00  0.00     0.244 S 
ATOM     13  O   UNL A   1      29.728  25.136  26.586  1.00  0.00    -0.207 OA
ATOM     14  O   UNL A   1      30.065  25.463  24.112  1.00  0.00    -0.207 OA
BRANCH  12  15
ATOM     15  C   UNL A   1      31.733  26.535  25.764  1.00  0.00     0.100 A 
ATOM     16  C   UNL A   1      32.849  26.937  25.025  1.00  0.00     0.072 A 
ATOM     17  C   UNL A   1      33.640  28.004  25.498  1.00  0.00     0.021 A 
ATOM     18  C   UNL A   1      33.321  28.680  26.671  1.00  0.00     0.001 A 
ATOM     19  C   UNL A   1      31.417  27.237  26.949  1.00  0.00     0.023 A 
ATOM     20  C   UNL A   1      32.201  28.301  27.394  1.00  0.00     0.001 A 
BRANCH  16  21
ATOM     21  C   UNL A   1      33.306  26.395  23.786  1.00  0.00     0.101 C 
ATOM     22  N   UNL A   1      33.698  25.868  22.835  1.00  0.00    -0.192 NA
ENDBRANCH  16  21
ENDBRANCH  12  15
ENDBRANCH   7  12
ENDBRANCH   3   6
ENDBRANCH   1   2
BRANCH   1  23
ATOM     23  C   UNL A   1      37.410  19.463  24.977  1.00  0.00     0.042 C 
BRANCH  23  24
ATOM     24  C   UNL A   1      38.673  20.187  25.399  1.00  0.00     0.118 C 
BRANCH  24  25
ATOM     25  N   UNL A   1      39.771  19.268  25.655  1.00  0.00    -0.352 N 
ATOM     26  C   UNL A   1      41.051  19.529  26.068  1.00  0.00     0.251 C 
ATOM     27  H   UNL A   1      39.564  18.317  25.509  1.00  0.00     0.163 HD
ATOM     28  O   UNL A   1      41.908  18.656  25.985  1.00  0.00    -0.269 OA
BRANCH  26  29
ATOM     29  C   UNL A   1      41.394  20.861  26.605  1.00  0.00     0.039 A 
ATOM     30  C   UNL A   1      41.785  21.866  25.720  1.00  0.00     0.014 A 
ATOM     31  C   UNL A   1      41.357  21.110  27.979  1.00  0.00     0.014 A 
ATOM     32  C   UNL A   1      42.108  23.129  26.216  1.00  0.00     0.010 A 
ATOM     33  C   UNL A   1      41.557  22.398  28.458  1.00  0.00     0.010 A 
ATOM     34  C   UNL A   1      41.975  23.410  27.586  1.00  0.00    -0.014 A 
BRANCH  34  35
ATOM     35  C   UNL A   1      42.331  24.742  28.130  1.00  0.00     0.031 A 
ATOM     36  C   UNL A   1      43.762  25.053  28.480  1.00  0.00     0.074 A 
ATOM     37  C   UNL A   1      41.366  25.658  28.332  1.00  0.00     0.049 A 
ATOM     38  N   UNL A   1      44.273  26.155  28.968  1.00  0.00    -0.248 NA
ATOM     39  C   UNL A   1      44.746  23.974  28.287  1.00  0.00     0.031 C 
ATOM     40  C   UNL A   1      39.936  25.453  28.084  1.00  0.00     0.029 A 
ATOM     41  N   UNL A   1      41.442  26.949  28.788  1.00  0.00    -0.354 N 
ATOM     42  C   UNL A   1      45.626  25.896  29.147  1.00  0.00     0.074 A 
ATOM     43  C   UNL A   1      45.846  24.513  28.790  1.00  0.00     0.031 C 
ATOM     44  C   UNL A   1      39.277  26.592  28.349  1.00  0.00     0.029 A 
ATOM     45  C   UNL A   1      40.229  27.592  28.821  1.00  0.00     0.049 A 
ATOM     46  H   UNL A   1      42.285  27.374  29.065  1.00  0.00     0.167 HD
ATOM     47  C   UNL A   1      46.607  26.743  29.539  1.00  0.00     0.037 A 
ATOM     48  C   UNL A   1      39.923  28.851  29.186  1.00  0.00     0.037 A 
ATOM     49  C   UNL A   1      46.387  28.125  29.873  1.00  0.00     0.049 A 
ATOM     50  C   UNL A   1      41.030  29.772  29.619  1.00  0.00     0.074 A 
ATOM     51  C   UNL A   1      47.315  29.083  30.238  1.00  0.00     0.029 A 
ATOM     52  N   UNL A   1      45.145  28.744  29.883  1.00  0.00    -0.354 N 
ATOM     53  N   UNL A   1      42.316  29.535  29.717  1.00  0.00    -0.248 NA
ATOM     54  C   UNL A   1      40.643  31.143  29.976  1.00  0.00     0.031 C 
ATOM     55  C   UNL A   1      46.628  30.269  30.521  1.00  0.00     0.029 A 
ATOM     56  C   UNL A   1      45.281  30.068  30.265  1.00  0.00     0.049 A 
ATOM     57  H   UNL A   1      44.294  28.308  29.650  1.00  0.00     0.167 HD
ATOM     58  C   UNL A   1      42.896  30.736  30.108  1.00  0.00     0.074 A 
ATOM     59  C   UNL A   1      41.820  31.700  30.213  1.00  0.00     0.031 C 
ATOM     60  C   UNL A   1      44.200  31.017  30.356  1.00  0.00     0.037 A 
BRANCH  47  61
ATOM     61  C   UNL A   1      48.004  26.195  29.622  1.00  0.00     0.057 A 
ATOM     62  C   UNL A   1      48.861  26.175  28.512  1.00  0.00     0.134 A 
ATOM     63  C   UNL A   1      48.507  25.698  30.830  1.00  0.00     0.134 A 
ATOM     64  F   UNL A   1      48.440  26.621  27.318  1.00  0.00    -0.206 F 
ATOM     65  C   UNL A   1      50.154  25.653  28.594  1.00  0.00     0.040 A 
ATOM     66  C   UNL A   1      49.809  25.204  30.933  1.00  0.00     0.040 A 
ATOM     67  F   UNL A   1      47.745  25.688  31.934  1.00  0.00    -0.206 F 
ATOM     68  C   UNL A   1      50.634  25.173  29.810  1.00  0.00     0.006 A 
ENDBRANCH  47  61
BRANCH  48  69
ATOM     69  C   UNL A   1      38.517  29.325  29.124  1.00  0.00     0.057 A 
ATOM     70  C   UNL A   1      37.699  29.316  30.260  1.00  0.00     0.134 A 
ATOM     71  C   UNL A   1      37.952  29.784  27.928  1.00  0.00     0.134 A 
ATOM     72  F   UNL A   1      38.176  28.874  31.433  1.00  0.00    -0.206 F 
ATOM     73  C   UNL A   1      36.363  29.717  30.204  1.00  0.00     0.040 A 
ATOM     74  C   UNL A   1      36.627  30.217  27.864  1.00  0.00     0.040 A 
ATOM     75  F   UNL A   1      38.686  29.831  26.806  1.00  0.00    -0.206 F 
ATOM     76  C   UNL A   1      35.824  30.173  29.002  1.00  0.00     0.006 A 
ENDBRANCH  48  69
BRANCH  60  77
ATOM     77  C   UNL A   1      44.537  32.438  30.706  1.00  0.00     0.057 A 
ATOM     78  C   UNL A   1      44.589  32.889  32.032  1.00  0.00     0.134 A 
ATOM     79  C   UNL A   1      44.827  33.365  29.698  1.00  0.00     0.134 A 
ATOM     80  F   UNL A   1      44.314  32.055  33.046  1.00  0.00    -0.206 F 
ATOM     81  C   UNL A   1      44.874  34.222  32.338  1.00  0.00     0.040 A 
ATOM     82  C   UNL A   1      45.148  34.691  29.993  1.00  0.00     0.040 A 
ATOM     83  F   UNL A   1      44.810  32.998  28.408  1.00  0.00    -0.206 F 
ATOM     84  C   UNL A   1      45.158  35.125  31.316  1.00  0.00     0.006 A 
ENDBRANCH  60  77
ENDBRANCH  34  35
ENDBRANCH  26  29
ENDBRANCH  24  25
ENDBRANCH  23  24
ENDBRANCH   1  23
TORSDOF 13
ENDMDL
MODEL 2
REMARK VINA RESULT:     -11.8      0.529      6.302
REMARK SMILES N#Cc1ccccc1S(=O)(=O)N1CCC(C(=O)NCCCNC(=O)c2ccc(-c3c4nc(c(-c5c(F)cccc5F)c5ccc([nH]5)c(-c5c(F)cccc5F)c5nc(c(-c6c(F)cccc6F)c6ccc3[nH]6)C=C5)C=C4)cc2)CC1
REMARK SMILES IDX 19 1 18 2 16 3 17 4 15 6 12 7 13 8 80 9 14 10 79 11 9 12
REMARK SMILES IDX 10 13 11 14 8 15 3 16 4 17 5 18 7 19 6 20 2 21 1 22 20 23
REMARK SMILES IDX 21 24 22 25 23 26 24 28 25 29 26 30 78 31 27 32 77 33 28 34
REMARK SMILES IDX 29 35 30 36 71 37 31 38 76 39 70 40 72 41 32 42 75 43 69 44
REMARK SMILES IDX 68 45 33 47 59 48 42 49 58 50 43 51 46 52 57 53 73 54 44 55
REMARK SMILES IDX 45 56 56 58 74 59 47 60 34 61 35 62 40 63 36 64 37 65 39 66
REMARK SMILES IDX 41 67 38 68 60 69 61 70 66 71 62 72 63 73 65 74 67 75 64 76
REMARK SMILES IDX 48 77 49 78 54 79 50 80 51 81 53 82 55 83 52 84
REMARK H PARENT 18 5 22 27 72 46 46 57
REMARK Flexibility Score: inf
ROOT
ATOM      1  C   UNL A   1      36.470  20.423  24.973  1.00  0.00     0.117 C 
ENDROOT
BRANCH   1   2
ATOM      2  N   UNL A   1      35.256  19.621  24.987  1.00  0.00    -0.356 N 
ATOM      3  C   UNL A   1      33.945  19.989  24.999  1.00  0.00     0.223 C 
ATOM      4  O   UNL A   1      33.097  19.098  25.074  1.00  0.00    -0.275 OA
ATOM      5  H   UNL A   1      35.408  18.649  24.987  1.00  0.00     0.163 HD
BRANCH   3   6
ATOM      6  C   UNL A   1      33.542  21.451  24.913  1.00  0.00     0.081 C 
ATOM      7  N   UNL A   1      31.584  23.563  25.364  1.00  0.00    -0.198 NA
ATOM      8  C   UNL A   1      31.622  22.934  24.035  1.00  0.00     0.103 C 
ATOM      9  C   UNL A   1      32.646  23.364  26.362  1.00  0.00     0.103 C 
ATOM     10  C   UNL A   1      32.382  21.632  23.945  1.00  0.00     0.030 C 
ATOM     11  C   UNL A   1      33.334  22.021  26.309  1.00  0.00     0.030 C 
BRANCH   7  12
ATOM     12  S   UNL A   1      30.721  25.019  25.466  1.00  0.00     0.244 S 
ATOM     13  O   UNL A   1      29.869  24.917  26.634  1.00  0.00    -0.207 OA
ATOM     14  O   UNL A   1      30.156  25.284  24.159  1.00  0.00    -0.207 OA
BRANCH  12  15
ATOM     15  C   UNL A   1      31.811  26.394  25.800  1.00  0.00     0.100 A 
ATOM     16  C   UNL A   1      32.963  26.779  25.109  1.00  0.00     0.072 A 
ATOM     17  C   UNL A   1      33.709  27.882  25.574  1.00  0.00     0.021 A 
ATOM     18  C   UNL A   1      33.311  28.608  26.692  1.00  0.00     0.001 A 
ATOM     19  C   UNL A   1      31.416  27.146  26.928  1.00  0.00     0.023 A 
ATOM     20  C   UNL A   1      32.156  28.244  27.366  1.00  0.00     0.001 A 
BRANCH  16  21
ATOM     21  C   UNL A   1      33.501  26.186  23.927  1.00  0.00     0.101 C 
ATOM     22  N   UNL A   1      33.840  25.675  22.947  1.00  0.00    -0.192 NA
ENDBRANCH  16  21
ENDBRANCH  12  15
ENDBRANCH   7  12
ENDBRANCH   3   6
ENDBRANCH   1   2
BRANCH   1  23
ATOM     23  C   UNL A   1      37.721  19.561  24.960  1.00  0.00     0.042 C 
BRANCH  23  24
ATOM     24  C   UNL A   1      38.883  20.191  25.700  1.00  0.00     0.118 C 
BRANCH  24  25
ATOM     25  N   UNL A   1      40.018  19.287  25.808  1.00  0.00    -0.352 N 
ATOM     26  C   UNL A   1      41.333  19.563  26.072  1.00  0.00     0.251 C 
ATOM     27  H   UNL A   1      39.809  18.335  25.670  1.00  0.00     0.163 HD
ATOM     28  O   UNL A   1      42.188  18.707  25.872  1.00  0.00    -0.269 OA
BRANCH  26  29
ATOM     29  C   UNL A   1      41.717  20.892  26.589  1.00  0.00     0.039 A 
ATOM     30  C   UNL A   1      42.127  21.875  25.688  1.00  0.00     0.014 A 
ATOM     31  C   UNL A   1      41.700  21.159  27.960  1.00  0.00     0.014 A 
ATOM     32  C   UNL A   1      42.489  23.135  26.165  1.00  0.00     0.010 A 
ATOM     33  C   UNL A   1      41.939  22.446  28.420  1.00  0.00     0.010 A 
ATOM     34  C   UNL A   1      42.377  23.436  27.532  1.00  0.00    -0.014 A 
BRANCH  34  35
ATOM     35  C   UNL A   1      42.773  24.765  28.056  1.00  0.00     0.031 A 
ATOM     36  C   UNL A   1      41.726  25.822  28.290  1.00  0.00     0.074 A 
ATOM     37  C   UNL A   1      44.071  25.026  28.295  1.00  0.00     0.049 A 
ATOM     38  N   UNL A   1      41.871  27.043  28.741  1.00  0.00    -0.248 NA
ATOM     39  C   UNL A   1      40.337  25.476  27.944  1.00  0.00     0.031 C 
ATOM     40  C   UNL A   1      45.181  24.101  28.053  1.00  0.00     0.029 A 
ATOM     41  N   UNL A   1      44.677  26.148  28.801  1.00  0.00    -0.354 N 
ATOM     42  C   UNL A   1      40.601  27.605  28.721  1.00  0.00     0.074 A 
ATOM     43  C   UNL A   1      39.710  26.624  28.144  1.00  0.00     0.031 C 
ATOM     44  C   UNL A   1      46.327  24.677  28.452  1.00  0.00     0.029 A 
ATOM     45  C   UNL A   1      46.037  26.022  28.940  1.00  0.00     0.049 A 
ATOM     46  H   UNL A   1      44.184  26.965  29.042  1.00  0.00     0.167 HD
ATOM     47  C   UNL A   1      40.202  28.817  29.175  1.00  0.00     0.037 A 
ATOM     48  C   UNL A   1      46.947  26.893  29.413  1.00  0.00     0.037 A 
ATOM     49  C   UNL A   1      41.089  29.782  29.768  1.00  0.00     0.049 A 
ATOM     50  C   UNL A   1      46.480  28.233  29.910  1.00  0.00     0.074 A 
ATOM     51  C   UNL A   1      40.784  31.020  30.302  1.00  0.00     0.029 A 
ATOM     52  N   UNL A   1      42.460  29.613  29.902  1.00  0.00    -0.354 N 
ATOM     53  N   UNL A   1      45.264  28.726  29.950  1.00  0.00    -0.248 NA
ATOM     54  C   UNL A   1      47.510  29.132  30.446  1.00  0.00     0.031 C 
ATOM     55  C   UNL A   1      41.978  31.624  30.712  1.00  0.00     0.029 A 
ATOM     56  C   UNL A   1      43.018  30.733  30.496  1.00  0.00     0.049 A 
ATOM     57  H   UNL A   1      42.961  28.814  29.620  1.00  0.00     0.167 HD
ATOM     58  C   UNL A   1      45.380  29.974  30.550  1.00  0.00     0.074 A 
ATOM     59  C   UNL A   1      46.781  30.153  30.869  1.00  0.00     0.031 C 
ATOM     60  C   UNL A   1      44.414  30.889  30.814  1.00  0.00     0.037 A 
BRANCH  47  61
ATOM     61  C   UNL A   1      38.744  29.159  29.050  1.00  0.00     0.057 A 
ATOM     62  C   UNL A   1      37.864  29.068  30.137  1.00  0.00     0.134 A 
ATOM     63  C   UNL A   1      38.216  29.603  27.831  1.00  0.00     0.134 A 
ATOM     64  F   UNL A   1      38.298  28.635  31.331  1.00  0.00    -0.206 F 
ATOM     65  C   UNL A   1      36.508  29.377  30.010  1.00  0.00     0.040 A 
ATOM     66  C   UNL A   1      36.868  29.946  27.700  1.00  0.00     0.040 A 
ATOM     67  F   UNL A   1      38.999  29.717  26.748  1.00  0.00    -0.206 F 
ATOM     68  C   UNL A   1      36.008  29.826  28.789  1.00  0.00     0.006 A 
ENDBRANCH  47  61
BRANCH  48  69
ATOM     69  C   UNL A   1      48.381  26.516  29.474  1.00  0.00     0.057 A 
ATOM     70  C   UNL A   1      48.905  25.832  30.577  1.00  0.00     0.134 A 
ATOM     71  C   UNL A   1      49.268  26.842  28.440  1.00  0.00     0.134 A 
ATOM     72  F   UNL A   1      48.110  25.504  31.608  1.00  0.00    -0.206 F 
ATOM     73  C   UNL A   1      50.261  25.512  30.666  1.00  0.00     0.040 A 
ATOM     74  C   UNL A   1      50.620  26.501  28.501  1.00  0.00     0.040 A 
ATOM     75  F   UNL A   1      48.829  27.486  27.348  1.00  0.00    -0.206 F 
ATOM     76  C   UNL A   1      51.122  25.844  29.622  1.00  0.00     0.006 A 
ENDBRANCH  48  69
BRANCH  60  77
ATOM     77  C   UNL A   1      44.836  32.139  31.535  1.00  0.00     0.057 A 
ATOM     78  C   UNL A   1      45.238  33.296  30.854  1.00  0.00     0.134 A 
ATOM     79  C   UNL A   1      44.827  32.184  32.935  1.00  0.00     0.134 A 
ATOM     80  F   UNL A   1      45.278  33.317  29.514  1.00  0.00    -0.206 F 
ATOM     81  C   UNL A   1      45.657  34.437  31.541  1.00  0.00     0.040 A 
ATOM     82  C   UNL A   1      45.210  33.331  33.632  1.00  0.00     0.040 A 
ATOM     83  F   UNL A   1      44.440  31.117  33.650  1.00  0.00    -0.206 F 
ATOM     84  C   UNL A   1      45.640  34.457  32.934  1.00  0.00     0.006 A 
ENDBRANCH  60  77
ENDBRANCH  34  35
ENDBRANCH  26  29
ENDBRANCH  24  25
ENDBRANCH  23  24
ENDBRANCH   1  23
TORSDOF 13
ENDMDL
MODEL 3
REMARK VINA RESULT:     -11.8      0.060      1.601
REMARK SMILES N#Cc1ccccc1S(=O)(=O)N1CCC(C(=O)NCCCNC(=O)c2ccc(-c3c4nc(c(-c5c(F)cccc5F)c5ccc([nH]5)c(-c5c(F)cccc5F)c5nc(c(-c6c(F)cccc6F)c6ccc3[nH]6)C=C5)C=C4)cc2)CC1
REMARK SMILES IDX 19 1 18 2 16 3 17 4 15 6 12 7 13 8 80 9 14 10 79 11 9 12
REMARK SMILES IDX 10 13 11 14 8 15 3 16 4 17 5 18 7 19 6 20 2 21 1 22 20 23
REMARK SMILES IDX 21 24 22 25 23 26 24 28 25 29 26 30 78 31 27 32 77 33 28 34
REMARK SMILES IDX 29 35 30 36 71 37 31 38 76 39 70 40 72 41 32 42 75 43 69 44
REMARK SMILES IDX 68 45 33 47 59 48 42 49 58 50 43 51 46 52 57 53 73 54 44 55
REMARK SMILES IDX 45 56 56 58 74 59 47 60 34 61 35 62 40 63 36 64 37 65 39 66
REMARK SMILES IDX 41 67 38 68 60 69 61 70 66 71 62 72 63 73 65 74 67 75 64 76
REMARK SMILES IDX 48 77 49 78 54 79 50 80 51 81 53 82 55 83 52 84
REMARK H PARENT 18 5 22 27 72 46 46 57
REMARK Flexibility Score: inf
ROOT
ATOM      1  C   UNL A   1      36.241  20.356  24.984  1.00  0.00     0.117 C 
ENDROOT
BRANCH   1   2
ATOM      2  N   UNL A   1      34.999  19.599  24.994  1.00  0.00    -0.356 N 
ATOM      3  C   UNL A   1      33.702  20.015  25.004  1.00  0.00     0.223 C 
ATOM      4  O   UNL A   1      32.823  19.155  25.076  1.00  0.00    -0.275 OA
ATOM      5  H   UNL A   1      35.115  18.622  24.993  1.00  0.00     0.163 HD
BRANCH   3   6
ATOM      6  C   UNL A   1      33.353  21.491  24.919  1.00  0.00     0.081 C 
ATOM      7  N   UNL A   1      31.454  23.665  25.323  1.00  0.00    -0.198 NA
ATOM      8  C   UNL A   1      31.518  23.047  23.990  1.00  0.00     0.103 C 
ATOM      9  C   UNL A   1      32.473  23.420  26.356  1.00  0.00     0.103 C 
ATOM     10  C   UNL A   1      32.235  21.720  23.913  1.00  0.00     0.030 C 
ATOM     11  C   UNL A   1      33.116  22.054  26.313  1.00  0.00     0.030 C 
BRANCH   7  12
ATOM     12  S   UNL A   1      30.639  25.149  25.410  1.00  0.00     0.244 S 
ATOM     13  O   UNL A   1      29.776  25.082  26.572  1.00  0.00    -0.207 OA
ATOM     14  O   UNL A   1      30.093  25.424  24.098  1.00  0.00    -0.207 OA
BRANCH  12  15
ATOM     15  C   UNL A   1      31.771  26.489  25.745  1.00  0.00     0.100 A 
ATOM     16  C   UNL A   1      32.889  26.889  25.007  1.00  0.00     0.072 A 
ATOM     17  C   UNL A   1      33.680  27.956  25.480  1.00  0.00     0.021 A 
ATOM     18  C   UNL A   1      33.359  28.636  26.650  1.00  0.00     0.001 A 
ATOM     19  C   UNL A   1      31.453  27.194  26.927  1.00  0.00     0.023 A 
ATOM     20  C   UNL A   1      32.237  28.258  27.372  1.00  0.00     0.001 A 
BRANCH  16  21
ATOM     21  C   UNL A   1      33.349  26.344  23.770  1.00  0.00     0.101 C 
ATOM     22  N   UNL A   1      33.682  25.988  22.723  1.00  0.00    -0.192 NA
ENDBRANCH  16  21
ENDBRANCH  12  15
ENDBRANCH   7  12
ENDBRANCH   3   6
ENDBRANCH   1   2
BRANCH   1  23
ATOM     23  C   UNL A   1      37.460  19.449  24.977  1.00  0.00     0.042 C 
BRANCH  23  24
ATOM     24  C   UNL A   1      38.740  20.173  25.343  1.00  0.00     0.118 C 
BRANCH  24  25
ATOM     25  N   UNL A   1      39.824  19.250  25.642  1.00  0.00    -0.352 N 
ATOM     26  C   UNL A   1      41.092  19.508  26.092  1.00  0.00     0.251 C 
ATOM     27  H   UNL A   1      39.616  18.299  25.500  1.00  0.00     0.163 HD
ATOM     28  O   UNL A   1      41.947  18.629  26.044  1.00  0.00    -0.269 OA
BRANCH  26  29
ATOM     29  C   UNL A   1      41.427  20.843  26.625  1.00  0.00     0.039 A 
ATOM     30  C   UNL A   1      41.800  21.852  25.737  1.00  0.00     0.014 A 
ATOM     31  C   UNL A   1      41.400  21.093  27.999  1.00  0.00     0.014 A 
ATOM     32  C   UNL A   1      42.115  23.118  26.229  1.00  0.00     0.010 A 
ATOM     33  C   UNL A   1      41.592  22.382  28.476  1.00  0.00     0.010 A 
ATOM     34  C   UNL A   1      41.992  23.399  27.600  1.00  0.00    -0.014 A 
BRANCH  34  35
ATOM     35  C   UNL A   1      42.339  24.734  28.140  1.00  0.00     0.031 A 
ATOM     36  C   UNL A   1      43.768  25.054  28.491  1.00  0.00     0.074 A 
ATOM     37  C   UNL A   1      41.368  25.645  28.339  1.00  0.00     0.049 A 
ATOM     38  N   UNL A   1      44.273  26.161  28.976  1.00  0.00    -0.248 NA
ATOM     39  C   UNL A   1      44.759  23.981  28.301  1.00  0.00     0.031 C 
ATOM     40  C   UNL A   1      39.940  25.431  28.092  1.00  0.00     0.029 A 
ATOM     41  N   UNL A   1      41.437  26.938  28.791  1.00  0.00    -0.354 N 
ATOM     42  C   UNL A   1      45.627  25.911  29.156  1.00  0.00     0.074 A 
ATOM     43  C   UNL A   1      45.855  24.528  28.803  1.00  0.00     0.031 C 
ATOM     44  C   UNL A   1      39.274  26.567  28.353  1.00  0.00     0.029 A 
ATOM     45  C   UNL A   1      40.220  27.574  28.822  1.00  0.00     0.049 A 
ATOM     46  H   UNL A   1      42.277  27.368  29.068  1.00  0.00     0.167 HD
ATOM     47  C   UNL A   1      46.603  26.765  29.546  1.00  0.00     0.037 A 
ATOM     48  C   UNL A   1      39.906  28.831  29.184  1.00  0.00     0.037 A 
ATOM     49  C   UNL A   1      46.374  28.146  29.876  1.00  0.00     0.049 A 
ATOM     50  C   UNL A   1      41.007  29.760  29.615  1.00  0.00     0.074 A 
ATOM     51  C   UNL A   1      47.296  29.111  30.239  1.00  0.00     0.029 A 
ATOM     52  N   UNL A   1      45.129  28.758  29.884  1.00  0.00    -0.354 N 
ATOM     53  N   UNL A   1      42.295  29.531  29.714  1.00  0.00    -0.248 NA
ATOM     54  C   UNL A   1      40.612  31.130  29.968  1.00  0.00     0.031 C 
ATOM     55  C   UNL A   1      46.602  30.294  30.518  1.00  0.00     0.029 A 
ATOM     56  C   UNL A   1      45.256  30.084  30.263  1.00  0.00     0.049 A 
ATOM     57  H   UNL A   1      44.280  28.316  29.652  1.00  0.00     0.167 HD
ATOM     58  C   UNL A   1      42.867  30.737  30.102  1.00  0.00     0.074 A 
ATOM     59  C   UNL A   1      41.786  31.695  30.204  1.00  0.00     0.031 C 
ATOM     60  C   UNL A   1      44.169  31.026  30.350  1.00  0.00     0.037 A 
BRANCH  47  61
ATOM     61  C   UNL A   1      48.003  26.225  29.631  1.00  0.00     0.057 A 
ATOM     62  C   UNL A   1      48.525  25.700  30.822  1.00  0.00     0.134 A 
ATOM     63  C   UNL A   1      48.835  26.213  28.505  1.00  0.00     0.134 A 
ATOM     64  F   UNL A   1      47.788  25.694  31.944  1.00  0.00    -0.206 F 
ATOM     65  C   UNL A   1      49.831  25.211  30.897  1.00  0.00     0.040 A 
ATOM     66  C   UNL A   1      50.132  25.697  28.559  1.00  0.00     0.040 A 
ATOM     67  F   UNL A   1      48.402  26.697  27.331  1.00  0.00    -0.206 F 
ATOM     68  C   UNL A   1      50.635  25.201  29.760  1.00  0.00     0.006 A 
ENDBRANCH  47  61
BRANCH  48  69
ATOM     69  C   UNL A   1      38.498  29.297  29.120  1.00  0.00     0.057 A 
ATOM     70  C   UNL A   1      37.945  29.773  27.925  1.00  0.00     0.134 A 
ATOM     71  C   UNL A   1      37.674  29.292  30.252  1.00  0.00     0.134 A 
ATOM     72  F   UNL A   1      38.688  29.818  26.808  1.00  0.00    -0.206 F 
ATOM     73  C   UNL A   1      36.637  30.256  27.864  1.00  0.00     0.040 A 
ATOM     74  C   UNL A   1      36.354  29.743  30.198  1.00  0.00     0.040 A 
ATOM     75  F   UNL A   1      38.137  28.837  31.426  1.00  0.00    -0.206 F 
ATOM     76  C   UNL A   1      35.836  30.238  29.004  1.00  0.00     0.006 A 
ENDBRANCH  48  69
BRANCH  60  77
ATOM     77  C   UNL A   1      44.498  32.450  30.696  1.00  0.00     0.057 A 
ATOM     78  C   UNL A   1      44.779  33.413  29.717  1.00  0.00     0.134 A 
ATOM     79  C   UNL A   1      44.521  32.865  32.034  1.00  0.00     0.134 A 
ATOM     80  F   UNL A   1      44.782  33.081  28.418  1.00  0.00    -0.206 F 
ATOM     81  C   UNL A   1      45.114  34.725  30.060  1.00  0.00     0.040 A 
ATOM     82  C   UNL A   1      44.820  34.182  32.387  1.00  0.00     0.040 A 
ATOM     83  F   UNL A   1      44.248  31.999  33.021  1.00  0.00    -0.206 F 
ATOM     84  C   UNL A   1      45.130  35.112  31.398  1.00  0.00     0.006 A 
ENDBRANCH  60  77
ENDBRANCH  34  35
ENDBRANCH  26  29
ENDBRANCH  24  25
ENDBRANCH  23  24
ENDBRANCH   1  23
TORSDOF 13
ENDMDL
