MODEL 1
REMARK VINA RESULT:     -13.3      0.000      0.000
REMARK SMILES CC(=O)O[C@@H]1CC[C@]23C(=O)O[C@]4(CC[C@]2(O)C1)[C@H]3CC[C@]1(C)[C@H](C(=O)NCCCNC(=O)c2ccc(-c3c5nc(c(-c6c(F)cccc6F)c6ccc([nH]6)c(-c6c(F)cccc6F)c6nc(c(-c7c(F)cccc7F)c7ccc3[nH]7)C=C6)C=C5)cc2)CC[C@@H]14
REMARK SMILES IDX 28 1 27 2 26 3 24 4 25 5 23 7 5 8 6 9 17 10 7 11 15 12 8 13
REMARK SMILES IDX 14 14 9 15 18 16 13 17 10 18 11 19 12 20 19 21 89 22 20 23
REMARK SMILES IDX 21 24 88 25 22 26 87 27 4 28 2 29 1 30 3 31 16 32 29 34
REMARK SMILES IDX 30 35 31 36 32 38 33 39 34 40 86 41 35 42 85 43 36 44 37 45
REMARK SMILES IDX 38 46 79 47 39 48 84 49 78 50 80 51 40 52 83 53 77 54 76 55
REMARK SMILES IDX 41 57 67 58 50 59 66 60 51 61 54 62 65 63 81 64 52 65 53 66
REMARK SMILES IDX 64 68 82 69 55 70 42 71 43 72 48 73 44 74 45 75 47 76 49 77
REMARK SMILES IDX 46 78 68 79 69 80 74 81 70 82 71 83 73 84 75 85 72 86 56 87
REMARK SMILES IDX 57 88 62 89 58 90 59 91 61 92 63 93 60 94
REMARK H PARENT 26 6 16 33 30 37 80 56 54 67
REMARK Flexibility Score: inf
ROOT
ATOM      1  C   UNL A   1      37.733  19.517  25.000  1.00  0.00     0.042 C 
ENDROOT
BRANCH   1   2
ATOM      2  C   UNL A   1      36.466  20.385  24.976  1.00  0.00     0.117 C 
BRANCH   2   3
ATOM      3  N   UNL A   1      36.697  21.616  24.232  1.00  0.00    -0.356 N 
ATOM      4  C   UNL A   1      35.918  22.508  23.580  1.00  0.00     0.223 C 
ATOM      5  O   UNL A   1      36.546  23.323  22.887  1.00  0.00    -0.275 OA
ATOM      6  H   UNL A   1      37.652  21.856  24.194  1.00  0.00     0.163 HD
BRANCH   4   7
ATOM      7  C   UNL A   1      34.389  22.650  23.650  1.00  0.00     0.085 C 
ATOM      8  C   UNL A   1      30.036  29.412  22.753  1.00  0.00     0.179 C 
ATOM      9  C   UNL A   1      31.158  28.834  21.929  1.00  0.00     0.047 C 
ATOM     10  C   UNL A   1      30.441  29.426  24.226  1.00  0.00     0.081 C 
ATOM     11  C   UNL A   1      31.749  27.581  22.538  1.00  0.00     0.026 C 
ATOM     12  C   UNL A   1      30.979  28.091  24.819  1.00  0.00     0.085 C 
ATOM     13  C   UNL A   1      32.279  27.629  24.194  1.00  0.00     0.103 C 
ATOM     14  C   UNL A   1      29.922  26.932  24.788  1.00  0.00     0.041 C 
ATOM     15  C   UNL A   1      33.447  26.904  23.719  1.00  0.00     0.316 C 
ATOM     16  C   UNL A   1      32.352  26.168  25.302  1.00  0.00     0.054 C 
ATOM     17  C   UNL A   1      30.412  25.530  24.179  1.00  0.00     0.052 C 
ATOM     18  O   UNL A   1      34.574  27.368  23.518  1.00  0.00    -0.251 OA
ATOM     19  O   UNL A   1      32.975  25.678  23.314  1.00  0.00    -0.458 OA
ATOM     20  C   UNL A   1      31.967  25.213  24.252  1.00  0.00     0.120 C 
ATOM     21  C   UNL A   1      33.591  25.690  26.101  1.00  0.00     0.009 C 
ATOM     22  C   UNL A   1      32.230  23.709  24.284  1.00  0.00     0.040 C 
ATOM     23  C   UNL A   1      34.358  24.488  25.521  1.00  0.00     0.008 C 
ATOM     24  C   UNL A   1      33.620  23.304  24.865  1.00  0.00    -0.014 C 
ATOM     25  C   UNL A   1      32.240  23.184  22.815  1.00  0.00     0.009 C 
ATOM     26  C   UNL A   1      33.400  22.193  25.916  1.00  0.00     0.012 C 
ATOM     27  C   UNL A   1      33.710  23.153  22.386  1.00  0.00     0.014 C 
BRANCH   8  28
ATOM     28  O   UNL A   1      28.684  28.895  22.602  1.00  0.00    -0.462 OA
BRANCH  28  29
ATOM     29  C   UNL A   1      27.535  29.490  23.010  1.00  0.00     0.302 C 
ATOM     30  C   UNL A   1      27.662  30.985  22.934  1.00  0.00     0.139 C 
ATOM     31  O   UNL A   1      26.522  28.938  23.406  1.00  0.00    -0.253 OA
ENDBRANCH  28  29
ENDBRANCH   8  28
BRANCH  12  32
ATOM     32  O   UNL A   1      31.296  28.443  26.188  1.00  0.00    -0.389 OA
ATOM     33  H   UNL A   1      32.086  29.008  26.201  1.00  0.00     0.211 HD
ENDBRANCH  12  32
ENDBRANCH   4   7
ENDBRANCH   2   3
ENDBRANCH   1   2
BRANCH   1  34
ATOM     34  C   UNL A   1      38.939  20.174  25.653  1.00  0.00     0.118 C 
BRANCH  34  35
ATOM     35  N   UNL A   1      40.059  19.261  25.789  1.00  0.00    -0.352 N 
ATOM     36  C   UNL A   1      41.366  19.506  26.136  1.00  0.00     0.251 C 
ATOM     37  H   UNL A   1      39.849  18.317  25.606  1.00  0.00     0.163 HD
ATOM     38  O   UNL A   1      42.199  18.614  25.996  1.00  0.00    -0.269 OA
BRANCH  36  39
ATOM     39  C   UNL A   1      41.797  20.827  26.658  1.00  0.00     0.039 A 
ATOM     40  C   UNL A   1      42.218  21.799  25.744  1.00  0.00     0.014 A 
ATOM     41  C   UNL A   1      41.849  21.106  28.026  1.00  0.00     0.014 A 
ATOM     42  C   UNL A   1      42.637  23.055  26.196  1.00  0.00     0.010 A 
ATOM     43  C   UNL A   1      42.180  22.387  28.471  1.00  0.00     0.010 A 
ATOM     44  C   UNL A   1      42.590  23.373  27.562  1.00  0.00    -0.014 A 
BRANCH  44  45
ATOM     45  C   UNL A   1      42.985  24.720  28.055  1.00  0.00     0.031 A 
ATOM     46  C   UNL A   1      41.940  25.767  28.330  1.00  0.00     0.074 A 
ATOM     47  C   UNL A   1      44.290  25.020  28.207  1.00  0.00     0.049 A 
ATOM     48  N   UNL A   1      42.094  27.013  28.706  1.00  0.00    -0.248 NA
ATOM     49  C   UNL A   1      40.536  25.373  28.132  1.00  0.00     0.031 C 
ATOM     50  C   UNL A   1      45.406  24.113  27.930  1.00  0.00     0.029 A 
ATOM     51  N   UNL A   1      44.901  26.178  28.624  1.00  0.00    -0.354 N 
ATOM     52  C   UNL A   1      40.814  27.552  28.768  1.00  0.00     0.074 A 
ATOM     53  C   UNL A   1      39.898  26.515  28.345  1.00  0.00     0.031 C 
ATOM     54  C   UNL A   1      46.561  24.739  28.206  1.00  0.00     0.029 A 
ATOM     55  C   UNL A   1      46.273  26.101  28.643  1.00  0.00     0.049 A 
ATOM     56  H   UNL A   1      44.403  26.986  28.885  1.00  0.00     0.167 HD
ATOM     57  C   UNL A   1      40.433  28.790  29.164  1.00  0.00     0.037 A 
ATOM     58  C   UNL A   1      47.196  27.027  28.967  1.00  0.00     0.037 A 
ATOM     59  C   UNL A   1      41.341  29.812  29.617  1.00  0.00     0.049 A 
ATOM     60  C   UNL A   1      46.747  28.393  29.406  1.00  0.00     0.074 A 
ATOM     61  C   UNL A   1      41.045  31.072  30.107  1.00  0.00     0.029 A 
ATOM     62  N   UNL A   1      42.721  29.688  29.637  1.00  0.00    -0.354 N 
ATOM     63  N   UNL A   1      45.529  28.863  29.527  1.00  0.00    -0.248 NA
ATOM     64  C   UNL A   1      47.801  29.355  29.761  1.00  0.00     0.031 C 
ATOM     65  C   UNL A   1      42.249  31.728  30.382  1.00  0.00     0.029 A 
ATOM     66  C   UNL A   1      43.293  30.859  30.107  1.00  0.00     0.049 A 
ATOM     67  H   UNL A   1      43.221  28.887  29.357  1.00  0.00     0.167 HD
ATOM     68  C   UNL A   1      45.669  30.165  29.989  1.00  0.00     0.074 A 
ATOM     69  C   UNL A   1      47.089  30.403  30.146  1.00  0.00     0.031 C 
ATOM     70  C   UNL A   1      44.708  31.081  30.259  1.00  0.00     0.037 A 
BRANCH  57  71
ATOM     71  C   UNL A   1      38.965  29.109  29.132  1.00  0.00     0.057 A 
ATOM     72  C   UNL A   1      38.163  29.011  30.275  1.00  0.00     0.134 A 
ATOM     73  C   UNL A   1      38.358  29.560  27.953  1.00  0.00     0.134 A 
ATOM     74  F   UNL A   1      38.680  28.576  31.434  1.00  0.00    -0.206 F 
ATOM     75  C   UNL A   1      36.803  29.326  30.243  1.00  0.00     0.040 A 
ATOM     76  C   UNL A   1      37.004  29.904  27.914  1.00  0.00     0.040 A 
ATOM     77  F   UNL A   1      39.070  29.685  26.822  1.00  0.00    -0.206 F 
ATOM     78  C   UNL A   1      36.222  29.781  29.061  1.00  0.00     0.006 A 
ENDBRANCH  57  71
BRANCH  58  79
ATOM     79  C   UNL A   1      48.640  26.689  28.904  1.00  0.00     0.057 A 
ATOM     80  C   UNL A   1      49.373  26.866  27.725  1.00  0.00     0.134 A 
ATOM     81  C   UNL A   1      49.321  26.176  30.014  1.00  0.00     0.134 A 
ATOM     82  F   UNL A   1      48.772  27.336  26.621  1.00  0.00    -0.206 F 
ATOM     83  C   UNL A   1      50.725  26.529  27.646  1.00  0.00     0.040 A 
ATOM     84  C   UNL A   1      50.678  25.857  29.957  1.00  0.00     0.040 A 
ATOM     85  F   UNL A   1      48.677  25.987  31.176  1.00  0.00    -0.206 F 
ATOM     86  C   UNL A   1      51.383  26.028  28.767  1.00  0.00     0.006 A 
ENDBRANCH  58  79
BRANCH  70  87
ATOM     87  C   UNL A   1      45.159  32.416  30.773  1.00  0.00     0.057 A 
ATOM     88  C   UNL A   1      45.414  33.490  29.911  1.00  0.00     0.134 A 
ATOM     89  C   UNL A   1      45.304  32.640  32.148  1.00  0.00     0.134 A 
ATOM     90  F   UNL A   1      45.306  33.337  28.583  1.00  0.00    -0.206 F 
ATOM     91  C   UNL A   1      45.820  34.734  30.398  1.00  0.00     0.040 A 
ATOM     92  C   UNL A   1      45.685  33.885  32.648  1.00  0.00     0.040 A 
ATOM     93  F   UNL A   1      45.067  31.655  33.028  1.00  0.00    -0.206 F 
ATOM     94  C   UNL A   1      45.949  34.935  31.772  1.00  0.00     0.006 A 
ENDBRANCH  70  87
ENDBRANCH  44  45
ENDBRANCH  36  39
ENDBRANCH  34  35
ENDBRANCH   1  34
TORSDOF 13
ENDMDL
MODEL 2
REMARK VINA RESULT:     -13.3      4.320      8.992
REMARK SMILES CC(=O)O[C@@H]1CC[C@]23C(=O)O[C@]4(CC[C@]2(O)C1)[C@H]3CC[C@]1(C)[C@H](C(=O)NCCCNC(=O)c2ccc(-c3c5nc(c(-c6c(F)cccc6F)c6ccc([nH]6)c(-c6c(F)cccc6F)c6nc(c(-c7c(F)cccc7F)c7ccc3[nH]7)C=C6)C=C5)cc2)CC[C@@H]14
REMARK SMILES IDX 28 1 27 2 26 3 24 4 25 5 23 7 5 8 6 9 17 10 7 11 15 12 8 13
REMARK SMILES IDX 14 14 9 15 18 16 13 17 10 18 11 19 12 20 19 21 89 22 20 23
REMARK SMILES IDX 21 24 88 25 22 26 87 27 4 28 2 29 1 30 3 31 16 32 29 34
REMARK SMILES IDX 30 35 31 36 32 38 33 39 34 40 86 41 35 42 85 43 36 44 37 45
REMARK SMILES IDX 38 46 79 47 39 48 84 49 78 50 80 51 40 52 83 53 77 54 76 55
REMARK SMILES IDX 41 57 67 58 50 59 66 60 51 61 54 62 65 63 81 64 52 65 53 66
REMARK SMILES IDX 64 68 82 69 55 70 42 71 43 72 48 73 44 74 45 75 47 76 49 77
REMARK SMILES IDX 46 78 68 79 69 80 74 81 70 82 71 83 73 84 75 85 72 86 56 87
REMARK SMILES IDX 57 88 62 89 58 90 59 91 61 92 63 93 60 94
REMARK H PARENT 26 6 16 33 30 37 80 56 54 67
REMARK Flexibility Score: inf
ROOT
ATOM      1  C   UNL A   1      31.412  32.606  26.069  1.00  0.00     0.042 C 
ENDROOT
BRANCH   1   2
ATOM      2  C   UNL A   1      30.680  31.255  26.074  1.00  0.00     0.117 C 
BRANCH   2   3
ATOM      3  N   UNL A   1      30.924  30.532  24.833  1.00  0.00    -0.356 N 
ATOM      4  C   UNL A   1      31.717  29.503  24.457  1.00  0.00     0.223 C 
ATOM      5  O   UNL A   1      31.776  29.326  23.231  1.00  0.00    -0.275 OA
ATOM      6  H   UNL A   1      30.379  30.875  24.087  1.00  0.00     0.163 HD
BRANCH   4   7
ATOM      7  C   UNL A   1      32.482  28.525  25.363  1.00  0.00     0.085 C 
ATOM      8  C   UNL A   1      33.454  20.564  24.287  1.00  0.00     0.179 C 
ATOM      9  C   UNL A   1      33.631  21.725  23.342  1.00  0.00     0.047 C 
ATOM     10  C   UNL A   1      32.100  20.680  24.987  1.00  0.00     0.081 C 
ATOM     11  C   UNL A   1      33.236  23.049  23.959  1.00  0.00     0.026 C 
ATOM     12  C   UNL A   1      31.774  22.044  25.664  1.00  0.00     0.085 C 
ATOM     13  C   UNL A   1      31.662  23.195  24.686  1.00  0.00     0.103 C 
ATOM     14  C   UNL A   1      32.768  22.411  26.821  1.00  0.00     0.041 C 
ATOM     15  C   UNL A   1      31.596  24.479  24.007  1.00  0.00     0.316 C 
ATOM     16  C   UNL A   1      31.249  24.368  26.035  1.00  0.00     0.054 C 
ATOM     17  C   UNL A   1      33.403  23.885  26.781  1.00  0.00     0.052 C 
ATOM     18  O   UNL A   1      30.962  24.741  22.979  1.00  0.00    -0.251 OA
ATOM     19  O   UNL A   1      32.565  25.255  24.599  1.00  0.00    -0.458 OA
ATOM     20  C   UNL A   1      32.571  25.012  26.033  1.00  0.00     0.120 C 
ATOM     21  C   UNL A   1      30.095  25.402  26.023  1.00  0.00     0.009 C 
ATOM     22  C   UNL A   1      32.880  26.399  26.591  1.00  0.00     0.040 C 
ATOM     23  C   UNL A   1      30.488  26.864  25.740  1.00  0.00     0.008 C 
ATOM     24  C   UNL A   1      31.783  27.473  26.312  1.00  0.00    -0.014 C 
ATOM     25  C   UNL A   1      34.160  26.938  25.878  1.00  0.00     0.009 C 
ATOM     26  C   UNL A   1      31.466  28.196  27.640  1.00  0.00     0.012 C 
ATOM     27  C   UNL A   1      33.664  27.815  24.724  1.00  0.00     0.014 C 
BRANCH   8  28
ATOM     28  O   UNL A   1      34.498  20.244  25.249  1.00  0.00    -0.462 OA
BRANCH  28  29
ATOM     29  C   UNL A   1      35.755  20.752  25.284  1.00  0.00     0.302 C 
ATOM     30  C   UNL A   1      36.741  19.754  24.748  1.00  0.00     0.139 C 
ATOM     31  O   UNL A   1      36.092  21.850  25.696  1.00  0.00    -0.253 OA
ENDBRANCH  28  29
ENDBRANCH   8  28
BRANCH  12  32
ATOM     32  O   UNL A   1      30.442  21.838  26.193  1.00  0.00    -0.389 OA
ATOM     33  H   UNL A   1      29.816  22.413  25.724  1.00  0.00     0.211 HD
ENDBRANCH  12  32
ENDBRANCH   4   7
ENDBRANCH   2   3
ENDBRANCH   1   2
BRANCH   1  34
ATOM     34  C   UNL A   1      32.388  32.801  27.218  1.00  0.00     0.118 C 
BRANCH  34  35
ATOM     35  N   UNL A   1      32.473  34.186  27.641  1.00  0.00    -0.352 N 
ATOM     36  C   UNL A   1      33.304  34.785  28.557  1.00  0.00     0.251 C 
ATOM     37  H   UNL A   1      31.836  34.794  27.201  1.00  0.00     0.163 HD
ATOM     38  O   UNL A   1      33.073  35.938  28.912  1.00  0.00    -0.269 OA
BRANCH  36  39
ATOM     39  C   UNL A   1      34.464  34.065  29.141  1.00  0.00     0.039 A 
ATOM     40  C   UNL A   1      34.218  33.064  30.087  1.00  0.00     0.014 A 
ATOM     41  C   UNL A   1      35.783  34.394  28.820  1.00  0.00     0.014 A 
ATOM     42  C   UNL A   1      35.283  32.365  30.665  1.00  0.00     0.010 A 
ATOM     43  C   UNL A   1      36.841  33.637  29.328  1.00  0.00     0.010 A 
ATOM     44  C   UNL A   1      36.604  32.622  30.266  1.00  0.00    -0.014 A 
BRANCH  44  45
ATOM     45  C   UNL A   1      37.745  31.855  30.834  1.00  0.00     0.031 A 
ATOM     46  C   UNL A   1      38.244  32.147  32.224  1.00  0.00     0.074 A 
ATOM     47  C   UNL A   1      38.369  30.928  30.079  1.00  0.00     0.049 A 
ATOM     48  N   UNL A   1      39.262  31.627  32.865  1.00  0.00    -0.248 NA
ATOM     49  C   UNL A   1      37.523  33.179  32.985  1.00  0.00     0.031 C 
ATOM     50  C   UNL A   1      38.017  30.582  28.701  1.00  0.00     0.029 A 
ATOM     51  N   UNL A   1      39.438  30.113  30.362  1.00  0.00    -0.354 N 
ATOM     52  C   UNL A   1      39.312  32.280  34.090  1.00  0.00     0.074 A 
ATOM     53  C   UNL A   1      38.255  33.268  34.086  1.00  0.00     0.031 C 
ATOM     54  C   UNL A   1      38.838  29.612  28.267  1.00  0.00     0.029 A 
ATOM     55  C   UNL A   1      39.797  29.293  29.319  1.00  0.00     0.049 A 
ATOM     56  H   UNL A   1      39.903  30.117  31.230  1.00  0.00     0.167 HD
ATOM     57  C   UNL A   1      40.147  32.062  35.135  1.00  0.00     0.037 A 
ATOM     58  C   UNL A   1      40.791  28.391  29.219  1.00  0.00     0.037 A 
ATOM     59  C   UNL A   1      41.176  31.056  35.154  1.00  0.00     0.049 A 
ATOM     60  C   UNL A   1      41.702  28.165  30.394  1.00  0.00     0.074 A 
ATOM     61  C   UNL A   1      42.025  30.710  36.191  1.00  0.00     0.029 A 
ATOM     62  N   UNL A   1      41.496  30.234  34.084  1.00  0.00    -0.354 N 
ATOM     63  N   UNL A   1      41.691  28.742  31.571  1.00  0.00    -0.248 NA
ATOM     64  C   UNL A   1      42.760  27.157  30.229  1.00  0.00     0.031 C 
ATOM     65  C   UNL A   1      42.887  29.708  35.735  1.00  0.00     0.029 A 
ATOM     66  C   UNL A   1      42.545  29.398  34.428  1.00  0.00     0.049 A 
ATOM     67  H   UNL A   1      41.044  30.244  33.209  1.00  0.00     0.167 HD
ATOM     68  C   UNL A   1      42.723  28.155  32.292  1.00  0.00     0.074 A 
ATOM     69  C   UNL A   1      43.327  27.163  31.426  1.00  0.00     0.031 C 
ATOM     70  C   UNL A   1      43.135  28.415  33.556  1.00  0.00     0.037 A 
BRANCH  57  71
ATOM     71  C   UNL A   1      39.977  32.925  36.353  1.00  0.00     0.057 A 
ATOM     72  C   UNL A   1      40.716  34.100  36.535  1.00  0.00     0.134 A 
ATOM     73  C   UNL A   1      39.031  32.598  37.334  1.00  0.00     0.134 A 
ATOM     74  F   UNL A   1      41.644  34.465  35.637  1.00  0.00    -0.206 F 
ATOM     75  C   UNL A   1      40.541  34.908  37.660  1.00  0.00     0.040 A 
ATOM     76  C   UNL A   1      38.828  33.412  38.451  1.00  0.00     0.040 A 
ATOM     77  F   UNL A   1      38.284  31.491  37.219  1.00  0.00    -0.206 F 
ATOM     78  C   UNL A   1      39.588  34.567  38.618  1.00  0.00     0.006 A 
ENDBRANCH  57  71
BRANCH  58  79
ATOM     79  C   UNL A   1      40.971  27.619  27.964  1.00  0.00     0.057 A 
ATOM     80  C   UNL A   1      41.757  28.115  26.917  1.00  0.00     0.134 A 
ATOM     81  C   UNL A   1      40.358  26.375  27.776  1.00  0.00     0.134 A 
ATOM     82  F   UNL A   1      42.354  29.311  27.030  1.00  0.00    -0.206 F 
ATOM     83  C   UNL A   1      41.913  27.411  25.722  1.00  0.00     0.040 A 
ATOM     84  C   UNL A   1      40.525  25.649  26.596  1.00  0.00     0.040 A 
ATOM     85  F   UNL A   1      39.595  25.842  28.742  1.00  0.00    -0.206 F 
ATOM     86  C   UNL A   1      41.299  26.170  25.562  1.00  0.00     0.006 A 
ENDBRANCH  58  79
BRANCH  70  87
ATOM     87  C   UNL A   1      44.276  27.599  34.087  1.00  0.00     0.057 A 
ATOM     88  C   UNL A   1      45.601  28.045  34.007  1.00  0.00     0.134 A 
ATOM     89  C   UNL A   1      44.042  26.369  34.716  1.00  0.00     0.134 A 
ATOM     90  F   UNL A   1      45.892  29.207  33.405  1.00  0.00    -0.206 F 
ATOM     91  C   UNL A   1      46.657  27.286  34.516  1.00  0.00     0.040 A 
ATOM     92  C   UNL A   1      45.086  25.614  35.251  1.00  0.00     0.040 A 
ATOM     93  F   UNL A   1      42.795  25.889  34.832  1.00  0.00    -0.206 F 
ATOM     94  C   UNL A   1      46.398  26.069  35.146  1.00  0.00     0.006 A 
ENDBRANCH  70  87
ENDBRANCH  44  45
ENDBRANCH  36  39
ENDBRANCH  34  35
ENDBRANCH   1  34
TORSDOF 13
ENDMDL
MODEL 3
REMARK VINA RESULT:     -13.3      0.565      5.827
REMARK SMILES CC(=O)O[C@@H]1CC[C@]23C(=O)O[C@]4(CC[C@]2(O)C1)[C@H]3CC[C@]1(C)[C@H](C(=O)NCCCNC(=O)c2ccc(-c3c5nc(c(-c6c(F)cccc6F)c6ccc([nH]6)c(-c6c(F)cccc6F)c6nc(c(-c7c(F)cccc7F)c7ccc3[nH]7)C=C6)C=C5)cc2)CC[C@@H]14
REMARK SMILES IDX 28 1 27 2 26 3 24 4 25 5 23 7 5 8 6 9 17 10 7 11 15 12 8 13
REMARK SMILES IDX 14 14 9 15 18 16 13 17 10 18 11 19 12 20 19 21 89 22 20 23
REMARK SMILES IDX 21 24 88 25 22 26 87 27 4 28 2 29 1 30 3 31 16 32 29 34
REMARK SMILES IDX 30 35 31 36 32 38 33 39 34 40 86 41 35 42 85 43 36 44 37 45
REMARK SMILES IDX 38 46 79 47 39 48 84 49 78 50 80 51 40 52 83 53 77 54 76 55
REMARK SMILES IDX 41 57 67 58 50 59 66 60 51 61 54 62 65 63 81 64 52 65 53 66
REMARK SMILES IDX 64 68 82 69 55 70 42 71 43 72 48 73 44 74 45 75 47 76 49 77
REMARK SMILES IDX 46 78 68 79 69 80 74 81 70 82 71 83 73 84 75 85 72 86 56 87
REMARK SMILES IDX 57 88 62 89 58 90 59 91 61 92 63 93 60 94
REMARK H PARENT 26 6 16 33 30 37 80 56 54 67
REMARK Flexibility Score: inf
ROOT
ATOM      1  C   UNL A   1      38.068  19.591  24.854  1.00  0.00     0.042 C 
ENDROOT
BRANCH   1   2
ATOM      2  C   UNL A   1      36.772  20.415  24.892  1.00  0.00     0.117 C 
BRANCH   2   3
ATOM      3  N   UNL A   1      36.925  21.652  24.138  1.00  0.00    -0.356 N 
ATOM      4  C   UNL A   1      36.083  22.526  23.542  1.00  0.00     0.223 C 
ATOM      5  O   UNL A   1      36.645  23.358  22.812  1.00  0.00    -0.275 OA
ATOM      6  H   UNL A   1      37.869  21.915  24.038  1.00  0.00     0.163 HD
BRANCH   4   7
ATOM      7  C   UNL A   1      34.559  22.631  23.712  1.00  0.00     0.085 C 
ATOM      8  C   UNL A   1      29.955  29.222  22.789  1.00  0.00     0.179 C 
ATOM      9  C   UNL A   1      31.034  28.632  21.918  1.00  0.00     0.047 C 
ATOM     10  C   UNL A   1      30.461  29.323  24.227  1.00  0.00     0.081 C 
ATOM     11  C   UNL A   1      31.703  27.428  22.545  1.00  0.00     0.026 C 
ATOM     12  C   UNL A   1      31.078  28.035  24.847  1.00  0.00     0.085 C 
ATOM     13  C   UNL A   1      32.345  27.575  24.156  1.00  0.00     0.103 C 
ATOM     14  C   UNL A   1      30.056  26.848  24.948  1.00  0.00     0.041 C 
ATOM     15  C   UNL A   1      33.498  26.858  23.636  1.00  0.00     0.316 C 
ATOM     16  C   UNL A   1      32.538  26.176  25.327  1.00  0.00     0.054 C 
ATOM     17  C   UNL A   1      30.544  25.429  24.377  1.00  0.00     0.052 C 
ATOM     18  O   UNL A   1      34.595  27.340  23.333  1.00  0.00    -0.251 OA
ATOM     19  O   UNL A   1      33.036  25.600  23.326  1.00  0.00    -0.458 OA
ATOM     20  C   UNL A   1      32.109  25.158  24.356  1.00  0.00     0.120 C 
ATOM     21  C   UNL A   1      33.842  25.773  26.059  1.00  0.00     0.009 C 
ATOM     22  C   UNL A   1      32.419  23.665  24.444  1.00  0.00     0.040 C 
ATOM     23  C   UNL A   1      34.603  24.562  25.487  1.00  0.00     0.008 C 
ATOM     24  C   UNL A   1      33.857  23.327  24.945  1.00  0.00    -0.014 C 
ATOM     25  C   UNL A   1      32.343  23.065  23.005  1.00  0.00     0.009 C 
ATOM     26  C   UNL A   1      33.743  22.266  26.062  1.00  0.00     0.012 C 
ATOM     27  C   UNL A   1      33.780  23.051  22.476  1.00  0.00     0.014 C 
BRANCH   8  28
ATOM     28  O   UNL A   1      28.612  28.663  22.761  1.00  0.00    -0.462 OA
BRANCH  28  29
ATOM     29  C   UNL A   1      27.457  29.303  23.070  1.00  0.00     0.302 C 
ATOM     30  C   UNL A   1      27.626  30.789  22.930  1.00  0.00     0.139 C 
ATOM     31  O   UNL A   1      26.409  28.794  23.432  1.00  0.00    -0.253 OA
ENDBRANCH  28  29
ENDBRANCH   8  28
BRANCH  12  32
ATOM     32  O   UNL A   1      31.478  28.465  26.171  1.00  0.00    -0.389 OA
ATOM     33  H   UNL A   1      32.279  29.009  26.105  1.00  0.00     0.211 HD
ENDBRANCH  12  32
ENDBRANCH   4   7
ENDBRANCH   2   3
ENDBRANCH   1   2
BRANCH   1  34
ATOM     34  C   UNL A   1      39.050  19.904  25.972  1.00  0.00     0.118 C 
BRANCH  34  35
ATOM     35  N   UNL A   1      40.298  19.177  25.830  1.00  0.00    -0.352 N 
ATOM     36  C   UNL A   1      41.596  19.605  25.975  1.00  0.00     0.251 C 
ATOM     37  H   UNL A   1      40.200  18.227  25.593  1.00  0.00     0.163 HD
ATOM     38  O   UNL A   1      42.512  18.873  25.612  1.00  0.00    -0.269 OA
BRANCH  36  39
ATOM     39  C   UNL A   1      41.915  20.939  26.545  1.00  0.00     0.039 A 
ATOM     40  C   UNL A   1      42.253  21.974  25.667  1.00  0.00     0.014 A 
ATOM     41  C   UNL A   1      41.944  21.173  27.922  1.00  0.00     0.014 A 
ATOM     42  C   UNL A   1      42.565  23.244  26.164  1.00  0.00     0.010 A 
ATOM     43  C   UNL A   1      42.166  22.460  28.413  1.00  0.00     0.010 A 
ATOM     44  C   UNL A   1      42.492  23.508  27.540  1.00  0.00    -0.014 A 
BRANCH  44  45
ATOM     45  C   UNL A   1      42.772  24.866  28.081  1.00  0.00     0.031 A 
ATOM     46  C   UNL A   1      44.167  25.246  28.500  1.00  0.00     0.074 A 
ATOM     47  C   UNL A   1      41.761  25.742  28.246  1.00  0.00     0.049 A 
ATOM     48  N   UNL A   1      44.594  26.358  29.048  1.00  0.00    -0.248 NA
ATOM     49  C   UNL A   1      45.219  24.236  28.302  1.00  0.00     0.031 C 
ATOM     50  C   UNL A   1      40.356  25.483  27.926  1.00  0.00     0.029 A 
ATOM     51  N   UNL A   1      41.758  27.026  28.734  1.00  0.00    -0.354 N 
ATOM     52  C   UNL A   1      45.952  26.171  29.277  1.00  0.00     0.074 A 
ATOM     53  C   UNL A   1      46.270  24.824  28.855  1.00  0.00     0.031 C 
ATOM     54  C   UNL A   1      39.632  26.580  28.203  1.00  0.00     0.029 A 
ATOM     55  C   UNL A   1      40.512  27.605  28.755  1.00  0.00     0.049 A 
ATOM     56  H   UNL A   1      42.572  27.488  29.039  1.00  0.00     0.167 HD
ATOM     57  C   UNL A   1      46.857  27.049  29.772  1.00  0.00     0.037 A 
ATOM     58  C   UNL A   1      40.120  28.821  29.178  1.00  0.00     0.037 A 
ATOM     59  C   UNL A   1      46.548  28.400  30.161  1.00  0.00     0.049 A 
ATOM     60  C   UNL A   1      41.145  29.778  29.720  1.00  0.00     0.074 A 
ATOM     61  C   UNL A   1      47.410  29.388  30.605  1.00  0.00     0.029 A 
ATOM     62  N   UNL A   1      45.277  28.953  30.150  1.00  0.00    -0.354 N 
ATOM     63  N   UNL A   1      42.438  29.611  29.863  1.00  0.00    -0.248 NA
ATOM     64  C   UNL A   1      40.658  31.096  30.153  1.00  0.00     0.031 C 
ATOM     65  C   UNL A   1      46.654  30.525  30.905  1.00  0.00     0.029 A 
ATOM     66  C   UNL A   1      45.328  30.261  30.604  1.00  0.00     0.049 A 
ATOM     67  H   UNL A   1      44.459  28.485  29.863  1.00  0.00     0.167 HD
ATOM     68  C   UNL A   1      42.920  30.805  30.383  1.00  0.00     0.074 A 
ATOM     69  C   UNL A   1      41.784  31.695  30.510  1.00  0.00     0.031 C 
ATOM     70  C   UNL A   1      44.189  31.134  30.724  1.00  0.00     0.037 A 
BRANCH  57  71
ATOM     71  C   UNL A   1      48.276  26.576  29.915  1.00  0.00     0.057 A 
ATOM     72  C   UNL A   1      48.725  25.922  31.069  1.00  0.00     0.134 A 
ATOM     73  C   UNL A   1      49.194  26.741  28.869  1.00  0.00     0.134 A 
ATOM     74  F   UNL A   1      47.900  25.741  32.112  1.00  0.00    -0.206 F 
ATOM     75  C   UNL A   1      50.040  25.469  31.189  1.00  0.00     0.040 A 
ATOM     76  C   UNL A   1      50.505  26.270  28.966  1.00  0.00     0.040 A 
ATOM     77  F   UNL A   1      48.829  27.353  27.732  1.00  0.00    -0.206 F 
ATOM     78  C   UNL A   1      50.932  25.637  30.131  1.00  0.00     0.006 A 
ENDBRANCH  57  71
BRANCH  58  79
ATOM     79  C   UNL A   1      38.691  29.213  29.093  1.00  0.00     0.057 A 
ATOM     80  C   UNL A   1      38.132  29.649  27.886  1.00  0.00     0.134 A 
ATOM     81  C   UNL A   1      37.852  29.168  30.212  1.00  0.00     0.134 A 
ATOM     82  F   UNL A   1      38.890  29.731  26.782  1.00  0.00    -0.206 F 
ATOM     83  C   UNL A   1      36.796  30.044  27.798  1.00  0.00     0.040 A 
ATOM     84  C   UNL A   1      36.508  29.537  30.133  1.00  0.00     0.040 A 
ATOM     85  F   UNL A   1      38.324  28.755  31.398  1.00  0.00    -0.206 F 
ATOM     86  C   UNL A   1      35.978  29.983  28.924  1.00  0.00     0.006 A 
ENDBRANCH  58  79
BRANCH  70  87
ATOM     87  C   UNL A   1      44.420  32.522  31.245  1.00  0.00     0.057 A 
ATOM     88  C   UNL A   1      44.684  33.597  30.388  1.00  0.00     0.134 A 
ATOM     89  C   UNL A   1      44.342  32.792  32.618  1.00  0.00     0.134 A 
ATOM     90  F   UNL A   1      44.785  33.403  29.064  1.00  0.00    -0.206 F 
ATOM     91  C   UNL A   1      44.884  34.889  30.879  1.00  0.00     0.040 A 
ATOM     92  C   UNL A   1      44.515  34.082  33.118  1.00  0.00     0.040 A 
ATOM     93  F   UNL A   1      44.085  31.807  33.492  1.00  0.00    -0.206 F 
ATOM     94  C   UNL A   1      44.792  35.134  32.248  1.00  0.00     0.006 A 
ENDBRANCH  70  87
ENDBRANCH  44  45
ENDBRANCH  36  39
ENDBRANCH  34  35
ENDBRANCH   1  34
TORSDOF 13
ENDMDL
