MODEL 1
REMARK VINA RESULT:     -12.7      0.000      0.000
REMARK SMILES O=C(NCCCNC(=O)[C@@H]1[C@@H](C(=O)Nc2ccc(F)c(F)c2)[C@H]2CC[C@@H]1O2)c1ccc(-c2c3nc(c(-c4c(F)cccc4F)c4ccc([nH]4)c(-c4c(F)cccc4F)c4nc(c(-c5c(F)cccc5F)c5ccc2[nH]5)C=C4)C=C3)cc1
REMARK SMILES IDX 5 1 4 2 3 3 1 4 2 5 28 7 29 8 81 9 30 10 80 11 31 12 32 13
REMARK SMILES IDX 33 14 74 15 34 16 79 17 73 18 75 19 35 20 78 21 72 22 71 23
REMARK SMILES IDX 36 25 62 26 45 27 61 28 46 29 49 30 60 31 76 32 47 33 48 34
REMARK SMILES IDX 59 36 77 37 50 38 37 39 38 40 43 41 39 42 40 43 42 44 44 45
REMARK SMILES IDX 41 46 63 47 64 48 69 49 65 50 66 51 68 52 70 53 67 54 51 55
REMARK SMILES IDX 52 56 57 57 53 58 54 59 56 60 58 61 55 62 6 63 7 64 8 65
REMARK SMILES IDX 9 67 10 68 11 69 26 70 23 71 25 72 27 73 24 74 12 75 13 76
REMARK SMILES IDX 14 77 15 79 16 80 22 81 17 82 20 83 18 84 21 85 19 86
REMARK H PARENT 3 6 75 24 49 35 7 66 14 78
REMARK Flexibility Score: inf
ROOT
ATOM      1  C   UNL A   1      37.764  19.659  24.881  1.00  0.00     0.042 C 
ENDROOT
BRANCH   1   2
ATOM      2  C   UNL A   1      38.869  20.047  25.845  1.00  0.00     0.118 C 
BRANCH   2   3
ATOM      3  N   UNL A   1      40.043  19.187  25.788  1.00  0.00    -0.352 N 
ATOM      4  O   UNL A   1      42.198  18.544  25.906  1.00  0.00    -0.269 OA
ATOM      5  C   UNL A   1      41.370  19.434  26.052  1.00  0.00     0.251 C 
ATOM      6  H   UNL A   1      39.852  18.261  25.513  1.00  0.00     0.163 HD
BRANCH   5   7
ATOM      7  C   UNL A   1      41.817  20.774  26.474  1.00  0.00     0.039 A 
ATOM      8  C   UNL A   1      42.032  21.783  25.540  1.00  0.00     0.014 A 
ATOM      9  C   UNL A   1      41.990  21.037  27.838  1.00  0.00     0.014 A 
ATOM     10  C   UNL A   1      42.610  22.979  25.931  1.00  0.00     0.010 A 
ATOM     11  C   UNL A   1      42.437  22.294  28.248  1.00  0.00     0.010 A 
ATOM     12  C   UNL A   1      42.780  23.262  27.293  1.00  0.00    -0.014 A 
BRANCH  12  13
ATOM     13  C   UNL A   1      43.219  24.618  27.693  1.00  0.00     0.031 A 
ATOM     14  C   UNL A   1      42.226  25.648  28.134  1.00  0.00     0.074 A 
ATOM     15  C   UNL A   1      44.535  24.900  27.646  1.00  0.00     0.049 A 
ATOM     16  N   UNL A   1      42.429  26.899  28.457  1.00  0.00    -0.248 NA
ATOM     17  C   UNL A   1      40.820  25.224  28.213  1.00  0.00     0.031 C 
ATOM     18  C   UNL A   1      45.582  23.962  27.228  1.00  0.00     0.029 A 
ATOM     19  N   UNL A   1      45.221  26.045  27.950  1.00  0.00    -0.354 N 
ATOM     20  C   UNL A   1      41.175  27.422  28.747  1.00  0.00     0.074 A 
ATOM     21  C   UNL A   1      40.216  26.358  28.541  1.00  0.00     0.031 C 
ATOM     22  C   UNL A   1      46.775  24.557  27.333  1.00  0.00     0.029 A 
ATOM     23  C   UNL A   1      46.573  25.942  27.736  1.00  0.00     0.049 A 
ATOM     24  H   UNL A   1      44.787  26.862  28.289  1.00  0.00     0.167 HD
ATOM     25  C   UNL A   1      40.863  28.679  29.146  1.00  0.00     0.037 A 
ATOM     26  C   UNL A   1      47.542  26.870  27.812  1.00  0.00     0.037 A 
ATOM     27  C   UNL A   1      41.839  29.721  29.341  1.00  0.00     0.049 A 
ATOM     28  C   UNL A   1      47.168  28.263  28.215  1.00  0.00     0.074 A 
ATOM     29  C   UNL A   1      41.642  31.020  29.770  1.00  0.00     0.029 A 
ATOM     30  N   UNL A   1      43.202  29.580  29.103  1.00  0.00    -0.354 N 
ATOM     31  N   UNL A   1      45.984  28.742  28.511  1.00  0.00    -0.248 NA
ATOM     32  C   UNL A   1      48.256  29.244  28.293  1.00  0.00     0.031 C 
ATOM     33  C   UNL A   1      42.873  31.683  29.734  1.00  0.00     0.029 A 
ATOM     34  C   UNL A   1      43.851  30.779  29.349  1.00  0.00     0.049 A 
ATOM     35  H   UNL A   1      43.640  28.750  28.804  1.00  0.00     0.167 HD
ATOM     36  C   UNL A   1      46.183  30.075  28.836  1.00  0.00     0.074 A 
ATOM     37  C   UNL A   1      47.605  30.326  28.702  1.00  0.00     0.031 C 
ATOM     38  C   UNL A   1      45.272  31.002  29.217  1.00  0.00     0.037 A 
BRANCH  25  39
ATOM     39  C   UNL A   1      39.407  29.000  29.343  1.00  0.00     0.057 A 
ATOM     40  C   UNL A   1      38.773  28.876  30.587  1.00  0.00     0.134 A 
ATOM     41  C   UNL A   1      38.624  29.437  28.265  1.00  0.00     0.134 A 
ATOM     42  F   UNL A   1      39.459  28.453  31.660  1.00  0.00    -0.206 F 
ATOM     43  C   UNL A   1      37.408  29.129  30.742  1.00  0.00     0.040 A 
ATOM     44  C   UNL A   1      37.266  29.723  28.415  1.00  0.00     0.040 A 
ATOM     45  F   UNL A   1      39.164  29.589  27.048  1.00  0.00    -0.206 F 
ATOM     46  C   UNL A   1      36.651  29.556  29.653  1.00  0.00     0.006 A 
ENDBRANCH  25  39
BRANCH  26  47
ATOM     47  C   UNL A   1      48.935  26.489  27.472  1.00  0.00     0.057 A 
ATOM     48  C   UNL A   1      49.814  26.010  28.446  1.00  0.00     0.134 A 
ATOM     49  C   UNL A   1      49.393  26.522  26.148  1.00  0.00     0.134 A 
ATOM     50  F   UNL A   1      49.435  25.961  29.732  1.00  0.00    -0.206 F 
ATOM     51  C   UNL A   1      51.100  25.577  28.118  1.00  0.00     0.040 A 
ATOM     52  C   UNL A   1      50.664  26.066  25.800  1.00  0.00     0.040 A 
ATOM     53  F   UNL A   1      48.589  26.953  25.163  1.00  0.00    -0.206 F 
ATOM     54  C   UNL A   1      51.524  25.594  26.790  1.00  0.00     0.006 A 
ENDBRANCH  26  47
BRANCH  38  55
ATOM     55  C   UNL A   1      45.787  32.365  29.569  1.00  0.00     0.057 A 
ATOM     56  C   UNL A   1      45.850  33.401  28.631  1.00  0.00     0.134 A 
ATOM     57  C   UNL A   1      46.153  32.660  30.889  1.00  0.00     0.134 A 
ATOM     58  F   UNL A   1      45.530  33.178  27.346  1.00  0.00    -0.206 F 
ATOM     59  C   UNL A   1      46.267  34.683  28.991  1.00  0.00     0.040 A 
ATOM     60  C   UNL A   1      46.544  33.943  31.268  1.00  0.00     0.040 A 
ATOM     61  F   UNL A   1      46.109  31.711  31.836  1.00  0.00    -0.206 F 
ATOM     62  C   UNL A   1      46.603  34.959  30.316  1.00  0.00     0.006 A 
ENDBRANCH  38  55
ENDBRANCH  12  13
ENDBRANCH   5   7
ENDBRANCH   2   3
ENDBRANCH   1   2
BRANCH   1  63
ATOM     63  C   UNL A   1      36.754  20.758  24.619  1.00  0.00     0.117 C 
BRANCH  63  64
ATOM     64  N   UNL A   1      37.097  22.062  25.167  1.00  0.00    -0.356 N 
ATOM     65  C   UNL A   1      36.343  23.143  25.499  1.00  0.00     0.226 C 
ATOM     66  H   UNL A   1      38.060  22.185  25.329  1.00  0.00     0.163 HD
ATOM     67  O   UNL A   1      36.926  24.026  26.141  1.00  0.00    -0.275 OA
BRANCH  65  68
ATOM     68  C   UNL A   1      34.899  23.376  25.073  1.00  0.00     0.122 C 
ATOM     69  C   UNL A   1      34.100  22.172  24.588  1.00  0.00     0.123 C 
ATOM     70  C   UNL A   1      34.896  24.290  23.843  1.00  0.00     0.132 C 
ATOM     71  C   UNL A   1      33.747  22.583  23.146  1.00  0.00     0.132 C 
ATOM     72  C   UNL A   1      33.507  24.893  23.617  1.00  0.00     0.035 C 
ATOM     73  O   UNL A   1      34.947  23.317  22.767  1.00  0.00    -0.373 OA
ATOM     74  C   UNL A   1      32.743  23.718  23.007  1.00  0.00     0.035 C 
BRANCH  69  75
ATOM     75  C   UNL A   1      32.890  21.791  25.425  1.00  0.00     0.231 C 
ATOM     76  O   UNL A   1      32.454  22.499  26.328  1.00  0.00    -0.274 OA
ATOM     77  N   UNL A   1      32.185  20.681  25.018  1.00  0.00    -0.326 N 
ATOM     78  H   UNL A   1      31.215  20.694  25.191  1.00  0.00     0.169 HD
BRANCH  77  79
ATOM     79  C   UNL A   1      32.683  19.529  24.387  1.00  0.00     0.044 A 
ATOM     80  C   UNL A   1      32.203  19.118  23.134  1.00  0.00     0.029 A 
ATOM     81  C   UNL A   1      33.710  18.815  25.005  1.00  0.00     0.068 A 
ATOM     82  C   UNL A   1      32.735  17.984  22.514  1.00  0.00     0.044 A 
ATOM     83  C   UNL A   1      34.202  17.661  24.400  1.00  0.00     0.160 A 
ATOM     84  C   UNL A   1      33.727  17.254  23.159  1.00  0.00     0.158 A 
ATOM     85  F   UNL A   1      35.136  16.939  25.034  1.00  0.00    -0.204 F 
ATOM     86  F   UNL A   1      34.235  16.168  22.568  1.00  0.00    -0.204 F 
ENDBRANCH  77  79
ENDBRANCH  69  75
ENDBRANCH  65  68
ENDBRANCH  63  64
ENDBRANCH   1  63
TORSDOF 12
ENDMDL
MODEL 2
REMARK VINA RESULT:     -12.4      5.901     10.678
REMARK SMILES O=C(NCCCNC(=O)[C@@H]1[C@@H](C(=O)Nc2ccc(F)c(F)c2)[C@H]2CC[C@@H]1O2)c1ccc(-c2c3nc(c(-c4c(F)cccc4F)c4ccc([nH]4)c(-c4c(F)cccc4F)c4nc(c(-c5c(F)cccc5F)c5ccc2[nH]5)C=C4)C=C3)cc1
REMARK SMILES IDX 5 1 4 2 3 3 1 4 2 5 28 7 29 8 81 9 30 10 80 11 31 12 32 13
REMARK SMILES IDX 33 14 74 15 34 16 79 17 73 18 75 19 35 20 78 21 72 22 71 23
REMARK SMILES IDX 36 25 62 26 45 27 61 28 46 29 49 30 60 31 76 32 47 33 48 34
REMARK SMILES IDX 59 36 77 37 50 38 37 39 38 40 43 41 39 42 40 43 42 44 44 45
REMARK SMILES IDX 41 46 63 47 64 48 69 49 65 50 66 51 68 52 70 53 67 54 51 55
REMARK SMILES IDX 52 56 57 57 53 58 54 59 56 60 58 61 55 62 6 63 7 64 8 65
REMARK SMILES IDX 9 67 10 68 11 69 26 70 23 71 25 72 27 73 24 74 12 75 13 76
REMARK SMILES IDX 14 77 15 79 16 80 22 81 17 82 20 83 18 84 21 85 19 86
REMARK H PARENT 3 6 75 24 49 35 7 66 14 78
REMARK Flexibility Score: inf
ROOT
ATOM      1  C   UNL A   1      31.263  31.753  26.506  1.00  0.00     0.042 C 
ENDROOT
BRANCH   1   2
ATOM      2  C   UNL A   1      32.534  32.534  26.783  1.00  0.00     0.118 C 
BRANCH   2   3
ATOM      3  N   UNL A   1      32.316  33.828  27.414  1.00  0.00    -0.352 N 
ATOM      4  O   UNL A   1      32.606  35.573  28.808  1.00  0.00    -0.269 OA
ATOM      5  C   UNL A   1      32.999  34.483  28.412  1.00  0.00     0.251 C 
ATOM      6  H   UNL A   1      31.541  34.324  27.063  1.00  0.00     0.163 HD
BRANCH   5   7
ATOM      7  C   UNL A   1      34.184  33.871  29.042  1.00  0.00     0.039 A 
ATOM      8  C   UNL A   1      34.056  32.773  29.888  1.00  0.00     0.014 A 
ATOM      9  C   UNL A   1      35.452  34.384  28.751  1.00  0.00     0.014 A 
ATOM     10  C   UNL A   1      35.151  32.316  30.601  1.00  0.00     0.010 A 
ATOM     11  C   UNL A   1      36.579  33.829  29.360  1.00  0.00     0.010 A 
ATOM     12  C   UNL A   1      36.430  32.811  30.314  1.00  0.00    -0.014 A 
BRANCH  12  13
ATOM     13  C   UNL A   1      37.604  32.173  30.950  1.00  0.00     0.031 A 
ATOM     14  C   UNL A   1      38.363  31.088  30.249  1.00  0.00     0.074 A 
ATOM     15  C   UNL A   1      37.971  32.592  32.176  1.00  0.00     0.049 A 
ATOM     16  N   UNL A   1      39.372  30.379  30.684  1.00  0.00    -0.248 NA
ATOM     17  C   UNL A   1      37.926  30.745  28.888  1.00  0.00     0.031 C 
ATOM     18  C   UNL A   1      37.293  33.645  32.942  1.00  0.00     0.029 A 
ATOM     19  N   UNL A   1      38.993  32.196  32.994  1.00  0.00    -0.354 N 
ATOM     20  C   UNL A   1      39.672  29.484  29.665  1.00  0.00     0.074 A 
ATOM     21  C   UNL A   1      38.723  29.726  28.599  1.00  0.00     0.031 C 
ATOM     22  C   UNL A   1      37.937  33.831  34.100  1.00  0.00     0.029 A 
ATOM     23  C   UNL A   1      39.012  32.854  34.199  1.00  0.00     0.049 A 
ATOM     24  H   UNL A   1      39.650  31.506  32.744  1.00  0.00     0.167 HD
ATOM     25  C   UNL A   1      40.650  28.548  29.632  1.00  0.00     0.037 A 
ATOM     26  C   UNL A   1      39.781  32.664  35.286  1.00  0.00     0.037 A 
ATOM     27  C   UNL A   1      41.580  28.327  30.710  1.00  0.00     0.049 A 
ATOM     28  C   UNL A   1      40.829  31.596  35.243  1.00  0.00     0.074 A 
ATOM     29  C   UNL A   1      42.629  27.427  30.776  1.00  0.00     0.029 A 
ATOM     30  N   UNL A   1      41.561  29.008  31.922  1.00  0.00    -0.354 N 
ATOM     31  N   UNL A   1      41.121  30.772  34.265  1.00  0.00    -0.248 NA
ATOM     32  C   UNL A   1      41.652  31.426  36.445  1.00  0.00     0.031 C 
ATOM     33  C   UNL A   1      43.205  27.522  32.048  1.00  0.00     0.029 A 
ATOM     34  C   UNL A   1      42.561  28.528  32.752  1.00  0.00     0.049 A 
ATOM     35  H   UNL A   1      40.929  29.727  32.155  1.00  0.00     0.167 HD
ATOM     36  C   UNL A   1      42.178  30.000  34.722  1.00  0.00     0.074 A 
ATOM     37  C   UNL A   1      42.477  30.458  36.065  1.00  0.00     0.031 C 
ATOM     38  C   UNL A   1      42.844  29.008  34.084  1.00  0.00     0.037 A 
BRANCH  25  39
ATOM     39  C   UNL A   1      40.723  27.666  28.417  1.00  0.00     0.057 A 
ATOM     40  C   UNL A   1      41.482  28.006  27.288  1.00  0.00     0.134 A 
ATOM     41  C   UNL A   1      40.015  26.457  28.372  1.00  0.00     0.134 A 
ATOM     42  F   UNL A   1      42.177  29.154  27.256  1.00  0.00    -0.206 F 
ATOM     43  C   UNL A   1      41.498  27.200  26.146  1.00  0.00     0.040 A 
ATOM     44  C   UNL A   1      40.049  25.628  27.250  1.00  0.00     0.040 A 
ATOM     45  F   UNL A   1      39.276  26.062  29.419  1.00  0.00    -0.206 F 
ATOM     46  C   UNL A   1      40.781  26.006  26.127  1.00  0.00     0.006 A 
ENDBRANCH  25  39
BRANCH  26  47
ATOM     47  C   UNL A   1      39.548  33.499  36.489  1.00  0.00     0.057 A 
ATOM     48  C   UNL A   1      38.699  33.075  37.514  1.00  0.00     0.134 A 
ATOM     49  C   UNL A   1      40.233  34.708  36.676  1.00  0.00     0.134 A 
ATOM     50  F   UNL A   1      38.012  31.930  37.391  1.00  0.00    -0.206 F 
ATOM     51  C   UNL A   1      38.538  33.821  38.683  1.00  0.00     0.040 A 
ATOM     52  C   UNL A   1      40.104  35.450  37.850  1.00  0.00     0.040 A 
ATOM     53  F   UNL A   1      41.079  35.160  35.737  1.00  0.00    -0.206 F 
ATOM     54  C   UNL A   1      39.250  35.007  38.857  1.00  0.00     0.006 A 
ENDBRANCH  26  47
BRANCH  38  55
ATOM     55  C   UNL A   1      43.998  28.382  34.807  1.00  0.00     0.057 A 
ATOM     56  C   UNL A   1      45.286  28.927  34.765  1.00  0.00     0.134 A 
ATOM     57  C   UNL A   1      43.793  27.258  35.620  1.00  0.00     0.134 A 
ATOM     58  F   UNL A   1      45.550  29.992  33.992  1.00  0.00    -0.206 F 
ATOM     59  C   UNL A   1      46.334  28.372  35.501  1.00  0.00     0.040 A 
ATOM     60  C   UNL A   1      44.825  26.712  36.382  1.00  0.00     0.040 A 
ATOM     61  F   UNL A   1      42.580  26.694  35.707  1.00  0.00    -0.206 F 
ATOM     62  C   UNL A   1      46.101  27.269  36.322  1.00  0.00     0.006 A 
ENDBRANCH  38  55
ENDBRANCH  12  13
ENDBRANCH   5   7
ENDBRANCH   2   3
ENDBRANCH   1   2
BRANCH   1  63
ATOM     63  C   UNL A   1      31.435  30.249  26.558  1.00  0.00     0.117 C 
BRANCH  63  64
ATOM     64  N   UNL A   1      32.793  29.785  26.806  1.00  0.00    -0.356 N 
ATOM     65  C   UNL A   1      33.513  28.750  26.299  1.00  0.00     0.226 C 
ATOM     66  H   UNL A   1      33.283  30.325  27.466  1.00  0.00     0.163 HD
ATOM     67  O   UNL A   1      34.722  28.757  26.568  1.00  0.00    -0.275 OA
BRANCH  65  68
ATOM     68  C   UNL A   1      32.940  27.572  25.521  1.00  0.00     0.122 C 
ATOM     69  C   UNL A   1      31.645  27.795  24.751  1.00  0.00     0.123 C 
ATOM     70  C   UNL A   1      32.547  26.477  26.519  1.00  0.00     0.132 C 
ATOM     71  C   UNL A   1      30.698  26.780  25.419  1.00  0.00     0.132 C 
ATOM     72  C   UNL A   1      32.360  25.135  25.805  1.00  0.00     0.035 C 
ATOM     73  O   UNL A   1      31.167  26.830  26.797  1.00  0.00    -0.373 OA
ATOM     74  C   UNL A   1      30.995  25.313  25.140  1.00  0.00     0.035 C 
BRANCH  69  75
ATOM     75  C   UNL A   1      31.729  27.645  23.241  1.00  0.00     0.231 C 
ATOM     76  O   UNL A   1      32.697  27.148  22.674  1.00  0.00    -0.274 OA
ATOM     77  N   UNL A   1      30.589  27.941  22.529  1.00  0.00    -0.326 N 
ATOM     78  H   UNL A   1      30.447  27.424  21.702  1.00  0.00     0.169 HD
BRANCH  77  79
ATOM     79  C   UNL A   1      29.604  28.894  22.837  1.00  0.00     0.044 A 
ATOM     80  C   UNL A   1      28.239  28.574  22.788  1.00  0.00     0.029 A 
ATOM     81  C   UNL A   1      30.005  30.166  23.247  1.00  0.00     0.068 A 
ATOM     82  C   UNL A   1      27.279  29.533  23.126  1.00  0.00     0.044 A 
ATOM     83  C   UNL A   1      29.041  31.126  23.539  1.00  0.00     0.160 A 
ATOM     84  C   UNL A   1      27.688  30.811  23.491  1.00  0.00     0.158 A 
ATOM     85  F   UNL A   1      29.431  32.368  23.860  1.00  0.00    -0.204 F 
ATOM     86  F   UNL A   1      26.771  31.728  23.813  1.00  0.00    -0.204 F 
ENDBRANCH  77  79
ENDBRANCH  69  75
ENDBRANCH  65  68
ENDBRANCH  63  64
ENDBRANCH   1  63
TORSDOF 12
ENDMDL
MODEL 3
REMARK VINA RESULT:     -12.4      0.317      6.193
REMARK SMILES O=C(NCCCNC(=O)[C@@H]1[C@@H](C(=O)Nc2ccc(F)c(F)c2)[C@H]2CC[C@@H]1O2)c1ccc(-c2c3nc(c(-c4c(F)cccc4F)c4ccc([nH]4)c(-c4c(F)cccc4F)c4nc(c(-c5c(F)cccc5F)c5ccc2[nH]5)C=C4)C=C3)cc1
REMARK SMILES IDX 5 1 4 2 3 3 1 4 2 5 28 7 29 8 81 9 30 10 80 11 31 12 32 13
REMARK SMILES IDX 33 14 74 15 34 16 79 17 73 18 75 19 35 20 78 21 72 22 71 23
REMARK SMILES IDX 36 25 62 26 45 27 61 28 46 29 49 30 60 31 76 32 47 33 48 34
REMARK SMILES IDX 59 36 77 37 50 38 37 39 38 40 43 41 39 42 40 43 42 44 44 45
REMARK SMILES IDX 41 46 63 47 64 48 69 49 65 50 66 51 68 52 70 53 67 54 51 55
REMARK SMILES IDX 52 56 57 57 53 58 54 59 56 60 58 61 55 62 6 63 7 64 8 65
REMARK SMILES IDX 9 67 10 68 11 69 26 70 23 71 25 72 27 73 24 74 12 75 13 76
REMARK SMILES IDX 14 77 15 79 16 80 22 81 17 82 20 83 18 84 21 85 19 86
REMARK H PARENT 3 6 75 24 49 35 7 66 14 78
REMARK Flexibility Score: inf
ROOT
ATOM      1  C   UNL A   1      38.014  19.877  24.628  1.00  0.00     0.042 C 
ENDROOT
BRANCH   1   2
ATOM      2  C   UNL A   1      38.842  19.900  25.899  1.00  0.00     0.118 C 
BRANCH   2   3
ATOM      3  N   UNL A   1      40.024  19.051  25.859  1.00  0.00    -0.352 N 
ATOM      4  O   UNL A   1      42.191  18.442  25.946  1.00  0.00    -0.269 OA
ATOM      5  C   UNL A   1      41.356  19.330  26.061  1.00  0.00     0.251 C 
ATOM      6  H   UNL A   1      39.837  18.107  25.653  1.00  0.00     0.163 HD
BRANCH   5   7
ATOM      7  C   UNL A   1      41.799  20.701  26.378  1.00  0.00     0.039 A 
ATOM      8  C   UNL A   1      41.943  21.655  25.376  1.00  0.00     0.014 A 
ATOM      9  C   UNL A   1      42.039  21.047  27.712  1.00  0.00     0.014 A 
ATOM     10  C   UNL A   1      42.517  22.882  25.664  1.00  0.00     0.010 A 
ATOM     11  C   UNL A   1      42.483  22.333  28.024  1.00  0.00     0.010 A 
ATOM     12  C   UNL A   1      42.754  23.249  26.996  1.00  0.00    -0.014 A 
BRANCH  12  13
ATOM     13  C   UNL A   1      43.188  24.633  27.291  1.00  0.00     0.031 A 
ATOM     14  C   UNL A   1      44.628  25.028  27.178  1.00  0.00     0.074 A 
ATOM     15  C   UNL A   1      42.253  25.526  27.666  1.00  0.00     0.049 A 
ATOM     16  N   UNL A   1      45.190  26.175  27.459  1.00  0.00    -0.248 NA
ATOM     17  C   UNL A   1      45.563  23.999  26.699  1.00  0.00     0.031 C 
ATOM     18  C   UNL A   1      40.821  25.237  27.806  1.00  0.00     0.029 A 
ATOM     19  N   UNL A   1      42.355  26.851  27.996  1.00  0.00    -0.354 N 
ATOM     20  C   UNL A   1      46.546  25.999  27.222  1.00  0.00     0.074 A 
ATOM     21  C   UNL A   1      46.726  24.627  26.795  1.00  0.00     0.031 C 
ATOM     22  C   UNL A   1      40.178  26.355  28.160  1.00  0.00     0.029 A 
ATOM     23  C   UNL A   1      41.157  27.414  28.361  1.00  0.00     0.049 A 
ATOM     24  H   UNL A   1      43.204  27.350  27.974  1.00  0.00     0.167 HD
ATOM     25  C   UNL A   1      47.546  26.905  27.354  1.00  0.00     0.037 A 
ATOM     26  C   UNL A   1      40.879  28.636  28.848  1.00  0.00     0.037 A 
ATOM     27  C   UNL A   1      47.338  28.265  27.784  1.00  0.00     0.049 A 
ATOM     28  C   UNL A   1      42.004  29.608  29.024  1.00  0.00     0.074 A 
ATOM     29  C   UNL A   1      48.269  29.277  27.926  1.00  0.00     0.029 A 
ATOM     30  N   UNL A   1      46.108  28.796  28.156  1.00  0.00    -0.354 N 
ATOM     31  N   UNL A   1      43.281  29.440  28.774  1.00  0.00    -0.248 NA
ATOM     32  C   UNL A   1      41.658  30.933  29.550  1.00  0.00     0.031 C 
ATOM     33  C   UNL A   1      47.615  30.402  28.441  1.00  0.00     0.029 A 
ATOM     34  C   UNL A   1      46.263  30.114  28.555  1.00  0.00     0.049 A 
ATOM     35  H   UNL A   1      45.253  28.308  28.138  1.00  0.00     0.167 HD
ATOM     36  C   UNL A   1      43.891  30.646  29.087  1.00  0.00     0.074 A 
ATOM     37  C   UNL A   1      42.841  31.536  29.544  1.00  0.00     0.031 C 
ATOM     38  C   UNL A   1      45.199  30.984  28.998  1.00  0.00     0.037 A 
BRANCH  25  39
ATOM     39  C   UNL A   1      48.947  26.434  27.081  1.00  0.00     0.057 A 
ATOM     40  C   UNL A   1      49.791  25.964  28.096  1.00  0.00     0.134 A 
ATOM     41  C   UNL A   1      49.462  26.456  25.778  1.00  0.00     0.134 A 
ATOM     42  F   UNL A   1      49.368  25.925  29.369  1.00  0.00    -0.206 F 
ATOM     43  C   UNL A   1      51.109  25.578  27.833  1.00  0.00     0.040 A 
ATOM     44  C   UNL A   1      50.766  26.043  25.497  1.00  0.00     0.040 A 
ATOM     45  F   UNL A   1      48.709  26.883  24.754  1.00  0.00    -0.206 F 
ATOM     46  C   UNL A   1      51.598  25.615  26.529  1.00  0.00     0.006 A 
ENDBRANCH  25  39
BRANCH  26  47
ATOM     47  C   UNL A   1      39.480  28.967  29.212  1.00  0.00     0.057 A 
ATOM     48  C   UNL A   1      38.578  29.452  28.262  1.00  0.00     0.134 A 
ATOM     49  C   UNL A   1      38.992  28.729  30.504  1.00  0.00     0.134 A 
ATOM     50  F   UNL A   1      38.988  29.706  27.010  1.00  0.00    -0.206 F 
ATOM     51  C   UNL A   1      37.240  29.691  28.582  1.00  0.00     0.040 A 
ATOM     52  C   UNL A   1      37.652  28.935  30.831  1.00  0.00     0.040 A 
ATOM     53  F   UNL A   1      39.803  28.242  31.456  1.00  0.00    -0.206 F 
ATOM     54  C   UNL A   1      36.772  29.422  29.867  1.00  0.00     0.006 A 
ENDBRANCH  26  47
BRANCH  38  55
ATOM     55  C   UNL A   1      45.568  32.393  29.351  1.00  0.00     0.057 A 
ATOM     56  C   UNL A   1      45.503  33.435  28.419  1.00  0.00     0.134 A 
ATOM     57  C   UNL A   1      45.918  32.720  30.668  1.00  0.00     0.134 A 
ATOM     58  F   UNL A   1      45.191  33.184  27.138  1.00  0.00    -0.206 F 
ATOM     59  C   UNL A   1      45.782  34.753  28.782  1.00  0.00     0.040 A 
ATOM     60  C   UNL A   1      46.171  34.037  31.050  1.00  0.00     0.040 A 
ATOM     61  F   UNL A   1      45.991  31.767  31.609  1.00  0.00    -0.206 F 
ATOM     62  C   UNL A   1      46.105  35.058  30.104  1.00  0.00     0.006 A 
ENDBRANCH  38  55
ENDBRANCH  12  13
ENDBRANCH   5   7
ENDBRANCH   2   3
ENDBRANCH   1   2
BRANCH   1  63
ATOM     63  C   UNL A   1      36.867  20.867  24.616  1.00  0.00     0.117 C 
BRANCH  63  64
ATOM     64  N   UNL A   1      37.176  22.185  25.150  1.00  0.00    -0.356 N 
ATOM     65  C   UNL A   1      36.392  23.239  25.495  1.00  0.00     0.226 C 
ATOM     66  H   UNL A   1      38.137  22.343  25.289  1.00  0.00     0.163 HD
ATOM     67  O   UNL A   1      36.958  24.146  26.120  1.00  0.00    -0.275 OA
BRANCH  65  68
ATOM     68  C   UNL A   1      34.931  23.419  25.103  1.00  0.00     0.122 C 
ATOM     69  C   UNL A   1      34.162  22.185  24.650  1.00  0.00     0.123 C 
ATOM     70  C   UNL A   1      34.868  24.320  23.864  1.00  0.00     0.132 C 
ATOM     71  C   UNL A   1      33.761  22.567  23.212  1.00  0.00     0.132 C 
ATOM     72  C   UNL A   1      33.453  24.873  23.667  1.00  0.00     0.035 C 
ATOM     73  O   UNL A   1      34.925  23.338  22.798  1.00  0.00    -0.373 OA
ATOM     74  C   UNL A   1      32.715  23.666  23.087  1.00  0.00     0.035 C 
BRANCH  69  75
ATOM     75  C   UNL A   1      32.986  21.772  25.520  1.00  0.00     0.231 C 
ATOM     76  O   UNL A   1      32.562  22.464  26.441  1.00  0.00    -0.274 OA
ATOM     77  N   UNL A   1      32.294  20.649  25.126  1.00  0.00    -0.326 N 
ATOM     78  H   UNL A   1      31.330  20.640  25.328  1.00  0.00     0.169 HD
BRANCH  77  79
ATOM     79  C   UNL A   1      32.797  19.512  24.471  1.00  0.00     0.044 A 
ATOM     80  C   UNL A   1      32.185  19.005  23.315  1.00  0.00     0.029 A 
ATOM     81  C   UNL A   1      33.957  18.914  24.963  1.00  0.00     0.068 A 
ATOM     82  C   UNL A   1      32.722  17.889  22.667  1.00  0.00     0.044 A 
ATOM     83  C   UNL A   1      34.459  17.776  24.336  1.00  0.00     0.160 A 
ATOM     84  C   UNL A   1      33.854  17.273  23.190  1.00  0.00     0.158 A 
ATOM     85  F   UNL A   1      35.531  17.162  24.855  1.00  0.00    -0.204 F 
ATOM     86  F   UNL A   1      34.367  16.205  22.571  1.00  0.00    -0.204 F 
ENDBRANCH  77  79
ENDBRANCH  69  75
ENDBRANCH  65  68
ENDBRANCH  63  64
ENDBRANCH   1  63
TORSDOF 12
ENDMDL
