MODEL 1
REMARK VINA RESULT:     -11.4      0.000      0.000
REMARK SMILES CC(C)(C[S@](=O)c1cccc(Cl)c1)C(=O)NCCCNC(=O)c1ccc(-c2c3nc(c(-c4c(F)cccc4F)c4ccc([nH]4)c(-c4c(F)cccc4F)c4nc(c(-c5c(F)cccc5F)c5ccc2[nH]5)C=C4)C=C3)cc1
REMARK SMILES IDX 17 1 16 2 14 3 15 4 2 6 1 7 3 8 4 9 5 10 6 11 7 12 8 13
REMARK SMILES IDX 13 14 9 15 11 16 10 17 12 18 18 19 19 20 20 21 21 22 22 24
REMARK SMILES IDX 23 25 24 26 76 27 25 28 75 29 26 30 27 31 28 32 69 33 29 34
REMARK SMILES IDX 74 35 68 36 70 37 30 38 73 39 67 40 66 41 31 43 57 44 40 45
REMARK SMILES IDX 56 46 41 47 44 48 55 49 71 50 42 51 43 52 54 54 72 55 45 56
REMARK SMILES IDX 32 57 33 58 38 59 34 60 35 61 37 62 39 63 36 64 58 65 59 66
REMARK SMILES IDX 64 67 60 68 61 69 63 70 65 71 62 72 46 73 47 74 52 75 48 76
REMARK SMILES IDX 49 77 51 78 53 79 50 80
REMARK H PARENT 16 5 20 23 70 42 44 53
REMARK Flexibility Score: inf
ROOT
ATOM      1  C   UNL A   1      31.566  30.744  26.120  1.00  0.00     0.117 C 
ENDROOT
BRANCH   1   2
ATOM      2  N   UNL A   1      32.830  30.163  26.531  1.00  0.00    -0.356 N 
ATOM      3  C   UNL A   1      33.390  28.936  26.337  1.00  0.00     0.226 C 
ATOM      4  O   UNL A   1      34.548  28.791  26.745  1.00  0.00    -0.274 OA
ATOM      5  H   UNL A   1      33.396  30.775  27.054  1.00  0.00     0.163 HD
BRANCH   3   6
ATOM      6  C   UNL A   1      32.648  27.785  25.636  1.00  0.00     0.055 C 
ATOM      7  C   UNL A   1      31.411  27.385  26.477  1.00  0.00     0.022 C 
ATOM      8  C   UNL A   1      33.512  26.498  25.670  1.00  0.00     0.022 C 
BRANCH   6   9
ATOM      9  C   UNL A   1      32.237  28.123  24.182  1.00  0.00     0.126 C 
BRANCH   9  10
ATOM     10  S   UNL A   1      30.956  27.129  23.334  1.00  0.00     0.054 S 
ATOM     11  O   UNL A   1      31.346  26.886  21.910  1.00  0.00    -0.254 OA
BRANCH  10  12
ATOM     12  C   UNL A   1      29.570  28.271  23.324  1.00  0.00     0.040 A 
ATOM     13  C   UNL A   1      28.249  27.812  23.255  1.00  0.00     0.018 A 
ATOM     14  C   UNL A   1      29.818  29.645  23.391  1.00  0.00     0.038 A 
ATOM     15  C   UNL A   1      27.193  28.720  23.146  1.00  0.00     0.003 A 
ATOM     16  C   UNL A   1      28.757  30.545  23.315  1.00  0.00     0.042 A 
ATOM     17  C   UNL A   1      27.447  30.090  23.166  1.00  0.00     0.020 A 
ATOM     18  Cl  UNL A   1      29.070  32.236  23.387  1.00  0.00    -0.084 Cl
ENDBRANCH  10  12
ENDBRANCH   9  10
ENDBRANCH   6   9
ENDBRANCH   3   6
ENDBRANCH   1   2
BRANCH   1  19
ATOM     19  C   UNL A   1      31.384  32.192  26.550  1.00  0.00     0.042 C 
BRANCH  19  20
ATOM     20  C   UNL A   1      32.589  32.803  27.248  1.00  0.00     0.118 C 
BRANCH  20  21
ATOM     21  N   UNL A   1      32.375  34.195  27.630  1.00  0.00    -0.352 N 
ATOM     22  C   UNL A   1      32.977  34.969  28.593  1.00  0.00     0.251 C 
ATOM     23  H   UNL A   1      31.681  34.659  27.109  1.00  0.00     0.163 HD
ATOM     24  O   UNL A   1      32.503  36.068  28.866  1.00  0.00    -0.269 OA
BRANCH  22  25
ATOM     25  C   UNL A   1      34.172  34.486  29.322  1.00  0.00     0.039 A 
ATOM     26  C   UNL A   1      34.007  33.922  30.590  1.00  0.00     0.014 A 
ATOM     27  C   UNL A   1      35.452  34.612  28.782  1.00  0.00     0.014 A 
ATOM     28  C   UNL A   1      35.114  33.413  31.276  1.00  0.00     0.010 A 
ATOM     29  C   UNL A   1      36.537  34.017  29.419  1.00  0.00     0.010 A 
ATOM     30  C   UNL A   1      36.383  33.416  30.675  1.00  0.00    -0.014 A 
BRANCH  30  31
ATOM     31  C   UNL A   1      37.560  32.798  31.340  1.00  0.00     0.031 A 
ATOM     32  C   UNL A   1      38.225  31.593  30.734  1.00  0.00     0.074 A 
ATOM     33  C   UNL A   1      37.982  33.276  32.527  1.00  0.00     0.049 A 
ATOM     34  N   UNL A   1      39.205  30.864  31.206  1.00  0.00    -0.248 NA
ATOM     35  C   UNL A   1      37.702  31.126  29.441  1.00  0.00     0.031 C 
ATOM     36  C   UNL A   1      37.393  34.409  33.244  1.00  0.00     0.029 A 
ATOM     37  N   UNL A   1      39.001  32.861  33.347  1.00  0.00    -0.354 N 
ATOM     38  C   UNL A   1      39.402  29.848  30.278  1.00  0.00     0.074 A 
ATOM     39  C   UNL A   1      38.404  30.020  29.246  1.00  0.00     0.031 C 
ATOM     40  C   UNL A   1      38.074  34.614  34.381  1.00  0.00     0.029 A 
ATOM     41  C   UNL A   1      39.121  33.603  34.497  1.00  0.00     0.049 A 
ATOM     42  H   UNL A   1      39.591  32.103  33.131  1.00  0.00     0.167 HD
ATOM     43  C   UNL A   1      40.345  28.876  30.273  1.00  0.00     0.037 A 
ATOM     44  C   UNL A   1      39.971  33.477  35.534  1.00  0.00     0.037 A 
ATOM     45  C   UNL A   1      41.351  28.721  31.290  1.00  0.00     0.049 A 
ATOM     46  C   UNL A   1      41.000  32.380  35.510  1.00  0.00     0.074 A 
ATOM     47  C   UNL A   1      42.384  27.802  31.347  1.00  0.00     0.029 A 
ATOM     48  N   UNL A   1      41.448  29.502  32.431  1.00  0.00    -0.354 N 
ATOM     49  N   UNL A   1      41.217  31.469  34.594  1.00  0.00    -0.248 NA
ATOM     50  C   UNL A   1      41.906  32.299  36.665  1.00  0.00     0.031 C 
ATOM     51  C   UNL A   1      43.078  27.998  32.545  1.00  0.00     0.029 A 
ATOM     52  C   UNL A   1      42.510  29.072  33.209  1.00  0.00     0.049 A 
ATOM     53  H   UNL A   1      40.849  30.251  32.656  1.00  0.00     0.167 HD
ATOM     54  C   UNL A   1      42.301  30.726  35.045  1.00  0.00     0.074 A 
ATOM     55  C   UNL A   1      42.705  31.303  36.310  1.00  0.00     0.031 C 
ATOM     56  C   UNL A   1      42.907  29.663  34.462  1.00  0.00     0.037 A 
BRANCH  43  57
ATOM     57  C   UNL A   1      40.332  27.906  29.126  1.00  0.00     0.057 A 
ATOM     58  C   UNL A   1      41.116  28.106  27.981  1.00  0.00     0.134 A 
ATOM     59  C   UNL A   1      39.555  26.743  29.179  1.00  0.00     0.134 A 
ATOM     60  F   UNL A   1      41.876  29.206  27.861  1.00  0.00    -0.206 F 
ATOM     61  C   UNL A   1      41.105  27.200  26.919  1.00  0.00     0.040 A 
ATOM     62  C   UNL A   1      39.558  25.815  28.136  1.00  0.00     0.040 A 
ATOM     63  F   UNL A   1      38.787  26.484  30.248  1.00  0.00    -0.206 F 
ATOM     64  C   UNL A   1      40.328  26.046  26.998  1.00  0.00     0.006 A 
ENDBRANCH  43  57
BRANCH  44  65
ATOM     65  C   UNL A   1      39.904  34.428  36.673  1.00  0.00     0.057 A 
ATOM     66  C   UNL A   1      40.605  35.639  36.643  1.00  0.00     0.134 A 
ATOM     67  C   UNL A   1      39.149  34.149  37.818  1.00  0.00     0.134 A 
ATOM     68  F   UNL A   1      41.360  35.955  35.581  1.00  0.00    -0.206 F 
ATOM     69  C   UNL A   1      40.576  36.528  37.718  1.00  0.00     0.040 A 
ATOM     70  C   UNL A   1      39.090  35.041  38.890  1.00  0.00     0.040 A 
ATOM     71  F   UNL A   1      38.447  33.009  37.906  1.00  0.00    -0.206 F 
ATOM     72  C   UNL A   1      39.813  36.232  38.845  1.00  0.00     0.006 A 
ENDBRANCH  44  65
BRANCH  56  73
ATOM     73  C   UNL A   1      44.098  29.080  35.166  1.00  0.00     0.057 A 
ATOM     74  C   UNL A   1      45.401  29.524  34.911  1.00  0.00     0.134 A 
ATOM     75  C   UNL A   1      43.931  28.086  36.140  1.00  0.00     0.134 A 
ATOM     76  F   UNL A   1      45.630  30.464  33.981  1.00  0.00    -0.206 F 
ATOM     77  C   UNL A   1      46.500  28.985  35.583  1.00  0.00     0.040 A 
ATOM     78  C   UNL A   1      45.018  27.560  36.838  1.00  0.00     0.040 A 
ATOM     79  F   UNL A   1      42.708  27.622  36.438  1.00  0.00    -0.206 F 
ATOM     80  C   UNL A   1      46.308  28.005  36.556  1.00  0.00     0.006 A 
ENDBRANCH  56  73
ENDBRANCH  30  31
ENDBRANCH  22  25
ENDBRANCH  20  21
ENDBRANCH  19  20
ENDBRANCH   1  19
TORSDOF 13
ENDMDL
MODEL 2
REMARK VINA RESULT:     -11.4      6.643     11.362
REMARK SMILES CC(C)(C[S@](=O)c1cccc(Cl)c1)C(=O)NCCCNC(=O)c1ccc(-c2c3nc(c(-c4c(F)cccc4F)c4ccc([nH]4)c(-c4c(F)cccc4F)c4nc(c(-c5c(F)cccc5F)c5ccc2[nH]5)C=C4)C=C3)cc1
REMARK SMILES IDX 17 1 16 2 14 3 15 4 2 6 1 7 3 8 4 9 5 10 6 11 7 12 8 13
REMARK SMILES IDX 13 14 9 15 11 16 10 17 12 18 18 19 19 20 20 21 21 22 22 24
REMARK SMILES IDX 23 25 24 26 76 27 25 28 75 29 26 30 27 31 28 32 69 33 29 34
REMARK SMILES IDX 74 35 68 36 70 37 30 38 73 39 67 40 66 41 31 43 57 44 40 45
REMARK SMILES IDX 56 46 41 47 44 48 55 49 71 50 42 51 43 52 54 54 72 55 45 56
REMARK SMILES IDX 32 57 33 58 38 59 34 60 35 61 37 62 39 63 36 64 58 65 59 66
REMARK SMILES IDX 64 67 60 68 61 69 63 70 65 71 62 72 46 73 47 74 52 75 48 76
REMARK SMILES IDX 49 77 51 78 53 79 50 80
REMARK H PARENT 16 5 20 23 70 42 44 53
REMARK Flexibility Score: inf
ROOT
ATOM      1  C   UNL A   1      36.842  20.436  25.000  1.00  0.00     0.117 C 
ENDROOT
BRANCH   1   2
ATOM      2  N   UNL A   1      37.146  21.767  25.491  1.00  0.00    -0.356 N 
ATOM      3  C   UNL A   1      36.414  22.912  25.574  1.00  0.00     0.226 C 
ATOM      4  O   UNL A   1      36.952  23.867  26.146  1.00  0.00    -0.274 OA
ATOM      5  H   UNL A   1      38.065  21.861  25.833  1.00  0.00     0.163 HD
BRANCH   3   6
ATOM      6  C   UNL A   1      34.987  23.029  25.011  1.00  0.00     0.055 C 
ATOM      7  C   UNL A   1      35.042  22.983  23.464  1.00  0.00     0.022 C 
ATOM      8  C   UNL A   1      34.422  24.446  25.288  1.00  0.00     0.022 C 
BRANCH   6   9
ATOM      9  C   UNL A   1      34.026  21.947  25.559  1.00  0.00     0.126 C 
BRANCH   9  10
ATOM     10  S   UNL A   1      32.466  21.572  24.679  1.00  0.00     0.054 S 
ATOM     11  O   UNL A   1      31.340  21.433  25.656  1.00  0.00    -0.254 OA
BRANCH  10  12
ATOM     12  C   UNL A   1      32.812  19.937  24.023  1.00  0.00     0.040 A 
ATOM     13  C   UNL A   1      32.155  19.454  22.885  1.00  0.00     0.018 A 
ATOM     14  C   UNL A   1      33.762  19.133  24.660  1.00  0.00     0.038 A 
ATOM     15  C   UNL A   1      32.365  18.143  22.452  1.00  0.00     0.003 A 
ATOM     16  C   UNL A   1      33.992  17.836  24.204  1.00  0.00     0.042 A 
ATOM     17  C   UNL A   1      33.279  17.328  23.119  1.00  0.00     0.020 A 
ATOM     18  Cl  UNL A   1      35.154  16.848  25.001  1.00  0.00    -0.084 Cl
ENDBRANCH  10  12
ENDBRANCH   9  10
ENDBRANCH   6   9
ENDBRANCH   3   6
ENDBRANCH   1   2
BRANCH   1  19
ATOM     19  C   UNL A   1      38.031  19.488  25.005  1.00  0.00     0.042 C 
BRANCH  19  20
ATOM     20  C   UNL A   1      39.246  20.000  25.763  1.00  0.00     0.118 C 
BRANCH  20  21
ATOM     21  N   UNL A   1      40.300  18.998  25.882  1.00  0.00    -0.352 N 
ATOM     22  C   UNL A   1      41.654  19.131  26.079  1.00  0.00     0.251 C 
ATOM     23  H   UNL A   1      39.988  18.067  25.811  1.00  0.00     0.163 HD
ATOM     24  O   UNL A   1      42.380  18.148  25.958  1.00  0.00    -0.269 OA
BRANCH  22  25
ATOM     25  C   UNL A   1      42.251  20.445  26.407  1.00  0.00     0.039 A 
ATOM     26  C   UNL A   1      42.821  21.204  25.381  1.00  0.00     0.014 A 
ATOM     27  C   UNL A   1      42.281  20.922  27.719  1.00  0.00     0.014 A 
ATOM     28  C   UNL A   1      43.345  22.470  25.658  1.00  0.00     0.010 A 
ATOM     29  C   UNL A   1      42.711  22.220  27.977  1.00  0.00     0.010 A 
ATOM     30  C   UNL A   1      43.252  23.008  26.952  1.00  0.00    -0.014 A 
BRANCH  30  31
ATOM     31  C   UNL A   1      43.716  24.387  27.256  1.00  0.00     0.031 A 
ATOM     32  C   UNL A   1      42.729  25.440  27.681  1.00  0.00     0.074 A 
ATOM     33  C   UNL A   1      45.011  24.709  27.077  1.00  0.00     0.049 A 
ATOM     34  N   UNL A   1      42.926  26.715  27.906  1.00  0.00    -0.248 NA
ATOM     35  C   UNL A   1      41.331  25.011  27.847  1.00  0.00     0.031 C 
ATOM     36  C   UNL A   1      46.059  23.794  26.622  1.00  0.00     0.029 A 
ATOM     37  N   UNL A   1      45.667  25.903  27.245  1.00  0.00    -0.354 N 
ATOM     38  C   UNL A   1      41.678  27.239  28.223  1.00  0.00     0.074 A 
ATOM     39  C   UNL A   1      40.723  26.159  28.105  1.00  0.00     0.031 C 
ATOM     40  C   UNL A   1      47.228  24.450  26.572  1.00  0.00     0.029 A 
ATOM     41  C   UNL A   1      47.008  25.844  26.949  1.00  0.00     0.049 A 
ATOM     42  H   UNL A   1      45.219  26.726  27.550  1.00  0.00     0.167 HD
ATOM     43  C   UNL A   1      41.360  28.500  28.602  1.00  0.00     0.037 A 
ATOM     44  C   UNL A   1      47.951  26.803  26.968  1.00  0.00     0.037 A 
ATOM     45  C   UNL A   1      42.315  29.567  28.740  1.00  0.00     0.049 A 
ATOM     46  C   UNL A   1      47.569  28.199  27.379  1.00  0.00     0.074 A 
ATOM     47  C   UNL A   1      42.101  30.864  29.172  1.00  0.00     0.029 A 
ATOM     48  N   UNL A   1      43.666  29.462  28.445  1.00  0.00    -0.354 N 
ATOM     49  N   UNL A   1      46.398  28.664  27.741  1.00  0.00    -0.248 NA
ATOM     50  C   UNL A   1      48.644  29.202  27.391  1.00  0.00     0.031 C 
ATOM     51  C   UNL A   1      43.314  31.557  29.094  1.00  0.00     0.029 A 
ATOM     52  C   UNL A   1      44.293  30.677  28.664  1.00  0.00     0.049 A 
ATOM     53  H   UNL A   1      44.112  28.644  28.126  1.00  0.00     0.167 HD
ATOM     54  C   UNL A   1      46.600  30.003  28.051  1.00  0.00     0.074 A 
ATOM     55  C   UNL A   1      48.008  30.271  27.849  1.00  0.00     0.031 C 
ATOM     56  C   UNL A   1      45.699  30.926  28.468  1.00  0.00     0.037 A 
BRANCH  43  57
ATOM     57  C   UNL A   1      39.916  28.790  28.899  1.00  0.00     0.057 A 
ATOM     58  C   UNL A   1      39.389  28.667  30.192  1.00  0.00     0.134 A 
ATOM     59  C   UNL A   1      39.051  29.229  27.890  1.00  0.00     0.134 A 
ATOM     60  F   UNL A   1      40.161  28.240  31.204  1.00  0.00    -0.206 F 
ATOM     61  C   UNL A   1      38.047  28.941  30.465  1.00  0.00     0.040 A 
ATOM     62  C   UNL A   1      37.715  29.535  28.156  1.00  0.00     0.040 A 
ATOM     63  F   UNL A   1      39.490  29.377  26.631  1.00  0.00    -0.206 F 
ATOM     64  C   UNL A   1      37.208  29.383  29.444  1.00  0.00     0.006 A 
ENDBRANCH  43  57
BRANCH  44  65
ATOM     65  C   UNL A   1      49.354  26.477  26.609  1.00  0.00     0.057 A 
ATOM     66  C   UNL A   1      50.254  26.007  27.573  1.00  0.00     0.134 A 
ATOM     67  C   UNL A   1      49.833  26.635  25.303  1.00  0.00     0.134 A 
ATOM     68  F   UNL A   1      49.860  25.854  28.845  1.00  0.00    -0.206 F 
ATOM     69  C   UNL A   1      51.584  25.727  27.257  1.00  0.00     0.040 A 
ATOM     70  C   UNL A   1      51.154  26.332  24.968  1.00  0.00     0.040 A 
ATOM     71  F   UNL A   1      49.020  27.073  24.331  1.00  0.00    -0.206 F 
ATOM     72  C   UNL A   1      52.036  25.884  25.949  1.00  0.00     0.006 A 
ENDBRANCH  44  65
BRANCH  56  73
ATOM     73  C   UNL A   1      46.216  32.302  28.773  1.00  0.00     0.057 A 
ATOM     74  C   UNL A   1      46.253  33.312  27.804  1.00  0.00     0.134 A 
ATOM     75  C   UNL A   1      46.646  32.629  30.066  1.00  0.00     0.134 A 
ATOM     76  F   UNL A   1      45.868  33.061  26.544  1.00  0.00    -0.206 F 
ATOM     77  C   UNL A   1      46.721  34.594  28.104  1.00  0.00     0.040 A 
ATOM     78  C   UNL A   1      47.089  33.913  30.384  1.00  0.00     0.040 A 
ATOM     79  F   UNL A   1      46.628  31.710  31.043  1.00  0.00    -0.206 F 
ATOM     80  C   UNL A   1      47.133  34.898  29.400  1.00  0.00     0.006 A 
ENDBRANCH  56  73
ENDBRANCH  30  31
ENDBRANCH  22  25
ENDBRANCH  20  21
ENDBRANCH  19  20
ENDBRANCH   1  19
TORSDOF 13
ENDMDL
MODEL 3
REMARK VINA RESULT:     -11.4      1.005      6.429
REMARK SMILES CC(C)(C[S@](=O)c1cccc(Cl)c1)C(=O)NCCCNC(=O)c1ccc(-c2c3nc(c(-c4c(F)cccc4F)c4ccc([nH]4)c(-c4c(F)cccc4F)c4nc(c(-c5c(F)cccc5F)c5ccc2[nH]5)C=C4)C=C3)cc1
REMARK SMILES IDX 17 1 16 2 14 3 15 4 2 6 1 7 3 8 4 9 5 10 6 11 7 12 8 13
REMARK SMILES IDX 13 14 9 15 11 16 10 17 12 18 18 19 19 20 20 21 21 22 22 24
REMARK SMILES IDX 23 25 24 26 76 27 25 28 75 29 26 30 27 31 28 32 69 33 29 34
REMARK SMILES IDX 74 35 68 36 70 37 30 38 73 39 67 40 66 41 31 43 57 44 40 45
REMARK SMILES IDX 56 46 41 47 44 48 55 49 71 50 42 51 43 52 54 54 72 55 45 56
REMARK SMILES IDX 32 57 33 58 38 59 34 60 35 61 37 62 39 63 36 64 58 65 59 66
REMARK SMILES IDX 64 67 60 68 61 69 63 70 65 71 62 72 46 73 47 74 52 75 48 76
REMARK SMILES IDX 49 77 51 78 53 79 50 80
REMARK H PARENT 16 5 20 23 70 42 44 53
REMARK Flexibility Score: inf
ROOT
ATOM      1  C   UNL A   1      31.509  30.676  26.518  1.00  0.00     0.117 C 
ENDROOT
BRANCH   1   2
ATOM      2  N   UNL A   1      32.799  30.108  26.862  1.00  0.00    -0.356 N 
ATOM      3  C   UNL A   1      33.393  28.919  26.567  1.00  0.00     0.226 C 
ATOM      4  O   UNL A   1      34.563  28.782  26.942  1.00  0.00    -0.274 OA
ATOM      5  H   UNL A   1      33.355  30.699  27.419  1.00  0.00     0.163 HD
BRANCH   3   6
ATOM      6  C   UNL A   1      32.675  27.799  25.794  1.00  0.00     0.055 C 
ATOM      7  C   UNL A   1      31.445  27.323  26.606  1.00  0.00     0.022 C 
ATOM      8  C   UNL A   1      33.564  26.529  25.750  1.00  0.00     0.022 C 
BRANCH   6   9
ATOM      9  C   UNL A   1      32.258  28.218  24.363  1.00  0.00     0.126 C 
BRANCH   9  10
ATOM     10  S   UNL A   1      31.037  27.223  23.432  1.00  0.00     0.054 S 
ATOM     11  O   UNL A   1      31.503  27.015  22.025  1.00  0.00    -0.254 OA
BRANCH  10  12
ATOM     12  C   UNL A   1      29.636  28.343  23.375  1.00  0.00     0.040 A 
ATOM     13  C   UNL A   1      28.329  27.867  23.215  1.00  0.00     0.018 A 
ATOM     14  C   UNL A   1      29.856  29.718  23.497  1.00  0.00     0.038 A 
ATOM     15  C   UNL A   1      27.265  28.761  23.072  1.00  0.00     0.003 A 
ATOM     16  C   UNL A   1      28.786  30.604  23.386  1.00  0.00     0.042 A 
ATOM     17  C   UNL A   1      27.495  30.134  23.147  1.00  0.00     0.020 A 
ATOM     18  Cl  UNL A   1      29.066  32.296  23.526  1.00  0.00    -0.084 Cl
ENDBRANCH  10  12
ENDBRANCH   9  10
ENDBRANCH   6   9
ENDBRANCH   3   6
ENDBRANCH   1   2
BRANCH   1  19
ATOM     19  C   UNL A   1      31.414  32.177  26.749  1.00  0.00     0.042 C 
BRANCH  19  20
ATOM     20  C   UNL A   1      32.746  32.865  27.002  1.00  0.00     0.118 C 
BRANCH  20  21
ATOM     21  N   UNL A   1      32.595  34.182  27.611  1.00  0.00    -0.352 N 
ATOM     22  C   UNL A   1      33.208  34.747  28.704  1.00  0.00     0.251 C 
ATOM     23  H   UNL A   1      31.943  34.767  27.162  1.00  0.00     0.163 HD
ATOM     24  O   UNL A   1      32.784  35.809  29.150  1.00  0.00    -0.269 OA
BRANCH  22  25
ATOM     25  C   UNL A   1      34.353  34.081  29.364  1.00  0.00     0.039 A 
ATOM     26  C   UNL A   1      34.101  33.061  30.287  1.00  0.00     0.014 A 
ATOM     27  C   UNL A   1      35.668  34.472  29.107  1.00  0.00     0.014 A 
ATOM     28  C   UNL A   1      35.167  32.383  30.884  1.00  0.00     0.010 A 
ATOM     29  C   UNL A   1      36.727  33.732  29.625  1.00  0.00     0.010 A 
ATOM     30  C   UNL A   1      36.490  32.683  30.524  1.00  0.00    -0.014 A 
BRANCH  30  31
ATOM     31  C   UNL A   1      37.639  31.916  31.072  1.00  0.00     0.031 A 
ATOM     32  C   UNL A   1      38.176  32.234  32.441  1.00  0.00     0.074 A 
ATOM     33  C   UNL A   1      38.245  30.986  30.309  1.00  0.00     0.049 A 
ATOM     34  N   UNL A   1      39.220  31.738  33.056  1.00  0.00    -0.248 NA
ATOM     35  C   UNL A   1      37.464  33.267  33.210  1.00  0.00     0.031 C 
ATOM     36  C   UNL A   1      37.852  30.618  28.948  1.00  0.00     0.029 A 
ATOM     37  N   UNL A   1      39.331  30.187  30.567  1.00  0.00    -0.354 N 
ATOM     38  C   UNL A   1      39.298  32.408  34.271  1.00  0.00     0.074 A 
ATOM     39  C   UNL A   1      38.232  33.386  34.283  1.00  0.00     0.031 C 
ATOM     40  C   UNL A   1      38.666  29.649  28.501  1.00  0.00     0.029 A 
ATOM     41  C   UNL A   1      39.666  29.357  29.524  1.00  0.00     0.049 A 
ATOM     42  H   UNL A   1      39.824  30.206  31.419  1.00  0.00     0.167 HD
ATOM     43  C   UNL A   1      40.163  32.211  35.295  1.00  0.00     0.037 A 
ATOM     44  C   UNL A   1      40.670  28.470  29.401  1.00  0.00     0.037 A 
ATOM     45  C   UNL A   1      41.208  31.223  35.289  1.00  0.00     0.049 A 
ATOM     46  C   UNL A   1      41.626  28.279  30.547  1.00  0.00     0.074 A 
ATOM     47  C   UNL A   1      42.101  30.907  36.299  1.00  0.00     0.029 A 
ATOM     48  N   UNL A   1      41.505  30.392  34.219  1.00  0.00    -0.354 N 
ATOM     49  N   UNL A   1      41.646  28.873  31.715  1.00  0.00    -0.248 NA
ATOM     50  C   UNL A   1      42.696  27.289  30.357  1.00  0.00     0.031 C 
ATOM     51  C   UNL A   1      42.967  29.917  35.823  1.00  0.00     0.029 A 
ATOM     52  C   UNL A   1      42.581  29.579  34.536  1.00  0.00     0.049 A 
ATOM     53  H   UNL A   1      41.023  30.382  33.361  1.00  0.00     0.167 HD
ATOM     54  C   UNL A   1      42.707  28.309  32.410  1.00  0.00     0.074 A 
ATOM     55  C   UNL A   1      43.298  27.316  31.538  1.00  0.00     0.031 C 
ATOM     56  C   UNL A   1      43.152  28.587  33.660  1.00  0.00     0.037 A 
BRANCH  43  57
ATOM     57  C   UNL A   1      40.008  33.081  36.509  1.00  0.00     0.057 A 
ATOM     58  C   UNL A   1      40.784  34.233  36.696  1.00  0.00     0.134 A 
ATOM     59  C   UNL A   1      39.049  32.785  37.485  1.00  0.00     0.134 A 
ATOM     60  F   UNL A   1      41.729  34.568  35.804  1.00  0.00    -0.206 F 
ATOM     61  C   UNL A   1      40.635  35.041  37.825  1.00  0.00     0.040 A 
ATOM     62  C   UNL A   1      38.869  33.602  38.603  1.00  0.00     0.040 A 
ATOM     63  F   UNL A   1      38.265  31.703  37.366  1.00  0.00    -0.206 F 
ATOM     64  C   UNL A   1      39.669  34.729  38.779  1.00  0.00     0.006 A 
ENDBRANCH  43  57
BRANCH  44  65
ATOM     65  C   UNL A   1      40.814  27.674  28.155  1.00  0.00     0.057 A 
ATOM     66  C   UNL A   1      41.605  28.132  27.095  1.00  0.00     0.134 A 
ATOM     67  C   UNL A   1      40.160  26.448  27.988  1.00  0.00     0.134 A 
ATOM     68  F   UNL A   1      42.241  29.308  27.187  1.00  0.00    -0.206 F 
ATOM     69  C   UNL A   1      41.724  27.410  25.906  1.00  0.00     0.040 A 
ATOM     70  C   UNL A   1      40.291  25.703  26.815  1.00  0.00     0.040 A 
ATOM     71  F   UNL A   1      39.393  25.949  28.969  1.00  0.00    -0.206 F 
ATOM     72  C   UNL A   1      41.069  26.189  25.766  1.00  0.00     0.006 A 
ENDBRANCH  44  65
BRANCH  56  73
ATOM     73  C   UNL A   1      44.308  27.780  34.175  1.00  0.00     0.057 A 
ATOM     74  C   UNL A   1      44.125  26.554  34.826  1.00  0.00     0.134 A 
ATOM     75  C   UNL A   1      45.624  28.220  33.981  1.00  0.00     0.134 A 
ATOM     76  F   UNL A   1      42.890  26.083  35.055  1.00  0.00    -0.206 F 
ATOM     77  C   UNL A   1      45.209  25.804  35.287  1.00  0.00     0.040 A 
ATOM     78  C   UNL A   1      46.716  27.466  34.412  1.00  0.00     0.040 A 
ATOM     79  F   UNL A   1      45.870  29.382  33.357  1.00  0.00    -0.206 F 
ATOM     80  C   UNL A   1      46.510  26.257  35.072  1.00  0.00     0.006 A 
ENDBRANCH  56  73
ENDBRANCH  30  31
ENDBRANCH  22  25
ENDBRANCH  20  21
ENDBRANCH  19  20
ENDBRANCH   1  19
TORSDOF 13
ENDMDL
