MODEL 1
REMARK VINA RESULT:     -12.3      0.000      0.000
REMARK SMILES CC(C)C[C@H](C(=O)NCCCNC(=O)c1ccc(-c2c3nc(c(-c4c(F)cccc4F)c4ccc([nH]4)c(-c4c(F)cccc4F)c4nc(c(-c5c(F)cccc5F)c5ccc2[nH]5)C=C4)C=C3)cc1)N1C(=O)/C(=C2\C(=O)Nc3ccc(Br)cc32)SC1=S
REMARK SMILES IDX 10 1 9 2 8 3 6 4 7 5 5 7 4 8 2 9 1 10 3 11 69 12 70 13 85 14
REMARK SMILES IDX 71 15 72 16 84 17 86 18 73 19 74 20 83 21 75 22 76 23 77 24
REMARK SMILES IDX 82 25 78 27 80 28 79 29 81 30 11 31 12 32 13 33 14 35 15 36
REMARK SMILES IDX 16 37 68 38 17 39 67 40 18 41 19 42 20 43 61 44 21 45 66 46
REMARK SMILES IDX 60 47 62 48 22 49 65 50 59 51 58 52 23 54 49 55 32 56 48 57
REMARK SMILES IDX 33 58 36 59 47 60 63 61 34 62 35 63 46 65 64 66 37 67 24 68
REMARK SMILES IDX 25 69 30 70 26 71 27 72 29 73 31 74 28 75 50 76 51 77 56 78
REMARK SMILES IDX 52 79 53 80 55 81 57 82 54 83 38 84 39 85 44 86 40 87 41 88
REMARK SMILES IDX 43 89 45 90 42 91
REMARK H PARENT 8 6 76 26 12 34 62 53 36 64
REMARK Flexibility Score: inf
ROOT
ATOM      1  C   UNL A   1      36.610  24.152  25.264  1.00  0.00     0.042 C 
ENDROOT
BRANCH   1   2
ATOM      2  C   UNL A   1      36.577  23.098  24.164  1.00  0.00     0.117 C 
BRANCH   2   3
ATOM      3  N   UNL A   1      36.781  21.770  24.704  1.00  0.00    -0.354 N 
ATOM      4  C   UNL A   1      35.941  20.714  24.875  1.00  0.00     0.243 C 
ATOM      5  O   UNL A   1      36.492  19.681  25.269  1.00  0.00    -0.273 OA
ATOM      6  H   UNL A   1      37.702  21.599  25.004  1.00  0.00     0.163 HD
BRANCH   4   7
ATOM      7  C   UNL A   1      34.429  20.747  24.469  1.00  0.00     0.181 C 
BRANCH   7   8
ATOM      8  C   UNL A   1      33.814  19.333  24.649  1.00  0.00     0.038 C 
BRANCH   8   9
ATOM      9  C   UNL A   1      33.641  18.337  23.493  1.00  0.00    -0.015 C 
ATOM     10  C   UNL A   1      33.679  16.871  23.900  1.00  0.00     0.007 C 
ATOM     11  C   UNL A   1      32.285  18.626  22.822  1.00  0.00     0.007 C 
ENDBRANCH   8   9
ENDBRANCH   7   8
BRANCH   7  12
ATOM     12  N   UNL A   1      33.718  21.925  25.009  1.00  0.00    -0.280 N 
ATOM     13  C   UNL A   1      33.088  22.760  24.104  1.00  0.00     0.267 C 
ATOM     14  C   UNL A   1      33.557  22.295  26.325  1.00  0.00     0.149 C 
ATOM     15  O   UNL A   1      32.644  22.413  23.020  1.00  0.00    -0.268 OA
ATOM     16  C   UNL A   1      32.885  24.114  24.697  1.00  0.00     0.093 C 
ATOM     17  S   UNL A   1      32.755  23.892  26.401  1.00  0.00    -0.053 SA
ATOM     18  S   UNL A   1      34.088  21.513  27.696  1.00  0.00    -0.052 S 
ATOM     19  C   UNL A   1      32.932  25.258  23.992  1.00  0.00     0.069 C 
ATOM     20  C   UNL A   1      33.308  25.231  22.520  1.00  0.00     0.257 C 
ATOM     21  C   UNL A   1      32.729  26.691  24.323  1.00  0.00     0.013 A 
ATOM     22  O   UNL A   1      33.883  24.363  21.895  1.00  0.00    -0.269 OA
ATOM     23  N   UNL A   1      33.061  26.499  22.052  1.00  0.00    -0.321 N 
ATOM     24  C   UNL A   1      32.767  27.366  23.087  1.00  0.00     0.049 A 
ATOM     25  C   UNL A   1      32.579  27.440  25.480  1.00  0.00     0.026 A 
ATOM     26  H   UNL A   1      33.090  26.756  21.102  1.00  0.00     0.170 HD
ATOM     27  C   UNL A   1      32.627  28.731  22.938  1.00  0.00     0.028 A 
ATOM     28  C   UNL A   1      32.448  28.838  25.345  1.00  0.00     0.018 A 
ATOM     29  C   UNL A   1      32.467  29.476  24.094  1.00  0.00     0.018 A 
ATOM     30  Br  UNL A   1      32.237  29.961  26.850  1.00  0.00    -0.051 Br
ENDBRANCH   7  12
ENDBRANCH   4   7
ENDBRANCH   2   3
ENDBRANCH   1   2
BRANCH   1  31
ATOM     31  C   UNL A   1      37.606  23.856  26.379  1.00  0.00     0.118 C 
BRANCH  31  32
ATOM     32  N   UNL A   1      38.972  23.867  25.890  1.00  0.00    -0.352 N 
ATOM     33  C   UNL A   1      39.988  24.758  26.138  1.00  0.00     0.251 C 
ATOM     34  H   UNL A   1      39.207  23.122  25.291  1.00  0.00     0.163 HD
ATOM     35  O   UNL A   1      40.990  24.743  25.428  1.00  0.00    -0.269 OA
BRANCH  33  36
ATOM     36  C   UNL A   1      39.889  25.750  27.237  1.00  0.00     0.039 A 
ATOM     37  C   UNL A   1      40.431  27.026  27.042  1.00  0.00     0.014 A 
ATOM     38  C   UNL A   1      39.345  25.412  28.479  1.00  0.00     0.014 A 
ATOM     39  C   UNL A   1      40.386  27.971  28.073  1.00  0.00     0.010 A 
ATOM     40  C   UNL A   1      39.241  26.372  29.484  1.00  0.00     0.010 A 
ATOM     41  C   UNL A   1      39.777  27.654  29.295  1.00  0.00    -0.014 A 
BRANCH  41  42
ATOM     42  C   UNL A   1      39.746  28.624  30.417  1.00  0.00     0.031 A 
ATOM     43  C   UNL A   1      38.694  29.691  30.450  1.00  0.00     0.074 A 
ATOM     44  C   UNL A   1      40.696  28.590  31.366  1.00  0.00     0.049 A 
ATOM     45  N   UNL A   1      38.569  30.698  31.273  1.00  0.00    -0.248 NA
ATOM     46  C   UNL A   1      37.686  29.654  29.380  1.00  0.00     0.031 C 
ATOM     47  C   UNL A   1      41.814  27.655  31.389  1.00  0.00     0.029 A 
ATOM     48  N   UNL A   1      40.869  29.344  32.500  1.00  0.00    -0.354 N 
ATOM     49  C   UNL A   1      37.529  31.466  30.769  1.00  0.00     0.074 A 
ATOM     50  C   UNL A   1      37.041  30.792  29.584  1.00  0.00     0.031 C 
ATOM     51  C   UNL A   1      42.501  27.822  32.529  1.00  0.00     0.029 A 
ATOM     52  C   UNL A   1      41.902  28.908  33.294  1.00  0.00     0.049 A 
ATOM     53  H   UNL A   1      40.308  30.122  32.721  1.00  0.00     0.167 HD
ATOM     54  C   UNL A   1      37.054  32.644  31.238  1.00  0.00     0.037 A 
ATOM     55  C   UNL A   1      42.306  29.330  34.507  1.00  0.00     0.037 A 
ATOM     56  C   UNL A   1      37.520  33.277  32.443  1.00  0.00     0.049 A 
ATOM     57  C   UNL A   1      41.643  30.539  35.104  1.00  0.00     0.074 A 
ATOM     58  C   UNL A   1      37.101  34.465  33.015  1.00  0.00     0.029 A 
ATOM     59  N   UNL A   1      38.505  32.759  33.272  1.00  0.00    -0.354 N 
ATOM     60  N   UNL A   1      40.668  31.266  34.615  1.00  0.00    -0.248 NA
ATOM     61  C   UNL A   1      42.160  31.016  36.394  1.00  0.00     0.031 C 
ATOM     62  C   UNL A   1      37.845  34.674  34.180  1.00  0.00     0.029 A 
ATOM     63  C   UNL A   1      38.705  33.600  34.353  1.00  0.00     0.049 A 
ATOM     64  H   UNL A   1      38.990  31.917  33.114  1.00  0.00     0.167 HD
ATOM     65  C   UNL A   1      40.475  32.301  35.517  1.00  0.00     0.074 A 
ATOM     66  C   UNL A   1      41.398  32.079  36.612  1.00  0.00     0.031 C 
ATOM     67  C   UNL A   1      39.631  33.358  35.430  1.00  0.00     0.037 A 
BRANCH  54  68
ATOM     68  C   UNL A   1      36.023  33.338  30.401  1.00  0.00     0.057 A 
ATOM     69  C   UNL A   1      34.661  33.326  30.724  1.00  0.00     0.134 A 
ATOM     70  C   UNL A   1      36.403  34.000  29.225  1.00  0.00     0.134 A 
ATOM     71  F   UNL A   1      34.230  32.689  31.822  1.00  0.00    -0.206 F 
ATOM     72  C   UNL A   1      33.709  33.915  29.889  1.00  0.00     0.040 A 
ATOM     73  C   UNL A   1      35.464  34.615  28.396  1.00  0.00     0.040 A 
ATOM     74  F   UNL A   1      37.693  34.049  28.857  1.00  0.00    -0.206 F 
ATOM     75  C   UNL A   1      34.111  34.563  28.723  1.00  0.00     0.006 A 
ENDBRANCH  54  68
BRANCH  55  76
ATOM     76  C   UNL A   1      43.358  28.587  35.246  1.00  0.00     0.057 A 
ATOM     77  C   UNL A   1      43.009  27.625  36.204  1.00  0.00     0.134 A 
ATOM     78  C   UNL A   1      44.723  28.781  35.003  1.00  0.00     0.134 A 
ATOM     79  F   UNL A   1      41.719  27.405  36.498  1.00  0.00    -0.206 F 
ATOM     80  C   UNL A   1      43.973  26.887  36.892  1.00  0.00     0.040 A 
ATOM     81  C   UNL A   1      45.699  28.032  35.665  1.00  0.00     0.040 A 
ATOM     82  F   UNL A   1      45.127  29.679  34.093  1.00  0.00    -0.206 F 
ATOM     83  C   UNL A   1      45.325  27.084  36.616  1.00  0.00     0.006 A 
ENDBRANCH  55  76
BRANCH  67  84
ATOM     84  C   UNL A   1      39.678  34.360  36.540  1.00  0.00     0.057 A 
ATOM     85  C   UNL A   1      40.429  35.537  36.427  1.00  0.00     0.134 A 
ATOM     86  C   UNL A   1      38.914  34.183  37.699  1.00  0.00     0.134 A 
ATOM     87  F   UNL A   1      41.188  35.757  35.343  1.00  0.00    -0.206 F 
ATOM     88  C   UNL A   1      40.423  36.502  37.434  1.00  0.00     0.040 A 
ATOM     89  C   UNL A   1      38.888  35.147  38.706  1.00  0.00     0.040 A 
ATOM     90  F   UNL A   1      38.170  33.077  37.862  1.00  0.00    -0.206 F 
ATOM     91  C   UNL A   1      39.645  36.311  38.575  1.00  0.00     0.006 A 
ENDBRANCH  67  84
ENDBRANCH  41  42
ENDBRANCH  33  36
ENDBRANCH  31  32
ENDBRANCH   1  31
TORSDOF 13
ENDMDL
MODEL 2
REMARK VINA RESULT:     -12.2      0.464      6.126
REMARK SMILES CC(C)C[C@H](C(=O)NCCCNC(=O)c1ccc(-c2c3nc(c(-c4c(F)cccc4F)c4ccc([nH]4)c(-c4c(F)cccc4F)c4nc(c(-c5c(F)cccc5F)c5ccc2[nH]5)C=C4)C=C3)cc1)N1C(=O)/C(=C2\C(=O)Nc3ccc(Br)cc32)SC1=S
REMARK SMILES IDX 10 1 9 2 8 3 6 4 7 5 5 7 4 8 2 9 1 10 3 11 69 12 70 13 85 14
REMARK SMILES IDX 71 15 72 16 84 17 86 18 73 19 74 20 83 21 75 22 76 23 77 24
REMARK SMILES IDX 82 25 78 27 80 28 79 29 81 30 11 31 12 32 13 33 14 35 15 36
REMARK SMILES IDX 16 37 68 38 17 39 67 40 18 41 19 42 20 43 61 44 21 45 66 46
REMARK SMILES IDX 60 47 62 48 22 49 65 50 59 51 58 52 23 54 49 55 32 56 48 57
REMARK SMILES IDX 33 58 36 59 47 60 63 61 34 62 35 63 46 65 64 66 37 67 24 68
REMARK SMILES IDX 25 69 30 70 26 71 27 72 29 73 31 74 28 75 50 76 51 77 56 78
REMARK SMILES IDX 52 79 53 80 55 81 57 82 54 83 38 84 39 85 44 86 40 87 41 88
REMARK SMILES IDX 43 89 45 90 42 91
REMARK H PARENT 8 6 76 26 12 34 62 53 36 64
REMARK Flexibility Score: inf
ROOT
ATOM      1  C   UNL A   1      36.610  23.970  24.904  1.00  0.00     0.042 C 
ENDROOT
BRANCH   1   2
ATOM      2  C   UNL A   1      36.557  22.809  23.918  1.00  0.00     0.117 C 
BRANCH   2   3
ATOM      3  N   UNL A   1      36.654  21.536  24.601  1.00  0.00    -0.354 N 
ATOM      4  C   UNL A   1      35.738  20.565  24.859  1.00  0.00     0.243 C 
ATOM      5  O   UNL A   1      36.206  19.545  25.375  1.00  0.00    -0.273 OA
ATOM      6  H   UNL A   1      37.555  21.336  24.945  1.00  0.00     0.163 HD
BRANCH   4   7
ATOM      7  C   UNL A   1      34.241  20.657  24.408  1.00  0.00     0.181 C 
BRANCH   7   8
ATOM      8  C   UNL A   1      33.565  19.270  24.572  1.00  0.00     0.038 C 
BRANCH   8   9
ATOM      9  C   UNL A   1      33.605  18.180  23.491  1.00  0.00    -0.015 C 
ATOM     10  C   UNL A   1      33.617  16.753  24.021  1.00  0.00     0.007 C 
ATOM     11  C   UNL A   1      32.367  18.362  22.594  1.00  0.00     0.007 C 
ENDBRANCH   8   9
ENDBRANCH   7   8
BRANCH   7  12
ATOM     12  N   UNL A   1      33.563  21.865  24.925  1.00  0.00    -0.280 N 
ATOM     13  C   UNL A   1      32.937  22.687  24.005  1.00  0.00     0.267 C 
ATOM     14  C   UNL A   1      33.429  22.275  26.231  1.00  0.00     0.149 C 
ATOM     15  O   UNL A   1      32.469  22.319  22.938  1.00  0.00    -0.268 OA
ATOM     16  C   UNL A   1      32.770  24.061  24.561  1.00  0.00     0.093 C 
ATOM     17  S   UNL A   1      32.662  23.890  26.273  1.00  0.00    -0.053 SA
ATOM     18  S   UNL A   1      33.965  21.522  27.616  1.00  0.00    -0.052 S 
ATOM     19  C   UNL A   1      32.830  25.183  23.823  1.00  0.00     0.069 C 
ATOM     20  C   UNL A   1      33.183  25.106  22.348  1.00  0.00     0.257 C 
ATOM     21  C   UNL A   1      32.662  26.629  24.115  1.00  0.00     0.013 A 
ATOM     22  O   UNL A   1      33.731  24.209  21.739  1.00  0.00    -0.269 OA
ATOM     23  N   UNL A   1      32.956  26.366  21.846  1.00  0.00    -0.321 N 
ATOM     24  C   UNL A   1      32.695  27.268  22.861  1.00  0.00     0.049 A 
ATOM     25  C   UNL A   1      32.544  27.414  25.253  1.00  0.00     0.026 A 
ATOM     26  H   UNL A   1      32.975  26.595  20.889  1.00  0.00     0.170 HD
ATOM     27  C   UNL A   1      32.581  28.631  22.675  1.00  0.00     0.028 A 
ATOM     28  C   UNL A   1      32.440  28.810  25.080  1.00  0.00     0.018 A 
ATOM     29  C   UNL A   1      32.453  29.412  23.811  1.00  0.00     0.018 A 
ATOM     30  Br  UNL A   1      32.276  29.979  26.555  1.00  0.00    -0.051 Br
ENDBRANCH   7  12
ENDBRANCH   4   7
ENDBRANCH   2   3
ENDBRANCH   1   2
BRANCH   1  31
ATOM     31  C   UNL A   1      37.425  23.683  26.159  1.00  0.00     0.118 C 
BRANCH  31  32
ATOM     32  N   UNL A   1      38.821  23.439  25.845  1.00  0.00    -0.352 N 
ATOM     33  C   UNL A   1      39.933  24.189  26.142  1.00  0.00     0.251 C 
ATOM     34  H   UNL A   1      38.998  22.610  25.343  1.00  0.00     0.163 HD
ATOM     35  O   UNL A   1      40.992  23.952  25.565  1.00  0.00    -0.269 OA
BRANCH  33  36
ATOM     36  C   UNL A   1      39.875  25.290  27.133  1.00  0.00     0.039 A 
ATOM     37  C   UNL A   1      40.470  26.516  26.813  1.00  0.00     0.014 A 
ATOM     38  C   UNL A   1      39.316  25.104  28.401  1.00  0.00     0.014 A 
ATOM     39  C   UNL A   1      40.464  27.563  27.742  1.00  0.00     0.010 A 
ATOM     40  C   UNL A   1      39.252  26.165  29.302  1.00  0.00     0.010 A 
ATOM     41  C   UNL A   1      39.841  27.397  28.987  1.00  0.00    -0.014 A 
BRANCH  41  42
ATOM     42  C   UNL A   1      39.849  28.477  30.004  1.00  0.00     0.031 A 
ATOM     43  C   UNL A   1      40.917  28.502  31.055  1.00  0.00     0.074 A 
ATOM     44  C   UNL A   1      38.866  29.393  30.025  1.00  0.00     0.049 A 
ATOM     45  N   UNL A   1      41.030  29.287  32.094  1.00  0.00    -0.248 NA
ATOM     46  C   UNL A   1      41.961  27.472  30.957  1.00  0.00     0.031 C 
ATOM     47  C   UNL A   1      37.732  29.415  29.109  1.00  0.00     0.029 A 
ATOM     48  N   UNL A   1      38.667  30.487  30.829  1.00  0.00    -0.354 N 
ATOM     49  C   UNL A   1      42.099  28.788  32.823  1.00  0.00     0.074 A 
ATOM     50  C   UNL A   1      42.617  27.650  32.093  1.00  0.00     0.031 C 
ATOM     51  C   UNL A   1      37.009  30.523  29.335  1.00  0.00     0.029 A 
ATOM     52  C   UNL A   1      37.599  31.262  30.443  1.00  0.00     0.049 A 
ATOM     53  H   UNL A   1      39.233  30.695  31.607  1.00  0.00     0.167 HD
ATOM     54  C   UNL A   1      42.578  29.224  34.013  1.00  0.00     0.037 A 
ATOM     55  C   UNL A   1      37.160  32.441  30.923  1.00  0.00     0.037 A 
ATOM     56  C   UNL A   1      42.081  30.383  34.704  1.00  0.00     0.049 A 
ATOM     57  C   UNL A   1      37.823  33.010  32.145  1.00  0.00     0.074 A 
ATOM     58  C   UNL A   1      42.500  30.920  35.909  1.00  0.00     0.029 A 
ATOM     59  N   UNL A   1      41.059  31.198  34.237  1.00  0.00    -0.354 N 
ATOM     60  N   UNL A   1      38.826  32.525  32.836  1.00  0.00    -0.248 NA
ATOM     61  C   UNL A   1      37.269  34.260  32.684  1.00  0.00     0.031 C 
ATOM     62  C   UNL A   1      41.719  32.048  36.179  1.00  0.00     0.029 A 
ATOM     63  C   UNL A   1      40.836  32.235  35.126  1.00  0.00     0.049 A 
ATOM     64  H   UNL A   1      40.566  31.059  33.396  1.00  0.00     0.167 HD
ATOM     65  C   UNL A   1      39.005  33.390  33.905  1.00  0.00     0.074 A 
ATOM     66  C   UNL A   1      38.041  34.460  33.744  1.00  0.00     0.031 C 
ATOM     67  C   UNL A   1      39.870  33.288  34.944  1.00  0.00     0.037 A 
BRANCH  54  68
ATOM     68  C   UNL A   1      43.649  28.395  34.655  1.00  0.00     0.057 A 
ATOM     69  C   UNL A   1      45.011  28.633  34.441  1.00  0.00     0.134 A 
ATOM     70  C   UNL A   1      43.302  27.313  35.475  1.00  0.00     0.134 A 
ATOM     71  F   UNL A   1      45.409  29.638  33.648  1.00  0.00    -0.206 F 
ATOM     72  C   UNL A   1      45.991  27.801  34.989  1.00  0.00     0.040 A 
ATOM     73  C   UNL A   1      44.272  26.490  36.049  1.00  0.00     0.040 A 
ATOM     74  F   UNL A   1      42.014  27.029  35.721  1.00  0.00    -0.206 F 
ATOM     75  C   UNL A   1      45.621  26.728  35.797  1.00  0.00     0.006 A 
ENDBRANCH  54  68
BRANCH  55  76
ATOM     76  C   UNL A   1      36.071  33.173  30.228  1.00  0.00     0.057 A 
ATOM     77  C   UNL A   1      36.320  33.837  29.019  1.00  0.00     0.134 A 
ATOM     78  C   UNL A   1      34.760  33.205  30.717  1.00  0.00     0.134 A 
ATOM     79  F   UNL A   1      37.559  33.861  28.506  1.00  0.00    -0.206 F 
ATOM     80  C   UNL A   1      35.310  34.507  28.326  1.00  0.00     0.040 A 
ATOM     81  C   UNL A   1      33.734  33.850  30.022  1.00  0.00     0.040 A 
ATOM     82  F   UNL A   1      34.451  32.582  31.864  1.00  0.00    -0.206 F 
ATOM     83  C   UNL A   1      34.009  34.506  28.824  1.00  0.00     0.006 A 
ENDBRANCH  55  76
BRANCH  67  84
ATOM     84  C   UNL A   1      39.801  34.353  35.994  1.00  0.00     0.057 A 
ATOM     85  C   UNL A   1      39.068  34.167  37.173  1.00  0.00     0.134 A 
ATOM     86  C   UNL A   1      40.527  35.541  35.858  1.00  0.00     0.134 A 
ATOM     87  F   UNL A   1      38.345  33.052  37.355  1.00  0.00    -0.206 F 
ATOM     88  C   UNL A   1      39.055  35.132  38.180  1.00  0.00     0.040 A 
ATOM     89  C   UNL A   1      40.534  36.507  36.864  1.00  0.00     0.040 A 
ATOM     90  F   UNL A   1      41.252  35.773  34.753  1.00  0.00    -0.206 F 
ATOM     91  C   UNL A   1      39.795  36.303  38.030  1.00  0.00     0.006 A 
ENDBRANCH  67  84
ENDBRANCH  41  42
ENDBRANCH  33  36
ENDBRANCH  31  32
ENDBRANCH   1  31
TORSDOF 13
ENDMDL
MODEL 3
REMARK VINA RESULT:     -12.0      3.983      7.826
REMARK SMILES CC(C)C[C@H](C(=O)NCCCNC(=O)c1ccc(-c2c3nc(c(-c4c(F)cccc4F)c4ccc([nH]4)c(-c4c(F)cccc4F)c4nc(c(-c5c(F)cccc5F)c5ccc2[nH]5)C=C4)C=C3)cc1)N1C(=O)/C(=C2\C(=O)Nc3ccc(Br)cc32)SC1=S
REMARK SMILES IDX 10 1 9 2 8 3 6 4 7 5 5 7 4 8 2 9 1 10 3 11 69 12 70 13 85 14
REMARK SMILES IDX 71 15 72 16 84 17 86 18 73 19 74 20 83 21 75 22 76 23 77 24
REMARK SMILES IDX 82 25 78 27 80 28 79 29 81 30 11 31 12 32 13 33 14 35 15 36
REMARK SMILES IDX 16 37 68 38 17 39 67 40 18 41 19 42 20 43 61 44 21 45 66 46
REMARK SMILES IDX 60 47 62 48 22 49 65 50 59 51 58 52 23 54 49 55 32 56 48 57
REMARK SMILES IDX 33 58 36 59 47 60 63 61 34 62 35 63 46 65 64 66 37 67 24 68
REMARK SMILES IDX 25 69 30 70 26 71 27 72 29 73 31 74 28 75 50 76 51 77 56 78
REMARK SMILES IDX 52 79 53 80 55 81 57 82 54 83 38 84 39 85 44 86 40 87 41 88
REMARK SMILES IDX 43 89 45 90 42 91
REMARK H PARENT 8 6 76 26 12 34 62 53 36 64
REMARK Flexibility Score: inf
ROOT
ATOM      1  C   UNL A   1      38.203  19.608  24.961  1.00  0.00     0.042 C 
ENDROOT
BRANCH   1   2
ATOM      2  C   UNL A   1      37.375  20.813  24.528  1.00  0.00     0.117 C 
BRANCH   2   3
ATOM      3  N   UNL A   1      36.481  21.241  25.584  1.00  0.00    -0.354 N 
ATOM      4  C   UNL A   1      35.127  21.349  25.646  1.00  0.00     0.243 C 
ATOM      5  O   UNL A   1      34.689  21.647  26.762  1.00  0.00    -0.273 OA
ATOM      6  H   UNL A   1      36.941  21.505  26.413  1.00  0.00     0.163 HD
BRANCH   4   7
ATOM      7  C   UNL A   1      34.182  20.984  24.452  1.00  0.00     0.181 C 
BRANCH   7   8
ATOM      8  C   UNL A   1      33.207  19.858  24.890  1.00  0.00     0.038 C 
BRANCH   8   9
ATOM      9  C   UNL A   1      33.372  18.390  24.472  1.00  0.00    -0.015 C 
ATOM     10  C   UNL A   1      34.813  17.906  24.391  1.00  0.00     0.007 C 
ATOM     11  C   UNL A   1      32.618  17.522  25.496  1.00  0.00     0.007 C 
ENDBRANCH   8   9
ENDBRANCH   7   8
BRANCH   7  12
ATOM     12  N   UNL A   1      33.653  22.176  23.756  1.00  0.00    -0.280 N 
ATOM     13  C   UNL A   1      34.216  23.400  24.071  1.00  0.00     0.267 C 
ATOM     14  C   UNL A   1      32.681  22.235  22.785  1.00  0.00     0.149 C 
ATOM     15  O   UNL A   1      35.363  23.566  24.459  1.00  0.00    -0.268 OA
ATOM     16  C   UNL A   1      33.282  24.509  23.721  1.00  0.00     0.093 C 
ATOM     17  S   UNL A   1      32.315  23.945  22.412  1.00  0.00    -0.053 SA
ATOM     18  S   UNL A   1      31.834  20.983  22.086  1.00  0.00    -0.052 S 
ATOM     19  C   UNL A   1      33.182  25.655  24.419  1.00  0.00     0.069 C 
ATOM     20  C   UNL A   1      33.974  25.837  25.702  1.00  0.00     0.257 C 
ATOM     21  C   UNL A   1      32.385  26.898  24.264  1.00  0.00     0.013 A 
ATOM     22  O   UNL A   1      34.488  24.994  26.409  1.00  0.00    -0.269 OA
ATOM     23  N   UNL A   1      33.820  27.158  26.047  1.00  0.00    -0.321 N 
ATOM     24  C   UNL A   1      32.872  27.776  25.252  1.00  0.00     0.049 A 
ATOM     25  C   UNL A   1      31.331  27.320  23.468  1.00  0.00     0.026 A 
ATOM     26  H   UNL A   1      34.320  27.607  26.767  1.00  0.00     0.170 HD
ATOM     27  C   UNL A   1      32.396  29.054  25.465  1.00  0.00     0.028 A 
ATOM     28  C   UNL A   1      30.825  28.619  23.682  1.00  0.00     0.018 A 
ATOM     29  C   UNL A   1      31.351  29.477  24.662  1.00  0.00     0.018 A 
ATOM     30  Br  UNL A   1      29.392  29.302  22.659  1.00  0.00    -0.051 Br
ENDBRANCH   7  12
ENDBRANCH   4   7
ENDBRANCH   2   3
ENDBRANCH   1   2
BRANCH   1  31
ATOM     31  C   UNL A   1      39.197  19.905  26.077  1.00  0.00     0.118 C 
BRANCH  31  32
ATOM     32  N   UNL A   1      40.448  19.198  25.878  1.00  0.00    -0.352 N 
ATOM     33  C   UNL A   1      41.739  19.666  25.918  1.00  0.00     0.251 C 
ATOM     34  H   UNL A   1      40.359  18.236  25.688  1.00  0.00     0.163 HD
ATOM     35  O   UNL A   1      42.647  18.972  25.467  1.00  0.00    -0.269 OA
BRANCH  33  36
ATOM     36  C   UNL A   1      42.055  21.002  26.480  1.00  0.00     0.039 A 
ATOM     37  C   UNL A   1      42.080  21.158  27.872  1.00  0.00     0.014 A 
ATOM     38  C   UNL A   1      42.244  22.115  25.657  1.00  0.00     0.014 A 
ATOM     39  C   UNL A   1      42.340  22.414  28.432  1.00  0.00     0.010 A 
ATOM     40  C   UNL A   1      42.566  23.352  26.212  1.00  0.00     0.010 A 
ATOM     41  C   UNL A   1      42.598  23.516  27.604  1.00  0.00    -0.014 A 
BRANCH  41  42
ATOM     42  C   UNL A   1      42.841  24.866  28.169  1.00  0.00     0.031 A 
ATOM     43  C   UNL A   1      44.239  25.296  28.495  1.00  0.00     0.074 A 
ATOM     44  C   UNL A   1      41.807  25.676  28.452  1.00  0.00     0.049 A 
ATOM     45  N   UNL A   1      44.646  26.380  29.100  1.00  0.00    -0.248 NA
ATOM     46  C   UNL A   1      45.314  24.356  28.147  1.00  0.00     0.031 C 
ATOM     47  C   UNL A   1      40.404  25.329  28.258  1.00  0.00     0.029 A 
ATOM     48  N   UNL A   1      41.770  26.957  28.942  1.00  0.00    -0.354 N 
ATOM     49  C   UNL A   1      46.009  26.212  29.291  1.00  0.00     0.074 A 
ATOM     50  C   UNL A   1      46.364  24.933  28.712  1.00  0.00     0.031 C 
ATOM     51  C   UNL A   1      39.647  26.404  28.531  1.00  0.00     0.029 A 
ATOM     52  C   UNL A   1      40.507  27.497  28.966  1.00  0.00     0.049 A 
ATOM     53  H   UNL A   1      42.571  27.441  29.249  1.00  0.00     0.167 HD
ATOM     54  C   UNL A   1      46.875  27.039  29.925  1.00  0.00     0.037 A 
ATOM     55  C   UNL A   1      40.096  28.738  29.287  1.00  0.00     0.037 A 
ATOM     56  C   UNL A   1      46.516  28.326  30.455  1.00  0.00     0.049 A 
ATOM     57  C   UNL A   1      41.106  29.713  29.822  1.00  0.00     0.074 A 
ATOM     58  C   UNL A   1      47.315  29.249  31.107  1.00  0.00     0.029 A 
ATOM     59  N   UNL A   1      45.246  28.881  30.379  1.00  0.00    -0.354 N 
ATOM     60  N   UNL A   1      42.393  29.541  30.011  1.00  0.00    -0.248 NA
ATOM     61  C   UNL A   1      40.609  31.033  30.233  1.00  0.00     0.031 C 
ATOM     62  C   UNL A   1      46.524  30.354  31.440  1.00  0.00     0.029 A 
ATOM     63  C   UNL A   1      45.239  30.134  30.967  1.00  0.00     0.049 A 
ATOM     64  H   UNL A   1      44.464  28.446  29.967  1.00  0.00     0.167 HD
ATOM     65  C   UNL A   1      42.853  30.715  30.588  1.00  0.00     0.074 A 
ATOM     66  C   UNL A   1      41.719  31.613  30.671  1.00  0.00     0.031 C 
ATOM     67  C   UNL A   1      44.097  31.009  31.038  1.00  0.00     0.037 A 
BRANCH  54  68
ATOM     68  C   UNL A   1      48.271  26.531  30.126  1.00  0.00     0.057 A 
ATOM     69  C   UNL A   1      49.295  26.766  29.201  1.00  0.00     0.134 A 
ATOM     70  C   UNL A   1      48.581  25.757  31.252  1.00  0.00     0.134 A 
ATOM     71  F   UNL A   1      49.057  27.479  28.091  1.00  0.00    -0.206 F 
ATOM     72  C   UNL A   1      50.569  26.220  29.371  1.00  0.00     0.040 A 
ATOM     73  C   UNL A   1      49.858  25.226  31.446  1.00  0.00     0.040 A 
ATOM     74  F   UNL A   1      47.645  25.493  32.177  1.00  0.00    -0.206 F 
ATOM     75  C   UNL A   1      50.852  25.449  30.497  1.00  0.00     0.006 A 
ENDBRANCH  54  68
BRANCH  55  76
ATOM     76  C   UNL A   1      38.681  29.137  29.076  1.00  0.00     0.057 A 
ATOM     77  C   UNL A   1      37.771  29.119  30.142  1.00  0.00     0.134 A 
ATOM     78  C   UNL A   1      38.204  29.575  27.835  1.00  0.00     0.134 A 
ATOM     79  F   UNL A   1      38.159  28.692  31.352  1.00  0.00    -0.206 F 
ATOM     80  C   UNL A   1      36.443  29.519  29.982  1.00  0.00     0.040 A 
ATOM     81  C   UNL A   1      36.885  30.002  27.666  1.00  0.00     0.040 A 
ATOM     82  F   UNL A   1      39.024  29.626  26.775  1.00  0.00    -0.206 F 
ATOM     83  C   UNL A   1      35.999  29.971  28.742  1.00  0.00     0.006 A 
ENDBRANCH  55  76
BRANCH  67  84
ATOM     84  C   UNL A   1      44.292  32.350  31.673  1.00  0.00     0.057 A 
ATOM     85  C   UNL A   1      44.656  33.470  30.915  1.00  0.00     0.134 A 
ATOM     86  C   UNL A   1      44.045  32.539  33.038  1.00  0.00     0.134 A 
ATOM     87  F   UNL A   1      44.915  33.347  29.604  1.00  0.00    -0.206 F 
ATOM     88  C   UNL A   1      44.775  34.732  31.495  1.00  0.00     0.040 A 
ATOM     89  C   UNL A   1      44.146  33.800  33.626  1.00  0.00     0.040 A 
ATOM     90  F   UNL A   1      43.688  31.505  33.815  1.00  0.00    -0.206 F 
ATOM     91  C   UNL A   1      44.513  34.901  32.853  1.00  0.00     0.006 A 
ENDBRANCH  67  84
ENDBRANCH  41  42
ENDBRANCH  33  36
ENDBRANCH  31  32
ENDBRANCH   1  31
TORSDOF 13
ENDMDL
