MODEL 1
REMARK VINA RESULT:     -12.4      0.000      0.000
REMARK SMILES [NH3+][C@H]1C=C[C@H](C(=O)N2CCCc3c(C(=O)NCCCNC(=O)c4ccc(-c5c6nc(c(-c7c(F)cccc7F)c7ccc([nH]7)c(-c7c(F)cccc7F)c7nc(c(-c8c(F)cccc8F)c8ccc5[nH]8)C=C7)C=C6)cc4)cccc32)C1
REMARK SMILES IDX 17 1 16 2 14 3 15 4 13 6 8 7 9 8 80 9 10 10 12 11 79 12
REMARK SMILES IDX 11 13 78 14 77 15 6 16 7 17 5 18 2 19 3 20 81 21 4 22 1 23
REMARK SMILES IDX 18 27 19 28 20 29 21 30 22 32 23 33 24 34 76 35 25 36 75 37
REMARK SMILES IDX 26 38 27 39 28 40 69 41 29 42 74 43 68 44 70 45 30 46 73 47
REMARK SMILES IDX 67 48 66 49 31 51 57 52 40 53 56 54 41 55 44 56 55 57 71 58
REMARK SMILES IDX 42 59 43 60 54 62 72 63 45 64 32 65 33 66 38 67 34 68 35 69
REMARK SMILES IDX 37 70 39 71 36 72 58 73 59 74 64 75 60 76 61 77 63 78 65 79
REMARK SMILES IDX 62 80 46 81 47 82 52 83 48 84 49 85 51 86 53 87 50 88
REMARK H PARENT 16 5 1 24 1 25 1 26 20 31 70 50 44 61
REMARK Flexibility Score: inf
ROOT
ATOM      1  C   UNL A   1      37.062  20.587  24.946  1.00  0.00     0.118 C 
ENDROOT
BRANCH   1   2
ATOM      2  N   UNL A   1      35.780  19.910  24.915  1.00  0.00    -0.352 N 
ATOM      3  C   UNL A   1      34.452  20.199  25.060  1.00  0.00     0.251 C 
ATOM      4  O   UNL A   1      33.736  19.202  24.878  1.00  0.00    -0.269 OA
ATOM      5  H   UNL A   1      35.903  18.949  24.733  1.00  0.00     0.163 HD
BRANCH   3   6
ATOM      6  C   UNL A   1      33.750  21.504  25.374  1.00  0.00     0.045 A 
ATOM      7  N   UNL A   1      32.315  24.824  24.243  1.00  0.00    -0.312 N 
ATOM      8  C   UNL A   1      32.063  24.431  22.867  1.00  0.00     0.126 C 
ATOM      9  C   UNL A   1      32.816  23.777  25.097  1.00  0.00     0.048 A 
ATOM     10  C   UNL A   1      33.338  23.854  22.306  1.00  0.00     0.027 C 
ATOM     11  C   UNL A   1      33.373  22.585  24.537  1.00  0.00    -0.011 A 
ATOM     12  C   UNL A   1      32.701  23.910  26.483  1.00  0.00     0.027 A 
ATOM     13  C   UNL A   1      33.623  22.574  23.062  1.00  0.00     0.040 C 
ATOM     14  C   UNL A   1      33.065  22.865  27.315  1.00  0.00     0.003 A 
ATOM     15  C   UNL A   1      33.560  21.683  26.766  1.00  0.00     0.014 A 
BRANCH   7  16
ATOM     16  C   UNL A   1      32.399  26.169  24.624  1.00  0.00     0.234 C 
ATOM     17  O   UNL A   1      33.486  26.754  24.677  1.00  0.00    -0.274 OA
BRANCH  16  18
ATOM     18  C   UNL A   1      31.104  26.832  25.160  1.00  0.00     0.108 C 
ATOM     19  C   UNL A   1      29.077  26.363  23.864  1.00  0.00     0.205 C 
ATOM     20  C   UNL A   1      29.591  27.726  23.568  1.00  0.00     0.033 C 
ATOM     21  C   UNL A   1      29.785  26.053  25.185  1.00  0.00     0.087 C 
ATOM     22  C   UNL A   1      30.703  27.988  24.268  1.00  0.00    -0.012 C 
BRANCH  19  23
ATOM     23  N   UNL A   1      27.638  26.283  24.016  1.00  0.00    -0.352 N 
ATOM     24  H   UNL A   1      27.403  26.221  25.006  1.00  0.00     0.345 HD
ATOM     25  H   UNL A   1      27.291  25.455  23.531  1.00  0.00     0.345 HD
ATOM     26  H   UNL A   1      27.207  27.116  23.616  1.00  0.00     0.345 HD
ENDBRANCH  19  23
ENDBRANCH  16  18
ENDBRANCH   7  16
ENDBRANCH   3   6
ENDBRANCH   1   2
BRANCH   1  27
ATOM     27  C   UNL A   1      38.214  19.583  25.012  1.00  0.00     0.042 C 
BRANCH  27  28
ATOM     28  C   UNL A   1      39.225  19.840  26.108  1.00  0.00     0.118 C 
BRANCH  28  29
ATOM     29  N   UNL A   1      40.464  19.116  25.886  1.00  0.00    -0.352 N 
ATOM     30  C   UNL A   1      41.762  19.561  25.955  1.00  0.00     0.251 C 
ATOM     31  H   UNL A   1      40.357  18.166  25.653  1.00  0.00     0.163 HD
ATOM     32  O   UNL A   1      42.664  18.845  25.532  1.00  0.00    -0.269 OA
BRANCH  30  33
ATOM     33  C   UNL A   1      42.077  20.900  26.508  1.00  0.00     0.039 A 
ATOM     34  C   UNL A   1      42.404  21.933  25.624  1.00  0.00     0.014 A 
ATOM     35  C   UNL A   1      42.078  21.143  27.884  1.00  0.00     0.014 A 
ATOM     36  C   UNL A   1      42.682  23.210  26.116  1.00  0.00     0.010 A 
ATOM     37  C   UNL A   1      42.244  22.437  28.365  1.00  0.00     0.010 A 
ATOM     38  C   UNL A   1      42.574  23.479  27.490  1.00  0.00    -0.014 A 
BRANCH  38  39
ATOM     39  C   UNL A   1      42.842  24.832  28.038  1.00  0.00     0.031 A 
ATOM     40  C   UNL A   1      44.242  25.217  28.435  1.00  0.00     0.074 A 
ATOM     41  C   UNL A   1      41.820  25.688  28.232  1.00  0.00     0.049 A 
ATOM     42  N   UNL A   1      44.671  26.320  28.993  1.00  0.00    -0.248 NA
ATOM     43  C   UNL A   1      45.296  24.214  28.206  1.00  0.00     0.031 C 
ATOM     44  C   UNL A   1      40.413  25.410  27.934  1.00  0.00     0.029 A 
ATOM     45  N   UNL A   1      41.806  26.965  28.733  1.00  0.00    -0.354 N 
ATOM     46  C   UNL A   1      46.034  26.135  29.194  1.00  0.00     0.074 A 
ATOM     47  C   UNL A   1      46.349  24.792  28.762  1.00  0.00     0.031 C 
ATOM     48  C   UNL A   1      39.679  26.493  28.230  1.00  0.00     0.029 A 
ATOM     49  C   UNL A   1      40.552  27.526  28.776  1.00  0.00     0.049 A 
ATOM     50  H   UNL A   1      42.618  27.435  29.033  1.00  0.00     0.167 HD
ATOM     51  C   UNL A   1      46.946  27.015  29.671  1.00  0.00     0.037 A 
ATOM     52  C   UNL A   1      40.154  28.734  29.216  1.00  0.00     0.037 A 
ATOM     53  C   UNL A   1      46.628  28.359  30.074  1.00  0.00     0.049 A 
ATOM     54  C   UNL A   1      41.186  29.692  29.746  1.00  0.00     0.074 A 
ATOM     55  C   UNL A   1      47.484  29.352  30.513  1.00  0.00     0.029 A 
ATOM     56  N   UNL A   1      45.350  28.896  30.087  1.00  0.00    -0.354 N 
ATOM     57  N   UNL A   1      42.482  29.530  29.864  1.00  0.00    -0.248 NA
ATOM     58  C   UNL A   1      40.700  31.003  30.197  1.00  0.00     0.031 C 
ATOM     59  C   UNL A   1      46.717  30.474  30.842  1.00  0.00     0.029 A 
ATOM     60  C   UNL A   1      45.390  30.199  30.551  1.00  0.00     0.049 A 
ATOM     61  H   UNL A   1      44.534  28.420  29.808  1.00  0.00     0.167 HD
ATOM     62  C   UNL A   1      42.970  30.726  30.374  1.00  0.00     0.074 A 
ATOM     63  C   UNL A   1      41.832  31.608  30.527  1.00  0.00     0.031 C 
ATOM     64  C   UNL A   1      44.245  31.064  30.688  1.00  0.00     0.037 A 
BRANCH  51  65
ATOM     65  C   UNL A   1      48.371  26.550  29.776  1.00  0.00     0.057 A 
ATOM     66  C   UNL A   1      49.305  26.781  28.756  1.00  0.00     0.134 A 
ATOM     67  C   UNL A   1      48.824  25.885  30.922  1.00  0.00     0.134 A 
ATOM     68  F   UNL A   1      48.936  27.401  27.624  1.00  0.00    -0.206 F 
ATOM     69  C   UNL A   1      50.626  26.343  28.858  1.00  0.00     0.040 A 
ATOM     70  C   UNL A   1      50.151  25.469  31.051  1.00  0.00     0.040 A 
ATOM     71  F   UNL A   1      47.987  25.633  31.940  1.00  0.00    -0.206 F 
ATOM     72  C   UNL A   1      51.054  25.691  30.013  1.00  0.00     0.006 A 
ENDBRANCH  51  65
BRANCH  52  73
ATOM     73  C   UNL A   1      38.720  29.116  29.151  1.00  0.00     0.057 A 
ATOM     74  C   UNL A   1      37.892  29.009  30.275  1.00  0.00     0.134 A 
ATOM     75  C   UNL A   1      38.141  29.590  27.967  1.00  0.00     0.134 A 
ATOM     76  F   UNL A   1      38.383  28.546  31.434  1.00  0.00    -0.206 F 
ATOM     77  C   UNL A   1      36.536  29.338  30.219  1.00  0.00     0.040 A 
ATOM     78  C   UNL A   1      36.794  29.949  27.904  1.00  0.00     0.040 A 
ATOM     79  F   UNL A   1      38.882  29.726  26.858  1.00  0.00    -0.206 F 
ATOM     80  C   UNL A   1      35.985  29.815  29.031  1.00  0.00     0.006 A 
ENDBRANCH  52  73
BRANCH  64  81
ATOM     81  C   UNL A   1      44.481  32.459  31.190  1.00  0.00     0.057 A 
ATOM     82  C   UNL A   1      44.721  33.530  30.320  1.00  0.00     0.134 A 
ATOM     83  C   UNL A   1      44.423  32.739  32.562  1.00  0.00     0.134 A 
ATOM     84  F   UNL A   1      44.799  33.327  28.997  1.00  0.00    -0.206 F 
ATOM     85  C   UNL A   1      44.922  34.825  30.799  1.00  0.00     0.040 A 
ATOM     86  C   UNL A   1      44.592  34.034  33.049  1.00  0.00     0.040 A 
ATOM     87  F   UNL A   1      44.186  31.760  33.448  1.00  0.00    -0.206 F 
ATOM     88  C   UNL A   1      44.849  35.081  32.167  1.00  0.00     0.006 A 
ENDBRANCH  64  81
ENDBRANCH  38  39
ENDBRANCH  30  33
ENDBRANCH  28  29
ENDBRANCH  27  28
ENDBRANCH   1  27
TORSDOF 13
ENDMDL
MODEL 2
REMARK VINA RESULT:     -12.4      1.682      6.368
REMARK SMILES [NH3+][C@H]1C=C[C@H](C(=O)N2CCCc3c(C(=O)NCCCNC(=O)c4ccc(-c5c6nc(c(-c7c(F)cccc7F)c7ccc([nH]7)c(-c7c(F)cccc7F)c7nc(c(-c8c(F)cccc8F)c8ccc5[nH]8)C=C7)C=C6)cc4)cccc32)C1
REMARK SMILES IDX 17 1 16 2 14 3 15 4 13 6 8 7 9 8 80 9 10 10 12 11 79 12
REMARK SMILES IDX 11 13 78 14 77 15 6 16 7 17 5 18 2 19 3 20 81 21 4 22 1 23
REMARK SMILES IDX 18 27 19 28 20 29 21 30 22 32 23 33 24 34 76 35 25 36 75 37
REMARK SMILES IDX 26 38 27 39 28 40 69 41 29 42 74 43 68 44 70 45 30 46 73 47
REMARK SMILES IDX 67 48 66 49 31 51 57 52 40 53 56 54 41 55 44 56 55 57 71 58
REMARK SMILES IDX 42 59 43 60 54 62 72 63 45 64 32 65 33 66 38 67 34 68 35 69
REMARK SMILES IDX 37 70 39 71 36 72 58 73 59 74 64 75 60 76 61 77 63 78 65 79
REMARK SMILES IDX 62 80 46 81 47 82 52 83 48 84 49 85 51 86 53 87 50 88
REMARK H PARENT 16 5 1 24 1 25 1 26 20 31 70 50 44 61
REMARK Flexibility Score: inf
ROOT
ATOM      1  C   UNL A   1      36.901  20.477  24.897  1.00  0.00     0.118 C 
ENDROOT
BRANCH   1   2
ATOM      2  N   UNL A   1      35.607  19.823  24.946  1.00  0.00    -0.352 N 
ATOM      3  C   UNL A   1      34.291  20.144  25.135  1.00  0.00     0.251 C 
ATOM      4  O   UNL A   1      33.551  19.155  25.023  1.00  0.00    -0.269 OA
ATOM      5  H   UNL A   1      35.706  18.855  24.799  1.00  0.00     0.163 HD
BRANCH   3   6
ATOM      6  C   UNL A   1      33.626  21.474  25.424  1.00  0.00     0.045 A 
ATOM      7  N   UNL A   1      32.286  24.812  24.230  1.00  0.00    -0.312 N 
ATOM      8  C   UNL A   1      32.024  24.401  22.862  1.00  0.00     0.126 C 
ATOM      9  C   UNL A   1      32.757  23.766  25.104  1.00  0.00     0.048 A 
ATOM     10  C   UNL A   1      33.284  23.779  22.313  1.00  0.00     0.027 C 
ATOM     11  C   UNL A   1      33.281  22.549  24.567  1.00  0.00    -0.011 A 
ATOM     12  C   UNL A   1      32.644  23.928  26.487  1.00  0.00     0.027 A 
ATOM     13  C   UNL A   1      33.531  22.504  23.092  1.00  0.00     0.040 C 
ATOM     14  C   UNL A   1      32.978  22.888  27.339  1.00  0.00     0.003 A 
ATOM     15  C   UNL A   1      33.440  21.683  26.812  1.00  0.00     0.014 A 
BRANCH   7  16
ATOM     16  C   UNL A   1      32.407  26.160  24.586  1.00  0.00     0.234 C 
ATOM     17  O   UNL A   1      33.510  26.716  24.628  1.00  0.00    -0.274 OA
BRANCH  16  18
ATOM     18  C   UNL A   1      31.132  26.868  25.113  1.00  0.00     0.108 C 
ATOM     19  C   UNL A   1      29.078  26.378  23.869  1.00  0.00     0.205 C 
ATOM     20  C   UNL A   1      29.609  27.717  23.505  1.00  0.00     0.033 C 
ATOM     21  C   UNL A   1      29.801  26.113  25.191  1.00  0.00     0.087 C 
ATOM     22  C   UNL A   1      30.736  27.990  24.177  1.00  0.00    -0.012 C 
BRANCH  19  23
ATOM     23  N   UNL A   1      27.640  26.328  24.045  1.00  0.00    -0.352 N 
ATOM     24  H   UNL A   1      27.221  27.170  23.652  1.00  0.00     0.345 HD
ATOM     25  H   UNL A   1      27.421  26.272  25.040  1.00  0.00     0.345 HD
ATOM     26  H   UNL A   1      27.267  25.508  23.568  1.00  0.00     0.345 HD
ENDBRANCH  19  23
ENDBRANCH  16  18
ENDBRANCH   7  16
ENDBRANCH   3   6
ENDBRANCH   1   2
BRANCH   1  27
ATOM     27  C   UNL A   1      38.033  19.474  25.121  1.00  0.00     0.042 C 
BRANCH  27  28
ATOM     28  C   UNL A   1      39.237  20.023  25.856  1.00  0.00     0.118 C 
BRANCH  28  29
ATOM     29  N   UNL A   1      40.302  19.040  25.965  1.00  0.00    -0.352 N 
ATOM     30  C   UNL A   1      41.654  19.229  26.120  1.00  0.00     0.251 C 
ATOM     31  H   UNL A   1      40.011  18.102  25.921  1.00  0.00     0.163 HD
ATOM     32  O   UNL A   1      42.412  18.274  25.985  1.00  0.00    -0.269 OA
BRANCH  30  33
ATOM     33  C   UNL A   1      42.203  20.574  26.422  1.00  0.00     0.039 A 
ATOM     34  C   UNL A   1      42.668  21.363  25.365  1.00  0.00     0.014 A 
ATOM     35  C   UNL A   1      42.287  21.054  27.731  1.00  0.00     0.014 A 
ATOM     36  C   UNL A   1      43.168  22.641  25.618  1.00  0.00     0.010 A 
ATOM     37  C   UNL A   1      42.680  22.366  27.970  1.00  0.00     0.010 A 
ATOM     38  C   UNL A   1      43.149  23.165  26.920  1.00  0.00    -0.014 A 
BRANCH  38  39
ATOM     39  C   UNL A   1      43.654  24.530  27.214  1.00  0.00     0.031 A 
ATOM     40  C   UNL A   1      42.695  25.608  27.642  1.00  0.00     0.074 A 
ATOM     41  C   UNL A   1      44.959  24.810  27.040  1.00  0.00     0.049 A 
ATOM     42  N   UNL A   1      42.924  26.874  27.879  1.00  0.00    -0.248 NA
ATOM     43  C   UNL A   1      41.282  25.219  27.791  1.00  0.00     0.031 C 
ATOM     44  C   UNL A   1      45.976  23.862  26.579  1.00  0.00     0.029 A 
ATOM     45  N   UNL A   1      45.655  25.979  27.222  1.00  0.00    -0.354 N 
ATOM     46  C   UNL A   1      41.688  27.430  28.187  1.00  0.00     0.074 A 
ATOM     47  C   UNL A   1      40.702  26.383  28.041  1.00  0.00     0.031 C 
ATOM     48  C   UNL A   1      47.168  24.477  26.544  1.00  0.00     0.029 A 
ATOM     49  C   UNL A   1      46.995  25.872  26.937  1.00  0.00     0.049 A 
ATOM     50  H   UNL A   1      45.234  26.815  27.528  1.00  0.00     0.167 HD
ATOM     51  C   UNL A   1      41.403  28.694  28.581  1.00  0.00     0.037 A 
ATOM     52  C   UNL A   1      47.971  26.798  26.981  1.00  0.00     0.037 A 
ATOM     53  C   UNL A   1      42.394  29.724  28.749  1.00  0.00     0.049 A 
ATOM     54  C   UNL A   1      47.628  28.196  27.418  1.00  0.00     0.074 A 
ATOM     55  C   UNL A   1      42.222  31.019  29.202  1.00  0.00     0.029 A 
ATOM     56  N   UNL A   1      43.743  29.572  28.467  1.00  0.00    -0.354 N 
ATOM     57  N   UNL A   1      46.466  28.690  27.774  1.00  0.00    -0.248 NA
ATOM     58  C   UNL A   1      48.733  29.164  27.464  1.00  0.00     0.031 C 
ATOM     59  C   UNL A   1      43.460  31.667  29.145  1.00  0.00     0.029 A 
ATOM     60  C   UNL A   1      44.413  30.758  28.712  1.00  0.00     0.049 A 
ATOM     61  H   UNL A   1      44.162  28.743  28.140  1.00  0.00     0.167 HD
ATOM     62  C   UNL A   1      46.705  30.015  28.115  1.00  0.00     0.074 A 
ATOM     63  C   UNL A   1      48.124  30.242  27.938  1.00  0.00     0.031 C 
ATOM     64  C   UNL A   1      45.829  30.960  28.537  1.00  0.00     0.037 A 
BRANCH  51  65
ATOM     65  C   UNL A   1      39.965  29.026  28.861  1.00  0.00     0.057 A 
ATOM     66  C   UNL A   1      39.451  29.060  30.165  1.00  0.00     0.134 A 
ATOM     67  C   UNL A   1      39.087  29.343  27.817  1.00  0.00     0.134 A 
ATOM     68  F   UNL A   1      40.232  28.754  31.212  1.00  0.00    -0.206 F 
ATOM     69  C   UNL A   1      38.113  29.366  30.418  1.00  0.00     0.040 A 
ATOM     70  C   UNL A   1      37.754  29.682  28.058  1.00  0.00     0.040 A 
ATOM     71  F   UNL A   1      39.510  29.336  26.544  1.00  0.00    -0.206 F 
ATOM     72  C   UNL A   1      37.261  29.686  29.362  1.00  0.00     0.006 A 
ENDBRANCH  51  65
BRANCH  52  73
ATOM     73  C   UNL A   1      49.365  26.429  26.627  1.00  0.00     0.057 A 
ATOM     74  C   UNL A   1      50.239  25.902  27.585  1.00  0.00     0.134 A 
ATOM     75  C   UNL A   1      49.861  26.599  25.328  1.00  0.00     0.134 A 
ATOM     76  F   UNL A   1      49.830  25.730  28.850  1.00  0.00    -0.206 F 
ATOM     77  C   UNL A   1      51.561  25.578  27.271  1.00  0.00     0.040 A 
ATOM     78  C   UNL A   1      51.170  26.254  24.993  1.00  0.00     0.040 A 
ATOM     79  F   UNL A   1      49.072  27.090  24.361  1.00  0.00    -0.206 F 
ATOM     80  C   UNL A   1      52.028  25.749  25.969  1.00  0.00     0.006 A 
ENDBRANCH  52  73
BRANCH  64  81
ATOM     81  C   UNL A   1      46.388  32.312  28.873  1.00  0.00     0.057 A 
ATOM     82  C   UNL A   1      46.463  33.341  27.926  1.00  0.00     0.134 A 
ATOM     83  C   UNL A   1      46.817  32.599  30.176  1.00  0.00     0.134 A 
ATOM     84  F   UNL A   1      46.079  33.127  26.659  1.00  0.00    -0.206 F 
ATOM     85  C   UNL A   1      46.968  34.598  28.256  1.00  0.00     0.040 A 
ATOM     86  C   UNL A   1      47.296  33.861  30.525  1.00  0.00     0.040 A 
ATOM     87  F   UNL A   1      46.761  31.661  31.134  1.00  0.00    -0.206 F 
ATOM     88  C   UNL A   1      47.379  34.863  29.561  1.00  0.00     0.006 A 
ENDBRANCH  64  81
ENDBRANCH  38  39
ENDBRANCH  30  33
ENDBRANCH  28  29
ENDBRANCH  27  28
ENDBRANCH   1  27
TORSDOF 13
ENDMDL
MODEL 3
REMARK VINA RESULT:     -12.3      4.131      9.361
REMARK SMILES [NH3+][C@H]1C=C[C@H](C(=O)N2CCCc3c(C(=O)NCCCNC(=O)c4ccc(-c5c6nc(c(-c7c(F)cccc7F)c7ccc([nH]7)c(-c7c(F)cccc7F)c7nc(c(-c8c(F)cccc8F)c8ccc5[nH]8)C=C7)C=C6)cc4)cccc32)C1
REMARK SMILES IDX 17 1 16 2 14 3 15 4 13 6 8 7 9 8 80 9 10 10 12 11 79 12
REMARK SMILES IDX 11 13 78 14 77 15 6 16 7 17 5 18 2 19 3 20 81 21 4 22 1 23
REMARK SMILES IDX 18 27 19 28 20 29 21 30 22 32 23 33 24 34 76 35 25 36 75 37
REMARK SMILES IDX 26 38 27 39 28 40 69 41 29 42 74 43 68 44 70 45 30 46 73 47
REMARK SMILES IDX 67 48 66 49 31 51 57 52 40 53 56 54 41 55 44 56 55 57 71 58
REMARK SMILES IDX 42 59 43 60 54 62 72 63 45 64 32 65 33 66 38 67 34 68 35 69
REMARK SMILES IDX 37 70 39 71 36 72 58 73 59 74 64 75 60 76 61 77 63 78 65 79
REMARK SMILES IDX 62 80 46 81 47 82 52 83 48 84 49 85 51 86 53 87 50 88
REMARK H PARENT 16 5 1 24 1 25 1 26 20 31 70 50 44 61
REMARK Flexibility Score: inf
ROOT
ATOM      1  C   UNL A   1      31.420  30.849  26.175  1.00  0.00     0.118 C 
ENDROOT
BRANCH   1   2
ATOM      2  N   UNL A   1      30.688  30.604  24.948  1.00  0.00    -0.352 N 
ATOM      3  C   UNL A   1      30.655  29.696  23.925  1.00  0.00     0.251 C 
ATOM      4  O   UNL A   1      29.753  29.946  23.110  1.00  0.00    -0.269 OA
ATOM      5  H   UNL A   1      30.009  31.302  24.807  1.00  0.00     0.163 HD
BRANCH   3   6
ATOM      6  C   UNL A   1      31.503  28.469  23.660  1.00  0.00     0.045 A 
ATOM      7  N   UNL A   1      32.428  24.877  24.437  1.00  0.00    -0.312 N 
ATOM      8  C   UNL A   1      31.139  24.494  24.986  1.00  0.00     0.126 C 
ATOM      9  C   UNL A   1      32.497  26.220  23.916  1.00  0.00     0.048 A 
ATOM     10  C   UNL A   1      30.770  25.495  26.052  1.00  0.00     0.027 C 
ATOM     11  C   UNL A   1      31.507  27.189  24.269  1.00  0.00    -0.011 A 
ATOM     12  C   UNL A   1      33.511  26.553  23.014  1.00  0.00     0.027 A 
ATOM     13  C   UNL A   1      30.552  26.825  25.362  1.00  0.00     0.040 C 
ATOM     14  C   UNL A   1      33.523  27.800  22.411  1.00  0.00     0.003 A 
ATOM     15  C   UNL A   1      32.527  28.727  22.717  1.00  0.00     0.014 A 
BRANCH   7  16
ATOM     16  C   UNL A   1      33.592  24.145  24.701  1.00  0.00     0.234 C 
ATOM     17  O   UNL A   1      34.362  24.470  25.611  1.00  0.00    -0.274 OA
BRANCH  16  18
ATOM     18  C   UNL A   1      33.971  23.035  23.688  1.00  0.00     0.108 C 
ATOM     19  C   UNL A   1      32.080  21.802  22.734  1.00  0.00     0.205 C 
ATOM     20  C   UNL A   1      32.756  21.001  23.787  1.00  0.00     0.033 C 
ATOM     21  C   UNL A   1      33.154  22.841  22.406  1.00  0.00     0.087 C 
ATOM     22  C   UNL A   1      33.788  21.670  24.317  1.00  0.00    -0.012 C 
BRANCH  19  23
ATOM     23  N   UNL A   1      31.707  21.050  21.552  1.00  0.00    -0.352 N 
ATOM     24  H   UNL A   1      31.194  21.655  20.912  1.00  0.00     0.345 HD
ATOM     25  H   UNL A   1      31.117  20.262  21.822  1.00  0.00     0.345 HD
ATOM     26  H   UNL A   1      32.547  20.703  21.091  1.00  0.00     0.345 HD
ENDBRANCH  19  23
ENDBRANCH  16  18
ENDBRANCH   7  16
ENDBRANCH   3   6
ENDBRANCH   1   2
BRANCH   1  27
ATOM     27  C   UNL A   1      31.382  32.330  26.552  1.00  0.00     0.042 C 
BRANCH  27  28
ATOM     28  C   UNL A   1      32.710  32.915  26.981  1.00  0.00     0.118 C 
BRANCH  28  29
ATOM     29  N   UNL A   1      32.549  34.195  27.650  1.00  0.00    -0.352 N 
ATOM     30  C   UNL A   1      33.190  34.688  28.761  1.00  0.00     0.251 C 
ATOM     31  H   UNL A   1      31.884  34.797  27.247  1.00  0.00     0.163 HD
ATOM     32  O   UNL A   1      32.767  35.709  29.293  1.00  0.00    -0.269 OA
BRANCH  30  33
ATOM     33  C   UNL A   1      34.364  33.986  29.334  1.00  0.00     0.039 A 
ATOM     34  C   UNL A   1      34.150  32.989  30.291  1.00  0.00     0.014 A 
ATOM     35  C   UNL A   1      35.669  34.314  28.959  1.00  0.00     0.014 A 
ATOM     36  C   UNL A   1      35.236  32.296  30.830  1.00  0.00     0.010 A 
ATOM     37  C   UNL A   1      36.739  33.550  29.411  1.00  0.00     0.010 A 
ATOM     38  C   UNL A   1      36.538  32.551  30.371  1.00  0.00    -0.014 A 
BRANCH  38  39
ATOM     39  C   UNL A   1      37.708  31.813  30.910  1.00  0.00     0.031 A 
ATOM     40  C   UNL A   1      38.224  32.130  32.288  1.00  0.00     0.074 A 
ATOM     41  C   UNL A   1      38.338  30.906  30.140  1.00  0.00     0.049 A 
ATOM     42  N   UNL A   1      39.269  31.650  32.912  1.00  0.00    -0.248 NA
ATOM     43  C   UNL A   1      37.486  33.149  33.055  1.00  0.00     0.031 C 
ATOM     44  C   UNL A   1      37.962  30.551  28.769  1.00  0.00     0.029 A 
ATOM     45  N   UNL A   1      39.433  30.120  30.397  1.00  0.00    -0.354 N 
ATOM     46  C   UNL A   1      39.320  32.317  34.130  1.00  0.00     0.074 A 
ATOM     47  C   UNL A   1      38.245  33.283  34.132  1.00  0.00     0.031 C 
ATOM     48  C   UNL A   1      38.793  29.599  28.318  1.00  0.00     0.029 A 
ATOM     49  C   UNL A   1      39.784  29.305  29.348  1.00  0.00     0.049 A 
ATOM     50  H   UNL A   1      39.921  30.139  31.252  1.00  0.00     0.167 HD
ATOM     51  C   UNL A   1      40.171  32.124  35.166  1.00  0.00     0.037 A 
ATOM     52  C   UNL A   1      40.797  28.427  29.230  1.00  0.00     0.037 A 
ATOM     53  C   UNL A   1      41.223  31.142  35.166  1.00  0.00     0.049 A 
ATOM     54  C   UNL A   1      41.732  28.234  30.392  1.00  0.00     0.074 A 
ATOM     55  C   UNL A   1      42.102  30.821  36.184  1.00  0.00     0.029 A 
ATOM     56  N   UNL A   1      41.536  30.323  34.092  1.00  0.00    -0.354 N 
ATOM     57  N   UNL A   1      41.726  28.821  31.565  1.00  0.00    -0.248 NA
ATOM     58  C   UNL A   1      42.811  27.251  30.218  1.00  0.00     0.031 C 
ATOM     59  C   UNL A   1      42.982  29.844  35.708  1.00  0.00     0.029 A 
ATOM     60  C   UNL A   1      42.613  29.514  34.413  1.00  0.00     0.049 A 
ATOM     61  H   UNL A   1      41.064  30.318  33.228  1.00  0.00     0.167 HD
ATOM     62  C   UNL A   1      42.778  28.259  32.278  1.00  0.00     0.074 A 
ATOM     63  C   UNL A   1      43.389  27.274  31.410  1.00  0.00     0.031 C 
ATOM     64  C   UNL A   1      43.201  28.533  33.536  1.00  0.00     0.037 A 
BRANCH  51  65
ATOM     65  C   UNL A   1      39.993  32.988  36.381  1.00  0.00     0.057 A 
ATOM     66  C   UNL A   1      40.737  34.162  36.573  1.00  0.00     0.134 A 
ATOM     67  C   UNL A   1      39.049  32.660  37.362  1.00  0.00     0.134 A 
ATOM     68  F   UNL A   1      41.668  34.530  35.680  1.00  0.00    -0.206 F 
ATOM     69  C   UNL A   1      40.569  34.959  37.706  1.00  0.00     0.040 A 
ATOM     70  C   UNL A   1      38.849  33.465  38.485  1.00  0.00     0.040 A 
ATOM     71  F   UNL A   1      38.299  31.554  37.243  1.00  0.00    -0.206 F 
ATOM     72  C   UNL A   1      39.617  34.615  38.664  1.00  0.00     0.006 A 
ENDBRANCH  51  65
BRANCH  52  73
ATOM     73  C   UNL A   1      40.966  27.647  27.977  1.00  0.00     0.057 A 
ATOM     74  C   UNL A   1      41.746  28.133  26.922  1.00  0.00     0.134 A 
ATOM     75  C   UNL A   1      40.349  26.401  27.801  1.00  0.00     0.134 A 
ATOM     76  F   UNL A   1      42.350  29.327  27.023  1.00  0.00    -0.206 F 
ATOM     77  C   UNL A   1      41.889  27.423  25.729  1.00  0.00     0.040 A 
ATOM     78  C   UNL A   1      40.506  25.667  26.625  1.00  0.00     0.040 A 
ATOM     79  F   UNL A   1      39.597  25.874  28.777  1.00  0.00    -0.206 F 
ATOM     80  C   UNL A   1      41.271  26.183  25.580  1.00  0.00     0.006 A 
ENDBRANCH  52  73
BRANCH  64  81
ATOM     81  C   UNL A   1      44.354  27.729  34.063  1.00  0.00     0.057 A 
ATOM     82  C   UNL A   1      45.675  28.190  33.990  1.00  0.00     0.134 A 
ATOM     83  C   UNL A   1      44.132  26.496  34.690  1.00  0.00     0.134 A 
ATOM     84  F   UNL A   1      45.955  29.358  33.392  1.00  0.00    -0.206 F 
ATOM     85  C   UNL A   1      46.735  27.441  34.498  1.00  0.00     0.040 A 
ATOM     86  C   UNL A   1      45.182  25.753  35.228  1.00  0.00     0.040 A 
ATOM     87  F   UNL A   1      42.890  26.003  34.803  1.00  0.00    -0.206 F 
ATOM     88  C   UNL A   1      46.489  26.222  35.127  1.00  0.00     0.006 A 
ENDBRANCH  64  81
ENDBRANCH  38  39
ENDBRANCH  30  33
ENDBRANCH  28  29
ENDBRANCH  27  28
ENDBRANCH   1  27
TORSDOF 13
ENDMDL
