MODEL 1
REMARK VINA RESULT:     -13.7      0.000      0.000
REMARK SMILES Cc1ccc(S(=O)(=O)n2cc(C(=O)C(=O)N[C@@H](Cc3cnc[nH]3)C(=O)NCCCNC(=O)c3ccc(-c4c5nc(c(-c6c(F)cccc6F)c6ccc([nH]6)c(-c6c(F)cccc6F)c6nc(c(-c7c(F)cccc7F)c7ccc4[nH]7)C=C6)C=C5)cc3)c3ccccc32)cc1
REMARK SMILES IDX 24 1 25 2 26 3 17 5 16 6 14 7 15 8 12 10 13 11 11 12 9 13
REMARK SMILES IDX 10 14 92 15 87 16 91 17 88 18 90 19 89 20 6 21 7 22 8 23
REMARK SMILES IDX 5 24 1 25 2 26 3 27 94 28 4 29 93 30 18 31 19 32 20 33 23 34
REMARK SMILES IDX 21 35 22 36 27 38 28 39 29 40 30 41 31 42 32 44 33 45 34 46
REMARK SMILES IDX 86 47 35 48 85 49 36 50 37 51 38 52 79 53 39 54 84 55 78 56
REMARK SMILES IDX 80 57 40 58 83 59 77 60 76 61 41 63 67 64 50 65 66 66 51 67
REMARK SMILES IDX 54 68 65 69 81 70 52 71 53 72 64 74 82 75 55 76 42 77 43 78
REMARK SMILES IDX 48 79 44 80 45 81 47 82 49 83 46 84 68 85 69 86 74 87 70 88
REMARK SMILES IDX 71 89 73 90 75 91 72 92 56 93 57 94 62 95 58 96 59 97 61 98
REMARK SMILES IDX 63 99 60 100
REMARK H PARENT 26 4 16 9 23 37 30 43 80 62 54 73
REMARK Flexibility Score: inf
ROOT
ATOM      1  C   UNL A   1      34.340  21.414  26.416  1.00  0.00     0.242 C 
ATOM      2  O   UNL A   1      33.910  21.421  27.574  1.00  0.00    -0.273 OA
ATOM      3  N   UNL A   1      35.669  21.123  26.252  1.00  0.00    -0.354 N 
ATOM      4  H   UNL A   1      36.268  21.369  26.993  1.00  0.00     0.163 HD
ENDROOT
BRANCH   1   5
ATOM      5  C   UNL A   1      33.379  21.634  25.212  1.00  0.00     0.177 C 
BRANCH   5   6
ATOM      6  N   UNL A   1      34.113  22.096  24.020  1.00  0.00    -0.337 N 
ATOM      7  C   UNL A   1      34.817  23.269  23.799  1.00  0.00     0.293 C 
ATOM      8  O   UNL A   1      35.561  23.313  22.822  1.00  0.00    -0.265 OA
ATOM      9  H   UNL A   1      34.101  21.472  23.259  1.00  0.00     0.164 HD
BRANCH   7  10
ATOM     10  C   UNL A   1      34.668  24.508  24.723  1.00  0.00     0.252 C 
ATOM     11  O   UNL A   1      35.627  24.837  25.414  1.00  0.00    -0.283 OA
BRANCH  10  12
ATOM     12  C   UNL A   1      33.419  25.286  24.812  1.00  0.00     0.054 A 
ATOM     13  N   UNL A   1      31.312  26.004  24.583  1.00  0.00    -0.240 N 
ATOM     14  C   UNL A   1      32.192  25.007  24.232  1.00  0.00     0.117 A 
ATOM     15  C   UNL A   1      31.911  26.937  25.398  1.00  0.00     0.065 A 
ATOM     16  C   UNL A   1      33.245  26.529  25.530  1.00  0.00     0.012 A 
ATOM     17  C   UNL A   1      31.429  28.110  26.011  1.00  0.00     0.028 A 
ATOM     18  C   UNL A   1      34.119  27.339  26.290  1.00  0.00     0.011 A 
ATOM     19  C   UNL A   1      32.324  28.893  26.743  1.00  0.00     0.002 A 
ATOM     20  C   UNL A   1      33.653  28.517  26.881  1.00  0.00     0.001 A 
BRANCH  13  21
ATOM     21  S   UNL A   1      29.702  26.071  24.027  1.00  0.00     0.268 S 
ATOM     22  O   UNL A   1      28.890  26.083  25.245  1.00  0.00    -0.201 OA
ATOM     23  O   UNL A   1      29.574  25.038  23.036  1.00  0.00    -0.201 OA
BRANCH  21  24
ATOM     24  C   UNL A   1      29.455  27.629  23.212  1.00  0.00     0.088 A 
ATOM     25  C   UNL A   1      28.657  31.501  21.514  1.00  0.00     0.044 C 
ATOM     26  C   UNL A   1      28.936  30.143  22.087  1.00  0.00    -0.051 A 
ATOM     27  C   UNL A   1      27.917  29.439  22.738  1.00  0.00     0.005 A 
ATOM     28  C   UNL A   1      30.206  29.562  21.976  1.00  0.00     0.005 A 
ATOM     29  C   UNL A   1      28.175  28.190  23.305  1.00  0.00     0.022 A 
ATOM     30  C   UNL A   1      30.466  28.302  22.526  1.00  0.00     0.022 A 
ENDBRANCH  21  24
ENDBRANCH  13  21
ENDBRANCH  10  12
ENDBRANCH   7  10
ENDBRANCH   5   6
BRANCH   5  31
ATOM     31  C   UNL A   1      32.342  20.512  24.948  1.00  0.00     0.090 C 
BRANCH  31  32
ATOM     32  C   UNL A   1      32.819  19.096  24.967  1.00  0.00     0.037 A 
ATOM     33  C   UNL A   1      33.459  18.313  24.025  1.00  0.00     0.134 A 
ATOM     34  N   UNL A   1      32.709  18.280  26.072  1.00  0.00    -0.348 N 
ATOM     35  N   UNL A   1      33.872  17.129  24.581  1.00  0.00    -0.245 NA
ATOM     36  C   UNL A   1      33.400  17.130  25.806  1.00  0.00     0.196 A 
ATOM     37  H   UNL A   1      32.223  18.487  26.903  1.00  0.00     0.167 HD
ENDBRANCH  31  32
ENDBRANCH   5  31
ENDBRANCH   1   5
BRANCH   3  38
ATOM     38  C   UNL A   1      36.283  20.496  25.108  1.00  0.00     0.117 C 
BRANCH  38  39
ATOM     39  C   UNL A   1      37.775  20.655  24.966  1.00  0.00     0.042 C 
BRANCH  39  40
ATOM     40  C   UNL A   1      38.250  21.964  25.547  1.00  0.00     0.118 C 
BRANCH  40  41
ATOM     41  N   UNL A   1      39.539  21.926  26.242  1.00  0.00    -0.352 N 
ATOM     42  C   UNL A   1      40.301  22.967  26.761  1.00  0.00     0.251 C 
ATOM     43  H   UNL A   1      39.923  21.028  26.360  1.00  0.00     0.163 HD
ATOM     44  O   UNL A   1      41.368  22.717  27.315  1.00  0.00    -0.269 OA
BRANCH  42  45
ATOM     45  C   UNL A   1      39.754  24.353  26.818  1.00  0.00     0.039 A 
ATOM     46  C   UNL A   1      40.438  25.350  26.109  1.00  0.00     0.014 A 
ATOM     47  C   UNL A   1      38.921  24.715  27.857  1.00  0.00     0.014 A 
ATOM     48  C   UNL A   1      40.583  26.605  26.688  1.00  0.00     0.010 A 
ATOM     49  C   UNL A   1      39.278  25.827  28.565  1.00  0.00     0.010 A 
ATOM     50  C   UNL A   1      40.143  26.760  27.993  1.00  0.00    -0.014 A 
BRANCH  50  51
ATOM     51  C   UNL A   1      40.454  27.866  28.874  1.00  0.00     0.031 A 
ATOM     52  C   UNL A   1      39.485  28.978  28.917  1.00  0.00     0.074 A 
ATOM     53  C   UNL A   1      41.432  27.705  29.793  1.00  0.00     0.049 A 
ATOM     54  N   UNL A   1      39.668  30.073  29.555  1.00  0.00    -0.248 NA
ATOM     55  C   UNL A   1      38.199  28.935  28.222  1.00  0.00     0.031 C 
ATOM     56  C   UNL A   1      41.648  28.467  31.019  1.00  0.00     0.029 A 
ATOM     57  N   UNL A   1      42.577  26.902  29.685  1.00  0.00    -0.354 N 
ATOM     58  C   UNL A   1      38.476  30.763  29.574  1.00  0.00     0.074 A 
ATOM     59  C   UNL A   1      37.594  30.019  28.713  1.00  0.00     0.031 C 
ATOM     60  C   UNL A   1      42.937  28.350  31.383  1.00  0.00     0.029 A 
ATOM     61  C   UNL A   1      43.612  27.635  30.313  1.00  0.00     0.049 A 
ATOM     62  H   UNL A   1      42.647  26.015  29.263  1.00  0.00     0.167 HD
ATOM     63  C   UNL A   1      38.372  31.832  30.410  1.00  0.00     0.037 A 
ATOM     64  C   UNL A   1      44.643  28.143  29.573  1.00  0.00     0.037 A 
ATOM     65  C   UNL A   1      39.673  32.106  31.015  1.00  0.00     0.049 A 
ATOM     66  C   UNL A   1      44.686  29.657  29.588  1.00  0.00     0.074 A 
ATOM     67  C   UNL A   1      40.256  31.715  32.209  1.00  0.00     0.029 A 
ATOM     68  N   UNL A   1      40.706  32.539  30.194  1.00  0.00    -0.354 N 
ATOM     69  N   UNL A   1      43.655  30.411  29.861  1.00  0.00    -0.248 NA
ATOM     70  C   UNL A   1      45.894  30.439  29.341  1.00  0.00     0.031 C 
ATOM     71  C   UNL A   1      41.663  31.843  32.069  1.00  0.00     0.029 A 
ATOM     72  C   UNL A   1      41.927  32.340  30.803  1.00  0.00     0.049 A 
ATOM     73  H   UNL A   1      40.582  32.933  29.300  1.00  0.00     0.167 HD
ATOM     74  C   UNL A   1      44.032  31.731  29.853  1.00  0.00     0.074 A 
ATOM     75  C   UNL A   1      45.443  31.695  29.521  1.00  0.00     0.031 C 
ATOM     76  C   UNL A   1      43.153  32.742  30.129  1.00  0.00     0.037 A 
BRANCH  63  77
ATOM     77  C   UNL A   1      37.089  32.494  30.847  1.00  0.00     0.057 A 
ATOM     78  C   UNL A   1      36.498  32.136  32.076  1.00  0.00     0.134 A 
ATOM     79  C   UNL A   1      36.364  33.448  30.115  1.00  0.00     0.134 A 
ATOM     80  F   UNL A   1      37.087  31.278  32.919  1.00  0.00    -0.206 F 
ATOM     81  C   UNL A   1      35.261  32.636  32.505  1.00  0.00     0.040 A 
ATOM     82  C   UNL A   1      35.105  33.924  30.511  1.00  0.00     0.040 A 
ATOM     83  F   UNL A   1      36.852  34.016  29.008  1.00  0.00    -0.206 F 
ATOM     84  C   UNL A   1      34.546  33.516  31.711  1.00  0.00     0.006 A 
ENDBRANCH  63  77
BRANCH  64  85
ATOM     85  C   UNL A   1      45.004  27.244  28.438  1.00  0.00     0.057 A 
ATOM     86  C   UNL A   1      45.674  26.045  28.757  1.00  0.00     0.134 A 
ATOM     87  C   UNL A   1      44.308  27.274  27.226  1.00  0.00     0.134 A 
ATOM     88  F   UNL A   1      46.380  25.953  29.897  1.00  0.00    -0.206 F 
ATOM     89  C   UNL A   1      45.507  24.879  28.005  1.00  0.00     0.040 A 
ATOM     90  C   UNL A   1      44.160  26.116  26.449  1.00  0.00     0.040 A 
ATOM     91  F   UNL A   1      43.634  28.371  26.852  1.00  0.00    -0.206 F 
ATOM     92  C   UNL A   1      44.705  24.903  26.869  1.00  0.00     0.006 A 
ENDBRANCH  64  85
BRANCH  76  93
ATOM     93  C   UNL A   1      43.353  34.218  29.856  1.00  0.00     0.057 A 
ATOM     94  C   UNL A   1      43.486  35.194  30.852  1.00  0.00     0.134 A 
ATOM     95  C   UNL A   1      43.617  34.672  28.540  1.00  0.00     0.134 A 
ATOM     96  F   UNL A   1      43.361  34.897  32.152  1.00  0.00    -0.206 F 
ATOM     97  C   UNL A   1      43.823  36.523  30.561  1.00  0.00     0.040 A 
ATOM     98  C   UNL A   1      44.021  35.976  28.246  1.00  0.00     0.040 A 
ATOM     99  F   UNL A   1      43.530  33.859  27.476  1.00  0.00    -0.206 F 
ATOM    100  C   UNL A   1      44.114  36.914  29.260  1.00  0.00     0.006 A 
ENDBRANCH  76  93
ENDBRANCH  50  51
ENDBRANCH  42  45
ENDBRANCH  40  41
ENDBRANCH  39  40
ENDBRANCH  38  39
ENDBRANCH   3  38
TORSDOF 17
ENDMDL
MODEL 2
REMARK VINA RESULT:     -13.6      2.189      3.496
REMARK SMILES Cc1ccc(S(=O)(=O)n2cc(C(=O)C(=O)N[C@@H](Cc3cnc[nH]3)C(=O)NCCCNC(=O)c3ccc(-c4c5nc(c(-c6c(F)cccc6F)c6ccc([nH]6)c(-c6c(F)cccc6F)c6nc(c(-c7c(F)cccc7F)c7ccc4[nH]7)C=C6)C=C5)cc3)c3ccccc32)cc1
REMARK SMILES IDX 24 1 25 2 26 3 17 5 16 6 14 7 15 8 12 10 13 11 11 12 9 13
REMARK SMILES IDX 10 14 92 15 87 16 91 17 88 18 90 19 89 20 6 21 7 22 8 23
REMARK SMILES IDX 5 24 1 25 2 26 3 27 94 28 4 29 93 30 18 31 19 32 20 33 23 34
REMARK SMILES IDX 21 35 22 36 27 38 28 39 29 40 30 41 31 42 32 44 33 45 34 46
REMARK SMILES IDX 86 47 35 48 85 49 36 50 37 51 38 52 79 53 39 54 84 55 78 56
REMARK SMILES IDX 80 57 40 58 83 59 77 60 76 61 41 63 67 64 50 65 66 66 51 67
REMARK SMILES IDX 54 68 65 69 81 70 52 71 53 72 64 74 82 75 55 76 42 77 43 78
REMARK SMILES IDX 48 79 44 80 45 81 47 82 49 83 46 84 68 85 69 86 74 87 70 88
REMARK SMILES IDX 71 89 73 90 75 91 72 92 56 93 57 94 62 95 58 96 59 97 61 98
REMARK SMILES IDX 63 99 60 100
REMARK H PARENT 26 4 16 9 23 37 30 43 80 62 54 73
REMARK Flexibility Score: inf
ROOT
ATOM      1  C   UNL A   1      36.181  20.467  25.183  1.00  0.00     0.242 C 
ATOM      2  O   UNL A   1      35.955  19.318  24.792  1.00  0.00    -0.273 OA
ATOM      3  N   UNL A   1      37.496  20.812  25.359  1.00  0.00    -0.354 N 
ATOM      4  H   UNL A   1      38.113  20.084  25.601  1.00  0.00     0.163 HD
ENDROOT
BRANCH   1   5
ATOM      5  C   UNL A   1      35.019  21.486  25.368  1.00  0.00     0.177 C 
BRANCH   5   6
ATOM      6  N   UNL A   1      34.703  22.172  24.103  1.00  0.00    -0.337 N 
ATOM      7  C   UNL A   1      34.781  23.513  23.765  1.00  0.00     0.293 C 
ATOM      8  O   UNL A   1      34.714  23.808  22.574  1.00  0.00    -0.265 OA
ATOM      9  H   UNL A   1      34.385  21.582  23.381  1.00  0.00     0.164 HD
BRANCH   7  10
ATOM     10  C   UNL A   1      34.919  24.628  24.839  1.00  0.00     0.252 C 
ATOM     11  O   UNL A   1      35.977  24.715  25.452  1.00  0.00    -0.283 OA
BRANCH  10  12
ATOM     12  C   UNL A   1      33.825  25.564  25.155  1.00  0.00     0.054 A 
ATOM     13  N   UNL A   1      32.612  27.408  25.524  1.00  0.00    -0.240 N 
ATOM     14  C   UNL A   1      33.861  26.949  25.180  1.00  0.00     0.117 A 
ATOM     15  C   UNL A   1      31.731  26.367  25.714  1.00  0.00     0.065 A 
ATOM     16  C   UNL A   1      32.476  25.196  25.522  1.00  0.00     0.012 A 
ATOM     17  C   UNL A   1      30.366  26.331  26.060  1.00  0.00     0.028 A 
ATOM     18  C   UNL A   1      31.825  23.954  25.702  1.00  0.00     0.011 A 
ATOM     19  C   UNL A   1      29.759  25.086  26.242  1.00  0.00     0.002 A 
ATOM     20  C   UNL A   1      30.477  23.911  26.068  1.00  0.00     0.001 A 
BRANCH  13  21
ATOM     21  S   UNL A   1      32.243  29.060  25.725  1.00  0.00     0.268 S 
ATOM     22  O   UNL A   1      33.496  29.757  25.432  1.00  0.00    -0.201 OA
ATOM     23  O   UNL A   1      31.586  29.174  26.998  1.00  0.00    -0.201 OA
BRANCH  21  24
ATOM     24  C   UNL A   1      31.074  29.528  24.474  1.00  0.00     0.088 A 
ATOM     25  C   UNL A   1      28.177  30.318  21.391  1.00  0.00     0.044 C 
ATOM     26  C   UNL A   1      29.198  30.060  22.460  1.00  0.00    -0.051 A 
ATOM     27  C   UNL A   1      30.102  29.001  22.319  1.00  0.00     0.005 A 
ATOM     28  C   UNL A   1      29.263  30.868  23.603  1.00  0.00     0.005 A 
ATOM     29  C   UNL A   1      31.033  28.731  23.323  1.00  0.00     0.022 A 
ATOM     30  C   UNL A   1      30.207  30.613  24.605  1.00  0.00     0.022 A 
ENDBRANCH  21  24
ENDBRANCH  13  21
ENDBRANCH  10  12
ENDBRANCH   7  10
ENDBRANCH   5   6
BRANCH   5  31
ATOM     31  C   UNL A   1      33.789  20.985  26.167  1.00  0.00     0.090 C 
BRANCH  31  32
ATOM     32  C   UNL A   1      33.084  19.762  25.676  1.00  0.00     0.037 A 
ATOM     33  C   UNL A   1      32.414  19.477  24.502  1.00  0.00     0.134 A 
ATOM     34  N   UNL A   1      33.024  18.588  26.397  1.00  0.00    -0.348 N 
ATOM     35  N   UNL A   1      32.103  18.143  24.434  1.00  0.00    -0.245 NA
ATOM     36  C   UNL A   1      32.470  17.635  25.588  1.00  0.00     0.196 A 
ATOM     37  H   UNL A   1      33.326  18.458  27.325  1.00  0.00     0.167 HD
ENDBRANCH  31  32
ENDBRANCH   5  31
ENDBRANCH   1   5
BRANCH   3  38
ATOM     38  C   UNL A   1      38.070  22.129  25.231  1.00  0.00     0.117 C 
BRANCH  38  39
ATOM     39  C   UNL A   1      38.849  22.647  26.413  1.00  0.00     0.042 C 
BRANCH  39  40
ATOM     40  C   UNL A   1      40.313  22.805  26.085  1.00  0.00     0.118 C 
BRANCH  40  41
ATOM     41  N   UNL A   1      41.013  21.586  25.672  1.00  0.00    -0.352 N 
ATOM     42  C   UNL A   1      42.302  21.157  25.967  1.00  0.00     0.251 C 
ATOM     43  H   UNL A   1      40.490  20.978  25.101  1.00  0.00     0.163 HD
ATOM     44  O   UNL A   1      42.701  20.086  25.514  1.00  0.00    -0.269 OA
BRANCH  42  45
ATOM     45  C   UNL A   1      43.134  21.883  26.969  1.00  0.00     0.039 A 
ATOM     46  C   UNL A   1      42.724  21.836  28.308  1.00  0.00     0.014 A 
ATOM     47  C   UNL A   1      43.967  22.901  26.553  1.00  0.00     0.014 A 
ATOM     48  C   UNL A   1      42.826  22.987  29.081  1.00  0.00     0.010 A 
ATOM     49  C   UNL A   1      43.824  24.102  27.186  1.00  0.00     0.010 A 
ATOM     50  C   UNL A   1      43.217  24.152  28.441  1.00  0.00    -0.014 A 
BRANCH  50  51
ATOM     51  C   UNL A   1      43.107  25.495  28.969  1.00  0.00     0.031 A 
ATOM     52  C   UNL A   1      41.919  26.274  28.570  1.00  0.00     0.074 A 
ATOM     53  C   UNL A   1      43.918  25.858  29.987  1.00  0.00     0.049 A 
ATOM     54  N   UNL A   1      41.732  27.508  28.857  1.00  0.00    -0.248 NA
ATOM     55  C   UNL A   1      40.820  25.700  27.794  1.00  0.00     0.031 C 
ATOM     56  C   UNL A   1      43.735  26.952  30.936  1.00  0.00     0.029 A 
ATOM     57  N   UNL A   1      45.216  25.396  30.248  1.00  0.00    -0.354 N 
ATOM     58  C   UNL A   1      40.430  27.829  28.542  1.00  0.00     0.074 A 
ATOM     59  C   UNL A   1      39.907  26.671  27.866  1.00  0.00     0.031 C 
ATOM     60  C   UNL A   1      44.931  27.289  31.448  1.00  0.00     0.029 A 
ATOM     61  C   UNL A   1      45.930  26.522  30.723  1.00  0.00     0.049 A 
ATOM     62  H   UNL A   1      45.560  24.481  30.126  1.00  0.00     0.167 HD
ATOM     63  C   UNL A   1      39.940  29.015  28.996  1.00  0.00     0.037 A 
ATOM     64  C   UNL A   1      46.932  27.070  29.972  1.00  0.00     0.037 A 
ATOM     65  C   UNL A   1      41.016  29.783  29.617  1.00  0.00     0.049 A 
ATOM     66  C   UNL A   1      46.626  28.484  29.527  1.00  0.00     0.074 A 
ATOM     67  C   UNL A   1      41.452  29.900  30.927  1.00  0.00     0.029 A 
ATOM     68  N   UNL A   1      42.052  30.239  28.813  1.00  0.00    -0.354 N 
ATOM     69  N   UNL A   1      45.419  28.978  29.449  1.00  0.00    -0.248 NA
ATOM     70  C   UNL A   1      47.648  29.467  29.178  1.00  0.00     0.031 C 
ATOM     71  C   UNL A   1      42.795  30.360  30.898  1.00  0.00     0.029 A 
ATOM     72  C   UNL A   1      43.158  30.550  29.575  1.00  0.00     0.049 A 
ATOM     73  H   UNL A   1      42.002  30.329  27.833  1.00  0.00     0.167 HD
ATOM     74  C   UNL A   1      45.480  30.297  29.077  1.00  0.00     0.074 A 
ATOM     75  C   UNL A   1      46.898  30.555  28.917  1.00  0.00     0.031 C 
ATOM     76  C   UNL A   1      44.360  31.069  28.939  1.00  0.00     0.037 A 
BRANCH  63  77
ATOM     77  C   UNL A   1      38.483  29.399  29.076  1.00  0.00     0.057 A 
ATOM     78  C   UNL A   1      37.797  29.797  27.910  1.00  0.00     0.134 A 
ATOM     79  C   UNL A   1      37.705  29.439  30.245  1.00  0.00     0.134 A 
ATOM     80  F   UNL A   1      38.379  29.767  26.704  1.00  0.00    -0.206 F 
ATOM     81  C   UNL A   1      36.474  30.257  27.920  1.00  0.00     0.040 A 
ATOM     82  C   UNL A   1      36.394  29.938  30.276  1.00  0.00     0.040 A 
ATOM     83  F   UNL A   1      38.143  28.949  31.408  1.00  0.00    -0.206 F 
ATOM     84  C   UNL A   1      35.773  30.353  29.110  1.00  0.00     0.006 A 
ENDBRANCH  63  77
BRANCH  64  85
ATOM     85  C   UNL A   1      47.683  26.030  29.210  1.00  0.00     0.057 A 
ATOM     86  C   UNL A   1      47.415  25.927  27.830  1.00  0.00     0.134 A 
ATOM     87  C   UNL A   1      48.918  25.544  29.650  1.00  0.00     0.134 A 
ATOM     88  F   UNL A   1      46.240  26.356  27.340  1.00  0.00    -0.206 F 
ATOM     89  C   UNL A   1      48.394  25.535  26.911  1.00  0.00     0.040 A 
ATOM     90  C   UNL A   1      49.895  25.120  28.738  1.00  0.00     0.040 A 
ATOM     91  F   UNL A   1      49.257  25.613  30.946  1.00  0.00    -0.206 F 
ATOM     92  C   UNL A   1      49.657  25.175  27.365  1.00  0.00     0.006 A 
ENDBRANCH  64  85
BRANCH  76  93
ATOM     93  C   UNL A   1      44.264  32.414  28.249  1.00  0.00     0.057 A 
ATOM     94  C   UNL A   1      44.480  32.615  26.880  1.00  0.00     0.134 A 
ATOM     95  C   UNL A   1      43.744  33.537  28.940  1.00  0.00     0.134 A 
ATOM     96  F   UNL A   1      44.878  31.622  26.075  1.00  0.00    -0.206 F 
ATOM     97  C   UNL A   1      44.231  33.844  26.253  1.00  0.00     0.040 A 
ATOM     98  C   UNL A   1      43.428  34.744  28.312  1.00  0.00     0.040 A 
ATOM     99  F   UNL A   1      43.485  33.505  30.256  1.00  0.00    -0.206 F 
ATOM    100  C   UNL A   1      43.683  34.906  26.962  1.00  0.00     0.006 A 
ENDBRANCH  76  93
ENDBRANCH  50  51
ENDBRANCH  42  45
ENDBRANCH  40  41
ENDBRANCH  39  40
ENDBRANCH  38  39
ENDBRANCH   3  38
TORSDOF 17
ENDMDL
MODEL 3
REMARK VINA RESULT:     -13.5      3.004      9.159
REMARK SMILES Cc1ccc(S(=O)(=O)n2cc(C(=O)C(=O)N[C@@H](Cc3cnc[nH]3)C(=O)NCCCNC(=O)c3ccc(-c4c5nc(c(-c6c(F)cccc6F)c6ccc([nH]6)c(-c6c(F)cccc6F)c6nc(c(-c7c(F)cccc7F)c7ccc4[nH]7)C=C6)C=C5)cc3)c3ccccc32)cc1
REMARK SMILES IDX 24 1 25 2 26 3 17 5 16 6 14 7 15 8 12 10 13 11 11 12 9 13
REMARK SMILES IDX 10 14 92 15 87 16 91 17 88 18 90 19 89 20 6 21 7 22 8 23
REMARK SMILES IDX 5 24 1 25 2 26 3 27 94 28 4 29 93 30 18 31 19 32 20 33 23 34
REMARK SMILES IDX 21 35 22 36 27 38 28 39 29 40 30 41 31 42 32 44 33 45 34 46
REMARK SMILES IDX 86 47 35 48 85 49 36 50 37 51 38 52 79 53 39 54 84 55 78 56
REMARK SMILES IDX 80 57 40 58 83 59 77 60 76 61 41 63 67 64 50 65 66 66 51 67
REMARK SMILES IDX 54 68 65 69 81 70 52 71 53 72 64 74 82 75 55 76 42 77 43 78
REMARK SMILES IDX 48 79 44 80 45 81 47 82 49 83 46 84 68 85 69 86 74 87 70 88
REMARK SMILES IDX 71 89 73 90 75 91 72 92 56 93 57 94 62 95 58 96 59 97 61 98
REMARK SMILES IDX 63 99 60 100
REMARK H PARENT 26 4 16 9 23 37 30 43 80 62 54 73
REMARK Flexibility Score: inf
ROOT
ATOM      1  C   UNL A   1      32.232  28.926  23.816  1.00  0.00     0.242 C 
ATOM      2  O   UNL A   1      32.932  28.930  22.798  1.00  0.00    -0.273 OA
ATOM      3  N   UNL A   1      32.418  29.959  24.697  1.00  0.00    -0.354 N 
ATOM      4  H   UNL A   1      33.318  30.357  24.725  1.00  0.00     0.163 HD
ENDROOT
BRANCH   1   5
ATOM      5  C   UNL A   1      31.134  27.842  24.020  1.00  0.00     0.177 C 
BRANCH   5   6
ATOM      6  N   UNL A   1      30.853  27.628  25.450  1.00  0.00    -0.337 N 
ATOM      7  C   UNL A   1      31.708  27.324  26.497  1.00  0.00     0.293 C 
ATOM      8  O   UNL A   1      31.280  27.452  27.641  1.00  0.00    -0.265 OA
ATOM      9  H   UNL A   1      29.906  27.716  25.703  1.00  0.00     0.164 HD
BRANCH   7  10
ATOM     10  C   UNL A   1      33.154  26.809  26.258  1.00  0.00     0.252 C 
ATOM     11  O   UNL A   1      34.085  27.589  26.435  1.00  0.00    -0.283 OA
BRANCH  10  12
ATOM     12  C   UNL A   1      33.443  25.433  25.814  1.00  0.00     0.054 A 
ATOM     13  N   UNL A   1      34.424  23.607  24.973  1.00  0.00    -0.240 N 
ATOM     14  C   UNL A   1      34.594  24.949  25.214  1.00  0.00     0.117 A 
ATOM     15  C   UNL A   1      33.194  23.171  25.412  1.00  0.00     0.065 A 
ATOM     16  C   UNL A   1      32.543  24.306  25.913  1.00  0.00     0.012 A 
ATOM     17  C   UNL A   1      32.575  21.906  25.397  1.00  0.00     0.028 A 
ATOM     18  C   UNL A   1      31.224  24.160  26.398  1.00  0.00     0.011 A 
ATOM     19  C   UNL A   1      31.266  21.801  25.871  1.00  0.00     0.002 A 
ATOM     20  C   UNL A   1      30.595  22.912  26.364  1.00  0.00     0.001 A 
BRANCH  13  21
ATOM     21  S   UNL A   1      35.589  22.640  24.189  1.00  0.00     0.268 S 
ATOM     22  O   UNL A   1      35.891  23.357  22.950  1.00  0.00    -0.201 OA
ATOM     23  O   UNL A   1      35.067  21.301  24.189  1.00  0.00    -0.201 OA
BRANCH  21  24
ATOM     24  C   UNL A   1      37.068  22.639  25.171  1.00  0.00     0.088 A 
ATOM     25  C   UNL A   1      40.805  22.441  27.297  1.00  0.00     0.044 C 
ATOM     26  C   UNL A   1      39.491  22.510  26.574  1.00  0.00    -0.051 A 
ATOM     27  C   UNL A   1      39.006  21.382  25.903  1.00  0.00     0.005 A 
ATOM     28  C   UNL A   1      38.737  23.691  26.564  1.00  0.00     0.005 A 
ATOM     29  C   UNL A   1      37.802  21.446  25.198  1.00  0.00     0.022 A 
ATOM     30  C   UNL A   1      37.521  23.755  25.874  1.00  0.00     0.022 A 
ENDBRANCH  21  24
ENDBRANCH  13  21
ENDBRANCH  10  12
ENDBRANCH   7  10
ENDBRANCH   5   6
BRANCH   5  31
ATOM     31  C   UNL A   1      29.880  27.959  23.116  1.00  0.00     0.090 C 
BRANCH  31  32
ATOM     32  C   UNL A   1      29.414  29.326  22.734  1.00  0.00     0.037 A 
ATOM     33  C   UNL A   1      29.680  30.135  21.645  1.00  0.00     0.134 A 
ATOM     34  N   UNL A   1      28.515  30.052  23.487  1.00  0.00    -0.348 N 
ATOM     35  N   UNL A   1      28.856  31.232  21.645  1.00  0.00    -0.245 NA
ATOM     36  C   UNL A   1      28.175  31.162  22.766  1.00  0.00     0.196 A 
ATOM     37  H   UNL A   1      28.177  29.813  24.380  1.00  0.00     0.167 HD
ENDBRANCH  31  32
ENDBRANCH   5  31
ENDBRANCH   1   5
BRANCH   3  38
ATOM     38  C   UNL A   1      31.435  30.522  25.589  1.00  0.00     0.117 C 
BRANCH  38  39
ATOM     39  C   UNL A   1      31.937  31.038  26.913  1.00  0.00     0.042 C 
BRANCH  39  40
ATOM     40  C   UNL A   1      33.378  30.657  27.146  1.00  0.00     0.118 C 
BRANCH  40  41
ATOM     41  N   UNL A   1      34.262  31.735  27.597  1.00  0.00    -0.352 N 
ATOM     42  C   UNL A   1      35.532  31.668  28.157  1.00  0.00     0.251 C 
ATOM     43  H   UNL A   1      33.901  32.644  27.485  1.00  0.00     0.163 HD
ATOM     44  O   UNL A   1      36.111  32.706  28.470  1.00  0.00    -0.269 OA
BRANCH  42  45
ATOM     45  C   UNL A   1      36.272  30.374  28.210  1.00  0.00     0.039 A 
ATOM     46  C   UNL A   1      36.219  29.645  29.406  1.00  0.00     0.014 A 
ATOM     47  C   UNL A   1      37.304  30.143  27.324  1.00  0.00     0.014 A 
ATOM     48  C   UNL A   1      37.371  29.013  29.858  1.00  0.00     0.010 A 
ATOM     49  C   UNL A   1      38.503  29.778  27.867  1.00  0.00     0.010 A 
ATOM     50  C   UNL A   1      38.542  29.244  29.155  1.00  0.00    -0.014 A 
BRANCH  50  51
ATOM     51  C   UNL A   1      39.884  28.938  29.605  1.00  0.00     0.031 A 
ATOM     52  C   UNL A   1      40.512  27.723  29.051  1.00  0.00     0.074 A 
ATOM     53  C   UNL A   1      40.579  29.891  30.265  1.00  0.00     0.049 A 
ATOM     54  N   UNL A   1      41.642  27.255  29.430  1.00  0.00    -0.248 NA
ATOM     55  C   UNL A   1      39.893  26.923  27.995  1.00  0.00     0.031 C 
ATOM     56  C   UNL A   1      42.024  29.988  30.445  1.00  0.00     0.029 A 
ATOM     57  N   UNL A   1      40.064  30.900  31.093  1.00  0.00    -0.354 N 
ATOM     58  C   UNL A   1      42.020  26.273  28.541  1.00  0.00     0.074 A 
ATOM     59  C   UNL A   1      40.886  26.091  27.673  1.00  0.00     0.031 C 
ATOM     60  C   UNL A   1      42.278  30.749  31.523  1.00  0.00     0.029 A 
ATOM     61  C   UNL A   1      40.998  31.033  32.149  1.00  0.00     0.049 A 
ATOM     62  H   UNL A   1      39.231  31.408  30.967  1.00  0.00     0.167 HD
ATOM     63  C   UNL A   1      43.300  25.814  28.606  1.00  0.00     0.037 A 
ATOM     64  C   UNL A   1      40.658  30.660  33.420  1.00  0.00     0.037 A 
ATOM     65  C   UNL A   1      43.969  26.395  29.767  1.00  0.00     0.049 A 
ATOM     66  C   UNL A   1      41.488  29.503  33.933  1.00  0.00     0.074 A 
ATOM     67  C   UNL A   1      44.767  27.515  29.929  1.00  0.00     0.029 A 
ATOM     68  N   UNL A   1      43.520  26.042  31.033  1.00  0.00    -0.354 N 
ATOM     69  N   UNL A   1      42.116  28.658  33.160  1.00  0.00    -0.248 NA
ATOM     70  C   UNL A   1      41.713  29.229  35.350  1.00  0.00     0.031 C 
ATOM     71  C   UNL A   1      44.730  27.880  31.302  1.00  0.00     0.029 A 
ATOM     72  C   UNL A   1      43.936  26.964  31.971  1.00  0.00     0.049 A 
ATOM     73  H   UNL A   1      42.979  25.244  31.233  1.00  0.00     0.167 HD
ATOM     74  C   UNL A   1      42.826  27.767  33.926  1.00  0.00     0.074 A 
ATOM     75  C   UNL A   1      42.539  28.167  35.291  1.00  0.00     0.031 C 
ATOM     76  C   UNL A   1      43.596  26.782  33.374  1.00  0.00     0.037 A 
BRANCH  63  77
ATOM     77  C   UNL A   1      44.014  25.028  27.535  1.00  0.00     0.057 A 
ATOM     78  C   UNL A   1      44.399  25.662  26.336  1.00  0.00     0.134 A 
ATOM     79  C   UNL A   1      44.322  23.658  27.587  1.00  0.00     0.134 A 
ATOM     80  F   UNL A   1      44.224  26.976  26.146  1.00  0.00    -0.206 F 
ATOM     81  C   UNL A   1      44.979  24.978  25.260  1.00  0.00     0.040 A 
ATOM     82  C   UNL A   1      44.863  22.952  26.502  1.00  0.00     0.040 A 
ATOM     83  F   UNL A   1      44.173  22.938  28.703  1.00  0.00    -0.206 F 
ATOM     84  C   UNL A   1      45.192  23.612  25.329  1.00  0.00     0.006 A 
ENDBRANCH  63  77
BRANCH  64  85
ATOM     85  C   UNL A   1      39.221  30.936  33.710  1.00  0.00     0.057 A 
ATOM     86  C   UNL A   1      38.859  32.278  33.946  1.00  0.00     0.134 A 
ATOM     87  C   UNL A   1      38.206  30.075  33.280  1.00  0.00     0.134 A 
ATOM     88  F   UNL A   1      39.780  33.155  34.379  1.00  0.00    -0.206 F 
ATOM     89  C   UNL A   1      37.603  32.780  33.594  1.00  0.00     0.040 A 
ATOM     90  C   UNL A   1      36.933  30.565  32.955  1.00  0.00     0.040 A 
ATOM     91  F   UNL A   1      38.467  28.786  33.023  1.00  0.00    -0.206 F 
ATOM     92  C   UNL A   1      36.650  31.927  33.050  1.00  0.00     0.006 A 
ENDBRANCH  64  85
BRANCH  76  93
ATOM     93  C   UNL A   1      44.165  25.570  34.083  1.00  0.00     0.057 A 
ATOM     94  C   UNL A   1      43.389  24.580  34.698  1.00  0.00     0.134 A 
ATOM     95  C   UNL A   1      45.546  25.269  33.987  1.00  0.00     0.134 A 
ATOM     96  F   UNL A   1      42.056  24.676  34.778  1.00  0.00    -0.206 F 
ATOM     97  C   UNL A   1      43.946  23.398  35.208  1.00  0.00     0.040 A 
ATOM     98  C   UNL A   1      46.100  24.065  34.429  1.00  0.00     0.040 A 
ATOM     99  F   UNL A   1      46.422  26.117  33.426  1.00  0.00    -0.206 F 
ATOM    100  C   UNL A   1      45.300  23.126  35.055  1.00  0.00     0.006 A 
ENDBRANCH  76  93
ENDBRANCH  50  51
ENDBRANCH  42  45
ENDBRANCH  40  41
ENDBRANCH  39  40
ENDBRANCH  38  39
ENDBRANCH   3  38
TORSDOF 17
ENDMDL
