MODEL 1
REMARK VINA RESULT:     -11.5      0.000      0.000
REMARK SMILES Cc1ccc(F)c(C(=O)N[C@@H]2C=C[C@@H](C(=O)NCCCNC(=O)c3ccc(-c4c5nc(c(-c6c(F)cccc6F)c6ccc([nH]6)c(-c6c(F)cccc6F)c6nc(c(-c7c(F)cccc7F)c7ccc4[nH]7)C=C6)C=C5)cc3)C2)c1
REMARK SMILES IDX 19 1 18 2 17 3 15 4 16 5 14 7 11 8 12 9 78 10 13 11 10 12
REMARK SMILES IDX 8 13 9 14 7 16 1 17 2 18 3 19 79 20 4 21 5 22 6 23 20 24
REMARK SMILES IDX 21 25 22 26 23 28 24 29 25 30 77 31 26 32 76 33 27 34 28 35
REMARK SMILES IDX 29 36 70 37 30 38 75 39 69 40 71 41 31 42 74 43 68 44 67 45
REMARK SMILES IDX 32 47 58 48 41 49 57 50 42 51 45 52 56 53 72 54 43 55 44 56
REMARK SMILES IDX 55 58 73 59 46 60 33 61 34 62 39 63 35 64 36 65 38 66 40 67
REMARK SMILES IDX 37 68 59 69 60 70 65 71 61 72 62 73 64 74 66 75 63 76 47 77
REMARK SMILES IDX 48 78 53 79 49 80 50 81 52 82 54 83 51 84
REMARK H PARENT 17 6 10 15 21 27 71 46 45 57
REMARK Flexibility Score: inf
ROOT
ATOM      1  C   UNL A   1      34.612  33.678  28.085  1.00  0.00     0.042 C 
ENDROOT
BRANCH   1   2
ATOM      2  C   UNL A   1      33.191  34.214  28.236  1.00  0.00     0.117 C 
BRANCH   2   3
ATOM      3  N   UNL A   1      33.142  35.641  28.491  1.00  0.00    -0.356 N 
ATOM      4  C   UNL A   1      33.130  36.370  29.637  1.00  0.00     0.227 C 
ATOM      5  O   UNL A   1      33.255  37.593  29.502  1.00  0.00    -0.274 OA
ATOM      6  H   UNL A   1      33.110  36.188  27.673  1.00  0.00     0.163 HD
BRANCH   4   7
ATOM      7  C   UNL A   1      32.873  35.786  31.034  1.00  0.00     0.103 C 
ATOM      8  C   UNL A   1      34.541  35.828  32.845  1.00  0.00     0.106 C 
ATOM      9  C   UNL A   1      33.355  36.690  33.148  1.00  0.00    -0.006 C 
ATOM     10  C   UNL A   1      34.099  35.062  31.592  1.00  0.00     0.047 C 
ATOM     11  C   UNL A   1      32.475  36.710  32.138  1.00  0.00    -0.016 C 
BRANCH   8  12
ATOM     12  N   UNL A   1      34.870  35.022  34.001  1.00  0.00    -0.346 N 
ATOM     13  C   UNL A   1      35.913  34.154  34.238  1.00  0.00     0.254 C 
ATOM     14  O   UNL A   1      36.086  33.740  35.381  1.00  0.00    -0.269 OA
ATOM     15  H   UNL A   1      34.237  35.111  34.751  1.00  0.00     0.164 HD
BRANCH  13  16
ATOM     16  C   UNL A   1      36.780  33.668  33.138  1.00  0.00     0.075 A 
ATOM     17  C   UNL A   1      39.148  35.034  30.501  1.00  0.00     0.044 C 
ATOM     18  C   UNL A   1      38.326  34.071  31.305  1.00  0.00    -0.050 A 
ATOM     19  C   UNL A   1      38.123  32.761  30.854  1.00  0.00     0.006 A 
ATOM     20  C   UNL A   1      37.722  34.482  32.503  1.00  0.00     0.020 A 
ATOM     21  C   UNL A   1      37.280  31.901  31.556  1.00  0.00     0.040 A 
ATOM     22  C   UNL A   1      36.594  32.363  32.677  1.00  0.00     0.135 A 
ATOM     23  F   UNL A   1      35.719  31.534  33.264  1.00  0.00    -0.206 F 
ENDBRANCH  13  16
ENDBRANCH   8  12
ENDBRANCH   4   7
ENDBRANCH   2   3
ENDBRANCH   1   2
BRANCH   1  24
ATOM     24  C   UNL A   1      34.938  32.460  28.948  1.00  0.00     0.118 C 
BRANCH  24  25
ATOM     25  N   UNL A   1      34.262  31.254  28.494  1.00  0.00    -0.352 N 
ATOM     26  C   UNL A   1      34.769  30.038  28.108  1.00  0.00     0.251 C 
ATOM     27  H   UNL A   1      33.280  31.322  28.458  1.00  0.00     0.163 HD
ATOM     28  O   UNL A   1      34.028  29.219  27.571  1.00  0.00    -0.269 OA
BRANCH  26  29
ATOM     29  C   UNL A   1      36.194  29.702  28.320  1.00  0.00     0.039 A 
ATOM     30  C   UNL A   1      36.578  29.145  29.545  1.00  0.00     0.014 A 
ATOM     31  C   UNL A   1      37.161  29.985  27.353  1.00  0.00     0.014 A 
ATOM     32  C   UNL A   1      37.919  28.823  29.778  1.00  0.00     0.010 A 
ATOM     33  C   UNL A   1      38.486  29.603  27.558  1.00  0.00     0.010 A 
ATOM     34  C   UNL A   1      38.879  29.023  28.775  1.00  0.00    -0.014 A 
BRANCH  34  35
ATOM     35  C   UNL A   1      40.302  28.644  28.981  1.00  0.00     0.031 A 
ATOM     36  C   UNL A   1      41.268  29.623  29.587  1.00  0.00     0.074 A 
ATOM     37  C   UNL A   1      40.740  27.443  28.559  1.00  0.00     0.049 A 
ATOM     38  N   UNL A   1      42.559  29.506  29.772  1.00  0.00    -0.248 NA
ATOM     39  C   UNL A   1      40.714  30.915  30.016  1.00  0.00     0.031 C 
ATOM     40  C   UNL A   1      39.913  26.415  27.926  1.00  0.00     0.029 A 
ATOM     41  N   UNL A   1      41.995  26.888  28.592  1.00  0.00    -0.354 N 
ATOM     42  C   UNL A   1      42.974  30.715  30.318  1.00  0.00     0.074 A 
ATOM     43  C   UNL A   1      41.806  31.567  30.389  1.00  0.00     0.031 C 
ATOM     44  C   UNL A   1      40.676  25.344  27.654  1.00  0.00     0.029 A 
ATOM     45  C   UNL A   1      42.052  25.625  28.055  1.00  0.00     0.049 A 
ATOM     46  H   UNL A   1      42.780  27.352  28.963  1.00  0.00     0.167 HD
ATOM     47  C   UNL A   1      44.210  31.076  30.740  1.00  0.00     0.037 A 
ATOM     48  C   UNL A   1      43.095  24.789  27.899  1.00  0.00     0.037 A 
ATOM     49  C   UNL A   1      45.366  30.219  30.692  1.00  0.00     0.049 A 
ATOM     50  C   UNL A   1      44.460  25.216  28.360  1.00  0.00     0.074 A 
ATOM     51  C   UNL A   1      46.645  30.468  31.157  1.00  0.00     0.029 A 
ATOM     52  N   UNL A   1      45.382  28.946  30.142  1.00  0.00    -0.354 N 
ATOM     53  N   UNL A   1      44.826  26.337  28.930  1.00  0.00    -0.248 NA
ATOM     54  C   UNL A   1      45.556  24.258  28.155  1.00  0.00     0.031 C 
ATOM     55  C   UNL A   1      47.447  29.364  30.846  1.00  0.00     0.029 A 
ATOM     56  C   UNL A   1      46.655  28.407  30.232  1.00  0.00     0.049 A 
ATOM     57  H   UNL A   1      44.604  28.492  29.746  1.00  0.00     0.167 HD
ATOM     58  C   UNL A   1      46.186  26.211  29.180  1.00  0.00     0.074 A 
ATOM     59  C   UNL A   1      46.579  24.900  28.703  1.00  0.00     0.031 C 
ATOM     60  C   UNL A   1      47.033  27.099  29.757  1.00  0.00     0.037 A 
BRANCH  47  61
ATOM     61  C   UNL A   1      44.371  32.469  31.279  1.00  0.00     0.057 A 
ATOM     62  C   UNL A   1      44.181  32.765  32.637  1.00  0.00     0.134 A 
ATOM     63  C   UNL A   1      44.724  33.527  30.432  1.00  0.00     0.134 A 
ATOM     64  F   UNL A   1      43.830  31.801  33.501  1.00  0.00    -0.206 F 
ATOM     65  C   UNL A   1      44.297  34.069  33.122  1.00  0.00     0.040 A 
ATOM     66  C   UNL A   1      44.871  34.829  30.912  1.00  0.00     0.040 A 
ATOM     67  F   UNL A   1      44.929  33.313  29.124  1.00  0.00    -0.206 F 
ATOM     68  C   UNL A   1      44.646  35.105  32.259  1.00  0.00     0.006 A 
ENDBRANCH  47  61
BRANCH  48  69
ATOM     69  C   UNL A   1      42.877  23.443  27.313  1.00  0.00     0.057 A 
ATOM     70  C   UNL A   1      42.452  22.376  28.112  1.00  0.00     0.134 A 
ATOM     71  C   UNL A   1      43.068  23.194  25.949  1.00  0.00     0.134 A 
ATOM     72  F   UNL A   1      42.269  22.550  29.430  1.00  0.00    -0.206 F 
ATOM     73  C   UNL A   1      42.231  21.106  27.579  1.00  0.00     0.040 A 
ATOM     74  C   UNL A   1      42.831  21.935  25.398  1.00  0.00     0.040 A 
ATOM     75  F   UNL A   1      43.468  24.178  25.131  1.00  0.00    -0.206 F 
ATOM     76  C   UNL A   1      42.415  20.884  26.215  1.00  0.00     0.006 A 
ENDBRANCH  48  69
BRANCH  60  77
ATOM     77  C   UNL A   1      48.459  26.671  29.938  1.00  0.00     0.057 A 
ATOM     78  C   UNL A   1      48.871  25.910  31.039  1.00  0.00     0.134 A 
ATOM     79  C   UNL A   1      49.426  26.992  28.976  1.00  0.00     0.134 A 
ATOM     80  F   UNL A   1      47.998  25.582  32.003  1.00  0.00    -0.206 F 
ATOM     81  C   UNL A   1      50.197  25.501  31.188  1.00  0.00     0.040 A 
ATOM     82  C   UNL A   1      50.749  26.567  29.100  1.00  0.00     0.040 A 
ATOM     83  F   UNL A   1      49.097  27.712  27.893  1.00  0.00    -0.206 F 
ATOM     84  C   UNL A   1      51.139  25.823  30.212  1.00  0.00     0.006 A 
ENDBRANCH  60  77
ENDBRANCH  34  35
ENDBRANCH  26  29
ENDBRANCH  24  25
ENDBRANCH   1  24
TORSDOF 12
ENDMDL
MODEL 2
REMARK VINA RESULT:     -11.3      2.229      2.984
REMARK SMILES Cc1ccc(F)c(C(=O)N[C@@H]2C=C[C@@H](C(=O)NCCCNC(=O)c3ccc(-c4c5nc(c(-c6c(F)cccc6F)c6ccc([nH]6)c(-c6c(F)cccc6F)c6nc(c(-c7c(F)cccc7F)c7ccc4[nH]7)C=C6)C=C5)cc3)C2)c1
REMARK SMILES IDX 19 1 18 2 17 3 15 4 16 5 14 7 11 8 12 9 78 10 13 11 10 12
REMARK SMILES IDX 8 13 9 14 7 16 1 17 2 18 3 19 79 20 4 21 5 22 6 23 20 24
REMARK SMILES IDX 21 25 22 26 23 28 24 29 25 30 77 31 26 32 76 33 27 34 28 35
REMARK SMILES IDX 29 36 70 37 30 38 75 39 69 40 71 41 31 42 74 43 68 44 67 45
REMARK SMILES IDX 32 47 58 48 41 49 57 50 42 51 45 52 56 53 72 54 43 55 44 56
REMARK SMILES IDX 55 58 73 59 46 60 33 61 34 62 39 63 35 64 36 65 38 66 40 67
REMARK SMILES IDX 37 68 59 69 60 70 65 71 61 72 62 73 64 74 66 75 63 76 47 77
REMARK SMILES IDX 48 78 53 79 49 80 50 81 52 82 54 83 51 84
REMARK H PARENT 17 6 10 15 21 27 71 46 45 57
REMARK Flexibility Score: inf
ROOT
ATOM      1  C   UNL A   1      34.427  34.747  28.256  1.00  0.00     0.042 C 
ENDROOT
BRANCH   1   2
ATOM      2  C   UNL A   1      33.016  35.011  28.773  1.00  0.00     0.117 C 
BRANCH   2   3
ATOM      3  N   UNL A   1      32.857  36.332  29.351  1.00  0.00    -0.356 N 
ATOM      4  C   UNL A   1      32.928  36.791  30.628  1.00  0.00     0.227 C 
ATOM      5  O   UNL A   1      32.907  38.020  30.763  1.00  0.00    -0.274 OA
ATOM      6  H   UNL A   1      32.658  37.033  28.689  1.00  0.00     0.163 HD
BRANCH   4   7
ATOM      7  C   UNL A   1      32.925  35.894  31.874  1.00  0.00     0.103 C 
ATOM      8  C   UNL A   1      34.962  35.326  33.135  1.00  0.00     0.106 C 
ATOM      9  C   UNL A   1      34.024  36.181  33.930  1.00  0.00    -0.006 C 
ATOM     10  C   UNL A   1      34.126  34.948  31.907  1.00  0.00     0.047 C 
ATOM     11  C   UNL A   1      32.943  36.535  33.223  1.00  0.00    -0.016 C 
BRANCH   8  12
ATOM     12  N   UNL A   1      35.432  34.226  33.950  1.00  0.00    -0.346 N 
ATOM     13  C   UNL A   1      36.683  33.664  34.085  1.00  0.00     0.254 C 
ATOM     14  O   UNL A   1      36.872  32.863  34.996  1.00  0.00    -0.269 OA
ATOM     15  H   UNL A   1      34.736  33.806  34.506  1.00  0.00     0.164 HD
BRANCH  13  16
ATOM     16  C   UNL A   1      37.771  33.956  33.122  1.00  0.00     0.075 A 
ATOM     17  C   UNL A   1      38.596  33.453  29.449  1.00  0.00     0.044 C 
ATOM     18  C   UNL A   1      38.731  33.842  30.891  1.00  0.00    -0.050 A 
ATOM     19  C   UNL A   1      39.977  34.203  31.415  1.00  0.00     0.006 A 
ATOM     20  C   UNL A   1      37.614  33.815  31.740  1.00  0.00     0.020 A 
ATOM     21  C   UNL A   1      40.114  34.470  32.776  1.00  0.00     0.040 A 
ATOM     22  C   UNL A   1      39.020  34.322  33.626  1.00  0.00     0.135 A 
ATOM     23  F   UNL A   1      39.219  34.492  34.941  1.00  0.00    -0.206 F 
ENDBRANCH  13  16
ENDBRANCH   8  12
ENDBRANCH   4   7
ENDBRANCH   2   3
ENDBRANCH   1   2
BRANCH   1  24
ATOM     24  C   UNL A   1      34.976  33.353  28.560  1.00  0.00     0.118 C 
BRANCH  24  25
ATOM     25  N   UNL A   1      34.212  32.296  27.913  1.00  0.00    -0.352 N 
ATOM     26  C   UNL A   1      34.550  30.997  27.627  1.00  0.00     0.251 C 
ATOM     27  H   UNL A   1      33.303  32.557  27.636  1.00  0.00     0.163 HD
ATOM     28  O   UNL A   1      33.821  30.332  26.897  1.00  0.00    -0.269 OA
BRANCH  26  29
ATOM     29  C   UNL A   1      35.782  30.390  28.178  1.00  0.00     0.039 A 
ATOM     30  C   UNL A   1      36.957  30.452  27.422  1.00  0.00     0.014 A 
ATOM     31  C   UNL A   1      35.775  29.709  29.397  1.00  0.00     0.014 A 
ATOM     32  C   UNL A   1      38.136  29.882  27.913  1.00  0.00     0.010 A 
ATOM     33  C   UNL A   1      36.964  29.199  29.917  1.00  0.00     0.010 A 
ATOM     34  C   UNL A   1      38.155  29.275  29.178  1.00  0.00    -0.014 A 
BRANCH  34  35
ATOM     35  C   UNL A   1      39.406  28.704  29.742  1.00  0.00     0.031 A 
ATOM     36  C   UNL A   1      40.031  29.309  30.968  1.00  0.00     0.074 A 
ATOM     37  C   UNL A   1      40.018  27.684  29.111  1.00  0.00     0.049 A 
ATOM     38  N   UNL A   1      41.159  29.003  31.559  1.00  0.00    -0.248 NA
ATOM     39  C   UNL A   1      39.306  30.423  31.595  1.00  0.00     0.031 C 
ATOM     40  C   UNL A   1      39.533  27.028  27.896  1.00  0.00     0.029 A 
ATOM     41  N   UNL A   1      41.187  27.026  29.402  1.00  0.00    -0.354 N 
ATOM     42  C   UNL A   1      41.288  29.900  32.613  1.00  0.00     0.074 A 
ATOM     43  C   UNL A   1      40.149  30.790  32.549  1.00  0.00     0.031 C 
ATOM     44  C   UNL A   1      40.384  26.045  27.559  1.00  0.00     0.029 A 
ATOM     45  C   UNL A   1      41.492  26.027  28.510  1.00  0.00     0.049 A 
ATOM     46  H   UNL A   1      41.753  27.250  30.175  1.00  0.00     0.167 HD
ATOM     47  C   UNL A   1      42.257  29.965  33.559  1.00  0.00     0.037 A 
ATOM     48  C   UNL A   1      42.547  25.193  28.460  1.00  0.00     0.037 A 
ATOM     49  C   UNL A   1      43.376  29.062  33.636  1.00  0.00     0.049 A 
ATOM     50  C   UNL A   1      43.618  25.293  29.510  1.00  0.00     0.074 A 
ATOM     51  C   UNL A   1      44.372  29.003  34.594  1.00  0.00     0.029 A 
ATOM     52  N   UNL A   1      43.650  28.063  32.714  1.00  0.00    -0.354 N 
ATOM     53  N   UNL A   1      43.697  26.105  30.535  1.00  0.00    -0.248 NA
ATOM     54  C   UNL A   1      44.747  24.357  29.394  1.00  0.00     0.031 C 
ATOM     55  C   UNL A   1      45.275  27.999  34.227  1.00  0.00     0.029 A 
ATOM     56  C   UNL A   1      44.813  27.399  33.066  1.00  0.00     0.049 A 
ATOM     57  H   UNL A   1      43.098  27.856  31.926  1.00  0.00     0.167 HD
ATOM     58  C   UNL A   1      44.864  25.761  31.205  1.00  0.00     0.074 A 
ATOM     59  C   UNL A   1      45.458  24.662  30.471  1.00  0.00     0.031 C 
ATOM     60  C   UNL A   1      45.393  26.304  32.329  1.00  0.00     0.037 A 
BRANCH  47  61
ATOM     61  C   UNL A   1      42.147  31.062  34.579  1.00  0.00     0.057 A 
ATOM     62  C   UNL A   1      41.408  30.904  35.761  1.00  0.00     0.134 A 
ATOM     63  C   UNL A   1      42.791  32.289  34.381  1.00  0.00     0.134 A 
ATOM     64  F   UNL A   1      40.757  29.757  36.008  1.00  0.00    -0.206 F 
ATOM     65  C   UNL A   1      41.281  31.942  36.686  1.00  0.00     0.040 A 
ATOM     66  C   UNL A   1      42.695  33.324  35.313  1.00  0.00     0.040 A 
ATOM     67  F   UNL A   1      43.521  32.506  33.277  1.00  0.00    -0.206 F 
ATOM     68  C   UNL A   1      41.929  33.155  36.465  1.00  0.00     0.006 A 
ENDBRANCH  47  61
BRANCH  48  69
ATOM     69  C   UNL A   1      42.621  24.162  27.396  1.00  0.00     0.057 A 
ATOM     70  C   UNL A   1      43.212  24.451  26.161  1.00  0.00     0.134 A 
ATOM     71  C   UNL A   1      42.125  22.868  27.589  1.00  0.00     0.134 A 
ATOM     72  F   UNL A   1      43.689  25.680  25.912  1.00  0.00    -0.206 F 
ATOM     73  C   UNL A   1      43.302  23.493  25.151  1.00  0.00     0.040 A 
ATOM     74  C   UNL A   1      42.227  21.893  26.596  1.00  0.00     0.040 A 
ATOM     75  F   UNL A   1      41.554  22.528  28.753  1.00  0.00    -0.206 F 
ATOM     76  C   UNL A   1      42.813  22.206  25.370  1.00  0.00     0.006 A 
ENDBRANCH  48  69
BRANCH  60  77
ATOM     77  C   UNL A   1      46.659  25.695  32.856  1.00  0.00     0.057 A 
ATOM     78  C   UNL A   1      47.922  26.118  32.422  1.00  0.00     0.134 A 
ATOM     79  C   UNL A   1      46.614  24.699  33.839  1.00  0.00     0.134 A 
ATOM     80  F   UNL A   1      48.034  27.058  31.471  1.00  0.00    -0.206 F 
ATOM     81  C   UNL A   1      49.094  25.559  32.933  1.00  0.00     0.040 A 
ATOM     82  C   UNL A   1      47.778  24.149  34.377  1.00  0.00     0.040 A 
ATOM     83  F   UNL A   1      45.438  24.253  34.304  1.00  0.00    -0.206 F 
ATOM     84  C   UNL A   1      49.024  24.576  33.919  1.00  0.00     0.006 A 
ENDBRANCH  60  77
ENDBRANCH  34  35
ENDBRANCH  26  29
ENDBRANCH  24  25
ENDBRANCH   1  24
TORSDOF 12
ENDMDL
MODEL 3
REMARK VINA RESULT:     -11.2      4.626     10.083
REMARK SMILES Cc1ccc(F)c(C(=O)N[C@@H]2C=C[C@@H](C(=O)NCCCNC(=O)c3ccc(-c4c5nc(c(-c6c(F)cccc6F)c6ccc([nH]6)c(-c6c(F)cccc6F)c6nc(c(-c7c(F)cccc7F)c7ccc4[nH]7)C=C6)C=C5)cc3)C2)c1
REMARK SMILES IDX 19 1 18 2 17 3 15 4 16 5 14 7 11 8 12 9 78 10 13 11 10 12
REMARK SMILES IDX 8 13 9 14 7 16 1 17 2 18 3 19 79 20 4 21 5 22 6 23 20 24
REMARK SMILES IDX 21 25 22 26 23 28 24 29 25 30 77 31 26 32 76 33 27 34 28 35
REMARK SMILES IDX 29 36 70 37 30 38 75 39 69 40 71 41 31 42 74 43 68 44 67 45
REMARK SMILES IDX 32 47 58 48 41 49 57 50 42 51 45 52 56 53 72 54 43 55 44 56
REMARK SMILES IDX 55 58 73 59 46 60 33 61 34 62 39 63 35 64 36 65 38 66 40 67
REMARK SMILES IDX 37 68 59 69 60 70 65 71 61 72 62 73 64 74 66 75 63 76 47 77
REMARK SMILES IDX 48 78 53 79 49 80 50 81 52 82 54 83 51 84
REMARK H PARENT 17 6 10 15 21 27 71 46 45 57
REMARK Flexibility Score: inf
ROOT
ATOM      1  C   UNL A   1      31.403  32.328  26.559  1.00  0.00     0.042 C 
ENDROOT
BRANCH   1   2
ATOM      2  C   UNL A   1      31.483  30.829  26.283  1.00  0.00     0.117 C 
BRANCH   2   3
ATOM      3  N   UNL A   1      32.601  30.184  26.946  1.00  0.00    -0.356 N 
ATOM      4  C   UNL A   1      33.212  28.985  26.760  1.00  0.00     0.227 C 
ATOM      5  O   UNL A   1      34.259  28.808  27.392  1.00  0.00    -0.274 OA
ATOM      6  H   UNL A   1      32.994  30.721  27.672  1.00  0.00     0.163 HD
BRANCH   4   7
ATOM      7  C   UNL A   1      32.634  27.838  25.917  1.00  0.00     0.103 C 
ATOM      8  C   UNL A   1      34.028  26.282  24.615  1.00  0.00     0.106 C 
ATOM      9  C   UNL A   1      33.330  25.601  25.752  1.00  0.00    -0.006 C 
ATOM     10  C   UNL A   1      33.373  27.668  24.589  1.00  0.00     0.047 C 
ATOM     11  C   UNL A   1      32.617  26.460  26.492  1.00  0.00    -0.016 C 
BRANCH   8  12
ATOM     12  N   UNL A   1      33.891  25.490  23.411  1.00  0.00    -0.346 N 
ATOM     13  C   UNL A   1      32.893  25.442  22.463  1.00  0.00     0.254 C 
ATOM     14  O   UNL A   1      33.101  24.830  21.420  1.00  0.00    -0.269 OA
ATOM     15  H   UNL A   1      34.643  24.878  23.240  1.00  0.00     0.164 HD
BRANCH  13  16
ATOM     16  C   UNL A   1      31.565  26.056  22.705  1.00  0.00     0.075 A 
ATOM     17  C   UNL A   1      29.828  29.417  22.377  1.00  0.00     0.044 C 
ATOM     18  C   UNL A   1      30.070  27.973  22.699  1.00  0.00    -0.050 A 
ATOM     19  C   UNL A   1      29.168  27.264  23.501  1.00  0.00     0.006 A 
ATOM     20  C   UNL A   1      31.222  27.324  22.228  1.00  0.00     0.020 A 
ATOM     21  C   UNL A   1      29.446  25.951  23.877  1.00  0.00     0.040 A 
ATOM     22  C   UNL A   1      30.651  25.362  23.500  1.00  0.00     0.135 A 
ATOM     23  F   UNL A   1      30.922  24.133  23.965  1.00  0.00    -0.206 F 
ENDBRANCH  13  16
ENDBRANCH   8  12
ENDBRANCH   4   7
ENDBRANCH   2   3
ENDBRANCH   1   2
BRANCH   1  24
ATOM     24  C   UNL A   1      32.690  32.955  27.095  1.00  0.00     0.118 C 
BRANCH  24  25
ATOM     25  N   UNL A   1      32.479  34.287  27.643  1.00  0.00    -0.352 N 
ATOM     26  C   UNL A   1      33.057  34.911  28.720  1.00  0.00     0.251 C 
ATOM     27  H   UNL A   1      31.812  34.829  27.161  1.00  0.00     0.163 HD
ATOM     28  O   UNL A   1      32.587  35.970  29.126  1.00  0.00    -0.269 OA
BRANCH  26  29
ATOM     29  C   UNL A   1      34.230  34.324  29.404  1.00  0.00     0.039 A 
ATOM     30  C   UNL A   1      34.023  33.557  30.556  1.00  0.00     0.014 A 
ATOM     31  C   UNL A   1      35.531  34.570  28.959  1.00  0.00     0.014 A 
ATOM     32  C   UNL A   1      35.112  32.994  31.227  1.00  0.00     0.010 A 
ATOM     33  C   UNL A   1      36.611  33.954  29.589  1.00  0.00     0.010 A 
ATOM     34  C   UNL A   1      36.414  33.165  30.733  1.00  0.00    -0.014 A 
BRANCH  34  35
ATOM     35  C   UNL A   1      37.583  32.537  31.402  1.00  0.00     0.031 A 
ATOM     36  C   UNL A   1      38.288  31.373  30.762  1.00  0.00     0.074 A 
ATOM     37  C   UNL A   1      37.968  32.968  32.618  1.00  0.00     0.049 A 
ATOM     38  N   UNL A   1      39.272  30.645  31.227  1.00  0.00    -0.248 NA
ATOM     39  C   UNL A   1      37.805  30.958  29.438  1.00  0.00     0.031 C 
ATOM     40  C   UNL A   1      37.348  34.066  33.361  1.00  0.00     0.029 A 
ATOM     41  N   UNL A   1      38.969  32.528  33.446  1.00  0.00    -0.354 N 
ATOM     42  C   UNL A   1      39.510  29.672  30.262  1.00  0.00     0.074 A 
ATOM     43  C   UNL A   1      38.537  29.876  29.211  1.00  0.00     0.031 C 
ATOM     44  C   UNL A   1      37.998  34.230  34.524  1.00  0.00     0.029 A 
ATOM     45  C   UNL A   1      39.053  33.226  34.626  1.00  0.00     0.049 A 
ATOM     46  H   UNL A   1      39.568  31.781  33.218  1.00  0.00     0.167 HD
ATOM     47  C   UNL A   1      40.465  28.710  30.244  1.00  0.00     0.037 A 
ATOM     48  C   UNL A   1      39.883  33.072  35.674  1.00  0.00     0.037 A 
ATOM     49  C   UNL A   1      41.449  28.525  31.279  1.00  0.00     0.049 A 
ATOM     50  C   UNL A   1      40.924  31.988  35.641  1.00  0.00     0.074 A 
ATOM     51  C   UNL A   1      42.498  27.624  31.321  1.00  0.00     0.029 A 
ATOM     52  N   UNL A   1      41.501  29.253  32.458  1.00  0.00    -0.354 N 
ATOM     53  N   UNL A   1      41.177  31.116  34.696  1.00  0.00    -0.248 NA
ATOM     54  C   UNL A   1      41.794  31.870  36.820  1.00  0.00     0.031 C 
ATOM     55  C   UNL A   1      43.157  27.775  32.546  1.00  0.00     0.029 A 
ATOM     56  C   UNL A   1      42.548  28.804  33.246  1.00  0.00     0.049 A 
ATOM     57  H   UNL A   1      40.885  29.982  32.699  1.00  0.00     0.167 HD
ATOM     58  C   UNL A   1      42.254  30.364  35.151  1.00  0.00     0.074 A 
ATOM     59  C   UNL A   1      42.608  30.889  36.455  1.00  0.00     0.031 C 
ATOM     60  C   UNL A   1      42.893  29.336  34.541  1.00  0.00     0.037 A 
BRANCH  47  61
ATOM     61  C   UNL A   1      40.476  27.778  29.067  1.00  0.00     0.057 A 
ATOM     62  C   UNL A   1      41.274  28.018  27.939  1.00  0.00     0.134 A 
ATOM     63  C   UNL A   1      39.683  26.623  29.062  1.00  0.00     0.134 A 
ATOM     64  F   UNL A   1      42.048  29.111  27.873  1.00  0.00    -0.206 F 
ATOM     65  C   UNL A   1      41.250  27.164  26.833  1.00  0.00     0.040 A 
ATOM     66  C   UNL A   1      39.674  25.747  27.975  1.00  0.00     0.040 A 
ATOM     67  F   UNL A   1      38.903  26.328  30.112  1.00  0.00    -0.206 F 
ATOM     68  C   UNL A   1      40.451  26.024  26.852  1.00  0.00     0.006 A 
ENDBRANCH  47  61
BRANCH  48  69
ATOM     69  C   UNL A   1      39.788  33.997  36.831  1.00  0.00     0.057 A 
ATOM     70  C   UNL A   1      40.458  35.225  36.821  1.00  0.00     0.134 A 
ATOM     71  C   UNL A   1      39.016  33.690  37.957  1.00  0.00     0.134 A 
ATOM     72  F   UNL A   1      41.228  35.565  35.776  1.00  0.00    -0.206 F 
ATOM     73  C   UNL A   1      40.372  36.113  37.893  1.00  0.00     0.040 A 
ATOM     74  C   UNL A   1      38.903  34.578  39.027  1.00  0.00     0.040 A 
ATOM     75  F   UNL A   1      38.343  32.532  38.023  1.00  0.00    -0.206 F 
ATOM     76  C   UNL A   1      39.587  35.793  38.998  1.00  0.00     0.006 A 
ENDBRANCH  48  69
BRANCH  60  77
ATOM     77  C   UNL A   1      44.064  28.733  35.259  1.00  0.00     0.057 A 
ATOM     78  C   UNL A   1      43.918  27.653  36.139  1.00  0.00     0.134 A 
ATOM     79  C   UNL A   1      45.361  29.215  35.037  1.00  0.00     0.134 A 
ATOM     80  F   UNL A   1      42.702  27.154  36.406  1.00  0.00    -0.206 F 
ATOM     81  C   UNL A   1      45.018  27.087  36.787  1.00  0.00     0.040 A 
ATOM     82  C   UNL A   1      46.470  28.642  35.658  1.00  0.00     0.040 A 
ATOM     83  F   UNL A   1      45.571  30.243  34.201  1.00  0.00    -0.206 F 
ATOM     84  C   UNL A   1      46.300  27.577  36.541  1.00  0.00     0.006 A 
ENDBRANCH  60  77
ENDBRANCH  34  35
ENDBRANCH  26  29
ENDBRANCH  24  25
ENDBRANCH   1  24
TORSDOF 12
ENDMDL
