MODEL 1
REMARK VINA RESULT:     -13.8      0.000      0.000
REMARK SMILES O=C(NCCCNC(=O)c1cc(N2CCN(c3ccc(F)cc3)CC2)ccc1NC(=O)C1CCCC1)c1ccc(-c2c3nc(c(-c4c(F)cccc4F)c4ccc([nH]4)c(-c4c(F)cccc4F)c4nc(c(-c5c(F)cccc5F)c5ccc2[nH]5)C=C4)C=C3)cc1
REMARK SMILES IDX 5 1 4 2 3 3 1 4 2 5 37 7 38 8 90 9 39 10 89 11 40 12 41 13
REMARK SMILES IDX 42 14 83 15 43 16 88 17 82 18 84 19 44 20 87 21 81 22 80 23
REMARK SMILES IDX 45 25 71 26 54 27 70 28 55 29 58 30 69 31 85 32 56 33 57 34
REMARK SMILES IDX 68 36 86 37 59 38 46 39 47 40 52 41 48 42 49 43 51 44 53 45
REMARK SMILES IDX 50 46 72 47 73 48 78 49 74 50 75 51 77 52 79 53 76 54 60 55
REMARK SMILES IDX 61 56 66 57 62 58 63 59 65 60 67 61 64 62 6 63 7 64 8 65
REMARK SMILES IDX 9 67 10 68 11 69 28 70 12 71 27 72 26 73 29 74 30 75 31 77
REMARK SMILES IDX 32 78 33 79 36 80 34 81 35 82 13 83 14 84 25 85 15 86 24 87
REMARK SMILES IDX 16 88 17 89 18 90 23 91 19 92 22 93 20 94 21 95
REMARK H PARENT 3 6 84 24 58 35 7 66 29 76
REMARK Flexibility Score: inf
ROOT
ATOM      1  C   UNL A   1      38.576  22.741  26.242  1.00  0.00     0.042 C 
ENDROOT
BRANCH   1   2
ATOM      2  C   UNL A   1      39.758  23.379  26.952  1.00  0.00     0.118 C 
BRANCH   2   3
ATOM      3  N   UNL A   1      40.778  23.893  26.045  1.00  0.00    -0.352 N 
ATOM      4  O   UNL A   1      42.145  25.396  25.068  1.00  0.00    -0.269 OA
ATOM      5  C   UNL A   1      41.396  25.122  25.997  1.00  0.00     0.251 C 
ATOM      6  H   UNL A   1      41.071  23.257  25.355  1.00  0.00     0.163 HD
BRANCH   5   7
ATOM      7  C   UNL A   1      41.134  26.129  27.049  1.00  0.00     0.039 A 
ATOM      8  C   UNL A   1      41.854  27.319  27.087  1.00  0.00     0.014 A 
ATOM      9  C   UNL A   1      40.150  25.879  28.011  1.00  0.00     0.014 A 
ATOM     10  C   UNL A   1      41.749  28.152  28.192  1.00  0.00     0.010 A 
ATOM     11  C   UNL A   1      39.947  26.789  29.054  1.00  0.00     0.010 A 
ATOM     12  C   UNL A   1      40.774  27.915  29.175  1.00  0.00    -0.014 A 
BRANCH  12  13
ATOM     13  C   UNL A   1      40.610  28.917  30.258  1.00  0.00     0.031 A 
ATOM     14  C   UNL A   1      39.515  29.945  30.225  1.00  0.00     0.074 A 
ATOM     15  C   UNL A   1      41.433  28.835  31.324  1.00  0.00     0.049 A 
ATOM     16  N   UNL A   1      39.203  30.839  31.131  1.00  0.00    -0.248 NA
ATOM     17  C   UNL A   1      38.663  29.986  29.028  1.00  0.00     0.031 C 
ATOM     18  C   UNL A   1      42.546  27.888  31.456  1.00  0.00     0.029 A 
ATOM     19  N   UNL A   1      41.440  29.518  32.511  1.00  0.00    -0.354 N 
ATOM     20  C   UNL A   1      38.137  31.559  30.608  1.00  0.00     0.074 A 
ATOM     21  C   UNL A   1      37.865  31.013  29.294  1.00  0.00     0.031 C 
ATOM     22  C   UNL A   1      43.075  27.996  32.681  1.00  0.00     0.029 A 
ATOM     23  C   UNL A   1      42.394  29.068  33.394  1.00  0.00     0.049 A 
ATOM     24  H   UNL A   1      40.824  30.258  32.713  1.00  0.00     0.167 HD
ATOM     25  C   UNL A   1      37.447  32.577  31.176  1.00  0.00     0.037 A 
ATOM     26  C   UNL A   1      42.698  29.482  34.636  1.00  0.00     0.037 A 
ATOM     27  C   UNL A   1      37.711  33.103  32.491  1.00  0.00     0.049 A 
ATOM     28  C   UNL A   1      41.915  30.608  35.236  1.00  0.00     0.074 A 
ATOM     29  C   UNL A   1      37.056  34.124  33.160  1.00  0.00     0.029 A 
ATOM     30  N   UNL A   1      38.709  32.648  33.340  1.00  0.00    -0.354 N 
ATOM     31  N   UNL A   1      40.902  31.268  34.730  1.00  0.00    -0.248 NA
ATOM     32  C   UNL A   1      42.321  31.055  36.574  1.00  0.00     0.031 C 
ATOM     33  C   UNL A   1      37.679  34.307  34.399  1.00  0.00     0.029 A 
ATOM     34  C   UNL A   1      38.696  33.376  34.520  1.00  0.00     0.049 A 
ATOM     35  H   UNL A   1      39.334  31.915  33.135  1.00  0.00     0.167 HD
ATOM     36  C   UNL A   1      40.550  32.210  35.686  1.00  0.00     0.074 A 
ATOM     37  C   UNL A   1      41.433  32.008  36.816  1.00  0.00     0.031 C 
ATOM     38  C   UNL A   1      39.590  33.164  35.628  1.00  0.00     0.037 A 
BRANCH  25  39
ATOM     39  C   UNL A   1      36.338  33.202  30.380  1.00  0.00     0.057 A 
ATOM     40  C   UNL A   1      36.592  34.108  29.343  1.00  0.00     0.134 A 
ATOM     41  C   UNL A   1      35.004  32.838  30.608  1.00  0.00     0.134 A 
ATOM     42  F   UNL A   1      37.846  34.506  29.081  1.00  0.00    -0.206 F 
ATOM     43  C   UNL A   1      35.559  34.637  28.566  1.00  0.00     0.040 A 
ATOM     44  C   UNL A   1      33.965  33.344  29.825  1.00  0.00     0.040 A 
ATOM     45  F   UNL A   1      34.692  31.970  31.581  1.00  0.00    -0.206 F 
ATOM     46  C   UNL A   1      34.241  34.248  28.801  1.00  0.00     0.006 A 
ENDBRANCH  25  39
BRANCH  26  47
ATOM     47  C   UNL A   1      43.808  28.836  35.380  1.00  0.00     0.057 A 
ATOM     48  C   UNL A   1      45.100  29.370  35.367  1.00  0.00     0.134 A 
ATOM     49  C   UNL A   1      43.598  27.669  36.125  1.00  0.00     0.134 A 
ATOM     50  F   UNL A   1      45.366  30.478  34.659  1.00  0.00    -0.206 F 
ATOM     51  C   UNL A   1      46.149  28.759  36.057  1.00  0.00     0.040 A 
ATOM     52  C   UNL A   1      44.630  27.064  36.843  1.00  0.00     0.040 A 
ATOM     53  F   UNL A   1      42.379  27.112  36.184  1.00  0.00    -0.206 F 
ATOM     54  C   UNL A   1      45.913  27.606  36.803  1.00  0.00     0.006 A 
ENDBRANCH  26  47
BRANCH  38  55
ATOM     55  C   UNL A   1      39.454  34.050  36.829  1.00  0.00     0.057 A 
ATOM     56  C   UNL A   1      38.684  33.669  37.936  1.00  0.00     0.134 A 
ATOM     57  C   UNL A   1      40.094  35.293  36.878  1.00  0.00     0.134 A 
ATOM     58  F   UNL A   1      38.033  32.496  37.941  1.00  0.00    -0.206 F 
ATOM     59  C   UNL A   1      38.532  34.509  39.039  1.00  0.00     0.040 A 
ATOM     60  C   UNL A   1      39.967  36.132  37.986  1.00  0.00     0.040 A 
ATOM     61  F   UNL A   1      40.849  35.713  35.852  1.00  0.00    -0.206 F 
ATOM     62  C   UNL A   1      39.178  35.743  39.067  1.00  0.00     0.006 A 
ENDBRANCH  38  55
ENDBRANCH  12  13
ENDBRANCH   5   7
ENDBRANCH   2   3
ENDBRANCH   1   2
BRANCH   1  63
ATOM     63  C   UNL A   1      37.556  23.739  25.727  1.00  0.00     0.118 C 
BRANCH  63  64
ATOM     64  N   UNL A   1      37.316  23.608  24.294  1.00  0.00    -0.352 N 
ATOM     65  C   UNL A   1      36.196  23.224  23.602  1.00  0.00     0.253 C 
ATOM     66  H   UNL A   1      38.089  23.834  23.728  1.00  0.00     0.163 HD
ATOM     67  O   UNL A   1      36.294  22.995  22.400  1.00  0.00    -0.269 OA
BRANCH  65  68
ATOM     68  C   UNL A   1      34.876  23.103  24.266  1.00  0.00     0.065 A 
ATOM     69  C   UNL A   1      34.038  24.234  24.167  1.00  0.00     0.042 A 
ATOM     70  C   UNL A   1      34.500  21.984  25.044  1.00  0.00     0.054 A 
ATOM     71  C   UNL A   1      32.815  24.284  24.833  1.00  0.00     0.038 A 
ATOM     72  C   UNL A   1      33.241  22.021  25.633  1.00  0.00     0.029 A 
ATOM     73  C   UNL A   1      32.415  23.144  25.522  1.00  0.00     0.028 A 
BRANCH  70  74
ATOM     74  N   UNL A   1      35.416  20.919  25.215  1.00  0.00    -0.325 N 
ATOM     75  C   UNL A   1      35.422  19.587  24.918  1.00  0.00     0.227 C 
ATOM     76  H   UNL A   1      36.249  21.209  25.654  1.00  0.00     0.169 HD
ATOM     77  O   UNL A   1      36.482  18.978  25.088  1.00  0.00    -0.274 OA
BRANCH  75  78
ATOM     78  C   UNL A   1      34.194  18.886  24.393  1.00  0.00     0.079 C 
ATOM     79  C   UNL A   1      34.424  17.495  23.808  1.00  0.00     0.013 C 
ATOM     80  C   UNL A   1      33.238  18.572  25.543  1.00  0.00     0.013 C 
ATOM     81  C   UNL A   1      33.010  16.920  23.770  1.00  0.00     0.001 C 
ATOM     82  C   UNL A   1      32.285  17.533  24.969  1.00  0.00     0.001 C 
ENDBRANCH  75  78
ENDBRANCH  70  74
BRANCH  71  83
ATOM     83  N   UNL A   1      32.099  25.460  24.904  1.00  0.00    -0.368 N 
ATOM     84  C   UNL A   1      32.628  26.716  24.345  1.00  0.00     0.138 C 
ATOM     85  C   UNL A   1      30.633  25.388  25.031  1.00  0.00     0.138 C 
ATOM     86  C   UNL A   1      31.900  27.110  23.026  1.00  0.00     0.138 C 
ATOM     87  C   UNL A   1      29.938  25.729  23.699  1.00  0.00     0.138 C 
ATOM     88  N   UNL A   1      30.432  27.007  23.166  1.00  0.00    -0.368 N 
BRANCH  88  89
ATOM     89  C   UNL A   1      29.634  28.132  23.192  1.00  0.00     0.037 A 
ATOM     90  C   UNL A   1      28.241  28.016  23.074  1.00  0.00     0.029 A 
ATOM     91  C   UNL A   1      30.166  29.417  23.387  1.00  0.00     0.029 A 
ATOM     92  C   UNL A   1      27.409  29.135  23.180  1.00  0.00     0.041 A 
ATOM     93  C   UNL A   1      29.343  30.542  23.477  1.00  0.00     0.041 A 
ATOM     94  C   UNL A   1      27.970  30.388  23.382  1.00  0.00     0.123 A 
ATOM     95  F   UNL A   1      27.175  31.461  23.493  1.00  0.00    -0.207 F 
ENDBRANCH  88  89
ENDBRANCH  71  83
ENDBRANCH  65  68
ENDBRANCH  63  64
ENDBRANCH   1  63
TORSDOF 14
ENDMDL
MODEL 2
REMARK VINA RESULT:     -13.8      5.457     10.864
REMARK SMILES O=C(NCCCNC(=O)c1cc(N2CCN(c3ccc(F)cc3)CC2)ccc1NC(=O)C1CCCC1)c1ccc(-c2c3nc(c(-c4c(F)cccc4F)c4ccc([nH]4)c(-c4c(F)cccc4F)c4nc(c(-c5c(F)cccc5F)c5ccc2[nH]5)C=C4)C=C3)cc1
REMARK SMILES IDX 5 1 4 2 3 3 1 4 2 5 37 7 38 8 90 9 39 10 89 11 40 12 41 13
REMARK SMILES IDX 42 14 83 15 43 16 88 17 82 18 84 19 44 20 87 21 81 22 80 23
REMARK SMILES IDX 45 25 71 26 54 27 70 28 55 29 58 30 69 31 85 32 56 33 57 34
REMARK SMILES IDX 68 36 86 37 59 38 46 39 47 40 52 41 48 42 49 43 51 44 53 45
REMARK SMILES IDX 50 46 72 47 73 48 78 49 74 50 75 51 77 52 79 53 76 54 60 55
REMARK SMILES IDX 61 56 66 57 62 58 63 59 65 60 67 61 64 62 6 63 7 64 8 65
REMARK SMILES IDX 9 67 10 68 11 69 28 70 12 71 27 72 26 73 29 74 30 75 31 77
REMARK SMILES IDX 32 78 33 79 36 80 34 81 35 82 13 83 14 84 25 85 15 86 24 87
REMARK SMILES IDX 16 88 17 89 18 90 23 91 19 92 22 93 20 94 21 95
REMARK H PARENT 3 6 84 24 58 35 7 66 29 76
REMARK Flexibility Score: inf
ROOT
ATOM      1  C   UNL A   1      34.380  30.594  27.239  1.00  0.00     0.042 C 
ENDROOT
BRANCH   1   2
ATOM      2  C   UNL A   1      35.556  31.168  28.012  1.00  0.00     0.118 C 
BRANCH   2   3
ATOM      3  N   UNL A   1      35.430  31.028  29.458  1.00  0.00    -0.352 N 
ATOM      4  O   UNL A   1      35.910  30.314  31.542  1.00  0.00    -0.269 OA
ATOM      5  C   UNL A   1      36.264  30.432  30.377  1.00  0.00     0.251 C 
ATOM      6  H   UNL A   1      34.614  31.425  29.839  1.00  0.00     0.163 HD
BRANCH   5   7
ATOM      7  C   UNL A   1      37.579  29.902  29.953  1.00  0.00     0.039 A 
ATOM      8  C   UNL A   1      38.446  29.330  30.880  1.00  0.00     0.014 A 
ATOM      9  C   UNL A   1      37.950  29.976  28.606  1.00  0.00     0.014 A 
ATOM     10  C   UNL A   1      39.749  29.034  30.511  1.00  0.00     0.010 A 
ATOM     11  C   UNL A   1      39.221  29.548  28.209  1.00  0.00     0.010 A 
ATOM     12  C   UNL A   1      40.147  29.110  29.166  1.00  0.00    -0.014 A 
BRANCH  12  13
ATOM     13  C   UNL A   1      41.510  28.644  28.807  1.00  0.00     0.031 A 
ATOM     14  C   UNL A   1      41.773  27.230  28.372  1.00  0.00     0.074 A 
ATOM     15  C   UNL A   1      42.508  29.550  28.811  1.00  0.00     0.049 A 
ATOM     16  N   UNL A   1      42.896  26.695  27.961  1.00  0.00    -0.248 NA
ATOM     17  C   UNL A   1      40.641  26.292  28.405  1.00  0.00     0.031 C 
ATOM     18  C   UNL A   1      42.373  30.949  29.234  1.00  0.00     0.029 A 
ATOM     19  N   UNL A   1      43.815  29.453  28.409  1.00  0.00    -0.354 N 
ATOM     20  C   UNL A   1      42.614  25.359  27.707  1.00  0.00     0.074 A 
ATOM     21  C   UNL A   1      41.217  25.156  28.028  1.00  0.00     0.031 C 
ATOM     22  C   UNL A   1      43.522  31.595  28.998  1.00  0.00     0.029 A 
ATOM     23  C   UNL A   1      44.497  30.645  28.480  1.00  0.00     0.049 A 
ATOM     24  H   UNL A   1      44.225  28.613  28.101  1.00  0.00     0.167 HD
ATOM     25  C   UNL A   1      43.445  24.395  27.242  1.00  0.00     0.037 A 
ATOM     26  C   UNL A   1      45.773  30.940  28.174  1.00  0.00     0.037 A 
ATOM     27  C   UNL A   1      44.829  24.609  26.906  1.00  0.00     0.049 A 
ATOM     28  C   UNL A   1      46.664  29.852  27.660  1.00  0.00     0.074 A 
ATOM     29  C   UNL A   1      45.749  23.697  26.413  1.00  0.00     0.029 A 
ATOM     30  N   UNL A   1      45.495  25.819  27.026  1.00  0.00    -0.354 N 
ATOM     31  N   UNL A   1      46.375  28.598  27.415  1.00  0.00    -0.248 NA
ATOM     32  C   UNL A   1      48.060  30.216  27.391  1.00  0.00     0.031 C 
ATOM     33  C   UNL A   1      46.978  24.349  26.266  1.00  0.00     0.029 A 
ATOM     34  C   UNL A   1      46.816  25.676  26.630  1.00  0.00     0.049 A 
ATOM     35  H   UNL A   1      45.089  26.658  27.345  1.00  0.00     0.167 HD
ATOM     36  C   UNL A   1      47.553  28.021  26.963  1.00  0.00     0.074 A 
ATOM     37  C   UNL A   1      48.548  29.073  26.933  1.00  0.00     0.031 C 
ATOM     38  C   UNL A   1      47.792  26.734  26.617  1.00  0.00     0.037 A 
BRANCH  25  39
ATOM     39  C   UNL A   1      42.886  23.012  27.070  1.00  0.00     0.057 A 
ATOM     40  C   UNL A   1      42.664  22.165  28.162  1.00  0.00     0.134 A 
ATOM     41  C   UNL A   1      42.501  22.550  25.805  1.00  0.00     0.134 A 
ATOM     42  F   UNL A   1      43.020  22.542  29.399  1.00  0.00    -0.206 F 
ATOM     43  C   UNL A   1      42.086  20.903  28.001  1.00  0.00     0.040 A 
ATOM     44  C   UNL A   1      41.904  21.300  25.634  1.00  0.00     0.040 A 
ATOM     45  F   UNL A   1      42.681  23.314  24.717  1.00  0.00    -0.206 F 
ATOM     46  C   UNL A   1      41.696  20.471  26.734  1.00  0.00     0.006 A 
ENDBRANCH  25  39
BRANCH  26  47
ATOM     47  C   UNL A   1      46.279  32.322  28.367  1.00  0.00     0.057 A 
ATOM     48  C   UNL A   1      46.233  33.264  27.336  1.00  0.00     0.134 A 
ATOM     49  C   UNL A   1      46.814  32.732  29.595  1.00  0.00     0.134 A 
ATOM     50  F   UNL A   1      45.745  32.926  26.133  1.00  0.00    -0.206 F 
ATOM     51  C   UNL A   1      46.718  34.562  27.510  1.00  0.00     0.040 A 
ATOM     52  C   UNL A   1      47.275  34.034  29.793  1.00  0.00     0.040 A 
ATOM     53  F   UNL A   1      46.877  31.878  30.627  1.00  0.00    -0.206 F 
ATOM     54  C   UNL A   1      47.234  34.951  28.745  1.00  0.00     0.006 A 
ENDBRANCH  26  47
BRANCH  38  55
ATOM     55  C   UNL A   1      49.186  26.408  26.172  1.00  0.00     0.057 A 
ATOM     56  C   UNL A   1      50.121  25.845  27.050  1.00  0.00     0.134 A 
ATOM     57  C   UNL A   1      49.596  26.663  24.859  1.00  0.00     0.134 A 
ATOM     58  F   UNL A   1      49.792  25.592  28.325  1.00  0.00    -0.206 F 
ATOM     59  C   UNL A   1      51.428  25.573  26.642  1.00  0.00     0.040 A 
ATOM     60  C   UNL A   1      50.894  26.375  24.434  1.00  0.00     0.040 A 
ATOM     61  F   UNL A   1      48.746  27.198  23.970  1.00  0.00    -0.206 F 
ATOM     62  C   UNL A   1      51.815  25.835  25.330  1.00  0.00     0.006 A 
ENDBRANCH  38  55
ENDBRANCH  12  13
ENDBRANCH   5   7
ENDBRANCH   2   3
ENDBRANCH   1   2
BRANCH   1  63
ATOM     63  C   UNL A   1      34.315  29.078  27.254  1.00  0.00     0.118 C 
BRANCH  63  64
ATOM     64  N   UNL A   1      33.090  28.575  27.866  1.00  0.00    -0.352 N 
ATOM     65  C   UNL A   1      32.011  27.931  27.317  1.00  0.00     0.253 C 
ATOM     66  H   UNL A   1      33.028  28.722  28.838  1.00  0.00     0.163 HD
ATOM     67  O   UNL A   1      31.002  27.781  28.002  1.00  0.00    -0.269 OA
BRANCH  65  68
ATOM     68  C   UNL A   1      32.044  27.397  25.935  1.00  0.00     0.065 A 
ATOM     69  C   UNL A   1      32.408  26.039  25.815  1.00  0.00     0.042 A 
ATOM     70  C   UNL A   1      31.837  28.199  24.789  1.00  0.00     0.054 A 
ATOM     71  C   UNL A   1      32.575  25.446  24.565  1.00  0.00     0.038 A 
ATOM     72  C   UNL A   1      31.930  27.568  23.554  1.00  0.00     0.029 A 
ATOM     73  C   UNL A   1      32.282  26.219  23.447  1.00  0.00     0.028 A 
BRANCH  70  74
ATOM     74  N   UNL A   1      31.591  29.584  24.948  1.00  0.00    -0.325 N 
ATOM     75  C   UNL A   1      30.618  30.449  24.537  1.00  0.00     0.227 C 
ATOM     76  H   UNL A   1      32.288  30.030  25.482  1.00  0.00     0.169 HD
ATOM     77  O   UNL A   1      30.653  31.594  24.998  1.00  0.00    -0.274 OA
BRANCH  75  78
ATOM     78  C   UNL A   1      29.537  30.028  23.574  1.00  0.00     0.079 C 
ATOM     79  C   UNL A   1      28.317  30.942  23.505  1.00  0.00     0.013 C 
ATOM     80  C   UNL A   1      30.054  30.112  22.138  1.00  0.00     0.013 C 
ATOM     81  C   UNL A   1      27.652  30.502  22.203  1.00  0.00     0.001 C 
ATOM     82  C   UNL A   1      28.796  30.078  21.281  1.00  0.00     0.001 C 
ENDBRANCH  75  78
ENDBRANCH  70  74
BRANCH  71  83
ATOM     83  N   UNL A   1      33.128  24.189  24.450  1.00  0.00    -0.368 N 
ATOM     84  C   UNL A   1      33.161  23.257  25.591  1.00  0.00     0.138 C 
ATOM     85  C   UNL A   1      33.191  23.564  23.116  1.00  0.00     0.138 C 
ATOM     86  C   UNL A   1      32.123  22.108  25.426  1.00  0.00     0.138 C 
ATOM     87  C   UNL A   1      32.119  22.468  22.961  1.00  0.00     0.138 C 
ATOM     88  N   UNL A   1      32.186  21.512  24.074  1.00  0.00    -0.368 N 
BRANCH  88  89
ATOM     89  C   UNL A   1      32.674  20.237  23.876  1.00  0.00     0.037 A 
ATOM     90  C   UNL A   1      33.685  19.729  24.705  1.00  0.00     0.029 A 
ATOM     91  C   UNL A   1      32.154  19.386  22.887  1.00  0.00     0.029 A 
ATOM     92  C   UNL A   1      34.137  18.412  24.575  1.00  0.00     0.041 A 
ATOM     93  C   UNL A   1      32.611  18.075  22.739  1.00  0.00     0.041 A 
ATOM     94  C   UNL A   1      33.592  17.596  23.592  1.00  0.00     0.123 A 
ATOM     95  F   UNL A   1      34.016  16.332  23.469  1.00  0.00    -0.207 F 
ENDBRANCH  88  89
ENDBRANCH  71  83
ENDBRANCH  65  68
ENDBRANCH  63  64
ENDBRANCH   1  63
TORSDOF 14
ENDMDL
MODEL 3
REMARK VINA RESULT:     -13.7      0.376      5.866
REMARK SMILES O=C(NCCCNC(=O)c1cc(N2CCN(c3ccc(F)cc3)CC2)ccc1NC(=O)C1CCCC1)c1ccc(-c2c3nc(c(-c4c(F)cccc4F)c4ccc([nH]4)c(-c4c(F)cccc4F)c4nc(c(-c5c(F)cccc5F)c5ccc2[nH]5)C=C4)C=C3)cc1
REMARK SMILES IDX 5 1 4 2 3 3 1 4 2 5 37 7 38 8 90 9 39 10 89 11 40 12 41 13
REMARK SMILES IDX 42 14 83 15 43 16 88 17 82 18 84 19 44 20 87 21 81 22 80 23
REMARK SMILES IDX 45 25 71 26 54 27 70 28 55 29 58 30 69 31 85 32 56 33 57 34
REMARK SMILES IDX 68 36 86 37 59 38 46 39 47 40 52 41 48 42 49 43 51 44 53 45
REMARK SMILES IDX 50 46 72 47 73 48 78 49 74 50 75 51 77 52 79 53 76 54 60 55
REMARK SMILES IDX 61 56 66 57 62 58 63 59 65 60 67 61 64 62 6 63 7 64 8 65
REMARK SMILES IDX 9 67 10 68 11 69 28 70 12 71 27 72 26 73 29 74 30 75 31 77
REMARK SMILES IDX 32 78 33 79 36 80 34 81 35 82 13 83 14 84 25 85 15 86 24 87
REMARK SMILES IDX 16 88 17 89 18 90 23 91 19 92 22 93 20 94 21 95
REMARK H PARENT 3 6 84 24 58 35 7 66 29 76
REMARK Flexibility Score: inf
ROOT
ATOM      1  C   UNL A   1      38.788  22.509  26.349  1.00  0.00     0.042 C 
ENDROOT
BRANCH   1   2
ATOM      2  C   UNL A   1      39.932  23.287  26.978  1.00  0.00     0.118 C 
BRANCH   2   3
ATOM      3  N   UNL A   1      40.764  23.990  26.008  1.00  0.00    -0.352 N 
ATOM      4  O   UNL A   1      41.799  25.722  25.004  1.00  0.00    -0.269 OA
ATOM      5  C   UNL A   1      41.204  25.294  25.983  1.00  0.00     0.251 C 
ATOM      6  H   UNL A   1      41.059  23.441  25.246  1.00  0.00     0.163 HD
BRANCH   5   7
ATOM      7  C   UNL A   1      40.931  26.192  27.127  1.00  0.00     0.039 A 
ATOM      8  C   UNL A   1      41.651  27.373  27.289  1.00  0.00     0.014 A 
ATOM      9  C   UNL A   1      39.938  25.850  28.050  1.00  0.00     0.014 A 
ATOM     10  C   UNL A   1      41.535  28.092  28.469  1.00  0.00     0.010 A 
ATOM     11  C   UNL A   1      39.726  26.653  29.176  1.00  0.00     0.010 A 
ATOM     12  C   UNL A   1      40.551  27.760  29.415  1.00  0.00    -0.014 A 
BRANCH  12  13
ATOM     13  C   UNL A   1      40.376  28.651  30.590  1.00  0.00     0.031 A 
ATOM     14  C   UNL A   1      41.293  28.581  31.778  1.00  0.00     0.074 A 
ATOM     15  C   UNL A   1      39.407  29.587  30.534  1.00  0.00     0.049 A 
ATOM     16  N   UNL A   1      41.309  29.340  32.846  1.00  0.00    -0.248 NA
ATOM     17  C   UNL A   1      42.319  27.528  31.779  1.00  0.00     0.031 C 
ATOM     18  C   UNL A   1      38.444  29.736  29.437  1.00  0.00     0.029 A 
ATOM     19  N   UNL A   1      39.096  30.614  31.386  1.00  0.00    -0.354 N 
ATOM     20  C   UNL A   1      42.327  28.846  33.653  1.00  0.00     0.074 A 
ATOM     21  C   UNL A   1      42.896  27.709  32.961  1.00  0.00     0.031 C 
ATOM     22  C   UNL A   1      37.705  30.833  29.644  1.00  0.00     0.029 A 
ATOM     23  C   UNL A   1      38.086  31.422  30.920  1.00  0.00     0.049 A 
ATOM     24  H   UNL A   1      39.551  30.759  32.247  1.00  0.00     0.167 HD
ATOM     25  C   UNL A   1      42.749  29.307  34.854  1.00  0.00     0.037 A 
ATOM     26  C   UNL A   1      37.517  32.512  31.466  1.00  0.00     0.037 A 
ATOM     27  C   UNL A   1      42.191  30.451  35.528  1.00  0.00     0.049 A 
ATOM     28  C   UNL A   1      38.009  32.996  32.795  1.00  0.00     0.074 A 
ATOM     29  C   UNL A   1      42.561  31.004  36.743  1.00  0.00     0.029 A 
ATOM     30  N   UNL A   1      41.144  31.221  35.044  1.00  0.00    -0.354 N 
ATOM     31  N   UNL A   1      38.981  32.523  33.535  1.00  0.00    -0.248 NA
ATOM     32  C   UNL A   1      37.320  34.157  33.370  1.00  0.00     0.031 C 
ATOM     33  C   UNL A   1      41.717  32.088  37.008  1.00  0.00     0.029 A 
ATOM     34  C   UNL A   1      40.847  32.236  35.941  1.00  0.00     0.049 A 
ATOM     35  H   UNL A   1      40.680  31.070  34.188  1.00  0.00     0.167 HD
ATOM     36  C   UNL A   1      39.020  33.327  34.665  1.00  0.00     0.074 A 
ATOM     37  C   UNL A   1      37.999  34.340  34.492  1.00  0.00     0.031 C 
ATOM     38  C   UNL A   1      39.820  33.228  35.753  1.00  0.00     0.037 A 
BRANCH  25  39
ATOM     39  C   UNL A   1      43.870  28.572  35.532  1.00  0.00     0.057 A 
ATOM     40  C   UNL A   1      45.211  28.911  35.318  1.00  0.00     0.134 A 
ATOM     41  C   UNL A   1      43.600  27.559  36.461  1.00  0.00     0.134 A 
ATOM     42  F   UNL A   1      45.538  29.864  34.433  1.00  0.00    -0.206 F 
ATOM     43  C   UNL A   1      46.245  28.265  35.999  1.00  0.00     0.040 A 
ATOM     44  C   UNL A   1      44.623  26.919  37.163  1.00  0.00     0.040 A 
ATOM     45  F   UNL A   1      42.336  27.189  36.717  1.00  0.00    -0.206 F 
ATOM     46  C   UNL A   1      45.951  27.271  36.931  1.00  0.00     0.006 A 
ENDBRANCH  25  39
BRANCH  26  47
ATOM     47  C   UNL A   1      36.408  33.199  30.759  1.00  0.00     0.057 A 
ATOM     48  C   UNL A   1      36.644  33.991  29.632  1.00  0.00     0.134 A 
ATOM     49  C   UNL A   1      35.083  33.073  31.195  1.00  0.00     0.134 A 
ATOM     50  F   UNL A   1      37.894  34.162  29.176  1.00  0.00    -0.206 F 
ATOM     51  C   UNL A   1      35.605  34.648  28.970  1.00  0.00     0.040 A 
ATOM     52  C   UNL A   1      34.031  33.700  30.526  1.00  0.00     0.040 A 
ATOM     53  F   UNL A   1      34.790  32.319  32.266  1.00  0.00    -0.206 F 
ATOM     54  C   UNL A   1      34.293  34.497  29.415  1.00  0.00     0.006 A 
ENDBRANCH  26  47
BRANCH  38  55
ATOM     55  C   UNL A   1      39.617  34.251  36.829  1.00  0.00     0.057 A 
ATOM     56  C   UNL A   1      40.210  35.518  36.756  1.00  0.00     0.134 A 
ATOM     57  C   UNL A   1      38.825  33.966  37.948  1.00  0.00     0.134 A 
ATOM     58  F   UNL A   1      40.993  35.844  35.717  1.00  0.00    -0.206 F 
ATOM     59  C   UNL A   1      40.045  36.457  37.775  1.00  0.00     0.040 A 
ATOM     60  C   UNL A   1      38.635  34.905  38.962  1.00  0.00     0.040 A 
ATOM     61  F   UNL A   1      38.227  32.772  38.073  1.00  0.00    -0.206 F 
ATOM     62  C   UNL A   1      39.253  36.152  38.880  1.00  0.00     0.006 A 
ENDBRANCH  38  55
ENDBRANCH  12  13
ENDBRANCH   5   7
ENDBRANCH   2   3
ENDBRANCH   1   2
BRANCH   1  63
ATOM     63  C   UNL A   1      37.650  23.381  25.852  1.00  0.00     0.118 C 
BRANCH  63  64
ATOM     64  N   UNL A   1      37.521  23.362  24.400  1.00  0.00    -0.352 N 
ATOM     65  C   UNL A   1      36.438  23.110  23.597  1.00  0.00     0.253 C 
ATOM     66  H   UNL A   1      38.352  23.566  23.912  1.00  0.00     0.163 HD
ATOM     67  O   UNL A   1      36.619  22.953  22.393  1.00  0.00    -0.269 OA
BRANCH  65  68
ATOM     68  C   UNL A   1      35.062  23.046  24.146  1.00  0.00     0.065 A 
ATOM     69  C   UNL A   1      34.299  24.225  24.015  1.00  0.00     0.042 A 
ATOM     70  C   UNL A   1      34.562  21.930  24.855  1.00  0.00     0.054 A 
ATOM     71  C   UNL A   1      33.028  24.327  24.579  1.00  0.00     0.038 A 
ATOM     72  C   UNL A   1      33.263  22.023  25.340  1.00  0.00     0.029 A 
ATOM     73  C   UNL A   1      32.511  23.192  25.196  1.00  0.00     0.028 A 
BRANCH  70  74
ATOM     74  N   UNL A   1      35.402  20.811  25.068  1.00  0.00    -0.325 N 
ATOM     75  C   UNL A   1      35.326  19.475  24.796  1.00  0.00     0.227 C 
ATOM     76  H   UNL A   1      36.243  21.054  25.520  1.00  0.00     0.169 HD
ATOM     77  O   UNL A   1      36.340  18.801  25.001  1.00  0.00    -0.274 OA
BRANCH  75  78
ATOM     78  C   UNL A   1      34.067  18.846  24.256  1.00  0.00     0.079 C 
ATOM     79  C   UNL A   1      34.247  17.511  23.538  1.00  0.00     0.013 C 
ATOM     80  C   UNL A   1      33.147  18.444  25.407  1.00  0.00     0.013 C 
ATOM     81  C   UNL A   1      32.822  16.966  23.500  1.00  0.00     0.001 C 
ATOM     82  C   UNL A   1      32.152  17.478  24.777  1.00  0.00     0.001 C 
ENDBRANCH  75  78
ENDBRANCH  70  74
BRANCH  71  83
ATOM     83  N   UNL A   1      32.374  25.539  24.628  1.00  0.00    -0.368 N 
ATOM     84  C   UNL A   1      32.754  26.653  23.742  1.00  0.00     0.138 C 
ATOM     85  C   UNL A   1      30.992  25.575  25.139  1.00  0.00     0.138 C 
ATOM     86  C   UNL A   1      31.709  26.869  22.608  1.00  0.00     0.138 C 
ATOM     87  C   UNL A   1      29.975  25.736  23.993  1.00  0.00     0.138 C 
ATOM     88  N   UNL A   1      30.329  26.878  23.139  1.00  0.00    -0.368 N 
BRANCH  88  89
ATOM     89  C   UNL A   1      29.583  28.038  23.174  1.00  0.00     0.037 A 
ATOM     90  C   UNL A   1      28.187  27.987  23.039  1.00  0.00     0.029 A 
ATOM     91  C   UNL A   1      30.170  29.294  23.396  1.00  0.00     0.029 A 
ATOM     92  C   UNL A   1      27.405  29.141  23.155  1.00  0.00     0.041 A 
ATOM     93  C   UNL A   1      29.398  30.453  23.495  1.00  0.00     0.041 A 
ATOM     94  C   UNL A   1      28.020  30.364  23.384  1.00  0.00     0.123 A 
ATOM     95  F   UNL A   1      27.273  31.469  23.503  1.00  0.00    -0.207 F 
ENDBRANCH  88  89
ENDBRANCH  71  83
ENDBRANCH  65  68
ENDBRANCH  63  64
ENDBRANCH   1  63
TORSDOF 14
ENDMDL
