MODEL 1
REMARK VINA RESULT:     -11.1      0.000      0.000
REMARK SMILES COc1cnc(F)c(C(=O)NCCCNC(=O)c2ccc(-c3c4nc(c(-c5c(F)cccc5F)c5ccc([nH]5)c(-c5c(F)cccc5F)c5nc(c(-c6c(F)cccc6F)c6ccc3[nH]6)C=C5)C=C4)cc2)c1
REMARK SMILES IDX 13 1 12 2 11 3 9 4 10 5 8 7 3 8 4 9 72 10 5 11 6 12 7 13
REMARK SMILES IDX 2 14 1 15 14 16 15 17 16 18 17 20 18 21 19 22 71 23 20 24
REMARK SMILES IDX 70 25 21 26 22 27 23 28 64 29 24 30 69 31 63 32 65 33 25 34
REMARK SMILES IDX 68 35 62 36 61 37 26 39 52 40 35 41 51 42 36 43 39 44 50 45
REMARK SMILES IDX 66 46 37 47 38 48 49 50 67 51 40 52 27 53 28 54 33 55 29 56
REMARK SMILES IDX 30 57 32 58 34 59 31 60 53 61 54 62 59 63 55 64 56 65 58 66
REMARK SMILES IDX 60 67 57 68 41 69 42 70 47 71 43 72 44 73 46 74 48 75 45 76
REMARK H PARENT 11 6 15 19 65 38 39 49
REMARK Flexibility Score: inf
ROOT
ATOM      1  C   UNL A   1      37.617  19.804  25.009  1.00  0.00     0.042 C 
ENDROOT
BRANCH   1   2
ATOM      2  C   UNL A   1      36.673  20.944  24.628  1.00  0.00     0.118 C 
BRANCH   2   3
ATOM      3  N   UNL A   1      35.601  21.079  25.599  1.00  0.00    -0.352 N 
ATOM      4  C   UNL A   1      34.316  20.610  25.641  1.00  0.00     0.256 C 
ATOM      5  O   UNL A   1      33.647  20.903  26.635  1.00  0.00    -0.269 OA
ATOM      6  H   UNL A   1      35.849  21.615  26.387  1.00  0.00     0.163 HD
BRANCH   4   7
ATOM      7  C   UNL A   1      33.697  19.728  24.629  1.00  0.00     0.098 A 
ATOM      8  C   UNL A   1      33.474  17.471  23.783  1.00  0.00     0.138 A 
ATOM      9  C   UNL A   1      32.586  17.963  22.841  1.00  0.00     0.160 A 
ATOM     10  C   UNL A   1      34.063  18.374  24.662  1.00  0.00     0.066 A 
ATOM     11  N   UNL A   1      32.186  19.252  22.794  1.00  0.00    -0.224 NA
ATOM     12  C   UNL A   1      32.725  20.094  23.712  1.00  0.00     0.225 A 
ATOM     13  F   UNL A   1      32.201  21.325  23.723  1.00  0.00    -0.184 F 
BRANCH   8  14
ATOM     14  O   UNL A   1      33.752  16.136  23.778  1.00  0.00    -0.495 OA
ATOM     15  C   UNL A   1      33.378  15.503  25.005  1.00  0.00     0.278 C 
ENDBRANCH   8  14
ENDBRANCH   4   7
ENDBRANCH   2   3
ENDBRANCH   1   2
BRANCH   1  16
ATOM     16  C   UNL A   1      38.856  20.263  25.776  1.00  0.00     0.118 C 
BRANCH  16  17
ATOM     17  N   UNL A   1      39.880  19.230  25.839  1.00  0.00    -0.352 N 
ATOM     18  C   UNL A   1      41.234  19.340  26.043  1.00  0.00     0.251 C 
ATOM     19  H   UNL A   1      39.550  18.310  25.716  1.00  0.00     0.163 HD
ATOM     20  O   UNL A   1      41.959  18.371  25.844  1.00  0.00    -0.269 OA
BRANCH  18  21
ATOM     21  C   UNL A   1      41.827  20.621  26.488  1.00  0.00     0.039 A 
ATOM     22  C   UNL A   1      42.262  21.534  25.523  1.00  0.00     0.014 A 
ATOM     23  C   UNL A   1      41.989  20.908  27.846  1.00  0.00     0.014 A 
ATOM     24  C   UNL A   1      42.788  22.767  25.917  1.00  0.00     0.010 A 
ATOM     25  C   UNL A   1      42.459  22.160  28.238  1.00  0.00     0.010 A 
ATOM     26  C   UNL A   1      42.852  23.106  27.278  1.00  0.00    -0.014 A 
BRANCH  26  27
ATOM     27  C   UNL A   1      43.289  24.454  27.724  1.00  0.00     0.031 A 
ATOM     28  C   UNL A   1      42.275  25.496  28.100  1.00  0.00     0.074 A 
ATOM     29  C   UNL A   1      44.600  24.763  27.698  1.00  0.00     0.049 A 
ATOM     30  N   UNL A   1      42.456  26.761  28.383  1.00  0.00    -0.248 NA
ATOM     31  C   UNL A   1      40.870  25.064  28.142  1.00  0.00     0.031 C 
ATOM     32  C   UNL A   1      45.678  23.847  27.321  1.00  0.00     0.029 A 
ATOM     33  N   UNL A   1      45.247  25.944  27.970  1.00  0.00    -0.354 N 
ATOM     34  C   UNL A   1      41.191  27.281  28.621  1.00  0.00     0.074 A 
ATOM     35  C   UNL A   1      40.247  26.204  28.411  1.00  0.00     0.031 C 
ATOM     36  C   UNL A   1      46.851  24.498  27.391  1.00  0.00     0.029 A 
ATOM     37  C   UNL A   1      46.604  25.885  27.770  1.00  0.00     0.049 A 
ATOM     38  H   UNL A   1      44.781  26.754  28.280  1.00  0.00     0.167 HD
ATOM     39  C   UNL A   1      40.850  28.538  28.994  1.00  0.00     0.037 A 
ATOM     40  C   UNL A   1      47.543  26.846  27.854  1.00  0.00     0.037 A 
ATOM     41  C   UNL A   1      41.796  29.600  29.218  1.00  0.00     0.049 A 
ATOM     42  C   UNL A   1      47.134  28.243  28.229  1.00  0.00     0.074 A 
ATOM     43  C   UNL A   1      41.555  30.887  29.667  1.00  0.00     0.029 A 
ATOM     44  N   UNL A   1      43.162  29.501  29.002  1.00  0.00    -0.354 N 
ATOM     45  N   UNL A   1      45.941  28.705  28.515  1.00  0.00    -0.248 NA
ATOM     46  C   UNL A   1      48.199  29.254  28.284  1.00  0.00     0.031 C 
ATOM     47  C   UNL A   1      42.768  31.582  29.675  1.00  0.00     0.029 A 
ATOM     48  C   UNL A   1      43.772  30.715  29.274  1.00  0.00     0.049 A 
ATOM     49  H   UNL A   1      43.629  28.689  28.700  1.00  0.00     0.167 HD
ATOM     50  C   UNL A   1      46.113  30.053  28.800  1.00  0.00     0.074 A 
ATOM     51  C   UNL A   1      47.529  30.331  28.670  1.00  0.00     0.031 C 
ATOM     52  C   UNL A   1      45.182  30.977  29.136  1.00  0.00     0.037 A 
BRANCH  39  53
ATOM     53  C   UNL A   1      39.391  28.836  29.179  1.00  0.00     0.057 A 
ATOM     54  C   UNL A   1      38.757  28.683  30.419  1.00  0.00     0.134 A 
ATOM     55  C   UNL A   1      38.621  29.326  28.117  1.00  0.00     0.134 A 
ATOM     56  F   UNL A   1      39.437  28.210  31.476  1.00  0.00    -0.206 F 
ATOM     57  C   UNL A   1      37.405  28.983  30.590  1.00  0.00     0.040 A 
ATOM     58  C   UNL A   1      37.273  29.654  28.282  1.00  0.00     0.040 A 
ATOM     59  F   UNL A   1      39.167  29.506  26.904  1.00  0.00    -0.206 F 
ATOM     60  C   UNL A   1      36.661  29.477  29.521  1.00  0.00     0.006 A 
ENDBRANCH  39  53
BRANCH  40  61
ATOM     61  C   UNL A   1      48.964  26.522  27.572  1.00  0.00     0.057 A 
ATOM     62  C   UNL A   1      49.834  26.141  28.598  1.00  0.00     0.134 A 
ATOM     63  C   UNL A   1      49.485  26.587  26.274  1.00  0.00     0.134 A 
ATOM     64  F   UNL A   1      49.398  26.081  29.865  1.00  0.00    -0.206 F 
ATOM     65  C   UNL A   1      51.176  25.849  28.348  1.00  0.00     0.040 A 
ATOM     66  C   UNL A   1      50.819  26.273  26.005  1.00  0.00     0.040 A 
ATOM     67  F   UNL A   1      48.702  26.942  25.245  1.00  0.00    -0.206 F 
ATOM     68  C   UNL A   1      51.670  25.908  27.047  1.00  0.00     0.006 A 
ENDBRANCH  40  61
BRANCH  52  69
ATOM     69  C   UNL A   1      45.662  32.374  29.398  1.00  0.00     0.057 A 
ATOM     70  C   UNL A   1      46.121  32.768  30.660  1.00  0.00     0.134 A 
ATOM     71  C   UNL A   1      45.714  33.318  28.364  1.00  0.00     0.134 A 
ATOM     72  F   UNL A   1      46.082  31.914  31.694  1.00  0.00    -0.206 F 
ATOM     73  C   UNL A   1      46.607  34.056  30.889  1.00  0.00     0.040 A 
ATOM     74  C   UNL A   1      46.220  34.602  28.575  1.00  0.00     0.040 A 
ATOM     75  F   UNL A   1      45.294  33.002  27.130  1.00  0.00    -0.206 F 
ATOM     76  C   UNL A   1      46.667  34.974  29.842  1.00  0.00     0.006 A 
ENDBRANCH  52  69
ENDBRANCH  26  27
ENDBRANCH  18  21
ENDBRANCH  16  17
ENDBRANCH   1  16
TORSDOF 11
ENDMDL
MODEL 2
REMARK VINA RESULT:     -11.0      6.547     11.021
REMARK SMILES COc1cnc(F)c(C(=O)NCCCNC(=O)c2ccc(-c3c4nc(c(-c5c(F)cccc5F)c5ccc([nH]5)c(-c5c(F)cccc5F)c5nc(c(-c6c(F)cccc6F)c6ccc3[nH]6)C=C5)C=C4)cc2)c1
REMARK SMILES IDX 13 1 12 2 11 3 9 4 10 5 8 7 3 8 4 9 72 10 5 11 6 12 7 13
REMARK SMILES IDX 2 14 1 15 14 16 15 17 16 18 17 20 18 21 19 22 71 23 20 24
REMARK SMILES IDX 70 25 21 26 22 27 23 28 64 29 24 30 69 31 63 32 65 33 25 34
REMARK SMILES IDX 68 35 62 36 61 37 26 39 52 40 35 41 51 42 36 43 39 44 50 45
REMARK SMILES IDX 66 46 37 47 38 48 49 50 67 51 40 52 27 53 28 54 33 55 29 56
REMARK SMILES IDX 30 57 32 58 34 59 31 60 53 61 54 62 59 63 55 64 56 65 58 66
REMARK SMILES IDX 60 67 57 68 41 69 42 70 47 71 43 72 44 73 46 74 48 75 45 76
REMARK H PARENT 11 6 15 19 65 38 39 49
REMARK Flexibility Score: inf
ROOT
ATOM      1  C   UNL A   1      31.548  31.372  26.377  1.00  0.00     0.042 C 
ENDROOT
BRANCH   1   2
ATOM      2  C   UNL A   1      31.696  29.858  26.220  1.00  0.00     0.118 C 
BRANCH   2   3
ATOM      3  N   UNL A   1      32.194  29.519  24.898  1.00  0.00    -0.352 N 
ATOM      4  C   UNL A   1      31.575  29.282  23.700  1.00  0.00     0.256 C 
ATOM      5  O   UNL A   1      32.301  29.018  22.739  1.00  0.00    -0.269 OA
ATOM      6  H   UNL A   1      33.175  29.445  24.853  1.00  0.00     0.163 HD
BRANCH   4   7
ATOM      7  C   UNL A   1      30.121  29.386  23.457  1.00  0.00     0.098 A 
ATOM      8  C   UNL A   1      28.234  30.861  23.100  1.00  0.00     0.138 A 
ATOM      9  C   UNL A   1      27.441  29.734  22.959  1.00  0.00     0.160 A 
ATOM     10  C   UNL A   1      29.583  30.681  23.389  1.00  0.00     0.066 A 
ATOM     11  N   UNL A   1      27.924  28.473  22.989  1.00  0.00    -0.224 NA
ATOM     12  C   UNL A   1      29.257  28.333  23.202  1.00  0.00     0.225 A 
ATOM     13  F   UNL A   1      29.718  27.083  23.084  1.00  0.00    -0.184 F 
BRANCH   8  14
ATOM     14  O   UNL A   1      27.647  32.086  22.984  1.00  0.00    -0.495 OA
ATOM     15  C   UNL A   1      28.610  33.134  22.841  1.00  0.00     0.278 C 
ENDBRANCH   8  14
ENDBRANCH   4   7
ENDBRANCH   2   3
ENDBRANCH   1   2
BRANCH   1  16
ATOM     16  C   UNL A   1      32.799  32.058  26.923  1.00  0.00     0.118 C 
BRANCH  16  17
ATOM     17  N   UNL A   1      32.542  33.434  27.325  1.00  0.00    -0.352 N 
ATOM     18  C   UNL A   1      33.112  34.183  28.325  1.00  0.00     0.251 C 
ATOM     19  H   UNL A   1      31.854  33.900  26.796  1.00  0.00     0.163 HD
ATOM     20  O   UNL A   1      32.607  35.252  28.647  1.00  0.00    -0.269 OA
BRANCH  18  21
ATOM     21  C   UNL A   1      34.323  33.703  29.029  1.00  0.00     0.039 A 
ATOM     22  C   UNL A   1      34.181  32.757  30.049  1.00  0.00     0.014 A 
ATOM     23  C   UNL A   1      35.588  34.206  28.714  1.00  0.00     0.014 A 
ATOM     24  C   UNL A   1      35.312  32.259  30.700  1.00  0.00     0.010 A 
ATOM     25  C   UNL A   1      36.720  33.666  29.322  1.00  0.00     0.010 A 
ATOM     26  C   UNL A   1      36.594  32.680  30.313  1.00  0.00    -0.014 A 
BRANCH  26  27
ATOM     27  C   UNL A   1      37.820  32.079  30.898  1.00  0.00     0.031 A 
ATOM     28  C   UNL A   1      38.546  30.980  30.178  1.00  0.00     0.074 A 
ATOM     29  C   UNL A   1      38.221  32.465  32.125  1.00  0.00     0.049 A 
ATOM     30  N   UNL A   1      39.548  30.244  30.588  1.00  0.00    -0.248 NA
ATOM     31  C   UNL A   1      38.068  30.647  28.827  1.00  0.00     0.031 C 
ATOM     32  C   UNL A   1      37.580  33.500  32.938  1.00  0.00     0.029 A 
ATOM     33  N   UNL A   1      39.249  32.011  32.914  1.00  0.00    -0.354 N 
ATOM     34  C   UNL A   1      39.811  29.353  29.556  1.00  0.00     0.074 A 
ATOM     35  C   UNL A   1      38.839  29.613  28.516  1.00  0.00     0.031 C 
ATOM     36  C   UNL A   1      38.233  33.606  34.107  1.00  0.00     0.029 A 
ATOM     37  C   UNL A   1      39.304  32.618  34.146  1.00  0.00     0.049 A 
ATOM     38  H   UNL A   1      39.887  31.319  32.624  1.00  0.00     0.167 HD
ATOM     39  C   UNL A   1      40.784  28.414  29.478  1.00  0.00     0.037 A 
ATOM     40  C   UNL A   1      40.109  32.384  35.199  1.00  0.00     0.037 A 
ATOM     41  C   UNL A   1      41.760  28.172  30.509  1.00  0.00     0.049 A 
ATOM     42  C   UNL A   1      41.153  31.308  35.104  1.00  0.00     0.074 A 
ATOM     43  C   UNL A   1      42.828  27.292  30.493  1.00  0.00     0.029 A 
ATOM     44  N   UNL A   1      41.780  28.805  31.742  1.00  0.00    -0.354 N 
ATOM     45  N   UNL A   1      41.433  30.517  34.097  1.00  0.00    -0.248 NA
ATOM     46  C   UNL A   1      41.988  31.085  36.293  1.00  0.00     0.031 C 
ATOM     47  C   UNL A   1      43.467  27.356  31.736  1.00  0.00     0.029 A 
ATOM     48  C   UNL A   1      42.821  28.309  32.510  1.00  0.00     0.049 A 
ATOM     49  H   UNL A   1      41.149  29.502  32.030  1.00  0.00     0.167 HD
ATOM     50  C   UNL A   1      42.485  29.716  34.522  1.00  0.00     0.074 A 
ATOM     51  C   UNL A   1      42.805  30.129  35.874  1.00  0.00     0.031 C 
ATOM     52  C   UNL A   1      43.125  28.726  33.855  1.00  0.00     0.037 A 
BRANCH  39  53
ATOM     53  C   UNL A   1      40.840  27.572  28.237  1.00  0.00     0.057 A 
ATOM     54  C   UNL A   1      40.133  26.368  28.129  1.00  0.00     0.134 A 
ATOM     55  C   UNL A   1      41.572  27.992  27.120  1.00  0.00     0.134 A 
ATOM     56  F   UNL A   1      39.418  25.904  29.167  1.00  0.00    -0.206 F 
ATOM     57  C   UNL A   1      40.172  25.599  26.965  1.00  0.00     0.040 A 
ATOM     58  C   UNL A   1      41.598  27.246  25.940  1.00  0.00     0.040 A 
ATOM     59  F   UNL A   1      42.265  29.141  27.150  1.00  0.00    -0.206 F 
ATOM     60  C   UNL A   1      40.900  26.042  25.863  1.00  0.00     0.006 A 
ENDBRANCH  39  53
BRANCH  40  61
ATOM     61  C   UNL A   1      39.955  33.182  36.442  1.00  0.00     0.057 A 
ATOM     62  C   UNL A   1      39.064  32.788  37.446  1.00  0.00     0.134 A 
ATOM     63  C   UNL A   1      40.690  34.354  36.655  1.00  0.00     0.134 A 
ATOM     64  F   UNL A   1      38.316  31.685  37.289  1.00  0.00    -0.206 F 
ATOM     65  C   UNL A   1      38.898  33.538  38.611  1.00  0.00     0.040 A 
ATOM     66  C   UNL A   1      40.553  35.101  37.827  1.00  0.00     0.040 A 
ATOM     67  F   UNL A   1      41.564  34.784  35.733  1.00  0.00    -0.206 F 
ATOM     68  C   UNL A   1      39.649  34.694  38.807  1.00  0.00     0.006 A 
ENDBRANCH  40  61
BRANCH  52  69
ATOM     69  C   UNL A   1      44.243  28.025  34.569  1.00  0.00     0.057 A 
ATOM     70  C   UNL A   1      45.551  28.523  34.551  1.00  0.00     0.134 A 
ATOM     71  C   UNL A   1      43.997  26.873  35.326  1.00  0.00     0.134 A 
ATOM     72  F   UNL A   1      45.853  29.614  33.831  1.00  0.00    -0.206 F 
ATOM     73  C   UNL A   1      46.580  27.891  35.252  1.00  0.00     0.040 A 
ATOM     74  C   UNL A   1      45.012  26.247  36.051  1.00  0.00     0.040 A 
ATOM     75  F   UNL A   1      42.763  26.350  35.390  1.00  0.00    -0.206 F 
ATOM     76  C   UNL A   1      46.309  26.756  36.013  1.00  0.00     0.006 A 
ENDBRANCH  52  69
ENDBRANCH  26  27
ENDBRANCH  18  21
ENDBRANCH  16  17
ENDBRANCH   1  16
TORSDOF 11
ENDMDL
MODEL 3
REMARK VINA RESULT:     -11.0      6.217     10.910
REMARK SMILES COc1cnc(F)c(C(=O)NCCCNC(=O)c2ccc(-c3c4nc(c(-c5c(F)cccc5F)c5ccc([nH]5)c(-c5c(F)cccc5F)c5nc(c(-c6c(F)cccc6F)c6ccc3[nH]6)C=C5)C=C4)cc2)c1
REMARK SMILES IDX 13 1 12 2 11 3 9 4 10 5 8 7 3 8 4 9 72 10 5 11 6 12 7 13
REMARK SMILES IDX 2 14 1 15 14 16 15 17 16 18 17 20 18 21 19 22 71 23 20 24
REMARK SMILES IDX 70 25 21 26 22 27 23 28 64 29 24 30 69 31 63 32 65 33 25 34
REMARK SMILES IDX 68 35 62 36 61 37 26 39 52 40 35 41 51 42 36 43 39 44 50 45
REMARK SMILES IDX 66 46 37 47 38 48 49 50 67 51 40 52 27 53 28 54 33 55 29 56
REMARK SMILES IDX 30 57 32 58 34 59 31 60 53 61 54 62 59 63 55 64 56 65 58 66
REMARK SMILES IDX 60 67 57 68 41 69 42 70 47 71 43 72 44 73 46 74 48 75 45 76
REMARK H PARENT 11 6 15 19 65 38 39 49
REMARK Flexibility Score: inf
ROOT
ATOM      1  C   UNL A   1      31.435  32.149  26.569  1.00  0.00     0.042 C 
ENDROOT
BRANCH   1   2
ATOM      2  C   UNL A   1      31.715  30.740  26.045  1.00  0.00     0.118 C 
BRANCH   2   3
ATOM      3  N   UNL A   1      33.026  30.278  26.468  1.00  0.00    -0.352 N 
ATOM      4  C   UNL A   1      33.545  29.034  26.705  1.00  0.00     0.256 C 
ATOM      5  O   UNL A   1      34.726  28.980  27.056  1.00  0.00    -0.269 OA
ATOM      6  H   UNL A   1      33.672  31.007  26.613  1.00  0.00     0.163 HD
BRANCH   4   7
ATOM      7  C   UNL A   1      32.825  27.759  26.507  1.00  0.00     0.098 A 
ATOM      8  C   UNL A   1      32.886  25.533  25.557  1.00  0.00     0.138 A 
ATOM      9  C   UNL A   1      31.629  25.319  26.098  1.00  0.00     0.160 A 
ATOM     10  C   UNL A   1      33.473  26.781  25.735  1.00  0.00     0.066 A 
ATOM     11  N   UNL A   1      30.985  26.222  26.869  1.00  0.00    -0.224 NA
ATOM     12  C   UNL A   1      31.616  27.405  27.083  1.00  0.00     0.225 A 
ATOM     13  F   UNL A   1      31.014  28.212  27.963  1.00  0.00    -0.184 F 
BRANCH   8  14
ATOM     14  O   UNL A   1      33.469  24.522  24.851  1.00  0.00    -0.495 OA
ATOM     15  C   UNL A   1      34.817  24.282  25.266  1.00  0.00     0.278 C 
ENDBRANCH   8  14
ENDBRANCH   4   7
ENDBRANCH   2   3
ENDBRANCH   1   2
BRANCH   1  16
ATOM     16  C   UNL A   1      32.605  32.762  27.336  1.00  0.00     0.118 C 
BRANCH  16  17
ATOM     17  N   UNL A   1      32.379  34.164  27.659  1.00  0.00    -0.352 N 
ATOM     18  C   UNL A   1      32.975  34.959  28.608  1.00  0.00     0.251 C 
ATOM     19  H   UNL A   1      31.693  34.611  27.111  1.00  0.00     0.163 HD
ATOM     20  O   UNL A   1      32.493  36.055  28.872  1.00  0.00    -0.269 OA
BRANCH  18  21
ATOM     21  C   UNL A   1      34.185  34.498  29.325  1.00  0.00     0.039 A 
ATOM     22  C   UNL A   1      34.049  33.986  30.619  1.00  0.00     0.014 A 
ATOM     23  C   UNL A   1      35.451  34.602  28.744  1.00  0.00     0.014 A 
ATOM     24  C   UNL A   1      35.171  33.507  31.300  1.00  0.00     0.010 A 
ATOM     25  C   UNL A   1      36.560  34.070  29.400  1.00  0.00     0.010 A 
ATOM     26  C   UNL A   1      36.429  33.508  30.679  1.00  0.00    -0.014 A 
BRANCH  26  27
ATOM     27  C   UNL A   1      37.616  32.894  31.327  1.00  0.00     0.031 A 
ATOM     28  C   UNL A   1      38.268  31.682  30.726  1.00  0.00     0.074 A 
ATOM     29  C   UNL A   1      38.047  33.378  32.508  1.00  0.00     0.049 A 
ATOM     30  N   UNL A   1      39.222  30.930  31.213  1.00  0.00    -0.248 NA
ATOM     31  C   UNL A   1      37.764  31.243  29.416  1.00  0.00     0.031 C 
ATOM     32  C   UNL A   1      37.477  34.531  33.208  1.00  0.00     0.029 A 
ATOM     33  N   UNL A   1      39.047  32.944  33.342  1.00  0.00    -0.354 N 
ATOM     34  C   UNL A   1      39.424  29.922  30.280  1.00  0.00     0.074 A 
ATOM     35  C   UNL A   1      38.466  30.135  29.216  1.00  0.00     0.031 C 
ATOM     36  C   UNL A   1      38.140  34.716  34.361  1.00  0.00     0.029 A 
ATOM     37  C   UNL A   1      39.146  33.670  34.505  1.00  0.00     0.049 A 
ATOM     38  H   UNL A   1      39.638  32.186  33.127  1.00  0.00     0.167 HD
ATOM     39  C   UNL A   1      40.335  28.920  30.302  1.00  0.00     0.037 A 
ATOM     40  C   UNL A   1      39.939  33.496  35.579  1.00  0.00     0.037 A 
ATOM     41  C   UNL A   1      41.297  28.723  31.354  1.00  0.00     0.049 A 
ATOM     42  C   UNL A   1      40.912  32.351  35.598  1.00  0.00     0.074 A 
ATOM     43  C   UNL A   1      42.307  27.780  31.433  1.00  0.00     0.029 A 
ATOM     44  N   UNL A   1      41.363  29.478  32.516  1.00  0.00    -0.354 N 
ATOM     45  N   UNL A   1      41.136  31.444  34.679  1.00  0.00    -0.248 NA
ATOM     46  C   UNL A   1      41.736  32.200  36.806  1.00  0.00     0.031 C 
ATOM     47  C   UNL A   1      42.953  27.932  32.664  1.00  0.00     0.029 A 
ATOM     48  C   UNL A   1      42.374  28.999  33.333  1.00  0.00     0.049 A 
ATOM     49  H   UNL A   1      40.779  30.241  32.728  1.00  0.00     0.167 HD
ATOM     50  C   UNL A   1      42.136  30.626  35.188  1.00  0.00     0.074 A 
ATOM     51  C   UNL A   1      42.488  31.155  36.490  1.00  0.00     0.031 C 
ATOM     52  C   UNL A   1      42.709  29.533  34.628  1.00  0.00     0.037 A 
BRANCH  39  53
ATOM     53  C   UNL A   1      40.331  27.952  29.155  1.00  0.00     0.057 A 
ATOM     54  C   UNL A   1      39.536  26.798  29.164  1.00  0.00     0.134 A 
ATOM     55  C   UNL A   1      41.097  28.198  28.009  1.00  0.00     0.134 A 
ATOM     56  F   UNL A   1      38.785  26.499  30.236  1.00  0.00    -0.206 F 
ATOM     57  C   UNL A   1      39.521  25.913  28.085  1.00  0.00     0.040 A 
ATOM     58  C   UNL A   1      41.071  27.333  26.912  1.00  0.00     0.040 A 
ATOM     59  F   UNL A   1      41.874  29.289  27.928  1.00  0.00    -0.206 F 
ATOM     60  C   UNL A   1      40.284  26.183  26.952  1.00  0.00     0.006 A 
ENDBRANCH  39  53
BRANCH  40  61
ATOM     61  C   UNL A   1      39.841  34.427  36.731  1.00  0.00     0.057 A 
ATOM     62  C   UNL A   1      39.048  34.118  37.842  1.00  0.00     0.134 A 
ATOM     63  C   UNL A   1      40.534  35.643  36.751  1.00  0.00     0.134 A 
ATOM     64  F   UNL A   1      38.344  32.977  37.872  1.00  0.00    -0.206 F 
ATOM     65  C   UNL A   1      38.936  34.992  38.925  1.00  0.00     0.040 A 
ATOM     66  C   UNL A   1      40.451  36.515  37.838  1.00  0.00     0.040 A 
ATOM     67  F   UNL A   1      41.315  35.996  35.719  1.00  0.00    -0.206 F 
ATOM     68  C   UNL A   1      39.644  36.191  38.927  1.00  0.00     0.006 A 
ENDBRANCH  40  61
BRANCH  52  69
ATOM     69  C   UNL A   1      43.783  28.840  35.414  1.00  0.00     0.057 A 
ATOM     70  C   UNL A   1      43.481  27.834  36.340  1.00  0.00     0.134 A 
ATOM     71  C   UNL A   1      45.133  29.144  35.203  1.00  0.00     0.134 A 
ATOM     72  F   UNL A   1      42.205  27.508  36.598  1.00  0.00    -0.206 F 
ATOM     73  C   UNL A   1      44.485  27.162  37.038  1.00  0.00     0.040 A 
ATOM     74  C   UNL A   1      46.147  28.462  35.878  1.00  0.00     0.040 A 
ATOM     75  F   UNL A   1      45.489  30.093  34.325  1.00  0.00    -0.206 F 
ATOM     76  C   UNL A   1      45.823  27.469  36.800  1.00  0.00     0.006 A 
ENDBRANCH  52  69
ENDBRANCH  26  27
ENDBRANCH  18  21
ENDBRANCH  16  17
ENDBRANCH   1  16
TORSDOF 11
ENDMDL
