MODEL 1
REMARK VINA RESULT:     -11.1      0.000      0.000
REMARK SMILES COc1ccccc1N1C(=O)CC[C@H]1CC(=O)NCCCNC(=O)c1ccc(-c2c3nc(c(-c4c(F)cccc4F)c4ccc([nH]4)c(-c4c(F)cccc4F)c4nc(c(-c5c(F)cccc5F)c5ccc2[nH]5)C=C4)C=C3)cc1
REMARK SMILES IDX 19 1 18 2 16 3 17 4 15 6 14 7 9 8 10 9 11 10 12 11 13 12
REMARK SMILES IDX 8 13 3 14 4 15 5 16 7 17 6 18 2 19 1 20 20 21 21 22 22 23
REMARK SMILES IDX 23 24 24 26 25 27 26 28 78 29 27 30 77 31 28 32 29 33 30 34
REMARK SMILES IDX 71 35 31 36 76 37 70 38 72 39 32 40 75 41 69 42 68 43 33 45
REMARK SMILES IDX 59 46 42 47 58 48 43 49 46 50 57 51 73 52 44 53 45 54 56 56
REMARK SMILES IDX 74 57 47 58 34 59 35 60 40 61 36 62 37 63 39 64 41 65 38 66
REMARK SMILES IDX 60 67 61 68 66 69 62 70 63 71 65 72 67 73 64 74 48 75 49 76
REMARK SMILES IDX 54 77 50 78 51 79 53 80 55 81 52 82
REMARK H PARENT 18 5 22 25 72 44 46 55
REMARK Flexibility Score: inf
ROOT
ATOM      1  C   UNL A   1      37.408  20.802  24.622  1.00  0.00     0.117 C 
ENDROOT
BRANCH   1   2
ATOM      2  N   UNL A   1      37.894  22.046  25.175  1.00  0.00    -0.356 N 
ATOM      3  C   UNL A   1      37.303  23.259  25.272  1.00  0.00     0.222 C 
ATOM      4  O   UNL A   1      37.764  24.028  26.123  1.00  0.00    -0.275 OA
ATOM      5  H   UNL A   1      38.806  22.002  25.544  1.00  0.00     0.163 HD
BRANCH   3   6
ATOM      6  C   UNL A   1      36.104  23.684  24.449  1.00  0.00     0.125 C 
BRANCH   6   7
ATOM      7  C   UNL A   1      34.698  23.869  25.054  1.00  0.00     0.100 C 
ATOM      8  N   UNL A   1      33.617  24.527  24.333  1.00  0.00    -0.305 N 
ATOM      9  C   UNL A   1      32.394  23.855  24.501  1.00  0.00     0.227 C 
ATOM     10  O   UNL A   1      31.317  24.120  24.001  1.00  0.00    -0.275 OA
ATOM     11  C   UNL A   1      32.610  22.683  25.426  1.00  0.00     0.103 C 
ATOM     12  C   UNL A   1      34.115  22.525  25.503  1.00  0.00     0.036 C 
BRANCH   8  13
ATOM     13  C   UNL A   1      33.645  25.931  24.069  1.00  0.00     0.086 A 
ATOM     14  C   UNL A   1      33.641  26.473  22.768  1.00  0.00     0.142 A 
ATOM     15  C   UNL A   1      33.659  27.863  22.570  1.00  0.00     0.048 A 
ATOM     16  C   UNL A   1      33.670  28.733  23.657  1.00  0.00     0.004 A 
ATOM     17  C   UNL A   1      33.704  26.831  25.136  1.00  0.00     0.030 A 
ATOM     18  C   UNL A   1      33.705  28.215  24.942  1.00  0.00     0.002 A 
BRANCH  14  19
ATOM     19  O   UNL A   1      33.708  25.714  21.628  1.00  0.00    -0.495 OA
ATOM     20  C   UNL A   1      32.475  25.679  20.920  1.00  0.00     0.278 C 
ENDBRANCH  14  19
ENDBRANCH   8  13
ENDBRANCH   6   7
ENDBRANCH   3   6
ENDBRANCH   1   2
BRANCH   1  21
ATOM     21  C   UNL A   1      38.321  19.617  24.902  1.00  0.00     0.042 C 
BRANCH  21  22
ATOM     22  C   UNL A   1      39.223  19.759  26.120  1.00  0.00     0.118 C 
BRANCH  22  23
ATOM     23  N   UNL A   1      40.497  19.088  25.929  1.00  0.00    -0.352 N 
ATOM     24  C   UNL A   1      41.775  19.587  25.920  1.00  0.00     0.251 C 
ATOM     25  H   UNL A   1      40.433  18.117  25.782  1.00  0.00     0.163 HD
ATOM     26  O   UNL A   1      42.679  18.888  25.465  1.00  0.00    -0.269 OA
BRANCH  24  27
ATOM     27  C   UNL A   1      42.090  20.940  26.438  1.00  0.00     0.039 A 
ATOM     28  C   UNL A   1      42.016  21.158  27.818  1.00  0.00     0.014 A 
ATOM     29  C   UNL A   1      42.366  22.015  25.589  1.00  0.00     0.014 A 
ATOM     30  C   UNL A   1      42.248  22.433  28.343  1.00  0.00     0.010 A 
ATOM     31  C   UNL A   1      42.677  23.268  26.117  1.00  0.00     0.010 A 
ATOM     32  C   UNL A   1      42.602  23.497  27.499  1.00  0.00    -0.014 A 
BRANCH  32  33
ATOM     33  C   UNL A   1      42.867  24.854  28.046  1.00  0.00     0.031 A 
ATOM     34  C   UNL A   1      44.258  25.248  28.469  1.00  0.00     0.074 A 
ATOM     35  C   UNL A   1      41.850  25.724  28.200  1.00  0.00     0.049 A 
ATOM     36  N   UNL A   1      44.677  26.367  29.004  1.00  0.00    -0.248 NA
ATOM     37  C   UNL A   1      45.317  24.242  28.285  1.00  0.00     0.031 C 
ATOM     38  C   UNL A   1      40.450  25.454  27.868  1.00  0.00     0.029 A 
ATOM     39  N   UNL A   1      41.835  27.008  28.683  1.00  0.00    -0.354 N 
ATOM     40  C   UNL A   1      46.036  26.194  29.235  1.00  0.00     0.074 A 
ATOM     41  C   UNL A   1      46.363  24.845  28.828  1.00  0.00     0.031 C 
ATOM     42  C   UNL A   1      39.716  26.545  28.137  1.00  0.00     0.029 A 
ATOM     43  C   UNL A   1      40.583  27.576  28.697  1.00  0.00     0.049 A 
ATOM     44  H   UNL A   1      42.643  27.478  28.991  1.00  0.00     0.167 HD
ATOM     45  C   UNL A   1      46.935  27.084  29.721  1.00  0.00     0.037 A 
ATOM     46  C   UNL A   1      40.178  28.787  29.124  1.00  0.00     0.037 A 
ATOM     47  C   UNL A   1      46.611  28.434  30.107  1.00  0.00     0.049 A 
ATOM     48  C   UNL A   1      41.193  29.753  29.671  1.00  0.00     0.074 A 
ATOM     49  C   UNL A   1      47.461  29.428  30.558  1.00  0.00     0.029 A 
ATOM     50  N   UNL A   1      45.334  28.973  30.097  1.00  0.00    -0.354 N 
ATOM     51  N   UNL A   1      42.486  29.600  29.818  1.00  0.00    -0.248 NA
ATOM     52  C   UNL A   1      40.691  31.064  30.108  1.00  0.00     0.031 C 
ATOM     53  C   UNL A   1      46.691  30.554  30.868  1.00  0.00     0.029 A 
ATOM     54  C   UNL A   1      45.369  30.280  30.556  1.00  0.00     0.049 A 
ATOM     55  H   UNL A   1      44.522  28.498  29.807  1.00  0.00     0.167 HD
ATOM     56  C   UNL A   1      42.957  30.801  30.332  1.00  0.00     0.074 A 
ATOM     57  C   UNL A   1      41.812  31.679  30.458  1.00  0.00     0.031 C 
ATOM     58  C   UNL A   1      44.224  31.146  30.668  1.00  0.00     0.037 A 
BRANCH  45  59
ATOM     59  C   UNL A   1      48.359  26.626  29.864  1.00  0.00     0.057 A 
ATOM     60  C   UNL A   1      48.807  25.944  31.005  1.00  0.00     0.134 A 
ATOM     61  C   UNL A   1      49.285  26.833  28.834  1.00  0.00     0.134 A 
ATOM     62  F   UNL A   1      47.975  25.720  32.033  1.00  0.00    -0.206 F 
ATOM     63  C   UNL A   1      50.129  25.511  31.126  1.00  0.00     0.040 A 
ATOM     64  C   UNL A   1      50.601  26.379  28.931  1.00  0.00     0.040 A 
ATOM     65  F   UNL A   1      48.923  27.469  27.710  1.00  0.00    -0.206 F 
ATOM     66  C   UNL A   1      51.029  25.722  30.083  1.00  0.00     0.006 A 
ENDBRANCH  45  59
BRANCH  46  67
ATOM     67  C   UNL A   1      38.743  29.166  29.033  1.00  0.00     0.057 A 
ATOM     68  C   UNL A   1      37.899  29.076  30.146  1.00  0.00     0.134 A 
ATOM     69  C   UNL A   1      38.181  29.616  27.833  1.00  0.00     0.134 A 
ATOM     70  F   UNL A   1      38.374  28.633  31.320  1.00  0.00    -0.206 F 
ATOM     71  C   UNL A   1      36.544  29.398  30.065  1.00  0.00     0.040 A 
ATOM     72  C   UNL A   1      36.834  29.969  27.744  1.00  0.00     0.040 A 
ATOM     73  F   UNL A   1      38.937  29.732  26.732  1.00  0.00    -0.206 F 
ATOM     74  C   UNL A   1      36.009  29.852  28.861  1.00  0.00     0.006 A 
ENDBRANCH  46  67
BRANCH  58  75
ATOM     75  C   UNL A   1      44.448  32.546  31.163  1.00  0.00     0.057 A 
ATOM     76  C   UNL A   1      44.416  32.867  32.526  1.00  0.00     0.134 A 
ATOM     77  C   UNL A   1      44.734  33.581  30.262  1.00  0.00     0.134 A 
ATOM     78  F   UNL A   1      44.134  31.927  33.440  1.00  0.00    -0.206 F 
ATOM     79  C   UNL A   1      44.637  34.172  32.974  1.00  0.00     0.040 A 
ATOM     80  C   UNL A   1      44.987  34.881  30.700  1.00  0.00     0.040 A 
ATOM     81  F   UNL A   1      44.790  33.342  28.944  1.00  0.00    -0.206 F 
ATOM     82  C   UNL A   1      44.931  35.181  32.060  1.00  0.00     0.006 A 
ENDBRANCH  58  75
ENDBRANCH  32  33
ENDBRANCH  24  27
ENDBRANCH  22  23
ENDBRANCH  21  22
ENDBRANCH   1  21
TORSDOF 13
ENDMDL
MODEL 2
REMARK VINA RESULT:     -11.0      1.100      6.526
REMARK SMILES COc1ccccc1N1C(=O)CC[C@H]1CC(=O)NCCCNC(=O)c1ccc(-c2c3nc(c(-c4c(F)cccc4F)c4ccc([nH]4)c(-c4c(F)cccc4F)c4nc(c(-c5c(F)cccc5F)c5ccc2[nH]5)C=C4)C=C3)cc1
REMARK SMILES IDX 19 1 18 2 16 3 17 4 15 6 14 7 9 8 10 9 11 10 12 11 13 12
REMARK SMILES IDX 8 13 3 14 4 15 5 16 7 17 6 18 2 19 1 20 20 21 21 22 22 23
REMARK SMILES IDX 23 24 24 26 25 27 26 28 78 29 27 30 77 31 28 32 29 33 30 34
REMARK SMILES IDX 71 35 31 36 76 37 70 38 72 39 32 40 75 41 69 42 68 43 33 45
REMARK SMILES IDX 59 46 42 47 58 48 43 49 46 50 57 51 73 52 44 53 45 54 56 56
REMARK SMILES IDX 74 57 47 58 34 59 35 60 40 61 36 62 37 63 39 64 41 65 38 66
REMARK SMILES IDX 60 67 61 68 66 69 62 70 63 71 65 72 67 73 64 74 48 75 49 76
REMARK SMILES IDX 54 77 50 78 51 79 53 80 55 81 52 82
REMARK H PARENT 18 5 22 25 72 44 46 55
REMARK Flexibility Score: inf
ROOT
ATOM      1  C   UNL A   1      36.016  20.513  24.847  1.00  0.00     0.117 C 
ENDROOT
BRANCH   1   2
ATOM      2  N   UNL A   1      35.594  21.090  26.103  1.00  0.00    -0.356 N 
ATOM      3  C   UNL A   1      35.024  22.287  26.377  1.00  0.00     0.222 C 
ATOM      4  O   UNL A   1      34.411  22.371  27.447  1.00  0.00    -0.275 OA
ATOM      5  H   UNL A   1      35.745  20.517  26.889  1.00  0.00     0.163 HD
BRANCH   3   6
ATOM      6  C   UNL A   1      35.056  23.474  25.437  1.00  0.00     0.125 C 
BRANCH   6   7
ATOM      7  C   UNL A   1      33.870  23.850  24.525  1.00  0.00     0.100 C 
ATOM      8  N   UNL A   1      33.554  25.230  24.182  1.00  0.00    -0.305 N 
ATOM      9  C   UNL A   1      33.207  25.363  22.827  1.00  0.00     0.227 C 
ATOM     10  O   UNL A   1      32.934  26.381  22.218  1.00  0.00    -0.275 OA
ATOM     11  C   UNL A   1      33.234  23.998  22.185  1.00  0.00     0.103 C 
ATOM     12  C   UNL A   1      33.958  23.118  23.183  1.00  0.00     0.036 C 
BRANCH   8  13
ATOM     13  C   UNL A   1      33.044  26.142  25.157  1.00  0.00     0.086 A 
ATOM     14  C   UNL A   1      31.707  26.131  25.601  1.00  0.00     0.142 A 
ATOM     15  C   UNL A   1      31.265  27.047  26.570  1.00  0.00     0.048 A 
ATOM     16  C   UNL A   1      32.145  27.977  27.118  1.00  0.00     0.004 A 
ATOM     17  C   UNL A   1      33.888  27.119  25.692  1.00  0.00     0.030 A 
ATOM     18  C   UNL A   1      33.455  28.020  26.668  1.00  0.00     0.002 A 
BRANCH  14  19
ATOM     19  O   UNL A   1      30.739  25.313  25.078  1.00  0.00    -0.495 OA
ATOM     20  C   UNL A   1      29.841  26.005  24.220  1.00  0.00     0.278 C 
ENDBRANCH  14  19
ENDBRANCH   8  13
ENDBRANCH   6   7
ENDBRANCH   3   6
ENDBRANCH   1   2
BRANCH   1  21
ATOM     21  C   UNL A   1      37.251  19.631  24.970  1.00  0.00     0.042 C 
BRANCH  21  22
ATOM     22  C   UNL A   1      38.517  20.338  25.432  1.00  0.00     0.118 C 
BRANCH  22  23
ATOM     23  N   UNL A   1      39.600  19.401  25.676  1.00  0.00    -0.352 N 
ATOM     24  C   UNL A   1      40.905  19.621  26.038  1.00  0.00     0.251 C 
ATOM     25  H   UNL A   1      39.357  18.454  25.563  1.00  0.00     0.163 HD
ATOM     26  O   UNL A   1      41.714  18.703  25.919  1.00  0.00    -0.269 OA
BRANCH  24  27
ATOM     27  C   UNL A   1      41.360  20.931  26.564  1.00  0.00     0.039 A 
ATOM     28  C   UNL A   1      41.188  21.198  27.926  1.00  0.00     0.014 A 
ATOM     29  C   UNL A   1      41.866  21.930  25.728  1.00  0.00     0.014 A 
ATOM     30  C   UNL A   1      41.550  22.442  28.451  1.00  0.00     0.010 A 
ATOM     31  C   UNL A   1      42.303  23.142  26.265  1.00  0.00     0.010 A 
ATOM     32  C   UNL A   1      42.132  23.420  27.629  1.00  0.00    -0.014 A 
BRANCH  32  33
ATOM     33  C   UNL A   1      42.536  24.742  28.178  1.00  0.00     0.031 A 
ATOM     34  C   UNL A   1      41.513  25.829  28.379  1.00  0.00     0.074 A 
ATOM     35  C   UNL A   1      43.832  24.981  28.460  1.00  0.00     0.049 A 
ATOM     36  N   UNL A   1      41.680  27.056  28.806  1.00  0.00    -0.248 NA
ATOM     37  C   UNL A   1      40.120  25.501  28.035  1.00  0.00     0.031 C 
ATOM     38  C   UNL A   1      44.927  24.028  28.273  1.00  0.00     0.029 A 
ATOM     39  N   UNL A   1      44.448  26.102  28.957  1.00  0.00    -0.354 N 
ATOM     40  C   UNL A   1      40.423  27.647  28.767  1.00  0.00     0.074 A 
ATOM     41  C   UNL A   1      39.512  26.662  28.227  1.00  0.00     0.031 C 
ATOM     42  C   UNL A   1      46.077  24.596  28.669  1.00  0.00     0.029 A 
ATOM     43  C   UNL A   1      45.808  25.965  29.099  1.00  0.00     0.049 A 
ATOM     44  H   UNL A   1      43.963  26.926  29.188  1.00  0.00     0.167 HD
ATOM     45  C   UNL A   1      40.056  28.890  29.163  1.00  0.00     0.037 A 
ATOM     46  C   UNL A   1      46.736  26.845  29.519  1.00  0.00     0.037 A 
ATOM     47  C   UNL A   1      40.962  29.863  29.718  1.00  0.00     0.049 A 
ATOM     48  C   UNL A   1      46.305  28.223  29.942  1.00  0.00     0.074 A 
ATOM     49  C   UNL A   1      40.677  31.128  30.201  1.00  0.00     0.029 A 
ATOM     50  N   UNL A   1      42.330  29.681  29.855  1.00  0.00    -0.354 N 
ATOM     51  N   UNL A   1      45.103  28.745  29.965  1.00  0.00    -0.248 NA
ATOM     52  C   UNL A   1      47.363  29.135  30.403  1.00  0.00     0.031 C 
ATOM     53  C   UNL A   1      41.880  31.731  30.584  1.00  0.00     0.029 A 
ATOM     54  C   UNL A   1      42.907  30.821  30.394  1.00  0.00     0.049 A 
ATOM     55  H   UNL A   1      42.819  28.864  29.606  1.00  0.00     0.167 HD
ATOM     56  C   UNL A   1      45.254  30.029  30.471  1.00  0.00     0.074 A 
ATOM     57  C   UNL A   1      46.663  30.203  30.756  1.00  0.00     0.031 C 
ATOM     58  C   UNL A   1      44.309  30.978  30.681  1.00  0.00     0.037 A 
BRANCH  45  59
ATOM     59  C   UNL A   1      38.611  29.271  29.010  1.00  0.00     0.057 A 
ATOM     60  C   UNL A   1      38.075  29.659  27.774  1.00  0.00     0.134 A 
ATOM     61  C   UNL A   1      37.735  29.210  30.100  1.00  0.00     0.134 A 
ATOM     62  F   UNL A   1      38.859  29.747  26.689  1.00  0.00    -0.206 F 
ATOM     63  C   UNL A   1      36.727  30.000  27.636  1.00  0.00     0.040 A 
ATOM     64  C   UNL A   1      36.380  29.519  29.969  1.00  0.00     0.040 A 
ATOM     65  F   UNL A   1      38.178  28.836  31.311  1.00  0.00    -0.206 F 
ATOM     66  C   UNL A   1      35.874  29.923  28.735  1.00  0.00     0.006 A 
ENDBRANCH  45  59
BRANCH  46  67
ATOM     67  C   UNL A   1      48.167  26.446  29.579  1.00  0.00     0.057 A 
ATOM     68  C   UNL A   1      49.032  26.693  28.508  1.00  0.00     0.134 A 
ATOM     69  C   UNL A   1      48.699  25.802  30.703  1.00  0.00     0.134 A 
ATOM     70  F   UNL A   1      48.578  27.289  27.396  1.00  0.00    -0.206 F 
ATOM     71  C   UNL A   1      50.370  26.294  28.540  1.00  0.00     0.040 A 
ATOM     72  C   UNL A   1      50.040  25.423  30.761  1.00  0.00     0.040 A 
ATOM     73  F   UNL A   1      47.923  25.544  31.766  1.00  0.00    -0.206 F 
ATOM     74  C   UNL A   1      50.878  25.661  29.673  1.00  0.00     0.006 A 
ENDBRANCH  46  67
BRANCH  58  75
ATOM     75  C   UNL A   1      44.760  32.276  31.288  1.00  0.00     0.057 A 
ATOM     76  C   UNL A   1      44.821  32.467  32.674  1.00  0.00     0.134 A 
ATOM     77  C   UNL A   1      45.172  33.338  30.471  1.00  0.00     0.134 A 
ATOM     78  F   UNL A   1      44.429  31.496  33.513  1.00  0.00    -0.206 F 
ATOM     79  C   UNL A   1      45.253  33.675  33.226  1.00  0.00     0.040 A 
ATOM     80  C   UNL A   1      45.633  34.538  31.011  1.00  0.00     0.040 A 
ATOM     81  F   UNL A   1      45.148  33.220  29.136  1.00  0.00    -0.206 F 
ATOM     82  C   UNL A   1      45.667  34.712  32.393  1.00  0.00     0.006 A 
ENDBRANCH  58  75
ENDBRANCH  32  33
ENDBRANCH  24  27
ENDBRANCH  22  23
ENDBRANCH  21  22
ENDBRANCH   1  21
TORSDOF 13
ENDMDL
MODEL 3
REMARK VINA RESULT:     -11.0      0.398      1.486
REMARK SMILES COc1ccccc1N1C(=O)CC[C@H]1CC(=O)NCCCNC(=O)c1ccc(-c2c3nc(c(-c4c(F)cccc4F)c4ccc([nH]4)c(-c4c(F)cccc4F)c4nc(c(-c5c(F)cccc5F)c5ccc2[nH]5)C=C4)C=C3)cc1
REMARK SMILES IDX 19 1 18 2 16 3 17 4 15 6 14 7 9 8 10 9 11 10 12 11 13 12
REMARK SMILES IDX 8 13 3 14 4 15 5 16 7 17 6 18 2 19 1 20 20 21 21 22 22 23
REMARK SMILES IDX 23 24 24 26 25 27 26 28 78 29 27 30 77 31 28 32 29 33 30 34
REMARK SMILES IDX 71 35 31 36 76 37 70 38 72 39 32 40 75 41 69 42 68 43 33 45
REMARK SMILES IDX 59 46 42 47 58 48 43 49 46 50 57 51 73 52 44 53 45 54 56 56
REMARK SMILES IDX 74 57 47 58 34 59 35 60 40 61 36 62 37 63 39 64 41 65 38 66
REMARK SMILES IDX 60 67 61 68 66 69 62 70 63 71 65 72 67 73 64 74 48 75 49 76
REMARK SMILES IDX 54 77 50 78 51 79 53 80 55 81 52 82
REMARK H PARENT 18 5 22 25 72 44 46 55
REMARK Flexibility Score: inf
ROOT
ATOM      1  C   UNL A   1      37.451  20.785  24.812  1.00  0.00     0.117 C 
ENDROOT
BRANCH   1   2
ATOM      2  N   UNL A   1      38.022  22.064  25.170  1.00  0.00    -0.356 N 
ATOM      3  C   UNL A   1      37.440  23.275  25.331  1.00  0.00     0.222 C 
ATOM      4  O   UNL A   1      38.065  24.098  26.010  1.00  0.00    -0.275 OA
ATOM      5  H   UNL A   1      38.995  22.051  25.322  1.00  0.00     0.163 HD
BRANCH   3   6
ATOM      6  C   UNL A   1      36.076  23.639  24.782  1.00  0.00     0.125 C 
BRANCH   6   7
ATOM      7  C   UNL A   1      34.894  24.046  25.685  1.00  0.00     0.100 C 
ATOM      8  N   UNL A   1      33.683  24.660  25.157  1.00  0.00    -0.305 N 
ATOM      9  C   UNL A   1      32.527  24.134  25.760  1.00  0.00     0.227 C 
ATOM     10  O   UNL A   1      31.365  24.400  25.515  1.00  0.00    -0.275 OA
ATOM     11  C   UNL A   1      32.943  23.127  26.803  1.00  0.00     0.103 C 
ATOM     12  C   UNL A   1      34.405  22.856  26.516  1.00  0.00     0.036 C 
BRANCH   8  13
ATOM     13  C   UNL A   1      33.689  25.989  24.632  1.00  0.00     0.086 A 
ATOM     14  C   UNL A   1      33.660  26.276  23.252  1.00  0.00     0.142 A 
ATOM     15  C   UNL A   1      33.658  27.604  22.796  1.00  0.00     0.048 A 
ATOM     16  C   UNL A   1      33.673  28.663  23.699  1.00  0.00     0.004 A 
ATOM     17  C   UNL A   1      33.752  27.074  25.509  1.00  0.00     0.030 A 
ATOM     18  C   UNL A   1      33.733  28.397  25.058  1.00  0.00     0.002 A 
BRANCH  14  19
ATOM     19  O   UNL A   1      33.720  25.316  22.275  1.00  0.00    -0.495 OA
ATOM     20  C   UNL A   1      32.699  25.466  21.296  1.00  0.00     0.278 C 
ENDBRANCH  14  19
ENDBRANCH   8  13
ENDBRANCH   6   7
ENDBRANCH   3   6
ENDBRANCH   1   2
BRANCH   1  21
ATOM     21  C   UNL A   1      38.453  19.640  24.857  1.00  0.00     0.042 C 
BRANCH  21  22
ATOM     22  C   UNL A   1      39.328  19.585  26.102  1.00  0.00     0.118 C 
BRANCH  22  23
ATOM     23  N   UNL A   1      40.647  19.053  25.811  1.00  0.00    -0.352 N 
ATOM     24  C   UNL A   1      41.873  19.669  25.790  1.00  0.00     0.251 C 
ATOM     25  H   UNL A   1      40.665  18.093  25.594  1.00  0.00     0.163 HD
ATOM     26  O   UNL A   1      42.815  19.092  25.249  1.00  0.00    -0.269 OA
BRANCH  24  27
ATOM     27  C   UNL A   1      42.087  21.005  26.398  1.00  0.00     0.039 A 
ATOM     28  C   UNL A   1      42.428  22.071  25.559  1.00  0.00     0.014 A 
ATOM     29  C   UNL A   1      42.047  21.205  27.780  1.00  0.00     0.014 A 
ATOM     30  C   UNL A   1      42.695  23.333  26.098  1.00  0.00     0.010 A 
ATOM     31  C   UNL A   1      42.234  22.482  28.311  1.00  0.00     0.010 A 
ATOM     32  C   UNL A   1      42.579  23.557  27.479  1.00  0.00    -0.014 A 
BRANCH  32  33
ATOM     33  C   UNL A   1      42.844  24.898  28.064  1.00  0.00     0.031 A 
ATOM     34  C   UNL A   1      44.233  25.274  28.511  1.00  0.00     0.074 A 
ATOM     35  C   UNL A   1      41.829  25.768  28.230  1.00  0.00     0.049 A 
ATOM     36  N   UNL A   1      44.651  26.378  29.079  1.00  0.00    -0.248 NA
ATOM     37  C   UNL A   1      45.289  24.268  28.313  1.00  0.00     0.031 C 
ATOM     38  C   UNL A   1      40.432  25.513  27.877  1.00  0.00     0.029 A 
ATOM     39  N   UNL A   1      41.815  27.040  28.746  1.00  0.00    -0.354 N 
ATOM     40  C   UNL A   1      46.007  26.192  29.319  1.00  0.00     0.074 A 
ATOM     41  C   UNL A   1      46.332  24.853  28.881  1.00  0.00     0.031 C 
ATOM     42  C   UNL A   1      39.699  26.600  28.167  1.00  0.00     0.029 A 
ATOM     43  C   UNL A   1      40.566  27.613  28.762  1.00  0.00     0.049 A 
ATOM     44  H   UNL A   1      42.621  27.498  29.075  1.00  0.00     0.167 HD
ATOM     45  C   UNL A   1      46.905  27.065  29.837  1.00  0.00     0.037 A 
ATOM     46  C   UNL A   1      40.161  28.814  29.216  1.00  0.00     0.037 A 
ATOM     47  C   UNL A   1      46.582  28.406  30.255  1.00  0.00     0.049 A 
ATOM     48  C   UNL A   1      41.175  29.761  29.798  1.00  0.00     0.074 A 
ATOM     49  C   UNL A   1      47.432  29.385  30.740  1.00  0.00     0.029 A 
ATOM     50  N   UNL A   1      45.307  28.951  30.246  1.00  0.00    -0.354 N 
ATOM     51  N   UNL A   1      42.466  29.598  29.954  1.00  0.00    -0.248 NA
ATOM     52  C   UNL A   1      40.674  31.063  30.264  1.00  0.00     0.031 C 
ATOM     53  C   UNL A   1      46.664  30.505  31.071  1.00  0.00     0.029 A 
ATOM     54  C   UNL A   1      45.344  30.246  30.739  1.00  0.00     0.049 A 
ATOM     55  H   UNL A   1      44.497  28.487  29.935  1.00  0.00     0.167 HD
ATOM     56  C   UNL A   1      42.936  30.784  30.504  1.00  0.00     0.074 A 
ATOM     57  C   UNL A   1      41.794  31.663  30.641  1.00  0.00     0.031 C 
ATOM     58  C   UNL A   1      44.201  31.114  30.862  1.00  0.00     0.037 A 
BRANCH  45  59
ATOM     59  C   UNL A   1      48.325  26.597  29.983  1.00  0.00     0.057 A 
ATOM     60  C   UNL A   1      49.297  26.864  29.009  1.00  0.00     0.134 A 
ATOM     61  C   UNL A   1      48.737  25.907  31.130  1.00  0.00     0.134 A 
ATOM     62  F   UNL A   1      48.970  27.514  27.882  1.00  0.00    -0.206 F 
ATOM     63  C   UNL A   1      50.618  26.436  29.158  1.00  0.00     0.040 A 
ATOM     64  C   UNL A   1      50.060  25.500  31.304  1.00  0.00     0.040 A 
ATOM     65  F   UNL A   1      47.862  25.627  32.108  1.00  0.00    -0.206 F 
ATOM     66  C   UNL A   1      51.005  25.758  30.312  1.00  0.00     0.006 A 
ENDBRANCH  45  59
BRANCH  46  67
ATOM     67  C   UNL A   1      38.729  29.202  29.121  1.00  0.00     0.057 A 
ATOM     68  C   UNL A   1      38.179  29.652  27.915  1.00  0.00     0.134 A 
ATOM     69  C   UNL A   1      37.880  29.140  30.232  1.00  0.00     0.134 A 
ATOM     70  F   UNL A   1      38.946  29.751  26.819  1.00  0.00    -0.206 F 
ATOM     71  C   UNL A   1      36.844  30.048  27.822  1.00  0.00     0.040 A 
ATOM     72  C   UNL A   1      36.537  29.506  30.148  1.00  0.00     0.040 A 
ATOM     73  F   UNL A   1      38.344  28.710  31.415  1.00  0.00    -0.206 F 
ATOM     74  C   UNL A   1      36.017  29.970  28.941  1.00  0.00     0.006 A 
ENDBRANCH  46  67
BRANCH  58  75
ATOM     75  C   UNL A   1      44.426  32.500  31.395  1.00  0.00     0.057 A 
ATOM     76  C   UNL A   1      44.383  32.785  32.766  1.00  0.00     0.134 A 
ATOM     77  C   UNL A   1      44.725  33.556  30.524  1.00  0.00     0.134 A 
ATOM     78  F   UNL A   1      44.090  31.822  33.653  1.00  0.00    -0.206 F 
ATOM     79  C   UNL A   1      44.606  34.077  33.249  1.00  0.00     0.040 A 
ATOM     80  C   UNL A   1      44.979  34.844  30.998  1.00  0.00     0.040 A 
ATOM     81  F   UNL A   1      44.792  33.351  29.200  1.00  0.00    -0.206 F 
ATOM     82  C   UNL A   1      44.911  35.109  32.364  1.00  0.00     0.006 A 
ENDBRANCH  58  75
ENDBRANCH  32  33
ENDBRANCH  24  27
ENDBRANCH  22  23
ENDBRANCH  21  22
ENDBRANCH   1  21
TORSDOF 13
ENDMDL
