MODEL 1
REMARK VINA RESULT:      -9.4      0.000      0.000
REMARK SMILES CC[C@@H]([NH3+])C(=O)NCCOCC(=O)NCCCNC(=O)c1ccc(-c2c3nc(c(-c4c(F)cccc4F)c4ccc([nH]4)c(-c4c(F)cccc4F)c4nc(c(-c5c(F)cccc5F)c5ccc2[nH]5)C=C4)C=C3)cc1
REMARK SMILES IDX 12 1 13 2 14 3 11 5 10 6 9 7 8 8 7 9 5 10 6 11 3 13 2 14
REMARK SMILES IDX 1 15 4 16 15 20 16 21 17 22 18 23 19 24 20 26 21 27 22 28
REMARK SMILES IDX 74 29 23 30 73 31 24 32 25 33 26 34 67 35 27 36 72 37 66 38
REMARK SMILES IDX 68 39 28 40 71 41 65 42 64 43 29 45 55 46 38 47 54 48 39 49
REMARK SMILES IDX 42 50 53 51 69 52 40 53 41 54 52 56 70 57 43 58 30 59 31 60
REMARK SMILES IDX 36 61 32 62 33 63 35 64 37 65 34 66 56 67 57 68 62 69 58 70
REMARK SMILES IDX 59 71 61 72 63 73 60 74 44 75 45 76 50 77 46 78 47 79 49 80
REMARK SMILES IDX 51 81 48 82
REMARK H PARENT 14 4 7 12 4 17 4 18 4 19 18 25 68 44 42 55
REMARK Flexibility Score: inf
ROOT
ATOM      1  C   UNL A   1      42.778  18.460  26.287  1.00  0.00     0.245 C 
ATOM      2  O   UNL A   1      42.576  17.250  26.191  1.00  0.00    -0.272 OA
ATOM      3  N   UNL A   1      42.281  19.126  27.368  1.00  0.00    -0.354 N 
ATOM      4  H   UNL A   1      41.825  18.572  28.042  1.00  0.00     0.163 HD
ENDROOT
BRANCH   1   5
ATOM      5  C   UNL A   1      43.555  19.241  25.222  1.00  0.00     0.260 C 
BRANCH   5   6
ATOM      6  O   UNL A   1      44.428  18.488  24.395  1.00  0.00    -0.370 OA
BRANCH   6   7
ATOM      7  C   UNL A   1      45.654  19.147  24.050  1.00  0.00     0.182 C 
BRANCH   7   8
ATOM      8  C   UNL A   1      46.083  20.236  25.047  1.00  0.00     0.144 C 
BRANCH   8   9
ATOM      9  N   UNL A   1      46.386  21.511  24.410  1.00  0.00    -0.349 N 
ATOM     10  C   UNL A   1      45.808  22.736  24.536  1.00  0.00     0.278 C 
ATOM     11  O   UNL A   1      46.291  23.663  23.877  1.00  0.00    -0.268 OA
ATOM     12  H   UNL A   1      47.141  21.480  23.778  1.00  0.00     0.163 HD
BRANCH  10  13
ATOM     13  C   UNL A   1      44.653  23.004  25.520  1.00  0.00     0.270 C 
BRANCH  13  14
ATOM     14  C   UNL A   1      45.104  23.095  26.982  1.00  0.00     0.072 C 
ATOM     15  C   UNL A   1      44.981  24.500  27.560  1.00  0.00     0.011 C 
ENDBRANCH  13  14
BRANCH  13  16
ATOM     16  N   UNL A   1      43.889  24.188  25.073  1.00  0.00    -0.347 N 
ATOM     17  H   UNL A   1      44.473  25.021  25.153  1.00  0.00     0.345 HD
ATOM     18  H   UNL A   1      43.058  24.298  25.655  1.00  0.00     0.345 HD
ATOM     19  H   UNL A   1      43.608  24.064  24.100  1.00  0.00     0.345 HD
ENDBRANCH  13  16
ENDBRANCH  10  13
ENDBRANCH   8   9
ENDBRANCH   7   8
ENDBRANCH   6   7
ENDBRANCH   5   6
ENDBRANCH   1   5
BRANCH   3  20
ATOM     20  C   UNL A   1      42.340  20.547  27.652  1.00  0.00     0.117 C 
BRANCH  20  21
ATOM     21  C   UNL A   1      41.001  21.233  27.415  1.00  0.00     0.042 C 
BRANCH  21  22
ATOM     22  C   UNL A   1      40.965  22.103  26.162  1.00  0.00     0.118 C 
BRANCH  22  23
ATOM     23  N   UNL A   1      39.609  22.416  25.727  1.00  0.00    -0.352 N 
ATOM     24  C   UNL A   1      38.798  23.475  26.058  1.00  0.00     0.251 C 
ATOM     25  H   UNL A   1      39.213  21.768  25.100  1.00  0.00     0.163 HD
ATOM     26  O   UNL A   1      37.619  23.478  25.728  1.00  0.00    -0.269 OA
BRANCH  24  27
ATOM     27  C   UNL A   1      39.350  24.606  26.832  1.00  0.00     0.039 A 
ATOM     28  C   UNL A   1      40.133  25.560  26.177  1.00  0.00     0.014 A 
ATOM     29  C   UNL A   1      39.084  24.725  28.196  1.00  0.00     0.014 A 
ATOM     30  C   UNL A   1      40.576  26.685  26.876  1.00  0.00     0.010 A 
ATOM     31  C   UNL A   1      39.461  25.881  28.870  1.00  0.00     0.010 A 
ATOM     32  C   UNL A   1      40.203  26.876  28.216  1.00  0.00    -0.014 A 
BRANCH  32  33
ATOM     33  C   UNL A   1      40.562  28.104  28.967  1.00  0.00     0.031 A 
ATOM     34  C   UNL A   1      41.886  28.184  29.673  1.00  0.00     0.074 A 
ATOM     35  C   UNL A   1      39.655  29.090  29.112  1.00  0.00     0.049 A 
ATOM     36  N   UNL A   1      42.313  29.071  30.534  1.00  0.00    -0.248 NA
ATOM     37  C   UNL A   1      42.843  27.101  29.397  1.00  0.00     0.031 C 
ATOM     38  C   UNL A   1      38.324  29.117  28.502  1.00  0.00     0.029 A 
ATOM     39  N   UNL A   1      39.708  30.250  29.845  1.00  0.00    -0.354 N 
ATOM     40  C   UNL A   1      43.574  28.638  30.923  1.00  0.00     0.074 A 
ATOM     41  C   UNL A   1      43.825  27.390  30.237  1.00  0.00     0.031 C 
ATOM     42  C   UNL A   1      37.690  30.239  28.879  1.00  0.00     0.029 A 
ATOM     43  C   UNL A   1      38.547  30.984  29.795  1.00  0.00     0.049 A 
ATOM     44  H   UNL A   1      40.501  30.529  30.356  1.00  0.00     0.167 HD
ATOM     45  C   UNL A   1      44.449  29.238  31.766  1.00  0.00     0.037 A 
ATOM     46  C   UNL A   1      38.204  32.118  30.437  1.00  0.00     0.037 A 
ATOM     47  C   UNL A   1      44.206  30.496  32.420  1.00  0.00     0.049 A 
ATOM     48  C   UNL A   1      39.187  32.756  31.380  1.00  0.00     0.074 A 
ATOM     49  C   UNL A   1      45.051  31.213  33.248  1.00  0.00     0.029 A 
ATOM     50  N   UNL A   1      43.030  31.223  32.319  1.00  0.00    -0.354 N 
ATOM     51  N   UNL A   1      40.393  32.361  31.706  1.00  0.00    -0.248 NA
ATOM     52  C   UNL A   1      38.760  33.995  32.045  1.00  0.00     0.031 C 
ATOM     53  C   UNL A   1      44.372  32.357  33.678  1.00  0.00     0.029 A 
ATOM     54  C   UNL A   1      43.121  32.374  33.082  1.00  0.00     0.049 A 
ATOM     55  H   UNL A   1      42.247  30.960  31.784  1.00  0.00     0.167 HD
ATOM     56  C   UNL A   1      40.881  33.317  32.586  1.00  0.00     0.074 A 
ATOM     57  C   UNL A   1      39.843  34.313  32.742  1.00  0.00     0.031 C 
ATOM     58  C   UNL A   1      42.085  33.366  33.207  1.00  0.00     0.037 A 
BRANCH  45  59
ATOM     59  C   UNL A   1      45.749  28.537  32.024  1.00  0.00     0.057 A 
ATOM     60  C   UNL A   1      46.897  28.807  31.268  1.00  0.00     0.134 A 
ATOM     61  C   UNL A   1      45.864  27.602  33.061  1.00  0.00     0.134 A 
ATOM     62  F   UNL A   1      46.852  29.682  30.252  1.00  0.00    -0.206 F 
ATOM     63  C   UNL A   1      48.105  28.153  31.516  1.00  0.00     0.040 A 
ATOM     64  C   UNL A   1      47.074  26.962  33.337  1.00  0.00     0.040 A 
ATOM     65  F   UNL A   1      44.805  27.302  33.828  1.00  0.00    -0.206 F 
ATOM     66  C   UNL A   1      48.197  27.232  32.557  1.00  0.00     0.006 A 
ENDBRANCH  45  59
BRANCH  46  67
ATOM     67  C   UNL A   1      36.872  32.730  30.203  1.00  0.00     0.057 A 
ATOM     68  C   UNL A   1      35.782  32.412  31.021  1.00  0.00     0.134 A 
ATOM     69  C   UNL A   1      36.654  33.640  29.161  1.00  0.00     0.134 A 
ATOM     70  F   UNL A   1      35.926  31.532  32.023  1.00  0.00    -0.206 F 
ATOM     71  C   UNL A   1      34.517  32.960  30.801  1.00  0.00     0.040 A 
ATOM     72  C   UNL A   1      35.400  34.214  28.944  1.00  0.00     0.040 A 
ATOM     73  F   UNL A   1      37.659  33.993  28.347  1.00  0.00    -0.206 F 
ATOM     74  C   UNL A   1      34.325  33.870  29.763  1.00  0.00     0.006 A 
ENDBRANCH  46  67
BRANCH  58  75
ATOM     75  C   UNL A   1      42.369  34.558  34.072  1.00  0.00     0.057 A 
ATOM     76  C   UNL A   1      42.147  34.541  35.453  1.00  0.00     0.134 A 
ATOM     77  C   UNL A   1      42.937  35.713  33.520  1.00  0.00     0.134 A 
ATOM     78  F   UNL A   1      41.593  33.468  36.040  1.00  0.00    -0.206 F 
ATOM     79  C   UNL A   1      42.474  35.635  36.256  1.00  0.00     0.040 A 
ATOM     80  C   UNL A   1      43.290  36.804  34.314  1.00  0.00     0.040 A 
ATOM     81  F   UNL A   1      43.181  35.789  32.202  1.00  0.00    -0.206 F 
ATOM     82  C   UNL A   1      43.056  36.767  35.687  1.00  0.00     0.006 A 
ENDBRANCH  58  75
ENDBRANCH  32  33
ENDBRANCH  24  27
ENDBRANCH  22  23
ENDBRANCH  21  22
ENDBRANCH  20  21
ENDBRANCH   3  20
TORSDOF 17
ENDMDL
MODEL 2
REMARK VINA RESULT:      -9.4      5.039     10.233
REMARK SMILES CC[C@@H]([NH3+])C(=O)NCCOCC(=O)NCCCNC(=O)c1ccc(-c2c3nc(c(-c4c(F)cccc4F)c4ccc([nH]4)c(-c4c(F)cccc4F)c4nc(c(-c5c(F)cccc5F)c5ccc2[nH]5)C=C4)C=C3)cc1
REMARK SMILES IDX 12 1 13 2 14 3 11 5 10 6 9 7 8 8 7 9 5 10 6 11 3 13 2 14
REMARK SMILES IDX 1 15 4 16 15 20 16 21 17 22 18 23 19 24 20 26 21 27 22 28
REMARK SMILES IDX 74 29 23 30 73 31 24 32 25 33 26 34 67 35 27 36 72 37 66 38
REMARK SMILES IDX 68 39 28 40 71 41 65 42 64 43 29 45 55 46 38 47 54 48 39 49
REMARK SMILES IDX 42 50 53 51 69 52 40 53 41 54 52 56 70 57 43 58 30 59 31 60
REMARK SMILES IDX 36 61 32 62 33 63 35 64 37 65 34 66 56 67 57 68 62 69 58 70
REMARK SMILES IDX 59 71 61 72 63 73 60 74 44 75 45 76 50 77 46 78 47 79 49 80
REMARK SMILES IDX 51 81 48 82
REMARK H PARENT 14 4 7 12 4 17 4 18 4 19 18 25 68 44 42 55
REMARK Flexibility Score: inf
ROOT
ATOM      1  C   UNL A   1      33.361  28.566  25.842  1.00  0.00     0.245 C 
ATOM      2  O   UNL A   1      34.086  27.828  26.510  1.00  0.00    -0.272 OA
ATOM      3  N   UNL A   1      32.740  29.610  26.461  1.00  0.00    -0.354 N 
ATOM      4  H   UNL A   1      32.956  29.737  27.413  1.00  0.00     0.163 HD
ENDROOT
BRANCH   1   5
ATOM      5  C   UNL A   1      33.126  28.338  24.346  1.00  0.00     0.260 C 
BRANCH   5   6
ATOM      6  O   UNL A   1      32.405  27.169  23.989  1.00  0.00    -0.370 OA
BRANCH   6   7
ATOM      7  C   UNL A   1      31.166  26.984  24.688  1.00  0.00     0.182 C 
BRANCH   7   8
ATOM      8  C   UNL A   1      29.923  27.044  23.786  1.00  0.00     0.144 C 
BRANCH   8   9
ATOM      9  N   UNL A   1      30.055  27.990  22.686  1.00  0.00    -0.349 N 
ATOM     10  C   UNL A   1      29.294  29.058  22.327  1.00  0.00     0.278 C 
ATOM     11  O   UNL A   1      29.659  29.710  21.341  1.00  0.00    -0.268 OA
ATOM     12  H   UNL A   1      30.831  27.826  22.102  1.00  0.00     0.163 HD
BRANCH  10  13
ATOM     13  C   UNL A   1      28.074  29.515  23.149  1.00  0.00     0.270 C 
BRANCH  13  14
ATOM     14  C   UNL A   1      27.806  31.022  23.060  1.00  0.00     0.072 C 
ATOM     15  C   UNL A   1      28.821  31.857  23.831  1.00  0.00     0.011 C 
ENDBRANCH  13  14
BRANCH  13  16
ATOM     16  N   UNL A   1      26.900  28.693  22.788  1.00  0.00    -0.347 N 
ATOM     17  H   UNL A   1      26.671  28.067  23.560  1.00  0.00     0.345 HD
ATOM     18  H   UNL A   1      27.113  28.142  21.956  1.00  0.00     0.345 HD
ATOM     19  H   UNL A   1      26.103  29.302  22.599  1.00  0.00     0.345 HD
ENDBRANCH  13  16
ENDBRANCH  10  13
ENDBRANCH   8   9
ENDBRANCH   7   8
ENDBRANCH   6   7
ENDBRANCH   5   6
ENDBRANCH   1   5
BRANCH   3  20
ATOM     20  C   UNL A   1      31.800  30.558  25.894  1.00  0.00     0.117 C 
BRANCH  20  21
ATOM     21  C   UNL A   1      31.501  31.707  26.849  1.00  0.00     0.042 C 
BRANCH  21  22
ATOM     22  C   UNL A   1      32.732  32.511  27.256  1.00  0.00     0.118 C 
BRANCH  22  23
ATOM     23  N   UNL A   1      32.432  33.911  27.529  1.00  0.00    -0.352 N 
ATOM     24  C   UNL A   1      32.994  34.773  28.440  1.00  0.00     0.251 C 
ATOM     25  H   UNL A   1      31.716  34.299  26.976  1.00  0.00     0.163 HD
ATOM     26  O   UNL A   1      32.489  35.868  28.647  1.00  0.00    -0.269 OA
BRANCH  24  27
ATOM     27  C   UNL A   1      34.201  34.363  29.186  1.00  0.00     0.039 A 
ATOM     28  C   UNL A   1      34.055  33.742  30.429  1.00  0.00     0.014 A 
ATOM     29  C   UNL A   1      35.471  34.585  28.652  1.00  0.00     0.014 A 
ATOM     30  C   UNL A   1      35.184  33.260  31.096  1.00  0.00     0.010 A 
ATOM     31  C   UNL A   1      36.584  34.040  29.280  1.00  0.00     0.010 A 
ATOM     32  C   UNL A   1      36.452  33.365  30.504  1.00  0.00    -0.014 A 
BRANCH  32  33
ATOM     33  C   UNL A   1      37.664  32.776  31.125  1.00  0.00     0.031 A 
ATOM     34  C   UNL A   1      38.336  31.601  30.474  1.00  0.00     0.074 A 
ATOM     35  C   UNL A   1      38.084  33.220  32.326  1.00  0.00     0.049 A 
ATOM     36  N   UNL A   1      39.278  30.822  30.942  1.00  0.00    -0.248 NA
ATOM     37  C   UNL A   1      37.861  31.233  29.131  1.00  0.00     0.031 C 
ATOM     38  C   UNL A   1      37.497  34.333  33.073  1.00  0.00     0.029 A 
ATOM     39  N   UNL A   1      39.090  32.766  33.142  1.00  0.00    -0.354 N 
ATOM     40  C   UNL A   1      39.486  29.858  29.964  1.00  0.00     0.074 A 
ATOM     41  C   UNL A   1      38.547  30.124  28.898  1.00  0.00     0.031 C 
ATOM     42  C   UNL A   1      38.157  34.480  34.233  1.00  0.00     0.029 A 
ATOM     43  C   UNL A   1      39.178  33.443  34.334  1.00  0.00     0.049 A 
ATOM     44  H   UNL A   1      39.692  32.026  32.896  1.00  0.00     0.167 HD
ATOM     45  C   UNL A   1      40.392  28.851  29.952  1.00  0.00     0.037 A 
ATOM     46  C   UNL A   1      39.975  33.234  35.400  1.00  0.00     0.037 A 
ATOM     47  C   UNL A   1      41.346  28.610  31.002  1.00  0.00     0.049 A 
ATOM     48  C   UNL A   1      40.961  32.098  35.369  1.00  0.00     0.074 A 
ATOM     49  C   UNL A   1      42.340  27.651  31.059  1.00  0.00     0.029 A 
ATOM     50  N   UNL A   1      41.422  29.339  32.180  1.00  0.00    -0.354 N 
ATOM     51  N   UNL A   1      41.180  31.220  34.421  1.00  0.00    -0.248 NA
ATOM     52  C   UNL A   1      41.810  31.923  36.557  1.00  0.00     0.031 C 
ATOM     53  C   UNL A   1      42.996  27.774  32.287  1.00  0.00     0.029 A 
ATOM     54  C   UNL A   1      42.438  28.840  32.977  1.00  0.00     0.049 A 
ATOM     55  H   UNL A   1      40.841  30.098  32.414  1.00  0.00     0.167 HD
ATOM     56  C   UNL A   1      42.210  30.412  34.882  1.00  0.00     0.074 A 
ATOM     57  C   UNL A   1      42.576  30.904  36.193  1.00  0.00     0.031 C 
ATOM     58  C   UNL A   1      42.802  29.357  34.270  1.00  0.00     0.037 A 
BRANCH  45  59
ATOM     59  C   UNL A   1      40.391  27.935  28.764  1.00  0.00     0.057 A 
ATOM     60  C   UNL A   1      41.109  28.236  27.599  1.00  0.00     0.134 A 
ATOM     61  C   UNL A   1      39.689  26.724  28.796  1.00  0.00     0.134 A 
ATOM     62  F   UNL A   1      41.792  29.386  27.500  1.00  0.00    -0.206 F 
ATOM     63  C   UNL A   1      41.106  27.378  26.498  1.00  0.00     0.040 A 
ATOM     64  C   UNL A   1      39.701  25.845  27.712  1.00  0.00     0.040 A 
ATOM     65  F   UNL A   1      38.986  26.371  29.883  1.00  0.00    -0.206 F 
ATOM     66  C   UNL A   1      40.405  26.175  26.555  1.00  0.00     0.006 A 
ENDBRANCH  45  59
BRANCH  46  67
ATOM     67  C   UNL A   1      39.882  34.124  36.584  1.00  0.00     0.057 A 
ATOM     68  C   UNL A   1      39.041  33.807  37.656  1.00  0.00     0.134 A 
ATOM     69  C   UNL A   1      40.623  35.309  36.673  1.00  0.00     0.134 A 
ATOM     70  F   UNL A   1      38.292  32.695  37.620  1.00  0.00    -0.206 F 
ATOM     71  C   UNL A   1      38.924  34.644  38.767  1.00  0.00     0.040 A 
ATOM     72  C   UNL A   1      40.534  36.144  37.788  1.00  0.00     0.040 A 
ATOM     73  F   UNL A   1      41.454  35.665  35.683  1.00  0.00    -0.206 F 
ATOM     74  C   UNL A   1      39.677  35.815  38.837  1.00  0.00     0.006 A 
ENDBRANCH  46  67
BRANCH  58  75
ATOM     75  C   UNL A   1      43.942  28.693  34.985  1.00  0.00     0.057 A 
ATOM     76  C   UNL A   1      43.742  27.623  35.864  1.00  0.00     0.134 A 
ATOM     77  C   UNL A   1      45.261  29.090  34.733  1.00  0.00     0.134 A 
ATOM     78  F   UNL A   1      42.500  27.205  36.156  1.00  0.00    -0.206 F 
ATOM     79  C   UNL A   1      44.816  26.974  36.474  1.00  0.00     0.040 A 
ATOM     80  C   UNL A   1      46.344  28.434  35.319  1.00  0.00     0.040 A 
ATOM     81  F   UNL A   1      45.519  30.105  33.894  1.00  0.00    -0.206 F 
ATOM     82  C   UNL A   1      46.122  27.373  36.195  1.00  0.00     0.006 A 
ENDBRANCH  58  75
ENDBRANCH  32  33
ENDBRANCH  24  27
ENDBRANCH  22  23
ENDBRANCH  21  22
ENDBRANCH  20  21
ENDBRANCH   3  20
TORSDOF 17
ENDMDL
MODEL 3
REMARK VINA RESULT:      -9.4      4.323     10.893
REMARK SMILES CC[C@@H]([NH3+])C(=O)NCCOCC(=O)NCCCNC(=O)c1ccc(-c2c3nc(c(-c4c(F)cccc4F)c4ccc([nH]4)c(-c4c(F)cccc4F)c4nc(c(-c5c(F)cccc5F)c5ccc2[nH]5)C=C4)C=C3)cc1
REMARK SMILES IDX 12 1 13 2 14 3 11 5 10 6 9 7 8 8 7 9 5 10 6 11 3 13 2 14
REMARK SMILES IDX 1 15 4 16 15 20 16 21 17 22 18 23 19 24 20 26 21 27 22 28
REMARK SMILES IDX 74 29 23 30 73 31 24 32 25 33 26 34 67 35 27 36 72 37 66 38
REMARK SMILES IDX 68 39 28 40 71 41 65 42 64 43 29 45 55 46 38 47 54 48 39 49
REMARK SMILES IDX 42 50 53 51 69 52 40 53 41 54 52 56 70 57 43 58 30 59 31 60
REMARK SMILES IDX 36 61 32 62 33 63 35 64 37 65 34 66 56 67 57 68 62 69 58 70
REMARK SMILES IDX 59 71 61 72 63 73 60 74 44 75 45 76 50 77 46 78 47 79 49 80
REMARK SMILES IDX 51 81 48 82
REMARK H PARENT 14 4 7 12 4 17 4 18 4 19 18 25 68 44 42 55
REMARK Flexibility Score: inf
ROOT
ATOM      1  C   UNL A   1      35.389  35.153  32.855  1.00  0.00     0.245 C 
ATOM      2  O   UNL A   1      34.797  36.144  33.282  1.00  0.00    -0.272 OA
ATOM      3  N   UNL A   1      35.271  34.835  31.535  1.00  0.00    -0.354 N 
ATOM      4  H   UNL A   1      34.745  35.462  30.987  1.00  0.00     0.163 HD
ENDROOT
BRANCH   1   5
ATOM      5  C   UNL A   1      36.241  34.261  33.764  1.00  0.00     0.260 C 
BRANCH   5   6
ATOM      6  O   UNL A   1      37.533  34.744  34.095  1.00  0.00    -0.370 OA
BRANCH   6   7
ATOM      7  C   UNL A   1      38.295  33.892  34.961  1.00  0.00     0.182 C 
BRANCH   7   8
ATOM      8  C   UNL A   1      37.470  32.784  35.636  1.00  0.00     0.144 C 
BRANCH   8   9
ATOM      9  N   UNL A   1      38.287  31.697  36.159  1.00  0.00    -0.349 N 
ATOM     10  C   UNL A   1      38.843  30.618  35.544  1.00  0.00     0.278 C 
ATOM     11  O   UNL A   1      39.518  29.852  36.241  1.00  0.00    -0.268 OA
ATOM     12  H   UNL A   1      38.467  31.753  37.125  1.00  0.00     0.163 HD
BRANCH  10  13
ATOM     13  C   UNL A   1      38.728  30.385  34.025  1.00  0.00     0.270 C 
BRANCH  13  14
ATOM     14  C   UNL A   1      40.028  29.888  33.383  1.00  0.00     0.072 C 
ATOM     15  C   UNL A   1      39.926  28.462  32.855  1.00  0.00     0.011 C 
ENDBRANCH  13  14
BRANCH  13  16
ATOM     16  N   UNL A   1      37.569  29.510  33.747  1.00  0.00    -0.347 N 
ATOM     17  H   UNL A   1      37.133  29.233  34.626  1.00  0.00     0.345 HD
ATOM     18  H   UNL A   1      37.883  28.679  33.245  1.00  0.00     0.345 HD
ATOM     19  H   UNL A   1      36.891  30.016  33.177  1.00  0.00     0.345 HD
ENDBRANCH  13  16
ENDBRANCH  10  13
ENDBRANCH   8   9
ENDBRANCH   7   8
ENDBRANCH   6   7
ENDBRANCH   5   6
ENDBRANCH   1   5
BRANCH   3  20
ATOM     20  C   UNL A   1      35.819  33.690  30.835  1.00  0.00     0.117 C 
BRANCH  20  21
ATOM     21  C   UNL A   1      34.730  32.770  30.300  1.00  0.00     0.042 C 
BRANCH  21  22
ATOM     22  C   UNL A   1      34.764  32.584  28.786  1.00  0.00     0.118 C 
BRANCH  22  23
ATOM     23  N   UNL A   1      34.140  31.340  28.352  1.00  0.00    -0.352 N 
ATOM     24  C   UNL A   1      34.706  30.118  28.076  1.00  0.00     0.251 C 
ATOM     25  H   UNL A   1      33.163  31.381  28.239  1.00  0.00     0.163 HD
ATOM     26  O   UNL A   1      34.041  29.234  27.553  1.00  0.00    -0.269 OA
BRANCH  24  27
ATOM     27  C   UNL A   1      36.129  29.882  28.395  1.00  0.00     0.039 A 
ATOM     28  C   UNL A   1      36.471  29.399  29.661  1.00  0.00     0.014 A 
ATOM     29  C   UNL A   1      37.118  30.127  27.441  1.00  0.00     0.014 A 
ATOM     30  C   UNL A   1      37.801  29.077  29.940  1.00  0.00     0.010 A 
ATOM     31  C   UNL A   1      38.427  29.736  27.694  1.00  0.00     0.010 A 
ATOM     32  C   UNL A   1      38.781  29.199  28.942  1.00  0.00    -0.014 A 
BRANCH  32  33
ATOM     33  C   UNL A   1      40.185  28.771  29.159  1.00  0.00     0.031 A 
ATOM     34  C   UNL A   1      41.191  29.759  29.677  1.00  0.00     0.074 A 
ATOM     35  C   UNL A   1      40.576  27.539  28.779  1.00  0.00     0.049 A 
ATOM     36  N   UNL A   1      42.493  29.652  29.754  1.00  0.00    -0.248 NA
ATOM     37  C   UNL A   1      40.663  31.052  30.139  1.00  0.00     0.031 C 
ATOM     38  C   UNL A   1      39.701  26.499  28.234  1.00  0.00     0.029 A 
ATOM     39  N   UNL A   1      41.822  26.962  28.769  1.00  0.00    -0.354 N 
ATOM     40  C   UNL A   1      42.940  30.871  30.245  1.00  0.00     0.074 A 
ATOM     41  C   UNL A   1      41.778  31.716  30.408  1.00  0.00     0.031 C 
ATOM     42  C   UNL A   1      40.434  25.411  27.950  1.00  0.00     0.029 A 
ATOM     43  C   UNL A   1      41.835  25.692  28.244  1.00  0.00     0.049 A 
ATOM     44  H   UNL A   1      42.628  27.416  29.106  1.00  0.00     0.167 HD
ATOM     45  C   UNL A   1      44.207  31.246  30.546  1.00  0.00     0.037 A 
ATOM     46  C   UNL A   1      42.866  24.858  28.004  1.00  0.00     0.037 A 
ATOM     47  C   UNL A   1      45.355  30.390  30.412  1.00  0.00     0.049 A 
ATOM     48  C   UNL A   1      44.264  25.304  28.332  1.00  0.00     0.074 A 
ATOM     49  C   UNL A   1      46.671  30.657  30.743  1.00  0.00     0.029 A 
ATOM     50  N   UNL A   1      45.322  29.099  29.906  1.00  0.00    -0.354 N 
ATOM     51  N   UNL A   1      44.671  26.443  28.836  1.00  0.00    -0.248 NA
ATOM     52  C   UNL A   1      45.347  24.349  28.055  1.00  0.00     0.031 C 
ATOM     53  C   UNL A   1      47.441  29.541  30.402  1.00  0.00     0.029 A 
ATOM     54  C   UNL A   1      46.597  28.562  29.901  1.00  0.00     0.049 A 
ATOM     55  H   UNL A   1      44.511  28.634  29.596  1.00  0.00     0.167 HD
ATOM     56  C   UNL A   1      46.048  26.330  28.969  1.00  0.00     0.074 A 
ATOM     57  C   UNL A   1      46.409  25.011  28.494  1.00  0.00     0.031 C 
ATOM     58  C   UNL A   1      46.934  27.239  29.445  1.00  0.00     0.037 A 
BRANCH  45  59
ATOM     59  C   UNL A   1      44.412  32.643  31.052  1.00  0.00     0.057 A 
ATOM     60  C   UNL A   1      44.371  32.948  32.418  1.00  0.00     0.134 A 
ATOM     61  C   UNL A   1      44.684  33.691  30.164  1.00  0.00     0.134 A 
ATOM     62  F   UNL A   1      44.102  31.992  33.320  1.00  0.00    -0.206 F 
ATOM     63  C   UNL A   1      44.565  34.250  32.882  1.00  0.00     0.040 A 
ATOM     64  C   UNL A   1      44.908  34.992  30.617  1.00  0.00     0.040 A 
ATOM     65  F   UNL A   1      44.744  33.467  28.842  1.00  0.00    -0.206 F 
ATOM     66  C   UNL A   1      44.841  35.276  31.980  1.00  0.00     0.006 A 
ENDBRANCH  45  59
BRANCH  46  67
ATOM     67  C   UNL A   1      42.614  23.513  27.430  1.00  0.00     0.057 A 
ATOM     68  C   UNL A   1      42.308  22.426  28.257  1.00  0.00     0.134 A 
ATOM     69  C   UNL A   1      42.678  23.277  26.051  1.00  0.00     0.134 A 
ATOM     70  F   UNL A   1      42.252  22.586  29.587  1.00  0.00    -0.206 F 
ATOM     71  C   UNL A   1      42.091  21.148  27.737  1.00  0.00     0.040 A 
ATOM     72  C   UNL A   1      42.440  22.010  25.515  1.00  0.00     0.040 A 
ATOM     73  F   UNL A   1      42.959  24.278  25.205  1.00  0.00    -0.206 F 
ATOM     74  C   UNL A   1      42.152  20.940  26.360  1.00  0.00     0.006 A 
ENDBRANCH  46  67
BRANCH  58  75
ATOM     75  C   UNL A   1      48.373  26.824  29.526  1.00  0.00     0.057 A 
ATOM     76  C   UNL A   1      48.868  26.075  30.599  1.00  0.00     0.134 A 
ATOM     77  C   UNL A   1      49.255  27.122  28.480  1.00  0.00     0.134 A 
ATOM     78  F   UNL A   1      48.076  25.769  31.638  1.00  0.00    -0.206 F 
ATOM     79  C   UNL A   1      50.195  25.643  30.633  1.00  0.00     0.040 A 
ATOM     80  C   UNL A   1      50.577  26.676  28.490  1.00  0.00     0.040 A 
ATOM     81  F   UNL A   1      48.839  27.831  27.419  1.00  0.00    -0.206 F 
ATOM     82  C   UNL A   1      51.051  25.935  29.572  1.00  0.00     0.006 A 
ENDBRANCH  58  75
ENDBRANCH  32  33
ENDBRANCH  24  27
ENDBRANCH  22  23
ENDBRANCH  21  22
ENDBRANCH  20  21
ENDBRANCH   3  20
TORSDOF 17
ENDMDL
