MODEL 1
REMARK VINA RESULT:     -12.4      0.000      0.000
REMARK SMILES C[C@@H](C(=O)NCCCNC(=O)c1ccc(-c2c3nc(c(-c4c(F)cccc4F)c4ccc([nH]4)c(-c4c(F)cccc4F)c4nc(c(-c5c(F)cccc5F)c5ccc2[nH]5)C=C4)C=C3)cc1)c1ccc(-c2ccc3[nH]ccc3c2)cc1
REMARK SMILES IDX 7 1 6 2 5 3 3 4 4 5 2 7 1 8 66 9 67 10 80 11 68 12 79 13
REMARK SMILES IDX 69 14 70 15 71 16 78 17 72 18 77 19 73 20 76 21 74 22 75 23
REMARK SMILES IDX 8 25 9 26 10 27 11 29 12 30 13 31 65 32 14 33 64 34 15 35
REMARK SMILES IDX 16 36 17 37 58 38 18 39 63 40 57 41 59 42 19 43 62 44 56 45
REMARK SMILES IDX 55 46 20 48 46 49 29 50 45 51 30 52 33 53 44 54 60 55 31 56
REMARK SMILES IDX 32 57 43 59 61 60 34 61 21 62 22 63 27 64 23 65 24 66 26 67
REMARK SMILES IDX 28 68 25 69 47 70 48 71 53 72 49 73 50 74 52 75 54 76 51 77
REMARK SMILES IDX 35 78 36 79 41 80 37 81 38 82 40 83 42 84 39 85
REMARK H PARENT 5 6 74 24 9 28 59 47 33 58
REMARK Flexibility Score: inf
ROOT
ATOM      1  C   UNL A   1      37.481  19.937  24.925  1.00  0.00     0.042 C 
ENDROOT
BRANCH   1   2
ATOM      2  C   UNL A   1      36.451  21.026  24.629  1.00  0.00     0.117 C 
BRANCH   2   3
ATOM      3  N   UNL A   1      35.100  20.550  24.849  1.00  0.00    -0.356 N 
ATOM      4  C   UNL A   1      34.167  20.933  25.770  1.00  0.00     0.227 C 
ATOM      5  O   UNL A   1      33.139  20.255  25.822  1.00  0.00    -0.274 OA
ATOM      6  H   UNL A   1      34.808  19.836  24.238  1.00  0.00     0.163 HD
BRANCH   4   7
ATOM      7  C   UNL A   1      34.413  22.169  26.655  1.00  0.00     0.105 C 
ATOM      8  C   UNL A   1      33.865  21.955  28.071  1.00  0.00     0.023 C 
BRANCH   7   9
ATOM      9  C   UNL A   1      33.871  23.437  25.995  1.00  0.00    -0.036 A 
ATOM     10  C   UNL A   1      34.742  24.242  25.240  1.00  0.00     0.005 A 
ATOM     11  C   UNL A   1      32.522  23.811  26.071  1.00  0.00     0.005 A 
ATOM     12  C   UNL A   1      34.272  25.381  24.579  1.00  0.00     0.009 A 
ATOM     13  C   UNL A   1      32.058  24.958  25.422  1.00  0.00     0.009 A 
ATOM     14  C   UNL A   1      32.924  25.750  24.660  1.00  0.00    -0.018 A 
BRANCH  14  15
ATOM     15  C   UNL A   1      32.409  26.907  23.928  1.00  0.00    -0.018 A 
ATOM     16  C   UNL A   1      33.299  27.808  23.326  1.00  0.00     0.011 A 
ATOM     17  C   UNL A   1      31.024  27.114  23.797  1.00  0.00     0.019 A 
ATOM     18  C   UNL A   1      32.850  28.901  22.579  1.00  0.00     0.027 A 
ATOM     19  C   UNL A   1      30.546  28.218  23.064  1.00  0.00    -0.000 A 
ATOM     20  C   UNL A   1      31.468  29.077  22.464  1.00  0.00     0.045 A 
ATOM     21  C   UNL A   1      29.250  28.718  22.761  1.00  0.00     0.028 A 
ATOM     22  N   UNL A   1      30.748  30.040  21.797  1.00  0.00    -0.361 N 
ATOM     23  C   UNL A   1      29.405  29.846  21.987  1.00  0.00     0.083 A 
ATOM     24  H   UNL A   1      31.141  30.767  21.260  1.00  0.00     0.166 HD
ENDBRANCH  14  15
ENDBRANCH   7   9
ENDBRANCH   4   7
ENDBRANCH   2   3
ENDBRANCH   1   2
BRANCH   1  25
ATOM     25  C   UNL A   1      38.674  20.414  25.751  1.00  0.00     0.118 C 
BRANCH  25  26
ATOM     26  N   UNL A   1      39.773  19.460  25.746  1.00  0.00    -0.352 N 
ATOM     27  C   UNL A   1      41.107  19.640  26.012  1.00  0.00     0.251 C 
ATOM     28  H   UNL A   1      39.518  18.538  25.513  1.00  0.00     0.163 HD
ATOM     29  O   UNL A   1      41.900  18.739  25.753  1.00  0.00    -0.269 OA
BRANCH  27  30
ATOM     30  C   UNL A   1      41.604  20.909  26.587  1.00  0.00     0.039 A 
ATOM     31  C   UNL A   1      42.078  21.896  25.717  1.00  0.00     0.014 A 
ATOM     32  C   UNL A   1      41.643  21.123  27.968  1.00  0.00     0.014 A 
ATOM     33  C   UNL A   1      42.524  23.118  26.226  1.00  0.00     0.010 A 
ATOM     34  C   UNL A   1      42.023  22.368  28.470  1.00  0.00     0.010 A 
ATOM     35  C   UNL A   1      42.462  23.380  27.604  1.00  0.00    -0.014 A 
BRANCH  35  36
ATOM     36  C   UNL A   1      42.819  24.717  28.146  1.00  0.00     0.031 A 
ATOM     37  C   UNL A   1      41.762  25.764  28.365  1.00  0.00     0.074 A 
ATOM     38  C   UNL A   1      44.114  25.007  28.384  1.00  0.00     0.049 A 
ATOM     39  N   UNL A   1      41.898  27.001  28.770  1.00  0.00    -0.248 NA
ATOM     40  C   UNL A   1      40.373  25.379  28.071  1.00  0.00     0.031 C 
ATOM     41  C   UNL A   1      45.239  24.093  28.171  1.00  0.00     0.029 A 
ATOM     42  N   UNL A   1      44.705  26.156  28.846  1.00  0.00    -0.354 N 
ATOM     43  C   UNL A   1      40.619  27.544  28.770  1.00  0.00     0.074 A 
ATOM     44  C   UNL A   1      39.725  26.516  28.283  1.00  0.00     0.031 C 
ATOM     45  C   UNL A   1      46.379  24.710  28.518  1.00  0.00     0.029 A 
ATOM     46  C   UNL A   1      46.074  26.074  28.939  1.00  0.00     0.049 A 
ATOM     47  H   UNL A   1      44.197  26.964  29.089  1.00  0.00     0.167 HD
ATOM     48  C   UNL A   1      40.226  28.780  29.158  1.00  0.00     0.037 A 
ATOM     49  C   UNL A   1      46.983  26.995  29.307  1.00  0.00     0.037 A 
ATOM     50  C   UNL A   1      41.113  29.795  29.664  1.00  0.00     0.049 A 
ATOM     51  C   UNL A   1      46.517  28.365  29.718  1.00  0.00     0.074 A 
ATOM     52  C   UNL A   1      40.797  31.055  30.144  1.00  0.00     0.029 A 
ATOM     53  N   UNL A   1      42.491  29.669  29.752  1.00  0.00    -0.354 N 
ATOM     54  N   UNL A   1      45.296  28.837  29.783  1.00  0.00    -0.248 NA
ATOM     55  C   UNL A   1      47.556  29.329  30.109  1.00  0.00     0.031 C 
ATOM     56  C   UNL A   1      41.986  31.709  30.476  1.00  0.00     0.029 A 
ATOM     57  C   UNL A   1      43.041  30.838  30.252  1.00  0.00     0.049 A 
ATOM     58  H   UNL A   1      43.002  28.867  29.497  1.00  0.00     0.167 HD
ATOM     59  C   UNL A   1      45.417  30.140  30.248  1.00  0.00     0.074 A 
ATOM     60  C   UNL A   1      46.829  30.378  30.466  1.00  0.00     0.031 C 
ATOM     61  C   UNL A   1      44.447  31.059  30.472  1.00  0.00     0.037 A 
BRANCH  48  62
ATOM     62  C   UNL A   1      38.765  29.114  29.057  1.00  0.00     0.057 A 
ATOM     63  C   UNL A   1      37.916  29.052  30.169  1.00  0.00     0.134 A 
ATOM     64  C   UNL A   1      38.218  29.570  27.851  1.00  0.00     0.134 A 
ATOM     65  F   UNL A   1      38.375  28.616  31.352  1.00  0.00    -0.206 F 
ATOM     66  C   UNL A   1      36.572  29.419  30.082  1.00  0.00     0.040 A 
ATOM     67  C   UNL A   1      36.881  29.963  27.758  1.00  0.00     0.040 A 
ATOM     68  F   UNL A   1      38.977  29.661  26.749  1.00  0.00    -0.206 F 
ATOM     69  C   UNL A   1      36.054  29.886  28.876  1.00  0.00     0.006 A 
ENDBRANCH  48  62
BRANCH  49  70
ATOM     70  C   UNL A   1      48.431  26.661  29.312  1.00  0.00     0.057 A 
ATOM     71  C   UNL A   1      49.240  26.936  28.202  1.00  0.00     0.134 A 
ATOM     72  C   UNL A   1      49.033  26.033  30.409  1.00  0.00     0.134 A 
ATOM     73  F   UNL A   1      48.717  27.519  27.114  1.00  0.00    -0.206 F 
ATOM     74  C   UNL A   1      50.588  26.573  28.172  1.00  0.00     0.040 A 
ATOM     75  C   UNL A   1      50.386  25.690  30.403  1.00  0.00     0.040 A 
ATOM     76  F   UNL A   1      48.315  25.750  31.506  1.00  0.00    -0.206 F 
ATOM     77  C   UNL A   1      51.164  25.951  29.278  1.00  0.00     0.006 A 
ENDBRANCH  49  70
BRANCH  61  78
ATOM     78  C   UNL A   1      44.875  32.392  31.013  1.00  0.00     0.057 A 
ATOM     79  C   UNL A   1      44.994  32.628  32.388  1.00  0.00     0.134 A 
ATOM     80  C   UNL A   1      45.203  33.442  30.146  1.00  0.00     0.134 A 
ATOM     81  F   UNL A   1      44.681  31.669  33.273  1.00  0.00    -0.206 F 
ATOM     82  C   UNL A   1      45.398  33.869  32.882  1.00  0.00     0.040 A 
ATOM     83  C   UNL A   1      45.636  34.678  30.627  1.00  0.00     0.040 A 
ATOM     84  F   UNL A   1      45.119  33.279  28.816  1.00  0.00    -0.206 F 
ATOM     85  C   UNL A   1      45.729  34.896  31.999  1.00  0.00     0.006 A 
ENDBRANCH  61  78
ENDBRANCH  35  36
ENDBRANCH  27  30
ENDBRANCH  25  26
ENDBRANCH   1  25
TORSDOF 12
ENDMDL
MODEL 2
REMARK VINA RESULT:     -12.4      4.395     10.048
REMARK SMILES C[C@@H](C(=O)NCCCNC(=O)c1ccc(-c2c3nc(c(-c4c(F)cccc4F)c4ccc([nH]4)c(-c4c(F)cccc4F)c4nc(c(-c5c(F)cccc5F)c5ccc2[nH]5)C=C4)C=C3)cc1)c1ccc(-c2ccc3[nH]ccc3c2)cc1
REMARK SMILES IDX 7 1 6 2 5 3 3 4 4 5 2 7 1 8 66 9 67 10 80 11 68 12 79 13
REMARK SMILES IDX 69 14 70 15 71 16 78 17 72 18 77 19 73 20 76 21 74 22 75 23
REMARK SMILES IDX 8 25 9 26 10 27 11 29 12 30 13 31 65 32 14 33 64 34 15 35
REMARK SMILES IDX 16 36 17 37 58 38 18 39 63 40 57 41 59 42 19 43 62 44 56 45
REMARK SMILES IDX 55 46 20 48 46 49 29 50 45 51 30 52 33 53 44 54 60 55 31 56
REMARK SMILES IDX 32 57 43 59 61 60 34 61 21 62 22 63 27 64 23 65 24 66 26 67
REMARK SMILES IDX 28 68 25 69 47 70 48 71 53 72 49 73 50 74 52 75 54 76 51 77
REMARK SMILES IDX 35 78 36 79 41 80 37 81 38 82 40 83 42 84 39 85
REMARK H PARENT 5 6 74 24 9 28 59 47 33 58
REMARK Flexibility Score: inf
ROOT
ATOM      1  C   UNL A   1      34.754  34.421  28.607  1.00  0.00     0.042 C 
ENDROOT
BRANCH   1   2
ATOM      2  C   UNL A   1      33.353  34.927  28.947  1.00  0.00     0.117 C 
BRANCH   2   3
ATOM      3  N   UNL A   1      33.400  36.232  29.575  1.00  0.00    -0.356 N 
ATOM      4  C   UNL A   1      33.089  36.613  30.849  1.00  0.00     0.227 C 
ATOM      5  O   UNL A   1      33.088  37.826  31.072  1.00  0.00    -0.274 OA
ATOM      6  H   UNL A   1      33.705  36.962  28.988  1.00  0.00     0.163 HD
BRANCH   4   7
ATOM      7  C   UNL A   1      32.793  35.553  31.924  1.00  0.00     0.105 C 
ATOM      8  C   UNL A   1      32.051  36.165  33.118  1.00  0.00     0.023 C 
BRANCH   7   9
ATOM      9  C   UNL A   1      34.065  34.811  32.335  1.00  0.00    -0.036 A 
ATOM     10  C   UNL A   1      34.004  33.428  32.576  1.00  0.00     0.005 A 
ATOM     11  C   UNL A   1      35.311  35.447  32.436  1.00  0.00     0.005 A 
ATOM     12  C   UNL A   1      35.156  32.706  32.902  1.00  0.00     0.009 A 
ATOM     13  C   UNL A   1      36.458  34.727  32.777  1.00  0.00     0.009 A 
ATOM     14  C   UNL A   1      36.397  33.347  33.003  1.00  0.00    -0.018 A 
BRANCH  14  15
ATOM     15  C   UNL A   1      37.618  32.594  33.289  1.00  0.00    -0.018 A 
ATOM     16  C   UNL A   1      38.717  33.239  33.876  1.00  0.00     0.011 A 
ATOM     17  C   UNL A   1      37.696  31.219  33.008  1.00  0.00     0.019 A 
ATOM     18  C   UNL A   1      39.886  32.549  34.208  1.00  0.00     0.027 A 
ATOM     19  C   UNL A   1      38.870  30.504  33.317  1.00  0.00    -0.000 A 
ATOM     20  C   UNL A   1      39.930  31.182  33.919  1.00  0.00     0.045 A 
ATOM     21  C   UNL A   1      39.277  29.152  33.151  1.00  0.00     0.028 A 
ATOM     22  N   UNL A   1      40.928  30.260  34.137  1.00  0.00    -0.361 N 
ATOM     23  C   UNL A   1      40.552  29.033  33.657  1.00  0.00     0.083 A 
ATOM     24  H   UNL A   1      41.789  30.454  34.574  1.00  0.00     0.166 HD
ENDBRANCH  14  15
ENDBRANCH   7   9
ENDBRANCH   4   7
ENDBRANCH   2   3
ENDBRANCH   1   2
BRANCH   1  25
ATOM     25  C   UNL A   1      35.084  33.052  29.198  1.00  0.00     0.118 C 
BRANCH  25  26
ATOM     26  N   UNL A   1      34.259  31.991  28.642  1.00  0.00    -0.352 N 
ATOM     27  C   UNL A   1      34.602  30.738  28.199  1.00  0.00     0.251 C 
ATOM     28  H   UNL A   1      33.301  32.207  28.570  1.00  0.00     0.163 HD
ATOM     29  O   UNL A   1      33.779  30.073  27.578  1.00  0.00    -0.269 OA
BRANCH  27  30
ATOM     30  C   UNL A   1      35.953  30.188  28.444  1.00  0.00     0.039 A 
ATOM     31  C   UNL A   1      36.880  30.203  27.397  1.00  0.00     0.014 A 
ATOM     32  C   UNL A   1      36.305  29.626  29.675  1.00  0.00     0.014 A 
ATOM     33  C   UNL A   1      38.174  29.721  27.605  1.00  0.00     0.010 A 
ATOM     34  C   UNL A   1      37.616  29.209  29.902  1.00  0.00     0.010 A 
ATOM     35  C   UNL A   1      38.566  29.257  28.871  1.00  0.00    -0.014 A 
BRANCH  35  36
ATOM     36  C   UNL A   1      39.972  28.854  29.137  1.00  0.00     0.031 A 
ATOM     37  C   UNL A   1      40.932  29.808  29.792  1.00  0.00     0.074 A 
ATOM     38  C   UNL A   1      40.399  27.642  28.730  1.00  0.00     0.049 A 
ATOM     39  N   UNL A   1      42.207  29.651  30.046  1.00  0.00    -0.248 NA
ATOM     40  C   UNL A   1      40.398  31.118  30.197  1.00  0.00     0.031 C 
ATOM     41  C   UNL A   1      39.577  26.642  28.044  1.00  0.00     0.029 A 
ATOM     42  N   UNL A   1      41.632  27.049  28.823  1.00  0.00    -0.354 N 
ATOM     43  C   UNL A   1      42.629  30.840  30.627  1.00  0.00     0.074 A 
ATOM     44  C   UNL A   1      41.485  31.727  30.651  1.00  0.00     0.031 C 
ATOM     45  C   UNL A   1      40.322  25.555  27.795  1.00  0.00     0.029 A 
ATOM     46  C   UNL A   1      41.684  25.793  28.265  1.00  0.00     0.049 A 
ATOM     47  H   UNL A   1      42.408  27.480  29.249  1.00  0.00     0.167 HD
ATOM     48  C   UNL A   1      43.852  31.156  31.114  1.00  0.00     0.037 A 
ATOM     49  C   UNL A   1      42.713  24.936  28.133  1.00  0.00     0.037 A 
ATOM     50  C   UNL A   1      44.984  30.265  31.111  1.00  0.00     0.049 A 
ATOM     51  C   UNL A   1      44.064  25.321  28.669  1.00  0.00     0.074 A 
ATOM     52  C   UNL A   1      46.245  30.474  31.641  1.00  0.00     0.029 A 
ATOM     53  N   UNL A   1      44.993  28.999  30.546  1.00  0.00    -0.354 N 
ATOM     54  N   UNL A   1      44.427  26.421  29.284  1.00  0.00    -0.248 NA
ATOM     55  C   UNL A   1      45.149  24.345  28.495  1.00  0.00     0.031 C 
ATOM     56  C   UNL A   1      47.032  29.354  31.354  1.00  0.00     0.029 A 
ATOM     57  C   UNL A   1      46.246  28.426  30.690  1.00  0.00     0.049 A 
ATOM     58  H   UNL A   1      44.222  28.571  30.108  1.00  0.00     0.167 HD
ATOM     59  C   UNL A   1      45.770  26.257  29.595  1.00  0.00     0.074 A 
ATOM     60  C   UNL A   1      46.154  24.945  29.117  1.00  0.00     0.031 C 
ATOM     61  C   UNL A   1      46.612  27.116  30.217  1.00  0.00     0.037 A 
BRANCH  48  62
ATOM     62  C   UNL A   1      44.041  32.526  31.700  1.00  0.00     0.057 A 
ATOM     63  C   UNL A   1      44.345  33.635  30.900  1.00  0.00     0.134 A 
ATOM     64  C   UNL A   1      43.848  32.750  33.069  1.00  0.00     0.134 A 
ATOM     65  F   UNL A   1      44.551  33.487  29.582  1.00  0.00    -0.206 F 
ATOM     66  C   UNL A   1      44.463  34.915  31.442  1.00  0.00     0.040 A 
ATOM     67  C   UNL A   1      43.938  34.031  33.619  1.00  0.00     0.040 A 
ATOM     68  F   UNL A   1      43.547  31.734  33.891  1.00  0.00    -0.206 F 
ATOM     69  C   UNL A   1      44.249  35.117  32.804  1.00  0.00     0.006 A 
ENDBRANCH  48  62
BRANCH  49  70
ATOM     70  C   UNL A   1      42.514  23.622  27.469  1.00  0.00     0.057 A 
ATOM     71  C   UNL A   1      42.230  22.470  28.214  1.00  0.00     0.134 A 
ATOM     72  C   UNL A   1      42.633  23.479  26.081  1.00  0.00     0.134 A 
ATOM     73  F   UNL A   1      42.123  22.540  29.548  1.00  0.00    -0.206 F 
ATOM     74  C   UNL A   1      42.100  21.220  27.607  1.00  0.00     0.040 A 
ATOM     75  C   UNL A   1      42.477  22.239  25.458  1.00  0.00     0.040 A 
ATOM     76  F   UNL A   1      42.896  24.544  25.310  1.00  0.00    -0.206 F 
ATOM     77  C   UNL A   1      42.220  21.104  26.223  1.00  0.00     0.006 A 
ENDBRANCH  49  70
BRANCH  61  78
ATOM     78  C   UNL A   1      48.020  26.652  30.450  1.00  0.00     0.057 A 
ATOM     79  C   UNL A   1      48.374  25.902  31.579  1.00  0.00     0.134 A 
ATOM     80  C   UNL A   1      49.027  26.930  29.517  1.00  0.00     0.134 A 
ATOM     81  F   UNL A   1      47.460  25.614  32.519  1.00  0.00    -0.206 F 
ATOM     82  C   UNL A   1      49.685  25.469  31.784  1.00  0.00     0.040 A 
ATOM     83  C   UNL A   1      50.334  26.478  29.697  1.00  0.00     0.040 A 
ATOM     84  F   UNL A   1      48.752  27.636  28.409  1.00  0.00    -0.206 F 
ATOM     85  C   UNL A   1      50.668  25.751  30.836  1.00  0.00     0.006 A 
ENDBRANCH  61  78
ENDBRANCH  35  36
ENDBRANCH  27  30
ENDBRANCH  25  26
ENDBRANCH   1  25
TORSDOF 12
ENDMDL
MODEL 3
REMARK VINA RESULT:     -12.4      0.382      6.160
REMARK SMILES C[C@@H](C(=O)NCCCNC(=O)c1ccc(-c2c3nc(c(-c4c(F)cccc4F)c4ccc([nH]4)c(-c4c(F)cccc4F)c4nc(c(-c5c(F)cccc5F)c5ccc2[nH]5)C=C4)C=C3)cc1)c1ccc(-c2ccc3[nH]ccc3c2)cc1
REMARK SMILES IDX 7 1 6 2 5 3 3 4 4 5 2 7 1 8 66 9 67 10 80 11 68 12 79 13
REMARK SMILES IDX 69 14 70 15 71 16 78 17 72 18 77 19 73 20 76 21 74 22 75 23
REMARK SMILES IDX 8 25 9 26 10 27 11 29 12 30 13 31 65 32 14 33 64 34 15 35
REMARK SMILES IDX 16 36 17 37 58 38 18 39 63 40 57 41 59 42 19 43 62 44 56 45
REMARK SMILES IDX 55 46 20 48 46 49 29 50 45 51 30 52 33 53 44 54 60 55 31 56
REMARK SMILES IDX 32 57 43 59 61 60 34 61 21 62 22 63 27 64 23 65 24 66 26 67
REMARK SMILES IDX 28 68 25 69 47 70 48 71 53 72 49 73 50 74 52 75 54 76 51 77
REMARK SMILES IDX 35 78 36 79 41 80 37 81 38 82 40 83 42 84 39 85
REMARK H PARENT 5 6 74 24 9 28 59 47 33 58
REMARK Flexibility Score: inf
ROOT
ATOM      1  C   UNL A   1      37.777  19.706  24.994  1.00  0.00     0.042 C 
ENDROOT
BRANCH   1   2
ATOM      2  C   UNL A   1      36.752  20.794  24.680  1.00  0.00     0.117 C 
BRANCH   2   3
ATOM      3  N   UNL A   1      35.399  20.325  24.899  1.00  0.00    -0.356 N 
ATOM      4  C   UNL A   1      34.433  20.778  25.752  1.00  0.00     0.227 C 
ATOM      5  O   UNL A   1      33.409  20.096  25.830  1.00  0.00    -0.274 OA
ATOM      6  H   UNL A   1      35.133  19.556  24.344  1.00  0.00     0.163 HD
BRANCH   4   7
ATOM      7  C   UNL A   1      34.639  22.090  26.530  1.00  0.00     0.105 C 
ATOM      8  C   UNL A   1      34.076  21.986  27.952  1.00  0.00     0.023 C 
BRANCH   7   9
ATOM      9  C   UNL A   1      34.080  23.285  25.758  1.00  0.00    -0.036 A 
ATOM     10  C   UNL A   1      32.894  23.894  26.202  1.00  0.00     0.005 A 
ATOM     11  C   UNL A   1      34.730  23.836  24.644  1.00  0.00     0.005 A 
ATOM     12  C   UNL A   1      32.380  25.020  25.553  1.00  0.00     0.009 A 
ATOM     13  C   UNL A   1      34.207  24.952  23.988  1.00  0.00     0.009 A 
ATOM     14  C   UNL A   1      33.033  25.565  24.441  1.00  0.00    -0.018 A 
BRANCH  14  15
ATOM     15  C   UNL A   1      32.536  26.776  23.787  1.00  0.00    -0.018 A 
ATOM     16  C   UNL A   1      33.441  27.726  23.293  1.00  0.00     0.011 A 
ATOM     17  C   UNL A   1      31.156  26.986  23.622  1.00  0.00     0.019 A 
ATOM     18  C   UNL A   1      33.011  28.874  22.621  1.00  0.00     0.027 A 
ATOM     19  C   UNL A   1      30.697  28.144  22.963  1.00  0.00    -0.000 A 
ATOM     20  C   UNL A   1      31.634  29.052  22.470  1.00  0.00     0.045 A 
ATOM     21  C   UNL A   1      29.408  28.661  22.655  1.00  0.00     0.028 A 
ATOM     22  N   UNL A   1      30.931  30.064  21.856  1.00  0.00    -0.361 N 
ATOM     23  C   UNL A   1      29.584  29.849  21.980  1.00  0.00     0.083 A 
ATOM     24  H   UNL A   1      31.338  30.834  21.395  1.00  0.00     0.166 HD
ENDBRANCH  14  15
ENDBRANCH   7   9
ENDBRANCH   4   7
ENDBRANCH   2   3
ENDBRANCH   1   2
BRANCH   1  25
ATOM     25  C   UNL A   1      38.901  20.155  25.926  1.00  0.00     0.118 C 
BRANCH  25  26
ATOM     26  N   UNL A   1      40.072  19.297  25.842  1.00  0.00    -0.352 N 
ATOM     27  C   UNL A   1      41.401  19.588  26.018  1.00  0.00     0.251 C 
ATOM     28  H   UNL A   1      39.880  18.356  25.623  1.00  0.00     0.163 HD
ATOM     29  O   UNL A   1      42.247  18.756  25.702  1.00  0.00    -0.269 OA
BRANCH  27  30
ATOM     30  C   UNL A   1      41.828  20.895  26.564  1.00  0.00     0.039 A 
ATOM     31  C   UNL A   1      42.245  21.887  25.671  1.00  0.00     0.014 A 
ATOM     32  C   UNL A   1      41.859  21.141  27.940  1.00  0.00     0.014 A 
ATOM     33  C   UNL A   1      42.624  23.142  26.152  1.00  0.00     0.010 A 
ATOM     34  C   UNL A   1      42.170  22.415  28.414  1.00  0.00     0.010 A 
ATOM     35  C   UNL A   1      42.551  23.431  27.524  1.00  0.00    -0.014 A 
BRANCH  35  36
ATOM     36  C   UNL A   1      42.835  24.797  28.035  1.00  0.00     0.031 A 
ATOM     37  C   UNL A   1      44.227  25.189  28.447  1.00  0.00     0.074 A 
ATOM     38  C   UNL A   1      41.818  25.669  28.185  1.00  0.00     0.049 A 
ATOM     39  N   UNL A   1      44.647  26.313  28.971  1.00  0.00    -0.248 NA
ATOM     40  C   UNL A   1      45.283  24.181  28.266  1.00  0.00     0.031 C 
ATOM     41  C   UNL A   1      40.415  25.395  27.864  1.00  0.00     0.029 A 
ATOM     42  N   UNL A   1      41.803  26.957  28.657  1.00  0.00    -0.354 N 
ATOM     43  C   UNL A   1      46.008  26.145  29.192  1.00  0.00     0.074 A 
ATOM     44  C   UNL A   1      46.337  24.795  28.786  1.00  0.00     0.031 C 
ATOM     45  C   UNL A   1      39.681  26.487  28.130  1.00  0.00     0.029 A 
ATOM     46  C   UNL A   1      40.550  27.523  28.680  1.00  0.00     0.049 A 
ATOM     47  H   UNL A   1      42.613  27.433  28.952  1.00  0.00     0.167 HD
ATOM     48  C   UNL A   1      46.903  27.040  29.672  1.00  0.00     0.037 A 
ATOM     49  C   UNL A   1      40.144  28.733  29.106  1.00  0.00     0.037 A 
ATOM     50  C   UNL A   1      46.579  28.389  30.055  1.00  0.00     0.049 A 
ATOM     51  C   UNL A   1      41.159  29.700  29.650  1.00  0.00     0.074 A 
ATOM     52  C   UNL A   1      47.431  29.390  30.490  1.00  0.00     0.029 A 
ATOM     53  N   UNL A   1      45.301  28.927  30.053  1.00  0.00    -0.354 N 
ATOM     54  N   UNL A   1      42.455  29.551  29.782  1.00  0.00    -0.248 NA
ATOM     55  C   UNL A   1      40.656  31.005  30.101  1.00  0.00     0.031 C 
ATOM     56  C   UNL A   1      46.664  30.517  30.798  1.00  0.00     0.029 A 
ATOM     57  C   UNL A   1      45.339  30.236  30.506  1.00  0.00     0.049 A 
ATOM     58  H   UNL A   1      44.488  28.450  29.771  1.00  0.00     0.167 HD
ATOM     59  C   UNL A   1      42.924  30.749  30.303  1.00  0.00     0.074 A 
ATOM     60  C   UNL A   1      41.778  31.622  30.446  1.00  0.00     0.031 C 
ATOM     61  C   UNL A   1      44.191  31.096  30.636  1.00  0.00     0.037 A 
BRANCH  48  62
ATOM     62  C   UNL A   1      48.331  26.596  29.812  1.00  0.00     0.057 A 
ATOM     63  C   UNL A   1      48.784  25.915  30.948  1.00  0.00     0.134 A 
ATOM     64  C   UNL A   1      49.245  26.791  28.768  1.00  0.00     0.134 A 
ATOM     65  F   UNL A   1      47.962  25.703  31.987  1.00  0.00    -0.206 F 
ATOM     66  C   UNL A   1      50.099  25.454  31.047  1.00  0.00     0.040 A 
ATOM     67  C   UNL A   1      50.555  26.314  28.845  1.00  0.00     0.040 A 
ATOM     68  F   UNL A   1      48.875  27.430  27.648  1.00  0.00    -0.206 F 
ATOM     69  C   UNL A   1      50.985  25.645  29.989  1.00  0.00     0.006 A 
ENDBRANCH  48  62
BRANCH  49  70
ATOM     70  C   UNL A   1      38.709  29.110  29.037  1.00  0.00     0.057 A 
ATOM     71  C   UNL A   1      38.142  29.586  27.848  1.00  0.00     0.134 A 
ATOM     72  C   UNL A   1      37.877  29.033  30.161  1.00  0.00     0.134 A 
ATOM     73  F   UNL A   1      38.893  29.700  26.742  1.00  0.00    -0.206 F 
ATOM     74  C   UNL A   1      36.810  29.999  27.786  1.00  0.00     0.040 A 
ATOM     75  C   UNL A   1      36.536  29.416  30.106  1.00  0.00     0.040 A 
ATOM     76  F   UNL A   1      38.356  28.578  31.328  1.00  0.00    -0.206 F 
ATOM     77  C   UNL A   1      36.003  29.910  28.918  1.00  0.00     0.006 A 
ENDBRANCH  49  70
BRANCH  61  78
ATOM     78  C   UNL A   1      44.409  32.488  31.152  1.00  0.00     0.057 A 
ATOM     79  C   UNL A   1      44.383  32.781  32.522  1.00  0.00     0.134 A 
ATOM     80  C   UNL A   1      44.678  33.543  30.271  1.00  0.00     0.134 A 
ATOM     81  F   UNL A   1      44.116  31.819  33.419  1.00  0.00    -0.206 F 
ATOM     82  C   UNL A   1      44.592  34.078  32.994  1.00  0.00     0.040 A 
ATOM     83  C   UNL A   1      44.918  34.837  30.732  1.00  0.00     0.040 A 
ATOM     84  F   UNL A   1      44.726  33.329  28.947  1.00  0.00    -0.206 F 
ATOM     85  C   UNL A   1      44.869  35.109  32.097  1.00  0.00     0.006 A 
ENDBRANCH  61  78
ENDBRANCH  35  36
ENDBRANCH  27  30
ENDBRANCH  25  26
ENDBRANCH   1  25
TORSDOF 12
ENDMDL
