MODEL 1
REMARK VINA RESULT:     -12.3      0.000      0.000
REMARK SMILES O=C(NCCCNC(=O)[C@@H]1CCCC[C@H]1C(=O)Nc1ncccn1)c1ccc(-c2c3nc(c(-c4c(F)cccc4F)c4ccc([nH]4)c(-c4c(F)cccc4F)c4nc(c(-c5c(F)cccc5F)c5ccc2[nH]5)C=C4)C=C3)cc1
REMARK SMILES IDX 5 1 4 2 3 3 1 4 2 5 25 7 26 8 78 9 27 10 77 11 28 12 29 13
REMARK SMILES IDX 30 14 71 15 31 16 76 17 70 18 72 19 32 20 75 21 69 22 68 23
REMARK SMILES IDX 33 25 59 26 42 27 58 28 43 29 46 30 57 31 73 32 44 33 45 34
REMARK SMILES IDX 56 36 74 37 47 38 34 39 35 40 40 41 36 42 37 43 39 44 41 45
REMARK SMILES IDX 38 46 60 47 61 48 66 49 62 50 63 51 65 52 67 53 64 54 48 55
REMARK SMILES IDX 49 56 54 57 50 58 51 59 53 60 55 61 52 62 6 63 7 64 8 65
REMARK SMILES IDX 9 67 10 68 11 69 15 70 12 71 14 72 13 73 16 74 17 75 18 76
REMARK SMILES IDX 19 78 20 79 24 80 21 81 23 82 22 83
REMARK H PARENT 3 6 72 24 46 35 7 66 18 77
REMARK Flexibility Score: inf
ROOT
ATOM      1  C   UNL A   1      37.774  19.600  24.989  1.00  0.00     0.042 C 
ENDROOT
BRANCH   1   2
ATOM      2  C   UNL A   1      38.963  20.161  25.751  1.00  0.00     0.118 C 
BRANCH   2   3
ATOM      3  N   UNL A   1      40.025  19.168  25.884  1.00  0.00    -0.352 N 
ATOM      4  O   UNL A   1      42.126  18.375  25.752  1.00  0.00    -0.269 OA
ATOM      5  C   UNL A   1      41.381  19.334  25.972  1.00  0.00     0.251 C 
ATOM      6  H   UNL A   1      39.717  18.233  25.916  1.00  0.00     0.163 HD
BRANCH   5   7
ATOM      7  C   UNL A   1      41.962  20.637  26.350  1.00  0.00     0.039 A 
ATOM      8  C   UNL A   1      42.233  21.599  25.376  1.00  0.00     0.014 A 
ATOM      9  C   UNL A   1      42.157  20.942  27.702  1.00  0.00     0.014 A 
ATOM     10  C   UNL A   1      42.823  22.802  25.732  1.00  0.00     0.010 A 
ATOM     11  C   UNL A   1      42.643  22.200  28.069  1.00  0.00     0.010 A 
ATOM     12  C   UNL A   1      42.992  23.134  27.083  1.00  0.00    -0.014 A 
BRANCH  12  13
ATOM     13  C   UNL A   1      43.435  24.506  27.427  1.00  0.00     0.031 A 
ATOM     14  C   UNL A   1      44.867  24.923  27.277  1.00  0.00     0.074 A 
ATOM     15  C   UNL A   1      42.505  25.386  27.847  1.00  0.00     0.049 A 
ATOM     16  N   UNL A   1      45.411  26.090  27.508  1.00  0.00    -0.248 NA
ATOM     17  C   UNL A   1      45.815  23.896  26.820  1.00  0.00     0.031 C 
ATOM     18  C   UNL A   1      41.084  25.080  28.039  1.00  0.00     0.029 A 
ATOM     19  N   UNL A   1      42.600  26.715  28.163  1.00  0.00    -0.354 N 
ATOM     20  C   UNL A   1      46.765  25.935  27.245  1.00  0.00     0.074 A 
ATOM     21  C   UNL A   1      46.966  24.554  26.862  1.00  0.00     0.031 C 
ATOM     22  C   UNL A   1      40.432  26.200  28.375  1.00  0.00     0.029 A 
ATOM     23  C   UNL A   1      41.397  27.285  28.498  1.00  0.00     0.049 A 
ATOM     24  H   UNL A   1      43.450  27.214  28.151  1.00  0.00     0.167 HD
ATOM     25  C   UNL A   1      47.747  26.867  27.315  1.00  0.00     0.037 A 
ATOM     26  C   UNL A   1      41.102  28.540  28.878  1.00  0.00     0.037 A 
ATOM     27  C   UNL A   1      47.529  28.241  27.691  1.00  0.00     0.049 A 
ATOM     28  C   UNL A   1      42.211  29.542  28.974  1.00  0.00     0.074 A 
ATOM     29  C   UNL A   1      48.447  29.274  27.764  1.00  0.00     0.029 A 
ATOM     30  N   UNL A   1      46.301  28.773  28.067  1.00  0.00    -0.354 N 
ATOM     31  N   UNL A   1      43.483  29.390  28.696  1.00  0.00    -0.248 NA
ATOM     32  C   UNL A   1      41.849  30.884  29.443  1.00  0.00     0.031 C 
ATOM     33  C   UNL A   1      47.786  30.417  28.228  1.00  0.00     0.029 A 
ATOM     34  C   UNL A   1      46.445  30.111  28.397  1.00  0.00     0.049 A 
ATOM     35  H   UNL A   1      45.454  28.273  28.094  1.00  0.00     0.167 HD
ATOM     36  C   UNL A   1      44.074  30.620  28.944  1.00  0.00     0.074 A 
ATOM     37  C   UNL A   1      43.015  31.511  29.374  1.00  0.00     0.031 C 
ATOM     38  C   UNL A   1      45.377  30.979  28.829  1.00  0.00     0.037 A 
BRANCH  25  39
ATOM     39  C   UNL A   1      49.147  26.419  27.008  1.00  0.00     0.057 A 
ATOM     40  C   UNL A   1      50.025  25.978  28.008  1.00  0.00     0.134 A 
ATOM     41  C   UNL A   1      49.619  26.414  25.689  1.00  0.00     0.134 A 
ATOM     42  F   UNL A   1      49.642  25.969  29.293  1.00  0.00    -0.206 F 
ATOM     43  C   UNL A   1      51.330  25.578  27.710  1.00  0.00     0.040 A 
ATOM     44  C   UNL A   1      50.912  25.991  25.376  1.00  0.00     0.040 A 
ATOM     45  F   UNL A   1      48.831  26.817  24.682  1.00  0.00    -0.206 F 
ATOM     46  C   UNL A   1      51.774  25.579  26.390  1.00  0.00     0.006 A 
ENDBRANCH  25  39
BRANCH  26  47
ATOM     47  C   UNL A   1      39.698  28.901  29.197  1.00  0.00     0.057 A 
ATOM     48  C   UNL A   1      38.815  29.320  28.196  1.00  0.00     0.134 A 
ATOM     49  C   UNL A   1      39.197  28.799  30.501  1.00  0.00     0.134 A 
ATOM     50  F   UNL A   1      39.240  29.450  26.931  1.00  0.00    -0.206 F 
ATOM     51  C   UNL A   1      37.484  29.631  28.481  1.00  0.00     0.040 A 
ATOM     52  C   UNL A   1      37.862  29.080  30.795  1.00  0.00     0.040 A 
ATOM     53  F   UNL A   1      39.990  28.393  31.502  1.00  0.00    -0.206 F 
ATOM     54  C   UNL A   1      37.002  29.502  29.782  1.00  0.00     0.006 A 
ENDBRANCH  26  47
BRANCH  38  55
ATOM     55  C   UNL A   1      45.715  32.404  29.151  1.00  0.00     0.057 A 
ATOM     56  C   UNL A   1      46.112  32.795  30.436  1.00  0.00     0.134 A 
ATOM     57  C   UNL A   1      45.662  33.390  28.159  1.00  0.00     0.134 A 
ATOM     58  F   UNL A   1      46.166  31.900  31.434  1.00  0.00    -0.206 F 
ATOM     59  C   UNL A   1      46.422  34.125  30.728  1.00  0.00     0.040 A 
ATOM     60  C   UNL A   1      45.995  34.717  28.432  1.00  0.00     0.040 A 
ATOM     61  F   UNL A   1      45.295  33.078  26.907  1.00  0.00    -0.206 F 
ATOM     62  C   UNL A   1      46.369  35.088  29.722  1.00  0.00     0.006 A 
ENDBRANCH  38  55
ENDBRANCH  12  13
ENDBRANCH   5   7
ENDBRANCH   2   3
ENDBRANCH   1   2
BRANCH   1  63
ATOM     63  C   UNL A   1      36.520  20.452  25.138  1.00  0.00     0.117 C 
BRANCH  63  64
ATOM     64  N   UNL A   1      36.503  21.543  24.189  1.00  0.00    -0.356 N 
ATOM     65  C   UNL A   1      35.622  22.491  23.828  1.00  0.00     0.223 C 
ATOM     66  H   UNL A   1      37.345  21.607  23.682  1.00  0.00     0.163 HD
ATOM     67  O   UNL A   1      36.047  23.230  22.923  1.00  0.00    -0.275 OA
BRANCH  65  68
ATOM     68  C   UNL A   1      34.188  22.726  24.358  1.00  0.00     0.091 C 
ATOM     69  C   UNL A   1      34.390  23.699  25.555  1.00  0.00     0.014 C 
ATOM     70  C   UNL A   1      33.251  21.555  24.722  1.00  0.00     0.091 C 
ATOM     71  C   UNL A   1      33.162  23.972  26.408  1.00  0.00     0.001 C 
ATOM     72  C   UNL A   1      32.130  21.828  25.751  1.00  0.00     0.014 C 
ATOM     73  C   UNL A   1      32.576  22.675  26.921  1.00  0.00     0.001 C 
BRANCH  70  74
ATOM     74  C   UNL A   1      32.564  20.830  23.554  1.00  0.00     0.230 C 
ATOM     75  O   UNL A   1      32.136  21.508  22.608  1.00  0.00    -0.274 OA
ATOM     76  N   UNL A   1      32.529  19.492  23.369  1.00  0.00    -0.294 N 
ATOM     77  H   UNL A   1      32.064  19.219  22.544  1.00  0.00     0.173 HD
BRANCH  76  78
ATOM     78  C   UNL A   1      33.016  18.434  24.107  1.00  0.00     0.229 A 
ATOM     79  N   UNL A   1      32.153  17.944  25.007  1.00  0.00    -0.221 NA
ATOM     80  N   UNL A   1      34.223  17.920  23.876  1.00  0.00    -0.221 NA
ATOM     81  C   UNL A   1      32.523  16.816  25.642  1.00  0.00     0.117 A 
ATOM     82  C   UNL A   1      34.581  16.836  24.586  1.00  0.00     0.117 A 
ATOM     83  C   UNL A   1      33.743  16.212  25.471  1.00  0.00     0.040 A 
ENDBRANCH  76  78
ENDBRANCH  70  74
ENDBRANCH  65  68
ENDBRANCH  63  64
ENDBRANCH   1  63
TORSDOF 12
ENDMDL
MODEL 2
REMARK VINA RESULT:     -12.2      1.364      2.239
REMARK SMILES O=C(NCCCNC(=O)[C@@H]1CCCC[C@H]1C(=O)Nc1ncccn1)c1ccc(-c2c3nc(c(-c4c(F)cccc4F)c4ccc([nH]4)c(-c4c(F)cccc4F)c4nc(c(-c5c(F)cccc5F)c5ccc2[nH]5)C=C4)C=C3)cc1
REMARK SMILES IDX 5 1 4 2 3 3 1 4 2 5 25 7 26 8 78 9 27 10 77 11 28 12 29 13
REMARK SMILES IDX 30 14 71 15 31 16 76 17 70 18 72 19 32 20 75 21 69 22 68 23
REMARK SMILES IDX 33 25 59 26 42 27 58 28 43 29 46 30 57 31 73 32 44 33 45 34
REMARK SMILES IDX 56 36 74 37 47 38 34 39 35 40 40 41 36 42 37 43 39 44 41 45
REMARK SMILES IDX 38 46 60 47 61 48 66 49 62 50 63 51 65 52 67 53 64 54 48 55
REMARK SMILES IDX 49 56 54 57 50 58 51 59 53 60 55 61 52 62 6 63 7 64 8 65
REMARK SMILES IDX 9 67 10 68 11 69 15 70 12 71 14 72 13 73 16 74 17 75 18 76
REMARK SMILES IDX 19 78 20 79 24 80 21 81 23 82 22 83
REMARK H PARENT 3 6 72 24 46 35 7 66 18 77
REMARK Flexibility Score: inf
ROOT
ATOM      1  C   UNL A   1      37.690  19.750  24.937  1.00  0.00     0.042 C 
ENDROOT
BRANCH   1   2
ATOM      2  C   UNL A   1      38.853  20.365  25.697  1.00  0.00     0.118 C 
BRANCH   2   3
ATOM      3  N   UNL A   1      39.970  19.432  25.808  1.00  0.00    -0.352 N 
ATOM      4  O   UNL A   1      42.127  18.792  25.765  1.00  0.00    -0.269 OA
ATOM      5  C   UNL A   1      41.300  19.671  26.026  1.00  0.00     0.251 C 
ATOM      6  H   UNL A   1      39.729  18.482  25.711  1.00  0.00     0.163 HD
BRANCH   5   7
ATOM      7  C   UNL A   1      41.756  20.955  26.594  1.00  0.00     0.039 A 
ATOM      8  C   UNL A   1      42.076  22.024  25.755  1.00  0.00     0.014 A 
ATOM      9  C   UNL A   1      41.781  21.128  27.982  1.00  0.00     0.014 A 
ATOM     10  C   UNL A   1      42.549  23.212  26.292  1.00  0.00     0.010 A 
ATOM     11  C   UNL A   1      42.147  22.364  28.523  1.00  0.00     0.010 A 
ATOM     12  C   UNL A   1      42.547  23.411  27.680  1.00  0.00    -0.014 A 
BRANCH  12  13
ATOM     13  C   UNL A   1      42.865  24.760  28.203  1.00  0.00     0.031 A 
ATOM     14  C   UNL A   1      44.277  25.169  28.494  1.00  0.00     0.074 A 
ATOM     15  C   UNL A   1      41.850  25.628  28.380  1.00  0.00     0.049 A 
ATOM     16  N   UNL A   1      44.727  26.318  28.929  1.00  0.00    -0.248 NA
ATOM     17  C   UNL A   1      45.322  24.156  28.280  1.00  0.00     0.031 C 
ATOM     18  C   UNL A   1      40.435  25.327  28.138  1.00  0.00     0.029 A 
ATOM     19  N   UNL A   1      41.844  26.939  28.774  1.00  0.00    -0.354 N 
ATOM     20  C   UNL A   1      46.099  26.163  29.062  1.00  0.00     0.074 A 
ATOM     21  C   UNL A   1      46.409  24.799  28.686  1.00  0.00     0.031 C 
ATOM     22  C   UNL A   1      39.709  26.436  28.326  1.00  0.00     0.029 A 
ATOM     23  C   UNL A   1      40.593  27.504  28.775  1.00  0.00     0.049 A 
ATOM     24  H   UNL A   1      42.659  27.429  29.033  1.00  0.00     0.167 HD
ATOM     25  C   UNL A   1      47.015  27.081  29.458  1.00  0.00     0.037 A 
ATOM     26  C   UNL A   1      40.195  28.742  29.115  1.00  0.00     0.037 A 
ATOM     27  C   UNL A   1      46.692  28.437  29.821  1.00  0.00     0.049 A 
ATOM     28  C   UNL A   1      41.225  29.727  29.577  1.00  0.00     0.074 A 
ATOM     29  C   UNL A   1      47.545  29.455  30.207  1.00  0.00     0.029 A 
ATOM     30  N   UNL A   1      45.406  28.962  29.853  1.00  0.00    -0.354 N 
ATOM     31  N   UNL A   1      42.523  29.576  29.671  1.00  0.00    -0.248 NA
ATOM     32  C   UNL A   1      40.737  31.048  29.986  1.00  0.00     0.031 C 
ATOM     33  C   UNL A   1      46.773  30.581  30.517  1.00  0.00     0.029 A 
ATOM     34  C   UNL A   1      45.442  30.281  30.275  1.00  0.00     0.049 A 
ATOM     35  H   UNL A   1      44.589  28.469  29.610  1.00  0.00     0.167 HD
ATOM     36  C   UNL A   1      43.012  30.787  30.139  1.00  0.00     0.074 A 
ATOM     37  C   UNL A   1      41.870  31.667  30.288  1.00  0.00     0.031 C 
ATOM     38  C   UNL A   1      44.291  31.138  30.423  1.00  0.00     0.037 A 
BRANCH  25  39
ATOM     39  C   UNL A   1      48.447  26.634  29.547  1.00  0.00     0.057 A 
ATOM     40  C   UNL A   1      49.353  26.822  28.495  1.00  0.00     0.134 A 
ATOM     41  C   UNL A   1      48.929  26.018  30.710  1.00  0.00     0.134 A 
ATOM     42  F   UNL A   1      48.955  27.394  27.348  1.00  0.00    -0.206 F 
ATOM     43  C   UNL A   1      50.678  26.389  28.585  1.00  0.00     0.040 A 
ATOM     44  C   UNL A   1      50.257  25.604  30.821  1.00  0.00     0.040 A 
ATOM     45  F   UNL A   1      48.118  25.812  31.758  1.00  0.00    -0.206 F 
ATOM     46  C   UNL A   1      51.134  25.783  29.753  1.00  0.00     0.006 A 
ENDBRANCH  25  39
BRANCH  26  47
ATOM     47  C   UNL A   1      38.757  29.102  29.032  1.00  0.00     0.057 A 
ATOM     48  C   UNL A   1      37.930  29.038  30.158  1.00  0.00     0.134 A 
ATOM     49  C   UNL A   1      38.187  29.554  27.835  1.00  0.00     0.134 A 
ATOM     50  F   UNL A   1      38.415  28.599  31.329  1.00  0.00    -0.206 F 
ATOM     51  C   UNL A   1      36.585  29.405  30.097  1.00  0.00     0.040 A 
ATOM     52  C   UNL A   1      36.851  29.952  27.766  1.00  0.00     0.040 A 
ATOM     53  F   UNL A   1      38.930  29.649  26.723  1.00  0.00    -0.206 F 
ATOM     54  C   UNL A   1      36.044  29.872  28.900  1.00  0.00     0.006 A 
ENDBRANCH  26  47
BRANCH  38  55
ATOM     55  C   UNL A   1      44.515  32.542  30.898  1.00  0.00     0.057 A 
ATOM     56  C   UNL A   1      44.708  33.602  30.003  1.00  0.00     0.134 A 
ATOM     57  C   UNL A   1      44.516  32.838  32.267  1.00  0.00     0.134 A 
ATOM     58  F   UNL A   1      44.735  33.380  28.680  1.00  0.00    -0.206 F 
ATOM     59  C   UNL A   1      44.919  34.906  30.455  1.00  0.00     0.040 A 
ATOM     60  C   UNL A   1      44.699  34.142  32.729  1.00  0.00     0.040 A 
ATOM     61  F   UNL A   1      44.331  31.869  33.174  1.00  0.00    -0.206 F 
ATOM     62  C   UNL A   1      44.908  35.178  31.822  1.00  0.00     0.006 A 
ENDBRANCH  38  55
ENDBRANCH  12  13
ENDBRANCH   5   7
ENDBRANCH   2   3
ENDBRANCH   1   2
BRANCH   1  63
ATOM     63  C   UNL A   1      36.407  20.560  25.060  1.00  0.00     0.117 C 
BRANCH  63  64
ATOM     64  N   UNL A   1      36.379  21.657  24.118  1.00  0.00    -0.356 N 
ATOM     65  C   UNL A   1      35.488  22.598  23.763  1.00  0.00     0.223 C 
ATOM     66  H   UNL A   1      37.221  21.733  23.612  1.00  0.00     0.163 HD
ATOM     67  O   UNL A   1      35.906  23.348  22.864  1.00  0.00    -0.275 OA
BRANCH  65  68
ATOM     68  C   UNL A   1      34.052  22.814  24.294  1.00  0.00     0.091 C 
ATOM     69  C   UNL A   1      34.241  23.795  25.487  1.00  0.00     0.014 C 
ATOM     70  C   UNL A   1      33.132  21.632  24.662  1.00  0.00     0.091 C 
ATOM     71  C   UNL A   1      33.010  24.053  26.340  1.00  0.00     0.001 C 
ATOM     72  C   UNL A   1      32.008  21.892  25.692  1.00  0.00     0.014 C 
ATOM     73  C   UNL A   1      32.443  22.750  26.859  1.00  0.00     0.001 C 
BRANCH  70  74
ATOM     74  C   UNL A   1      32.454  20.893  23.498  1.00  0.00     0.230 C 
ATOM     75  O   UNL A   1      32.017  21.561  22.550  1.00  0.00    -0.274 OA
ATOM     76  N   UNL A   1      32.437  19.553  23.318  1.00  0.00    -0.294 N 
ATOM     77  H   UNL A   1      31.976  19.271  22.495  1.00  0.00     0.173 HD
BRANCH  76  78
ATOM     78  C   UNL A   1      32.939  18.505  24.060  1.00  0.00     0.229 A 
ATOM     79  N   UNL A   1      32.158  18.127  25.081  1.00  0.00    -0.221 NA
ATOM     80  N   UNL A   1      34.075  17.895  23.726  1.00  0.00    -0.221 NA
ATOM     81  C   UNL A   1      32.527  17.011  25.739  1.00  0.00     0.117 A 
ATOM     82  C   UNL A   1      34.444  16.829  24.457  1.00  0.00     0.117 A 
ATOM     83  C   UNL A   1      33.678  16.314  25.469  1.00  0.00     0.040 A 
ENDBRANCH  76  78
ENDBRANCH  70  74
ENDBRANCH  65  68
ENDBRANCH  63  64
ENDBRANCH   1  63
TORSDOF 12
ENDMDL
MODEL 3
REMARK VINA RESULT:     -12.2      0.210      6.300
REMARK SMILES O=C(NCCCNC(=O)[C@@H]1CCCC[C@H]1C(=O)Nc1ncccn1)c1ccc(-c2c3nc(c(-c4c(F)cccc4F)c4ccc([nH]4)c(-c4c(F)cccc4F)c4nc(c(-c5c(F)cccc5F)c5ccc2[nH]5)C=C4)C=C3)cc1
REMARK SMILES IDX 5 1 4 2 3 3 1 4 2 5 25 7 26 8 78 9 27 10 77 11 28 12 29 13
REMARK SMILES IDX 30 14 71 15 31 16 76 17 70 18 72 19 32 20 75 21 69 22 68 23
REMARK SMILES IDX 33 25 59 26 42 27 58 28 43 29 46 30 57 31 73 32 44 33 45 34
REMARK SMILES IDX 56 36 74 37 47 38 34 39 35 40 40 41 36 42 37 43 39 44 41 45
REMARK SMILES IDX 38 46 60 47 61 48 66 49 62 50 63 51 65 52 67 53 64 54 48 55
REMARK SMILES IDX 49 56 54 57 50 58 51 59 53 60 55 61 52 62 6 63 7 64 8 65
REMARK SMILES IDX 9 67 10 68 11 69 15 70 12 71 14 72 13 73 16 74 17 75 18 76
REMARK SMILES IDX 19 78 20 79 24 80 21 81 23 82 22 83
REMARK H PARENT 3 6 72 24 46 35 7 66 18 77
REMARK Flexibility Score: inf
ROOT
ATOM      1  C   UNL A   1      37.714  19.528  25.000  1.00  0.00     0.042 C 
ENDROOT
BRANCH   1   2
ATOM      2  C   UNL A   1      38.966  20.191  25.547  1.00  0.00     0.118 C 
BRANCH   2   3
ATOM      3  N   UNL A   1      39.991  19.203  25.877  1.00  0.00    -0.352 N 
ATOM      4  O   UNL A   1      42.079  18.382  26.034  1.00  0.00    -0.269 OA
ATOM      5  C   UNL A   1      41.333  19.364  26.090  1.00  0.00     0.251 C 
ATOM      6  H   UNL A   1      39.664  18.278  25.958  1.00  0.00     0.163 HD
BRANCH   5   7
ATOM      7  C   UNL A   1      41.896  20.690  26.412  1.00  0.00     0.039 A 
ATOM      8  C   UNL A   1      42.141  21.619  25.398  1.00  0.00     0.014 A 
ATOM      9  C   UNL A   1      42.101  21.050  27.748  1.00  0.00     0.014 A 
ATOM     10  C   UNL A   1      42.714  22.844  25.701  1.00  0.00     0.010 A 
ATOM     11  C   UNL A   1      42.571  22.328  28.062  1.00  0.00     0.010 A 
ATOM     12  C   UNL A   1      42.893  23.230  27.037  1.00  0.00    -0.014 A 
BRANCH  12  13
ATOM     13  C   UNL A   1      43.316  24.621  27.323  1.00  0.00     0.031 A 
ATOM     14  C   UNL A   1      42.337  25.649  27.803  1.00  0.00     0.074 A 
ATOM     15  C   UNL A   1      44.619  24.931  27.172  1.00  0.00     0.049 A 
ATOM     16  N   UNL A   1      42.551  26.900  28.124  1.00  0.00    -0.248 NA
ATOM     17  C   UNL A   1      40.934  25.225  27.932  1.00  0.00     0.031 C 
ATOM     18  C   UNL A   1      45.654  24.007  26.699  1.00  0.00     0.029 A 
ATOM     19  N   UNL A   1      45.303  26.091  27.424  1.00  0.00    -0.354 N 
ATOM     20  C   UNL A   1      41.312  27.419  28.471  1.00  0.00     0.074 A 
ATOM     21  C   UNL A   1      40.344  26.355  28.297  1.00  0.00     0.031 C 
ATOM     22  C   UNL A   1      46.847  24.613  26.754  1.00  0.00     0.029 A 
ATOM     23  C   UNL A   1      46.653  25.989  27.194  1.00  0.00     0.049 A 
ATOM     24  H   UNL A   1      44.869  26.917  27.738  1.00  0.00     0.167 HD
ATOM     25  C   UNL A   1      41.014  28.670  28.899  1.00  0.00     0.037 A 
ATOM     26  C   UNL A   1      47.628  26.907  27.308  1.00  0.00     0.037 A 
ATOM     27  C   UNL A   1      41.990  29.715  29.074  1.00  0.00     0.049 A 
ATOM     28  C   UNL A   1      47.266  28.290  27.756  1.00  0.00     0.074 A 
ATOM     29  C   UNL A   1      41.800  31.007  29.532  1.00  0.00     0.029 A 
ATOM     30  N   UNL A   1      43.344  29.589  28.789  1.00  0.00    -0.354 N 
ATOM     31  N   UNL A   1      46.095  28.760  28.108  1.00  0.00    -0.248 NA
ATOM     32  C   UNL A   1      48.356  29.270  27.815  1.00  0.00     0.031 C 
ATOM     33  C   UNL A   1      43.028  31.677  29.479  1.00  0.00     0.029 A 
ATOM     34  C   UNL A   1      43.995  30.787  29.037  1.00  0.00     0.049 A 
ATOM     35  H   UNL A   1      43.777  28.769  28.460  1.00  0.00     0.167 HD
ATOM     36  C   UNL A   1      46.306  30.089  28.443  1.00  0.00     0.074 A 
ATOM     37  C   UNL A   1      47.723  30.341  28.272  1.00  0.00     0.031 C 
ATOM     38  C   UNL A   1      45.407  31.018  28.854  1.00  0.00     0.037 A 
BRANCH  25  39
ATOM     39  C   UNL A   1      39.570  28.980  29.177  1.00  0.00     0.057 A 
ATOM     40  C   UNL A   1      39.014  28.857  30.457  1.00  0.00     0.134 A 
ATOM     41  C   UNL A   1      38.727  29.423  28.148  1.00  0.00     0.134 A 
ATOM     42  F   UNL A   1      39.762  28.426  31.485  1.00  0.00    -0.206 F 
ATOM     43  C   UNL A   1      37.666  29.134  30.698  1.00  0.00     0.040 A 
ATOM     44  C   UNL A   1      37.385  29.727  28.383  1.00  0.00     0.040 A 
ATOM     45  F   UNL A   1      39.194  29.569  26.900  1.00  0.00    -0.206 F 
ATOM     46  C   UNL A   1      36.850  29.576  29.660  1.00  0.00     0.006 A 
ENDBRANCH  25  39
BRANCH  26  47
ATOM     47  C   UNL A   1      49.029  26.536  26.985  1.00  0.00     0.057 A 
ATOM     48  C   UNL A   1      49.864  25.960  27.948  1.00  0.00     0.134 A 
ATOM     49  C   UNL A   1      49.552  26.713  25.698  1.00  0.00     0.134 A 
ATOM     50  F   UNL A   1      49.424  25.778  29.202  1.00  0.00    -0.206 F 
ATOM     51  C   UNL A   1      51.172  25.578  27.646  1.00  0.00     0.040 A 
ATOM     52  C   UNL A   1      50.848  26.310  25.374  1.00  0.00     0.040 A 
ATOM     53  F   UNL A   1      48.798  27.249  24.727  1.00  0.00    -0.206 F 
ATOM     54  C   UNL A   1      51.664  25.744  26.352  1.00  0.00     0.006 A 
ENDBRANCH  26  47
BRANCH  38  55
ATOM     55  C   UNL A   1      45.943  32.383  29.167  1.00  0.00     0.057 A 
ATOM     56  C   UNL A   1      46.432  32.709  30.438  1.00  0.00     0.134 A 
ATOM     57  C   UNL A   1      45.989  33.373  28.179  1.00  0.00     0.134 A 
ATOM     58  F   UNL A   1      46.399  31.809  31.432  1.00  0.00    -0.206 F 
ATOM     59  C   UNL A   1      46.927  33.983  30.722  1.00  0.00     0.040 A 
ATOM     60  C   UNL A   1      46.506  34.642  28.443  1.00  0.00     0.040 A 
ATOM     61  F   UNL A   1      45.542  33.122  26.940  1.00  0.00    -0.206 F 
ATOM     62  C   UNL A   1      46.970  34.951  29.720  1.00  0.00     0.006 A 
ENDBRANCH  38  55
ENDBRANCH  12  13
ENDBRANCH   5   7
ENDBRANCH   2   3
ENDBRANCH   1   2
BRANCH   1  63
ATOM     63  C   UNL A   1      36.471  20.395  25.150  1.00  0.00     0.117 C 
BRANCH  63  64
ATOM     64  N   UNL A   1      36.483  21.506  24.224  1.00  0.00    -0.356 N 
ATOM     65  C   UNL A   1      35.620  22.472  23.869  1.00  0.00     0.223 C 
ATOM     66  H   UNL A   1      37.335  21.570  23.734  1.00  0.00     0.163 HD
ATOM     67  O   UNL A   1      36.070  23.225  22.988  1.00  0.00    -0.275 OA
BRANCH  65  68
ATOM     68  C   UNL A   1      34.181  22.713  24.379  1.00  0.00     0.091 C 
ATOM     69  C   UNL A   1      34.370  23.689  25.577  1.00  0.00     0.014 C 
ATOM     70  C   UNL A   1      33.234  21.547  24.733  1.00  0.00     0.091 C 
ATOM     71  C   UNL A   1      33.131  23.968  26.412  1.00  0.00     0.001 C 
ATOM     72  C   UNL A   1      32.101  21.826  25.747  1.00  0.00     0.014 C 
ATOM     73  C   UNL A   1      32.534  22.675  26.921  1.00  0.00     0.001 C 
BRANCH  70  74
ATOM     74  C   UNL A   1      32.561  20.822  23.559  1.00  0.00     0.230 C 
ATOM     75  O   UNL A   1      32.141  21.499  22.609  1.00  0.00    -0.274 OA
ATOM     76  N   UNL A   1      32.530  19.483  23.371  1.00  0.00    -0.294 N 
ATOM     77  H   UNL A   1      32.074  19.210  22.542  1.00  0.00     0.173 HD
BRANCH  76  78
ATOM     78  C   UNL A   1      33.012  18.425  24.114  1.00  0.00     0.229 A 
ATOM     79  N   UNL A   1      32.154  17.957  25.030  1.00  0.00    -0.221 NA
ATOM     80  N   UNL A   1      34.208  17.892  23.872  1.00  0.00    -0.221 NA
ATOM     81  C   UNL A   1      32.516  16.830  25.671  1.00  0.00     0.117 A 
ATOM     82  C   UNL A   1      34.560  16.810  24.588  1.00  0.00     0.117 A 
ATOM     83  C   UNL A   1      33.725  16.206  25.491  1.00  0.00     0.040 A 
ENDBRANCH  76  78
ENDBRANCH  70  74
ENDBRANCH  65  68
ENDBRANCH  63  64
ENDBRANCH   1  63
TORSDOF 12
ENDMDL
