MODEL 1
REMARK VINA RESULT:     -12.9      0.000      0.000
REMARK SMILES O=C(NCCCNC(=O)c1cc(NC(=O)c2cc([N+](=O)[O-])ccc2N2CCCC2)ccc1Cl)c1ccc(-c2c3nc(c(-c4c(F)cccc4F)c4ccc([nH]4)c(-c4c(F)cccc4F)c4nc(c(-c5c(F)cccc5F)c5ccc2[nH]5)C=C4)C=C3)cc1
REMARK SMILES IDX 5 1 4 2 3 3 1 4 2 5 34 7 35 8 87 9 36 10 86 11 37 12 38 13
REMARK SMILES IDX 39 14 80 15 40 16 85 17 79 18 81 19 41 20 84 21 78 22 77 23
REMARK SMILES IDX 42 25 68 26 51 27 67 28 52 29 55 30 66 31 82 32 53 33 54 34
REMARK SMILES IDX 65 36 83 37 56 38 43 39 44 40 49 41 45 42 46 43 48 44 50 45
REMARK SMILES IDX 47 46 69 47 70 48 75 49 71 50 72 51 74 52 76 53 73 54 57 55
REMARK SMILES IDX 58 56 63 57 59 58 60 59 62 60 64 61 61 62 6 63 7 64 8 65
REMARK SMILES IDX 9 67 10 68 11 69 32 70 12 71 31 72 33 73 30 74 13 75 14 76
REMARK SMILES IDX 15 78 16 79 17 80 24 81 18 82 23 83 22 84 25 85 26 86 29 87
REMARK SMILES IDX 27 88 28 89 19 90 20 91 21 92
REMARK H PARENT 3 6 81 24 55 35 7 66 13 77
REMARK Flexibility Score: inf
ROOT
ATOM      1  C   UNL A   1      33.225  28.730  27.024  1.00  0.00     0.042 C 
ENDROOT
BRANCH   1   2
ATOM      2  C   UNL A   1      34.663  29.115  27.343  1.00  0.00     0.118 C 
BRANCH   2   3
ATOM      3  N   UNL A   1      34.782  30.095  28.408  1.00  0.00    -0.352 N 
ATOM      4  O   UNL A   1      35.644  31.236  30.135  1.00  0.00    -0.269 OA
ATOM      5  C   UNL A   1      35.840  30.450  29.214  1.00  0.00     0.251 C 
ATOM      6  H   UNL A   1      33.955  30.598  28.588  1.00  0.00     0.163 HD
BRANCH   5   7
ATOM      7  C   UNL A   1      37.198  29.877  29.029  1.00  0.00     0.039 A 
ATOM      8  C   UNL A   1      37.903  29.272  30.068  1.00  0.00     0.014 A 
ATOM      9  C   UNL A   1      37.766  29.905  27.748  1.00  0.00     0.014 A 
ATOM     10  C   UNL A   1      39.225  28.874  29.879  1.00  0.00     0.010 A 
ATOM     11  C   UNL A   1      39.058  29.411  27.534  1.00  0.00     0.010 A 
ATOM     12  C   UNL A   1      39.823  28.939  28.609  1.00  0.00    -0.014 A 
BRANCH  12  13
ATOM     13  C   UNL A   1      41.236  28.496  28.438  1.00  0.00     0.031 A 
ATOM     14  C   UNL A   1      41.564  27.076  28.056  1.00  0.00     0.074 A 
ATOM     15  C   UNL A   1      42.231  29.391  28.584  1.00  0.00     0.049 A 
ATOM     16  N   UNL A   1      42.732  26.539  27.800  1.00  0.00    -0.248 NA
ATOM     17  C   UNL A   1      40.442  26.131  27.957  1.00  0.00     0.031 C 
ATOM     18  C   UNL A   1      42.057  30.793  28.974  1.00  0.00     0.029 A 
ATOM     19  N   UNL A   1      43.586  29.267  28.396  1.00  0.00    -0.354 N 
ATOM     20  C   UNL A   1      42.488  25.196  27.535  1.00  0.00     0.074 A 
ATOM     21  C   UNL A   1      41.064  24.992  27.688  1.00  0.00     0.031 C 
ATOM     22  C   UNL A   1      43.246  31.411  28.940  1.00  0.00     0.029 A 
ATOM     23  C   UNL A   1      44.275  30.442  28.575  1.00  0.00     0.049 A 
ATOM     24  H   UNL A   1      44.022  28.418  28.157  1.00  0.00     0.167 HD
ATOM     25  C   UNL A   1      43.366  24.224  27.185  1.00  0.00     0.037 A 
ATOM     26  C   UNL A   1      45.588  30.715  28.460  1.00  0.00     0.037 A 
ATOM     27  C   UNL A   1      44.781  24.428  27.004  1.00  0.00     0.049 A 
ATOM     28  C   UNL A   1      46.538  29.622  28.065  1.00  0.00     0.074 A 
ATOM     29  C   UNL A   1      45.740  23.513  26.605  1.00  0.00     0.029 A 
ATOM     30  N   UNL A   1      45.440  25.629  27.214  1.00  0.00    -0.354 N 
ATOM     31  N   UNL A   1      46.281  28.371  27.771  1.00  0.00    -0.248 NA
ATOM     32  C   UNL A   1      47.961  29.979  27.986  1.00  0.00     0.031 C 
ATOM     33  C   UNL A   1      46.985  24.150  26.609  1.00  0.00     0.029 A 
ATOM     34  C   UNL A   1      46.795  25.474  26.968  1.00  0.00     0.049 A 
ATOM     35  H   UNL A   1      45.009  26.469  27.496  1.00  0.00     0.167 HD
ATOM     36  C   UNL A   1      47.504  27.799  27.446  1.00  0.00     0.074 A 
ATOM     37  C   UNL A   1      48.500  28.844  27.567  1.00  0.00     0.031 C 
ATOM     38  C   UNL A   1      47.776  26.523  27.082  1.00  0.00     0.037 A 
BRANCH  25  39
ATOM     39  C   UNL A   1      42.823  22.839  26.983  1.00  0.00     0.057 A 
ATOM     40  C   UNL A   1      42.694  22.270  25.710  1.00  0.00     0.134 A 
ATOM     41  C   UNL A   1      42.467  22.047  28.083  1.00  0.00     0.134 A 
ATOM     42  F   UNL A   1      43.006  22.979  24.614  1.00  0.00    -0.206 F 
ATOM     43  C   UNL A   1      42.210  20.971  25.536  1.00  0.00     0.040 A 
ATOM     44  C   UNL A   1      42.004  20.740  27.923  1.00  0.00     0.040 A 
ATOM     45  F   UNL A   1      42.573  22.527  29.332  1.00  0.00    -0.206 F 
ATOM     46  C   UNL A   1      41.869  20.200  26.645  1.00  0.00     0.006 A 
ENDBRANCH  25  39
BRANCH  26  47
ATOM     47  C   UNL A   1      46.081  32.094  28.702  1.00  0.00     0.057 A 
ATOM     48  C   UNL A   1      46.455  32.512  29.984  1.00  0.00     0.134 A 
ATOM     49  C   UNL A   1      46.189  33.024  27.661  1.00  0.00     0.134 A 
ATOM     50  F   UNL A   1      46.356  31.670  31.024  1.00  0.00    -0.206 F 
ATOM     51  C   UNL A   1      46.906  33.810  30.226  1.00  0.00     0.040 A 
ATOM     52  C   UNL A   1      46.663  34.317  27.884  1.00  0.00     0.040 A 
ATOM     53  F   UNL A   1      45.851  32.681  26.409  1.00  0.00    -0.206 F 
ATOM     54  C   UNL A   1      47.016  34.715  29.172  1.00  0.00     0.006 A 
ENDBRANCH  26  47
BRANCH  38  55
ATOM     55  C   UNL A   1      49.202  26.197  26.748  1.00  0.00     0.057 A 
ATOM     56  C   UNL A   1      49.743  26.451  25.482  1.00  0.00     0.134 A 
ATOM     57  C   UNL A   1      50.048  25.637  27.714  1.00  0.00     0.134 A 
ATOM     58  F   UNL A   1      48.982  26.972  24.509  1.00  0.00    -0.206 F 
ATOM     59  C   UNL A   1      51.070  26.134  25.180  1.00  0.00     0.040 A 
ATOM     60  C   UNL A   1      51.381  25.340  27.431  1.00  0.00     0.040 A 
ATOM     61  F   UNL A   1      49.593  25.377  28.950  1.00  0.00    -0.206 F 
ATOM     62  C   UNL A   1      51.893  25.581  26.158  1.00  0.00     0.006 A 
ENDBRANCH  38  55
ENDBRANCH  12  13
ENDBRANCH   5   7
ENDBRANCH   2   3
ENDBRANCH   1   2
BRANCH   1  63
ATOM     63  C   UNL A   1      32.588  29.437  25.834  1.00  0.00     0.118 C 
BRANCH  63  64
ATOM     64  N   UNL A   1      33.428  29.483  24.646  1.00  0.00    -0.352 N 
ATOM     65  C   UNL A   1      33.297  28.863  23.424  1.00  0.00     0.252 C 
ATOM     66  H   UNL A   1      34.225  30.054  24.731  1.00  0.00     0.163 HD
ATOM     67  O   UNL A   1      34.136  29.074  22.552  1.00  0.00    -0.269 OA
BRANCH  65  68
ATOM     68  C   UNL A   1      32.249  27.853  23.174  1.00  0.00     0.060 A 
ATOM     69  C   UNL A   1      32.711  26.576  22.804  1.00  0.00     0.041 A 
ATOM     70  C   UNL A   1      30.880  28.093  23.268  1.00  0.00     0.053 A 
ATOM     71  C   UNL A   1      31.840  25.496  22.689  1.00  0.00     0.042 A 
ATOM     72  C   UNL A   1      29.991  27.028  23.108  1.00  0.00     0.023 A 
ATOM     73  Cl  UNL A   1      30.213  29.666  23.509  1.00  0.00    -0.083 Cl
ATOM     74  C   UNL A   1      30.469  25.740  22.835  1.00  0.00     0.028 A 
BRANCH  71  75
ATOM     75  N   UNL A   1      32.227  24.165  22.441  1.00  0.00    -0.322 N 
ATOM     76  C   UNL A   1      32.600  23.117  23.257  1.00  0.00     0.258 C 
ATOM     77  H   UNL A   1      32.234  23.935  21.483  1.00  0.00     0.170 HD
ATOM     78  O   UNL A   1      33.006  22.071  22.747  1.00  0.00    -0.269 OA
BRANCH  76  79
ATOM     79  C   UNL A   1      32.531  23.182  24.730  1.00  0.00     0.070 A 
ATOM     80  C   UNL A   1      31.242  23.382  25.254  1.00  0.00     0.101 A 
ATOM     81  C   UNL A   1      33.656  22.968  25.561  1.00  0.00     0.050 A 
ATOM     82  C   UNL A   1      31.041  23.282  26.630  1.00  0.00     0.270 A 
ATOM     83  C   UNL A   1      33.399  22.833  26.938  1.00  0.00     0.034 A 
ATOM     84  C   UNL A   1      32.112  22.981  27.474  1.00  0.00     0.088 A 
BRANCH  81  85
ATOM     85  N   UNL A   1      34.934  22.833  25.084  1.00  0.00    -0.371 N 
ATOM     86  C   UNL A   1      35.774  23.928  24.629  1.00  0.00     0.116 C 
ATOM     87  C   UNL A   1      35.686  21.592  25.109  1.00  0.00     0.116 C 
ATOM     88  C   UNL A   1      36.664  23.245  23.600  1.00  0.00     0.023 C 
ATOM     89  C   UNL A   1      36.823  21.813  24.109  1.00  0.00     0.023 C 
ENDBRANCH  81  85
BRANCH  82  90
ATOM     90  N   UNL A   1      29.697  23.469  27.187  1.00  0.00     0.062 N 
ATOM     91  O   UNL A   1      29.107  24.527  26.928  1.00  0.00    -0.258 OA
ATOM     92  O   UNL A   1      29.233  22.558  27.888  1.00  0.00    -0.258 OA
ENDBRANCH  82  90
ENDBRANCH  76  79
ENDBRANCH  71  75
ENDBRANCH  65  68
ENDBRANCH  63  64
ENDBRANCH   1  63
TORSDOF 14
ENDMDL
MODEL 2
REMARK VINA RESULT:     -12.7      4.135      7.544
REMARK SMILES O=C(NCCCNC(=O)c1cc(NC(=O)c2cc([N+](=O)[O-])ccc2N2CCCC2)ccc1Cl)c1ccc(-c2c3nc(c(-c4c(F)cccc4F)c4ccc([nH]4)c(-c4c(F)cccc4F)c4nc(c(-c5c(F)cccc5F)c5ccc2[nH]5)C=C4)C=C3)cc1
REMARK SMILES IDX 5 1 4 2 3 3 1 4 2 5 34 7 35 8 87 9 36 10 86 11 37 12 38 13
REMARK SMILES IDX 39 14 80 15 40 16 85 17 79 18 81 19 41 20 84 21 78 22 77 23
REMARK SMILES IDX 42 25 68 26 51 27 67 28 52 29 55 30 66 31 82 32 53 33 54 34
REMARK SMILES IDX 65 36 83 37 56 38 43 39 44 40 49 41 45 42 46 43 48 44 50 45
REMARK SMILES IDX 47 46 69 47 70 48 75 49 71 50 72 51 74 52 76 53 73 54 57 55
REMARK SMILES IDX 58 56 63 57 59 58 60 59 62 60 64 61 61 62 6 63 7 64 8 65
REMARK SMILES IDX 9 67 10 68 11 69 32 70 12 71 31 72 33 73 30 74 13 75 14 76
REMARK SMILES IDX 15 78 16 79 17 80 24 81 18 82 23 83 22 84 25 85 26 86 29 87
REMARK SMILES IDX 27 88 28 89 19 90 20 91 21 92
REMARK H PARENT 3 6 81 24 55 35 7 66 13 77
REMARK Flexibility Score: inf
ROOT
ATOM      1  C   UNL A   1      31.829  30.201  25.436  1.00  0.00     0.042 C 
ENDROOT
BRANCH   1   2
ATOM      2  C   UNL A   1      31.811  30.690  26.877  1.00  0.00     0.118 C 
BRANCH   2   3
ATOM      3  N   UNL A   1      31.908  32.135  27.005  1.00  0.00    -0.352 N 
ATOM      4  O   UNL A   1      32.647  34.148  27.659  1.00  0.00    -0.269 OA
ATOM      5  C   UNL A   1      32.865  32.943  27.574  1.00  0.00     0.251 C 
ATOM      6  H   UNL A   1      31.150  32.625  26.613  1.00  0.00     0.163 HD
BRANCH   5   7
ATOM      7  C   UNL A   1      34.131  32.396  28.126  1.00  0.00     0.039 A 
ATOM      8  C   UNL A   1      34.316  31.035  28.365  1.00  0.00     0.014 A 
ATOM      9  C   UNL A   1      35.192  33.279  28.367  1.00  0.00     0.014 A 
ATOM     10  C   UNL A   1      35.468  30.589  29.011  1.00  0.00     0.010 A 
ATOM     11  C   UNL A   1      36.390  32.814  28.922  1.00  0.00     0.010 A 
ATOM     12  C   UNL A   1      36.521  31.472  29.300  1.00  0.00    -0.014 A 
BRANCH  12  13
ATOM     13  C   UNL A   1      37.744  30.960  29.982  1.00  0.00     0.031 A 
ATOM     14  C   UNL A   1      38.006  31.258  31.435  1.00  0.00     0.074 A 
ATOM     15  C   UNL A   1      38.605  30.182  29.298  1.00  0.00     0.049 A 
ATOM     16  N   UNL A   1      38.983  30.837  32.201  1.00  0.00    -0.248 NA
ATOM     17  C   UNL A   1      37.059  32.151  32.119  1.00  0.00     0.031 C 
ATOM     18  C   UNL A   1      38.485  29.833  27.880  1.00  0.00     0.029 A 
ATOM     19  N   UNL A   1      39.737  29.520  29.705  1.00  0.00    -0.354 N 
ATOM     20  C   UNL A   1      38.781  31.430  33.442  1.00  0.00     0.074 A 
ATOM     21  C   UNL A   1      37.604  32.263  33.321  1.00  0.00     0.031 C 
ATOM     22  C   UNL A   1      39.465  28.979  27.552  1.00  0.00     0.029 A 
ATOM     23  C   UNL A   1      40.313  28.757  28.719  1.00  0.00     0.049 A 
ATOM     24  H   UNL A   1      40.102  29.587  30.618  1.00  0.00     0.167 HD
ATOM     25  C   UNL A   1      39.501  31.286  34.581  1.00  0.00     0.037 A 
ATOM     26  C   UNL A   1      41.400  27.965  28.746  1.00  0.00     0.037 A 
ATOM     27  C   UNL A   1      40.657  30.436  34.715  1.00  0.00     0.049 A 
ATOM     28  C   UNL A   1      42.177  27.819  30.022  1.00  0.00     0.074 A 
ATOM     29  C   UNL A   1      41.422  30.192  35.843  1.00  0.00     0.029 A 
ATOM     30  N   UNL A   1      41.218  29.696  33.687  1.00  0.00    -0.354 N 
ATOM     31  N   UNL A   1      41.941  28.348  31.198  1.00  0.00    -0.248 NA
ATOM     32  C   UNL A   1      43.370  26.963  29.976  1.00  0.00     0.031 C 
ATOM     33  C   UNL A   1      42.467  29.332  35.489  1.00  0.00     0.029 A 
ATOM     34  C   UNL A   1      42.327  29.006  34.150  1.00  0.00     0.049 A 
ATOM     35  H   UNL A   1      40.877  29.663  32.762  1.00  0.00     0.167 HD
ATOM     36  C   UNL A   1      42.940  27.870  32.036  1.00  0.00     0.074 A 
ATOM     37  C   UNL A   1      43.775  26.997  31.237  1.00  0.00     0.031 C 
ATOM     38  C   UNL A   1      43.145  28.132  33.349  1.00  0.00     0.037 A 
BRANCH  25  39
ATOM     39  C   UNL A   1      39.067  32.077  35.782  1.00  0.00     0.057 A 
ATOM     40  C   UNL A   1      38.240  31.531  36.771  1.00  0.00     0.134 A 
ATOM     41  C   UNL A   1      39.519  33.390  35.971  1.00  0.00     0.134 A 
ATOM     42  F   UNL A   1      37.763  30.283  36.645  1.00  0.00    -0.206 F 
ATOM     43  C   UNL A   1      37.861  32.268  37.896  1.00  0.00     0.040 A 
ATOM     44  C   UNL A   1      39.166  34.129  37.101  1.00  0.00     0.040 A 
ATOM     45  F   UNL A   1      40.320  33.972  35.065  1.00  0.00    -0.206 F 
ATOM     46  C   UNL A   1      38.330  33.569  38.066  1.00  0.00     0.006 A 
ENDBRANCH  25  39
BRANCH  26  47
ATOM     47  C   UNL A   1      41.809  27.229  27.524  1.00  0.00     0.057 A 
ATOM     48  C   UNL A   1      42.604  27.839  26.546  1.00  0.00     0.134 A 
ATOM     49  C   UNL A   1      41.417  25.903  27.304  1.00  0.00     0.134 A 
ATOM     50  F   UNL A   1      42.995  29.114  26.693  1.00  0.00    -0.206 F 
ATOM     51  C   UNL A   1      42.982  27.162  25.386  1.00  0.00     0.040 A 
ATOM     52  C   UNL A   1      41.810  25.205  26.161  1.00  0.00     0.040 A 
ATOM     53  F   UNL A   1      40.661  25.262  28.207  1.00  0.00    -0.206 F 
ATOM     54  C   UNL A   1      42.589  25.839  25.195  1.00  0.00     0.006 A 
ENDBRANCH  26  47
BRANCH  38  55
ATOM     55  C   UNL A   1      44.295  27.434  34.013  1.00  0.00     0.057 A 
ATOM     56  C   UNL A   1      44.158  26.167  34.593  1.00  0.00     0.134 A 
ATOM     57  C   UNL A   1      45.561  28.034  34.056  1.00  0.00     0.134 A 
ATOM     58  F   UNL A   1      42.970  25.546  34.597  1.00  0.00    -0.206 F 
ATOM     59  C   UNL A   1      45.234  25.531  35.216  1.00  0.00     0.040 A 
ATOM     60  C   UNL A   1      46.649  27.397  34.655  1.00  0.00     0.040 A 
ATOM     61  F   UNL A   1      45.761  29.244  33.512  1.00  0.00    -0.206 F 
ATOM     62  C   UNL A   1      46.485  26.146  35.245  1.00  0.00     0.006 A 
ENDBRANCH  38  55
ENDBRANCH  12  13
ENDBRANCH   5   7
ENDBRANCH   2   3
ENDBRANCH   1   2
BRANCH   1  63
ATOM     63  C   UNL A   1      31.234  28.819  25.189  1.00  0.00     0.118 C 
BRANCH  63  64
ATOM     64  N   UNL A   1      30.431  28.722  23.978  1.00  0.00    -0.352 N 
ATOM     65  C   UNL A   1      30.561  27.915  22.872  1.00  0.00     0.252 C 
ATOM     66  H   UNL A   1      29.665  29.339  23.946  1.00  0.00     0.163 HD
ATOM     67  O   UNL A   1      29.734  27.999  21.967  1.00  0.00    -0.269 OA
BRANCH  65  68
ATOM     68  C   UNL A   1      31.737  27.041  22.682  1.00  0.00     0.060 A 
ATOM     69  C   UNL A   1      31.478  25.658  22.717  1.00  0.00     0.041 A 
ATOM     70  C   UNL A   1      33.039  27.497  22.490  1.00  0.00     0.053 A 
ATOM     71  C   UNL A   1      32.466  24.729  22.401  1.00  0.00     0.042 A 
ATOM     72  C   UNL A   1      34.049  26.572  22.218  1.00  0.00     0.023 A 
ATOM     73  Cl  UNL A   1      33.488  29.157  22.637  1.00  0.00    -0.083 Cl
ATOM     74  C   UNL A   1      33.761  25.203  22.161  1.00  0.00     0.028 A 
BRANCH  71  75
ATOM     75  N   UNL A   1      32.267  23.338  22.296  1.00  0.00    -0.322 N 
ATOM     76  C   UNL A   1      32.237  22.311  23.217  1.00  0.00     0.258 C 
ATOM     77  H   UNL A   1      32.121  23.036  21.370  1.00  0.00     0.170 HD
ATOM     78  O   UNL A   1      32.154  21.148  22.819  1.00  0.00    -0.269 OA
BRANCH  76  79
ATOM     79  C   UNL A   1      32.292  22.537  24.674  1.00  0.00     0.070 A 
ATOM     80  C   UNL A   1      31.088  22.975  25.251  1.00  0.00     0.101 A 
ATOM     81  C   UNL A   1      33.438  22.249  25.453  1.00  0.00     0.050 A 
ATOM     82  C   UNL A   1      30.982  23.049  26.639  1.00  0.00     0.270 A 
ATOM     83  C   UNL A   1      33.273  22.296  26.849  1.00  0.00     0.034 A 
ATOM     84  C   UNL A   1      32.065  22.684  27.444  1.00  0.00     0.088 A 
BRANCH  81  85
ATOM     85  N   UNL A   1      34.644  21.880  24.915  1.00  0.00    -0.371 N 
ATOM     86  C   UNL A   1      35.155  20.520  24.868  1.00  0.00     0.116 C 
ATOM     87  C   UNL A   1      35.517  22.776  24.179  1.00  0.00     0.116 C 
ATOM     88  C   UNL A   1      36.660  20.740  24.895  1.00  0.00     0.023 C 
ATOM     89  C   UNL A   1      36.875  22.071  24.176  1.00  0.00     0.023 C 
ENDBRANCH  81  85
BRANCH  82  90
ATOM     90  N   UNL A   1      29.724  23.485  27.254  1.00  0.00     0.062 N 
ATOM     91  O   UNL A   1      29.149  22.694  28.014  1.00  0.00    -0.258 OA
ATOM     92  O   UNL A   1      29.309  24.618  26.972  1.00  0.00    -0.258 OA
ENDBRANCH  82  90
ENDBRANCH  76  79
ENDBRANCH  71  75
ENDBRANCH  65  68
ENDBRANCH  63  64
ENDBRANCH   1  63
TORSDOF 14
ENDMDL
MODEL 3
REMARK VINA RESULT:     -12.6      1.285      2.038
REMARK SMILES O=C(NCCCNC(=O)c1cc(NC(=O)c2cc([N+](=O)[O-])ccc2N2CCCC2)ccc1Cl)c1ccc(-c2c3nc(c(-c4c(F)cccc4F)c4ccc([nH]4)c(-c4c(F)cccc4F)c4nc(c(-c5c(F)cccc5F)c5ccc2[nH]5)C=C4)C=C3)cc1
REMARK SMILES IDX 5 1 4 2 3 3 1 4 2 5 34 7 35 8 87 9 36 10 86 11 37 12 38 13
REMARK SMILES IDX 39 14 80 15 40 16 85 17 79 18 81 19 41 20 84 21 78 22 77 23
REMARK SMILES IDX 42 25 68 26 51 27 67 28 52 29 55 30 66 31 82 32 53 33 54 34
REMARK SMILES IDX 65 36 83 37 56 38 43 39 44 40 49 41 45 42 46 43 48 44 50 45
REMARK SMILES IDX 47 46 69 47 70 48 75 49 71 50 72 51 74 52 76 53 73 54 57 55
REMARK SMILES IDX 58 56 63 57 59 58 60 59 62 60 64 61 61 62 6 63 7 64 8 65
REMARK SMILES IDX 9 67 10 68 11 69 32 70 12 71 31 72 33 73 30 74 13 75 14 76
REMARK SMILES IDX 15 78 16 79 17 80 24 81 18 82 23 83 22 84 25 85 26 86 29 87
REMARK SMILES IDX 27 88 28 89 19 90 20 91 21 92
REMARK H PARENT 3 6 81 24 55 35 7 66 13 77
REMARK Flexibility Score: inf
ROOT
ATOM      1  C   UNL A   1      34.570  30.915  27.537  1.00  0.00     0.042 C 
ENDROOT
BRANCH   1   2
ATOM      2  C   UNL A   1      35.644  31.549  28.409  1.00  0.00     0.118 C 
BRANCH   2   3
ATOM      3  N   UNL A   1      35.498  31.252  29.824  1.00  0.00    -0.352 N 
ATOM      4  O   UNL A   1      35.872  30.333  31.834  1.00  0.00    -0.269 OA
ATOM      5  C   UNL A   1      36.288  30.542  30.699  1.00  0.00     0.251 C 
ATOM      6  H   UNL A   1      34.683  31.625  30.231  1.00  0.00     0.163 HD
BRANCH   5   7
ATOM      7  C   UNL A   1      37.607  29.989  30.297  1.00  0.00     0.039 A 
ATOM      8  C   UNL A   1      38.448  29.335  31.196  1.00  0.00     0.014 A 
ATOM      9  C   UNL A   1      37.992  30.086  28.954  1.00  0.00     0.014 A 
ATOM     10  C   UNL A   1      39.731  28.957  30.805  1.00  0.00     0.010 A 
ATOM     11  C   UNL A   1      39.241  29.612  28.537  1.00  0.00     0.010 A 
ATOM     12  C   UNL A   1      40.148  29.090  29.470  1.00  0.00    -0.014 A 
BRANCH  12  13
ATOM     13  C   UNL A   1      41.522  28.666  29.082  1.00  0.00     0.031 A 
ATOM     14  C   UNL A   1      41.793  27.271  28.582  1.00  0.00     0.074 A 
ATOM     15  C   UNL A   1      42.530  29.558  29.137  1.00  0.00     0.049 A 
ATOM     16  N   UNL A   1      42.914  26.756  28.139  1.00  0.00    -0.248 NA
ATOM     17  C   UNL A   1      40.666  26.325  28.588  1.00  0.00     0.031 C 
ATOM     18  C   UNL A   1      42.413  30.935  29.624  1.00  0.00     0.029 A 
ATOM     19  N   UNL A   1      43.845  29.453  28.758  1.00  0.00    -0.354 N 
ATOM     20  C   UNL A   1      42.634  25.427  27.837  1.00  0.00     0.074 A 
ATOM     21  C   UNL A   1      41.244  25.207  28.174  1.00  0.00     0.031 C 
ATOM     22  C   UNL A   1      43.587  31.562  29.459  1.00  0.00     0.029 A 
ATOM     23  C   UNL A   1      44.554  30.621  28.904  1.00  0.00     0.049 A 
ATOM     24  H   UNL A   1      44.243  28.620  28.415  1.00  0.00     0.167 HD
ATOM     25  C   UNL A   1      43.453  24.481  27.318  1.00  0.00     0.037 A 
ATOM     26  C   UNL A   1      45.839  30.907  28.624  1.00  0.00     0.037 A 
ATOM     27  C   UNL A   1      44.830  24.703  26.955  1.00  0.00     0.049 A 
ATOM     28  C   UNL A   1      46.724  29.842  28.043  1.00  0.00     0.074 A 
ATOM     29  C   UNL A   1      45.724  23.816  26.379  1.00  0.00     0.029 A 
ATOM     30  N   UNL A   1      45.513  25.895  27.137  1.00  0.00    -0.354 N 
ATOM     31  N   UNL A   1      46.427  28.608  27.719  1.00  0.00    -0.248 NA
ATOM     32  C   UNL A   1      48.122  30.212  27.788  1.00  0.00     0.031 C 
ATOM     33  C   UNL A   1      46.959  24.460  26.245  1.00  0.00     0.029 A 
ATOM     34  C   UNL A   1      46.821  25.762  26.698  1.00  0.00     0.049 A 
ATOM     35  H   UNL A   1      45.127  26.716  27.520  1.00  0.00     0.167 HD
ATOM     36  C   UNL A   1      47.593  28.062  27.199  1.00  0.00     0.074 A 
ATOM     37  C   UNL A   1      48.598  29.104  27.238  1.00  0.00     0.031 C 
ATOM     38  C   UNL A   1      47.810  26.809  26.732  1.00  0.00     0.037 A 
BRANCH  25  39
ATOM     39  C   UNL A   1      42.886  23.105  27.118  1.00  0.00     0.057 A 
ATOM     40  C   UNL A   1      42.661  22.232  28.190  1.00  0.00     0.134 A 
ATOM     41  C   UNL A   1      42.518  22.666  25.839  1.00  0.00     0.134 A 
ATOM     42  F   UNL A   1      43.002  22.587  29.438  1.00  0.00    -0.206 F 
ATOM     43  C   UNL A   1      42.111  20.963  27.995  1.00  0.00     0.040 A 
ATOM     44  C   UNL A   1      41.947  21.409  25.635  1.00  0.00     0.040 A 
ATOM     45  F   UNL A   1      42.700  23.455  24.770  1.00  0.00    -0.206 F 
ATOM     46  C   UNL A   1      41.746  20.551  26.715  1.00  0.00     0.006 A 
ENDBRANCH  25  39
BRANCH  26  47
ATOM     47  C   UNL A   1      46.362  32.274  28.869  1.00  0.00     0.057 A 
ATOM     48  C   UNL A   1      46.330  33.249  27.866  1.00  0.00     0.134 A 
ATOM     49  C   UNL A   1      46.904  32.637  30.107  1.00  0.00     0.134 A 
ATOM     50  F   UNL A   1      45.839  32.955  26.652  1.00  0.00    -0.206 F 
ATOM     51  C   UNL A   1      46.833  34.534  28.080  1.00  0.00     0.040 A 
ATOM     52  C   UNL A   1      47.386  33.925  30.344  1.00  0.00     0.040 A 
ATOM     53  F   UNL A   1      46.956  31.749  31.111  1.00  0.00    -0.206 F 
ATOM     54  C   UNL A   1      47.357  34.875  29.325  1.00  0.00     0.006 A 
ENDBRANCH  26  47
BRANCH  38  55
ATOM     55  C   UNL A   1      49.176  26.510  26.187  1.00  0.00     0.057 A 
ATOM     56  C   UNL A   1      49.554  26.881  24.892  1.00  0.00     0.134 A 
ATOM     57  C   UNL A   1      50.129  25.857  26.980  1.00  0.00     0.134 A 
ATOM     58  F   UNL A   1      48.683  27.496  24.078  1.00  0.00    -0.206 F 
ATOM     59  C   UNL A   1      50.826  26.588  24.393  1.00  0.00     0.040 A 
ATOM     60  C   UNL A   1      51.411  25.582  26.500  1.00  0.00     0.040 A 
ATOM     61  F   UNL A   1      49.833  25.483  28.234  1.00  0.00    -0.206 F 
ATOM     62  C   UNL A   1      51.759  25.941  25.200  1.00  0.00     0.006 A 
ENDBRANCH  38  55
ENDBRANCH  12  13
ENDBRANCH   5   7
ENDBRANCH   2   3
ENDBRANCH   1   2
BRANCH   1  63
ATOM     63  C   UNL A   1      34.667  29.406  27.340  1.00  0.00     0.118 C 
BRANCH  63  64
ATOM     64  N   UNL A   1      33.477  28.673  27.746  1.00  0.00    -0.352 N 
ATOM     65  C   UNL A   1      32.618  27.877  27.024  1.00  0.00     0.252 C 
ATOM     66  H   UNL A   1      33.248  28.761  28.700  1.00  0.00     0.163 HD
ATOM     67  O   UNL A   1      31.676  27.335  27.598  1.00  0.00    -0.269 OA
BRANCH  65  68
ATOM     68  C   UNL A   1      32.718  27.758  25.555  1.00  0.00     0.060 A 
ATOM     69  C   UNL A   1      33.458  26.657  25.084  1.00  0.00     0.041 A 
ATOM     70  C   UNL A   1      32.153  28.652  24.648  1.00  0.00     0.053 A 
ATOM     71  C   UNL A   1      33.503  26.342  23.728  1.00  0.00     0.042 A 
ATOM     72  C   UNL A   1      32.231  28.372  23.282  1.00  0.00     0.023 A 
ATOM     73  Cl  UNL A   1      31.410  30.134  25.124  1.00  0.00    -0.083 Cl
ATOM     74  C   UNL A   1      32.888  27.221  22.829  1.00  0.00     0.028 A 
BRANCH  71  75
ATOM     75  N   UNL A   1      34.117  25.198  23.181  1.00  0.00    -0.322 N 
ATOM     76  C   UNL A   1      34.424  23.952  23.687  1.00  0.00     0.258 C 
ATOM     77  H   UNL A   1      34.384  25.314  22.241  1.00  0.00     0.170 HD
ATOM     78  O   UNL A   1      35.079  23.167  22.999  1.00  0.00    -0.269 OA
BRANCH  76  79
ATOM     79  C   UNL A   1      33.996  23.501  25.026  1.00  0.00     0.070 A 
ATOM     80  C   UNL A   1      32.609  23.541  25.249  1.00  0.00     0.101 A 
ATOM     81  C   UNL A   1      34.897  22.979  25.984  1.00  0.00     0.050 A 
ATOM     82  C   UNL A   1      32.086  22.973  26.410  1.00  0.00     0.270 A 
ATOM     83  C   UNL A   1      34.322  22.379  27.120  1.00  0.00     0.034 A 
ATOM     84  C   UNL A   1      32.938  22.366  27.336  1.00  0.00     0.088 A 
BRANCH  81  85
ATOM     85  N   UNL A   1      36.258  22.983  25.823  1.00  0.00    -0.371 N 
ATOM     86  C   UNL A   1      37.029  21.907  25.222  1.00  0.00     0.116 C 
ATOM     87  C   UNL A   1      37.108  24.128  26.091  1.00  0.00     0.116 C 
ATOM     88  C   UNL A   1      38.375  22.047  25.919  1.00  0.00     0.023 C 
ATOM     89  C   UNL A   1      38.517  23.542  26.198  1.00  0.00     0.023 C 
ENDBRANCH  81  85
BRANCH  82  90
ATOM     90  N   UNL A   1      30.638  22.991  26.644  1.00  0.00     0.062 N 
ATOM     91  O   UNL A   1      29.990  21.986  26.321  1.00  0.00    -0.258 OA
ATOM     92  O   UNL A   1      30.149  24.013  27.147  1.00  0.00    -0.258 OA
ENDBRANCH  82  90
ENDBRANCH  76  79
ENDBRANCH  71  75
ENDBRANCH  65  68
ENDBRANCH  63  64
ENDBRANCH   1  63
TORSDOF 14
ENDMDL
