MODEL 1
REMARK VINA RESULT:     -13.0      0.000      0.000
REMARK SMILES Cc1ccc(-c2cc(Cl)cc3c2O[C@@H](C(F)(F)F)C(C(=O)NCCCNC(=O)c2ccc(-c4c5nc(c(-c6c(F)cccc6F)c6ccc([nH]6)c(-c6c(F)cccc6F)c6nc(c(-c7c(F)cccc7F)c7ccc4[nH]7)C=C6)C=C5)cc2)=C3)cc1
REMARK SMILES IDX 24 1 23 2 22 3 20 4 21 5 19 7 6 8 7 9 12 10 8 11 11 12 13 13
REMARK SMILES IDX 9 14 10 15 83 16 14 17 5 18 1 19 2 20 3 21 85 22 4 23 84 24
REMARK SMILES IDX 15 25 16 26 17 27 18 28 25 29 26 30 27 31 28 33 29 34 30 35
REMARK SMILES IDX 82 36 31 37 81 38 32 39 33 40 34 41 75 42 35 43 80 44 74 45
REMARK SMILES IDX 76 46 36 47 79 48 73 49 72 50 37 52 63 53 46 54 62 55 47 56
REMARK SMILES IDX 50 57 61 58 77 59 48 60 49 61 60 63 78 64 51 65 38 66 39 67
REMARK SMILES IDX 44 68 40 69 41 70 43 71 45 72 42 73 64 74 65 75 70 76 66 77
REMARK SMILES IDX 67 78 69 79 71 80 68 81 52 82 53 83 58 84 54 85 55 86 57 87
REMARK SMILES IDX 59 88 56 89
REMARK H PARENT 22 6 26 32 76 51 50 62
REMARK Flexibility Score: inf
ROOT
ATOM      1  C   UNL A   1      33.728  29.176  25.547  1.00  0.00     0.042 C 
ENDROOT
BRANCH   1   2
ATOM      2  C   UNL A   1      32.834  28.204  24.778  1.00  0.00     0.118 C 
BRANCH   2   3
ATOM      3  N   UNL A   1      33.506  26.965  24.406  1.00  0.00    -0.352 N 
ATOM      4  C   UNL A   1      33.141  25.942  23.580  1.00  0.00     0.251 C 
ATOM      5  O   UNL A   1      34.042  25.459  22.887  1.00  0.00    -0.270 OA
ATOM      6  H   UNL A   1      34.388  26.846  24.827  1.00  0.00     0.163 HD
BRANCH   4   7
ATOM      7  C   UNL A   1      31.748  25.299  23.579  1.00  0.00     0.067 C 
ATOM      8  C   UNL A   1      33.644  22.105  25.184  1.00  0.00     0.026 A 
ATOM      9  C   UNL A   1      33.356  20.798  24.743  1.00  0.00     0.033 A 
ATOM     10  C   UNL A   1      32.781  23.097  24.724  1.00  0.00     0.135 A 
ATOM     11  C   UNL A   1      32.518  20.597  23.640  1.00  0.00     0.042 A 
ATOM     12  C   UNL A   1      32.175  22.963  23.447  1.00  0.00     0.019 A 
ATOM     13  O   UNL A   1      32.412  24.163  25.569  1.00  0.00    -0.475 OA
ATOM     14  Cl  UNL A   1      32.248  18.996  23.071  1.00  0.00    -0.084 Cl
ATOM     15  C   UNL A   1      32.010  21.684  22.925  1.00  0.00     0.032 A 
ATOM     16  C   UNL A   1      31.721  24.217  22.752  1.00  0.00     0.025 C 
ATOM     17  C   UNL A   1      31.272  24.837  24.950  1.00  0.00     0.314 C 
BRANCH   8  18
ATOM     18  C   UNL A   1      35.101  22.401  25.277  1.00  0.00    -0.015 A 
ATOM     19  C   UNL A   1      39.347  22.681  26.125  1.00  0.00     0.044 C 
ATOM     20  C   UNL A   1      37.888  22.603  25.776  1.00  0.00    -0.051 A 
ATOM     21  C   UNL A   1      37.033  23.703  25.961  1.00  0.00     0.004 A 
ATOM     22  C   UNL A   1      37.357  21.421  25.273  1.00  0.00     0.004 A 
ATOM     23  C   UNL A   1      35.649  23.603  25.720  1.00  0.00     0.009 A 
ATOM     24  C   UNL A   1      35.991  21.329  25.020  1.00  0.00     0.009 A 
ENDBRANCH   8  18
BRANCH  17  25
ATOM     25  C   UNL A   1      30.358  25.778  25.739  1.00  0.00     0.429 C 
ATOM     26  F   UNL A   1      29.868  26.747  24.914  1.00  0.00    -0.167 F 
ATOM     27  F   UNL A   1      29.285  25.157  26.267  1.00  0.00    -0.167 F 
ATOM     28  F   UNL A   1      30.995  26.447  26.723  1.00  0.00    -0.167 F 
ENDBRANCH  17  25
ENDBRANCH   4   7
ENDBRANCH   2   3
ENDBRANCH   1   2
BRANCH   1  29
ATOM     29  C   UNL A   1      33.175  29.653  26.885  1.00  0.00     0.118 C 
BRANCH  29  30
ATOM     30  N   UNL A   1      33.627  30.988  27.279  1.00  0.00    -0.352 N 
ATOM     31  C   UNL A   1      34.839  31.362  27.842  1.00  0.00     0.251 C 
ATOM     32  H   UNL A   1      32.985  31.718  27.124  1.00  0.00     0.163 HD
ATOM     33  O   UNL A   1      35.099  32.532  28.055  1.00  0.00    -0.269 OA
BRANCH  31  34
ATOM     34  C   UNL A   1      35.858  30.312  28.075  1.00  0.00     0.039 A 
ATOM     35  C   UNL A   1      35.898  29.700  29.331  1.00  0.00     0.014 A 
ATOM     36  C   UNL A   1      36.897  30.143  27.164  1.00  0.00     0.014 A 
ATOM     37  C   UNL A   1      37.098  29.153  29.775  1.00  0.00     0.010 A 
ATOM     38  C   UNL A   1      38.111  29.683  27.634  1.00  0.00     0.010 A 
ATOM     39  C   UNL A   1      38.231  29.272  28.967  1.00  0.00    -0.014 A 
BRANCH  39  40
ATOM     40  C   UNL A   1      39.586  29.255  29.517  1.00  0.00     0.031 A 
ATOM     41  C   UNL A   1      40.467  28.076  29.413  1.00  0.00     0.074 A 
ATOM     42  C   UNL A   1      40.086  30.409  30.017  1.00  0.00     0.049 A 
ATOM     43  N   UNL A   1      41.436  27.828  30.231  1.00  0.00    -0.248 NA
ATOM     44  C   UNL A   1      40.315  27.068  28.371  1.00  0.00     0.031 C 
ATOM     45  C   UNL A   1      41.481  30.717  30.318  1.00  0.00     0.029 A 
ATOM     46  N   UNL A   1      39.372  31.506  30.520  1.00  0.00    -0.354 N 
ATOM     47  C   UNL A   1      42.195  26.827  29.675  1.00  0.00     0.074 A 
ATOM     48  C   UNL A   1      41.424  26.342  28.551  1.00  0.00     0.031 C 
ATOM     49  C   UNL A   1      41.522  31.755  31.167  1.00  0.00     0.029 A 
ATOM     50  C   UNL A   1      40.155  32.051  31.558  1.00  0.00     0.049 A 
ATOM     51  H   UNL A   1      38.496  31.831  30.210  1.00  0.00     0.167 HD
ATOM     52  C   UNL A   1      43.467  26.600  30.113  1.00  0.00     0.037 A 
ATOM     53  C   UNL A   1      39.701  32.081  32.844  1.00  0.00     0.037 A 
ATOM     54  C   UNL A   1      43.848  27.505  31.191  1.00  0.00     0.049 A 
ATOM     55  C   UNL A   1      40.541  31.284  33.815  1.00  0.00     0.074 A 
ATOM     56  C   UNL A   1      44.562  28.692  31.203  1.00  0.00     0.029 A 
ATOM     57  N   UNL A   1      43.212  27.420  32.427  1.00  0.00    -0.354 N 
ATOM     58  N   UNL A   1      41.448  30.420  33.455  1.00  0.00    -0.248 NA
ATOM     59  C   UNL A   1      40.386  31.355  35.268  1.00  0.00     0.031 C 
ATOM     60  C   UNL A   1      44.300  29.356  32.424  1.00  0.00     0.029 A 
ATOM     61  C   UNL A   1      43.440  28.567  33.166  1.00  0.00     0.049 A 
ATOM     62  H   UNL A   1      42.677  26.653  32.733  1.00  0.00     0.167 HD
ATOM     63  C   UNL A   1      41.936  29.783  34.564  1.00  0.00     0.074 A 
ATOM     64  C   UNL A   1      41.269  30.428  35.678  1.00  0.00     0.031 C 
ATOM     65  C   UNL A   1      42.828  28.754  34.472  1.00  0.00     0.037 A 
BRANCH  52  66
ATOM     66  C   UNL A   1      44.430  25.770  29.303  1.00  0.00     0.057 A 
ATOM     67  C   UNL A   1      45.259  26.340  28.321  1.00  0.00     0.134 A 
ATOM     68  C   UNL A   1      44.521  24.371  29.414  1.00  0.00     0.134 A 
ATOM     69  F   UNL A   1      45.349  27.666  28.157  1.00  0.00    -0.206 F 
ATOM     70  C   UNL A   1      46.024  25.572  27.435  1.00  0.00     0.040 A 
ATOM     71  C   UNL A   1      45.242  23.586  28.503  1.00  0.00     0.040 A 
ATOM     72  F   UNL A   1      43.909  23.717  30.413  1.00  0.00    -0.206 F 
ATOM     73  C   UNL A   1      45.985  24.187  27.497  1.00  0.00     0.006 A 
ENDBRANCH  52  66
BRANCH  53  74
ATOM     74  C   UNL A   1      38.231  32.265  32.949  1.00  0.00     0.057 A 
ATOM     75  C   UNL A   1      37.699  33.555  32.788  1.00  0.00     0.134 A 
ATOM     76  C   UNL A   1      37.343  31.191  32.845  1.00  0.00     0.134 A 
ATOM     77  F   UNL A   1      38.499  34.629  32.875  1.00  0.00    -0.206 F 
ATOM     78  C   UNL A   1      36.364  33.765  32.434  1.00  0.00     0.040 A 
ATOM     79  C   UNL A   1      36.001  31.390  32.497  1.00  0.00     0.040 A 
ATOM     80  F   UNL A   1      37.780  29.929  32.963  1.00  0.00    -0.206 F 
ATOM     81  C   UNL A   1      35.518  32.675  32.257  1.00  0.00     0.006 A 
ENDBRANCH  53  74
BRANCH  65  82
ATOM     82  C   UNL A   1      43.262  27.887  35.619  1.00  0.00     0.057 A 
ATOM     83  C   UNL A   1      44.323  28.204  36.477  1.00  0.00     0.134 A 
ATOM     84  C   UNL A   1      42.510  26.749  35.975  1.00  0.00     0.134 A 
ATOM     85  F   UNL A   1      45.051  29.317  36.306  1.00  0.00    -0.206 F 
ATOM     86  C   UNL A   1      44.651  27.412  37.585  1.00  0.00     0.040 A 
ATOM     87  C   UNL A   1      42.799  25.976  37.104  1.00  0.00     0.040 A 
ATOM     88  F   UNL A   1      41.453  26.352  35.250  1.00  0.00    -0.206 F 
ATOM     89  C   UNL A   1      43.883  26.299  37.906  1.00  0.00     0.006 A 
ENDBRANCH  65  82
ENDBRANCH  39  40
ENDBRANCH  31  34
ENDBRANCH  29  30
ENDBRANCH   1  29
TORSDOF 12
ENDMDL
MODEL 2
REMARK VINA RESULT:     -13.0      3.468      8.427
REMARK SMILES Cc1ccc(-c2cc(Cl)cc3c2O[C@@H](C(F)(F)F)C(C(=O)NCCCNC(=O)c2ccc(-c4c5nc(c(-c6c(F)cccc6F)c6ccc([nH]6)c(-c6c(F)cccc6F)c6nc(c(-c7c(F)cccc7F)c7ccc4[nH]7)C=C6)C=C5)cc2)=C3)cc1
REMARK SMILES IDX 24 1 23 2 22 3 20 4 21 5 19 7 6 8 7 9 12 10 8 11 11 12 13 13
REMARK SMILES IDX 9 14 10 15 83 16 14 17 5 18 1 19 2 20 3 21 85 22 4 23 84 24
REMARK SMILES IDX 15 25 16 26 17 27 18 28 25 29 26 30 27 31 28 33 29 34 30 35
REMARK SMILES IDX 82 36 31 37 81 38 32 39 33 40 34 41 75 42 35 43 80 44 74 45
REMARK SMILES IDX 76 46 36 47 79 48 73 49 72 50 37 52 63 53 46 54 62 55 47 56
REMARK SMILES IDX 50 57 61 58 77 59 48 60 49 61 60 63 78 64 51 65 38 66 39 67
REMARK SMILES IDX 44 68 40 69 41 70 43 71 45 72 42 73 64 74 65 75 70 76 66 77
REMARK SMILES IDX 67 78 69 79 71 80 68 81 52 82 53 83 58 84 54 85 55 86 57 87
REMARK SMILES IDX 59 88 56 89
REMARK H PARENT 22 6 26 32 76 51 50 62
REMARK Flexibility Score: inf
ROOT
ATOM      1  C   UNL A   1      36.267  22.759  26.325  1.00  0.00     0.042 C 
ENDROOT
BRANCH   1   2
ATOM      2  C   UNL A   1      34.871  22.669  25.708  1.00  0.00     0.118 C 
BRANCH   2   3
ATOM      3  N   UNL A   1      34.026  23.818  26.011  1.00  0.00    -0.352 N 
ATOM      4  C   UNL A   1      32.687  24.031  25.856  1.00  0.00     0.251 C 
ATOM      5  O   UNL A   1      32.130  24.654  26.765  1.00  0.00    -0.270 OA
ATOM      6  H   UNL A   1      34.511  24.580  26.402  1.00  0.00     0.163 HD
BRANCH   4   7
ATOM      7  C   UNL A   1      31.905  23.668  24.587  1.00  0.00     0.067 C 
ATOM      8  C   UNL A   1      31.771  27.669  23.991  1.00  0.00     0.026 A 
ATOM      9  C   UNL A   1      30.583  28.295  23.566  1.00  0.00     0.033 A 
ATOM     10  C   UNL A   1      31.763  26.276  23.949  1.00  0.00     0.135 A 
ATOM     11  C   UNL A   1      29.392  27.565  23.487  1.00  0.00     0.042 A 
ATOM     12  C   UNL A   1      30.547  25.575  24.164  1.00  0.00     0.019 A 
ATOM     13  O   UNL A   1      32.923  25.571  23.571  1.00  0.00    -0.475 OA
ATOM     14  Cl  UNL A   1      27.938  28.372  23.044  1.00  0.00    -0.084 Cl
ATOM     15  C   UNL A   1      29.350  26.227  23.887  1.00  0.00     0.032 A 
ATOM     16  C   UNL A   1      30.635  24.155  24.653  1.00  0.00     0.025 C 
ATOM     17  C   UNL A   1      32.527  24.191  23.299  1.00  0.00     0.314 C 
BRANCH   8  18
ATOM     18  C   UNL A   1      32.436  28.353  25.136  1.00  0.00    -0.015 A 
ATOM     19  C   UNL A   1      34.476  30.963  27.937  1.00  0.00     0.044 C 
ATOM     20  C   UNL A   1      33.742  30.034  27.013  1.00  0.00    -0.051 A 
ATOM     21  C   UNL A   1      34.272  28.779  26.666  1.00  0.00     0.004 A 
ATOM     22  C   UNL A   1      32.520  30.416  26.472  1.00  0.00     0.004 A 
ATOM     23  C   UNL A   1      33.629  27.946  25.730  1.00  0.00     0.009 A 
ATOM     24  C   UNL A   1      31.878  29.584  25.559  1.00  0.00     0.009 A 
ENDBRANCH   8  18
BRANCH  17  25
ATOM     25  C   UNL A   1      33.414  23.233  22.499  1.00  0.00     0.429 C 
ATOM     26  F   UNL A   1      33.167  21.947  22.878  1.00  0.00    -0.167 F 
ATOM     27  F   UNL A   1      33.187  23.282  21.172  1.00  0.00    -0.167 F 
ATOM     28  F   UNL A   1      34.733  23.413  22.717  1.00  0.00    -0.167 F 
ENDBRANCH  17  25
ENDBRANCH   4   7
ENDBRANCH   2   3
ENDBRANCH   1   2
BRANCH   1  29
ATOM     29  C   UNL A   1      37.423  22.517  25.362  1.00  0.00     0.118 C 
BRANCH  29  30
ATOM     30  N   UNL A   1      38.612  21.935  25.987  1.00  0.00    -0.352 N 
ATOM     31  C   UNL A   1      39.598  22.568  26.730  1.00  0.00     0.251 C 
ATOM     32  H   UNL A   1      38.727  20.965  25.863  1.00  0.00     0.163 HD
ATOM     33  O   UNL A   1      40.499  21.934  27.248  1.00  0.00    -0.269 OA
BRANCH  31  34
ATOM     34  C   UNL A   1      39.467  24.023  26.975  1.00  0.00     0.039 A 
ATOM     35  C   UNL A   1      40.106  24.899  26.093  1.00  0.00     0.014 A 
ATOM     36  C   UNL A   1      38.952  24.477  28.186  1.00  0.00     0.014 A 
ATOM     37  C   UNL A   1      40.474  26.162  26.548  1.00  0.00     0.010 A 
ATOM     38  C   UNL A   1      39.393  25.692  28.670  1.00  0.00     0.010 A 
ATOM     39  C   UNL A   1      40.229  26.494  27.883  1.00  0.00    -0.014 A 
BRANCH  39  40
ATOM     40  C   UNL A   1      41.021  27.495  28.595  1.00  0.00     0.031 A 
ATOM     41  C   UNL A   1      40.504  28.843  28.898  1.00  0.00     0.074 A 
ATOM     42  C   UNL A   1      42.216  27.116  29.107  1.00  0.00     0.049 A 
ATOM     43  N   UNL A   1      41.258  29.876  29.091  1.00  0.00    -0.248 NA
ATOM     44  C   UNL A   1      39.080  29.138  29.001  1.00  0.00     0.031 C 
ATOM     45  C   UNL A   1      43.018  27.819  30.103  1.00  0.00     0.029 A 
ATOM     46  N   UNL A   1      43.035  26.061  28.681  1.00  0.00    -0.354 N 
ATOM     47  C   UNL A   1      40.466  30.869  29.615  1.00  0.00     0.074 A 
ATOM     48  C   UNL A   1      39.109  30.386  29.480  1.00  0.00     0.031 C 
ATOM     49  C   UNL A   1      44.282  27.371  30.035  1.00  0.00     0.029 A 
ATOM     50  C   UNL A   1      44.365  26.478  28.893  1.00  0.00     0.049 A 
ATOM     51  H   UNL A   1      42.740  25.200  28.306  1.00  0.00     0.167 HD
ATOM     52  C   UNL A   1      41.027  31.936  30.252  1.00  0.00     0.037 A 
ATOM     53  C   UNL A   1      45.235  26.623  27.851  1.00  0.00     0.037 A 
ATOM     54  C   UNL A   1      42.484  31.865  30.267  1.00  0.00     0.049 A 
ATOM     55  C   UNL A   1      45.749  28.032  27.667  1.00  0.00     0.074 A 
ATOM     56  C   UNL A   1      43.387  31.423  31.221  1.00  0.00     0.029 A 
ATOM     57  N   UNL A   1      43.197  31.969  29.075  1.00  0.00    -0.354 N 
ATOM     58  N   UNL A   1      45.228  29.079  28.243  1.00  0.00    -0.248 NA
ATOM     59  C   UNL A   1      46.853  28.381  26.774  1.00  0.00     0.031 C 
ATOM     60  C   UNL A   1      44.630  31.196  30.586  1.00  0.00     0.029 A 
ATOM     61  C   UNL A   1      44.492  31.515  29.247  1.00  0.00     0.049 A 
ATOM     62  H   UNL A   1      42.832  32.317  28.230  1.00  0.00     0.167 HD
ATOM     63  C   UNL A   1      45.840  30.210  27.773  1.00  0.00     0.074 A 
ATOM     64  C   UNL A   1      46.877  29.720  26.885  1.00  0.00     0.031 C 
ATOM     65  C   UNL A   1      45.423  31.459  28.131  1.00  0.00     0.037 A 
BRANCH  52  66
ATOM     66  C   UNL A   1      40.200  32.838  31.130  1.00  0.00     0.057 A 
ATOM     67  C   UNL A   1      40.009  32.573  32.498  1.00  0.00     0.134 A 
ATOM     68  C   UNL A   1      39.504  33.959  30.643  1.00  0.00     0.134 A 
ATOM     69  F   UNL A   1      40.673  31.595  33.127  1.00  0.00    -0.206 F 
ATOM     70  C   UNL A   1      39.103  33.289  33.290  1.00  0.00     0.040 A 
ATOM     71  C   UNL A   1      38.557  34.653  31.409  1.00  0.00     0.040 A 
ATOM     72  F   UNL A   1      39.721  34.418  29.402  1.00  0.00    -0.206 F 
ATOM     73  C   UNL A   1      38.341  34.307  32.736  1.00  0.00     0.006 A 
ENDBRANCH  52  66
BRANCH  53  74
ATOM     74  C   UNL A   1      45.006  25.654  26.749  1.00  0.00     0.057 A 
ATOM     75  C   UNL A   1      45.471  24.337  26.902  1.00  0.00     0.134 A 
ATOM     76  C   UNL A   1      44.059  25.885  25.748  1.00  0.00     0.134 A 
ATOM     77  F   UNL A   1      46.379  24.048  27.846  1.00  0.00    -0.206 F 
ATOM     78  C   UNL A   1      44.942  23.277  26.162  1.00  0.00     0.040 A 
ATOM     79  C   UNL A   1      43.527  24.831  24.995  1.00  0.00     0.040 A 
ATOM     80  F   UNL A   1      43.550  27.110  25.558  1.00  0.00    -0.206 F 
ATOM     81  C   UNL A   1      43.942  23.520  25.225  1.00  0.00     0.006 A 
ENDBRANCH  53  74
BRANCH  65  82
ATOM     82  C   UNL A   1      45.916  32.738  27.518  1.00  0.00     0.057 A 
ATOM     83  C   UNL A   1      47.070  33.411  27.941  1.00  0.00     0.134 A 
ATOM     84  C   UNL A   1      45.295  33.261  26.365  1.00  0.00     0.134 A 
ATOM     85  F   UNL A   1      47.809  32.956  28.963  1.00  0.00    -0.206 F 
ATOM     86  C   UNL A   1      47.545  34.561  27.296  1.00  0.00     0.040 A 
ATOM     87  C   UNL A   1      45.784  34.380  25.686  1.00  0.00     0.040 A 
ATOM     88  F   UNL A   1      44.196  32.693  25.844  1.00  0.00    -0.206 F 
ATOM     89  C   UNL A   1      46.906  35.043  26.159  1.00  0.00     0.006 A 
ENDBRANCH  65  82
ENDBRANCH  39  40
ENDBRANCH  31  34
ENDBRANCH  29  30
ENDBRANCH   1  29
TORSDOF 12
ENDMDL
MODEL 3
REMARK VINA RESULT:     -12.8      0.726      1.716
REMARK SMILES Cc1ccc(-c2cc(Cl)cc3c2O[C@@H](C(F)(F)F)C(C(=O)NCCCNC(=O)c2ccc(-c4c5nc(c(-c6c(F)cccc6F)c6ccc([nH]6)c(-c6c(F)cccc6F)c6nc(c(-c7c(F)cccc7F)c7ccc4[nH]7)C=C6)C=C5)cc2)=C3)cc1
REMARK SMILES IDX 24 1 23 2 22 3 20 4 21 5 19 7 6 8 7 9 12 10 8 11 11 12 13 13
REMARK SMILES IDX 9 14 10 15 83 16 14 17 5 18 1 19 2 20 3 21 85 22 4 23 84 24
REMARK SMILES IDX 15 25 16 26 17 27 18 28 25 29 26 30 27 31 28 33 29 34 30 35
REMARK SMILES IDX 82 36 31 37 81 38 32 39 33 40 34 41 75 42 35 43 80 44 74 45
REMARK SMILES IDX 76 46 36 47 79 48 73 49 72 50 37 52 63 53 46 54 62 55 47 56
REMARK SMILES IDX 50 57 61 58 77 59 48 60 49 61 60 63 78 64 51 65 38 66 39 67
REMARK SMILES IDX 44 68 40 69 41 70 43 71 45 72 42 73 64 74 65 75 70 76 66 77
REMARK SMILES IDX 67 78 69 79 71 80 68 81 52 82 53 83 58 84 54 85 55 86 57 87
REMARK SMILES IDX 59 88 56 89
REMARK H PARENT 22 6 26 32 76 51 50 62
REMARK Flexibility Score: inf
ROOT
ATOM      1  C   UNL A   1      33.398  29.407  25.575  1.00  0.00     0.042 C 
ENDROOT
BRANCH   1   2
ATOM      2  C   UNL A   1      32.527  28.364  24.875  1.00  0.00     0.118 C 
BRANCH   2   3
ATOM      3  N   UNL A   1      33.250  27.150  24.517  1.00  0.00    -0.352 N 
ATOM      4  C   UNL A   1      32.942  26.120  23.675  1.00  0.00     0.251 C 
ATOM      5  O   UNL A   1      33.877  25.670  23.006  1.00  0.00    -0.270 OA
ATOM      6  H   UNL A   1      34.122  27.056  24.963  1.00  0.00     0.163 HD
BRANCH   4   7
ATOM      7  C   UNL A   1      31.571  25.433  23.631  1.00  0.00     0.067 C 
ATOM      8  C   UNL A   1      33.539  22.262  25.195  1.00  0.00     0.026 A 
ATOM      9  C   UNL A   1      33.302  20.958  24.716  1.00  0.00     0.033 A 
ATOM     10  C   UNL A   1      32.652  23.237  24.742  1.00  0.00     0.135 A 
ATOM     11  C   UNL A   1      32.493  20.758  23.592  1.00  0.00     0.042 A 
ATOM     12  C   UNL A   1      32.076  23.115  23.450  1.00  0.00     0.019 A 
ATOM     13  O   UNL A   1      32.232  24.270  25.605  1.00  0.00    -0.475 OA
ATOM     14  Cl  UNL A   1      32.286  19.163  22.979  1.00  0.00    -0.084 Cl
ATOM     15  C   UNL A   1      31.963  21.846  22.894  1.00  0.00     0.032 A 
ATOM     16  C   UNL A   1      31.595  24.372  22.777  1.00  0.00     0.025 C 
ATOM     17  C   UNL A   1      31.084  24.921  24.980  1.00  0.00     0.314 C 
BRANCH   8  18
ATOM     18  C   UNL A   1      34.983  22.602  25.324  1.00  0.00    -0.015 A 
ATOM     19  C   UNL A   1      39.173  23.081  26.342  1.00  0.00     0.044 C 
ATOM     20  C   UNL A   1      37.736  22.929  25.934  1.00  0.00    -0.051 A 
ATOM     21  C   UNL A   1      36.852  24.021  25.948  1.00  0.00     0.004 A 
ATOM     22  C   UNL A   1      37.254  21.684  25.545  1.00  0.00     0.004 A 
ATOM     23  C   UNL A   1      35.484  23.861  25.653  1.00  0.00     0.009 A 
ATOM     24  C   UNL A   1      35.905  21.531  25.237  1.00  0.00     0.009 A 
ENDBRANCH   8  18
BRANCH  17  25
ATOM     25  C   UNL A   1      30.124  25.813  25.772  1.00  0.00     0.429 C 
ATOM     26  F   UNL A   1      29.448  26.637  24.923  1.00  0.00    -0.167 F 
ATOM     27  F   UNL A   1      29.186  25.117  26.445  1.00  0.00    -0.167 F 
ATOM     28  F   UNL A   1      30.748  26.640  26.637  1.00  0.00    -0.167 F 
ENDBRANCH  17  25
ENDBRANCH   4   7
ENDBRANCH   2   3
ENDBRANCH   1   2
BRANCH   1  29
ATOM     29  C   UNL A   1      32.959  29.785  26.985  1.00  0.00     0.118 C 
BRANCH  29  30
ATOM     30  N   UNL A   1      33.435  31.095  27.430  1.00  0.00    -0.352 N 
ATOM     31  C   UNL A   1      34.648  31.423  28.019  1.00  0.00     0.251 C 
ATOM     32  H   UNL A   1      32.811  31.844  27.294  1.00  0.00     0.163 HD
ATOM     33  O   UNL A   1      34.931  32.579  28.275  1.00  0.00    -0.269 OA
BRANCH  31  34
ATOM     34  C   UNL A   1      35.642  30.343  28.225  1.00  0.00     0.039 A 
ATOM     35  C   UNL A   1      35.837  29.868  29.525  1.00  0.00     0.014 A 
ATOM     36  C   UNL A   1      36.528  30.014  27.203  1.00  0.00     0.014 A 
ATOM     37  C   UNL A   1      37.063  29.299  29.857  1.00  0.00     0.010 A 
ATOM     38  C   UNL A   1      37.775  29.534  27.548  1.00  0.00     0.010 A 
ATOM     39  C   UNL A   1      38.070  29.262  28.890  1.00  0.00    -0.014 A 
BRANCH  39  40
ATOM     40  C   UNL A   1      39.488  29.220  29.243  1.00  0.00     0.031 A 
ATOM     41  C   UNL A   1      40.295  27.989  29.132  1.00  0.00     0.074 A 
ATOM     42  C   UNL A   1      40.103  30.386  29.551  1.00  0.00     0.049 A 
ATOM     43  N   UNL A   1      41.363  27.765  29.826  1.00  0.00    -0.248 NA
ATOM     44  C   UNL A   1      39.952  26.900  28.226  1.00  0.00     0.031 C 
ATOM     45  C   UNL A   1      41.539  30.643  29.621  1.00  0.00     0.029 A 
ATOM     46  N   UNL A   1      39.516  31.562  30.038  1.00  0.00    -0.354 N 
ATOM     47  C   UNL A   1      41.991  26.677  29.270  1.00  0.00     0.074 A 
ATOM     48  C   UNL A   1      41.045  26.134  28.320  1.00  0.00     0.031 C 
ATOM     49  C   UNL A   1      41.745  31.751  30.349  1.00  0.00     0.029 A 
ATOM     50  C   UNL A   1      40.463  32.156  30.897  1.00  0.00     0.049 A 
ATOM     51  H   UNL A   1      38.618  31.905  29.824  1.00  0.00     0.167 HD
ATOM     52  C   UNL A   1      43.302  26.421  29.545  1.00  0.00     0.037 A 
ATOM     53  C   UNL A   1      40.202  32.329  32.225  1.00  0.00     0.037 A 
ATOM     54  C   UNL A   1      43.873  27.399  30.465  1.00  0.00     0.049 A 
ATOM     55  C   UNL A   1      41.141  31.579  33.142  1.00  0.00     0.074 A 
ATOM     56  C   UNL A   1      44.629  28.541  30.259  1.00  0.00     0.029 A 
ATOM     57  N   UNL A   1      43.420  27.463  31.780  1.00  0.00    -0.354 N 
ATOM     58  N   UNL A   1      41.949  30.637  32.745  1.00  0.00    -0.248 NA
ATOM     59  C   UNL A   1      41.202  31.791  34.588  1.00  0.00     0.031 C 
ATOM     60  C   UNL A   1      44.575  29.328  31.433  1.00  0.00     0.029 A 
ATOM     61  C   UNL A   1      43.800  28.658  32.363  1.00  0.00     0.049 A 
ATOM     62  H   UNL A   1      42.904  26.757  32.232  1.00  0.00     0.167 HD
ATOM     63  C   UNL A   1      42.567  30.078  33.832  1.00  0.00     0.074 A 
ATOM     64  C   UNL A   1      42.096  30.859  34.959  1.00  0.00     0.031 C 
ATOM     65  C   UNL A   1      43.392  28.997  33.717  1.00  0.00     0.037 A 
BRANCH  52  66
ATOM     66  C   UNL A   1      44.102  25.469  28.694  1.00  0.00     0.057 A 
ATOM     67  C   UNL A   1      44.272  24.118  29.049  1.00  0.00     0.134 A 
ATOM     68  C   UNL A   1      44.791  25.866  27.535  1.00  0.00     0.134 A 
ATOM     69  F   UNL A   1      43.610  23.570  30.076  1.00  0.00    -0.206 F 
ATOM     70  C   UNL A   1      45.154  23.264  28.377  1.00  0.00     0.040 A 
ATOM     71  C   UNL A   1      45.715  25.038  26.883  1.00  0.00     0.040 A 
ATOM     72  F   UNL A   1      44.589  27.078  26.995  1.00  0.00    -0.206 F 
ATOM     73  C   UNL A   1      45.912  23.734  27.315  1.00  0.00     0.006 A 
ENDBRANCH  52  66
BRANCH  53  74
ATOM     74  C   UNL A   1      38.772  32.602  32.518  1.00  0.00     0.057 A 
ATOM     75  C   UNL A   1      37.955  31.539  32.939  1.00  0.00     0.134 A 
ATOM     76  C   UNL A   1      38.298  33.898  32.736  1.00  0.00     0.134 A 
ATOM     77  F   UNL A   1      38.354  30.271  32.761  1.00  0.00    -0.206 F 
ATOM     78  C   UNL A   1      36.767  31.755  33.642  1.00  0.00     0.040 A 
ATOM     79  C   UNL A   1      37.104  34.126  33.433  1.00  0.00     0.040 A 
ATOM     80  F   UNL A   1      39.031  34.963  32.383  1.00  0.00    -0.206 F 
ATOM     81  C   UNL A   1      36.355  33.056  33.917  1.00  0.00     0.006 A 
ENDBRANCH  53  74
BRANCH  65  82
ATOM     82  C   UNL A   1      43.952  28.217  34.871  1.00  0.00     0.057 A 
ATOM     83  C   UNL A   1      43.394  27.023  35.349  1.00  0.00     0.134 A 
ATOM     84  C   UNL A   1      45.179  28.592  35.456  1.00  0.00     0.134 A 
ATOM     85  F   UNL A   1      42.283  26.506  34.806  1.00  0.00    -0.206 F 
ATOM     86  C   UNL A   1      43.987  26.280  36.378  1.00  0.00     0.040 A 
ATOM     87  C   UNL A   1      45.803  27.835  36.452  1.00  0.00     0.040 A 
ATOM     88  F   UNL A   1      45.828  29.701  35.070  1.00  0.00    -0.206 F 
ATOM     89  C   UNL A   1      45.200  26.681  36.926  1.00  0.00     0.006 A 
ENDBRANCH  65  82
ENDBRANCH  39  40
ENDBRANCH  31  34
ENDBRANCH  29  30
ENDBRANCH   1  29
TORSDOF 12
ENDMDL
