MODEL 1
REMARK VINA RESULT:     -13.1      0.000      0.000
REMARK SMILES C[C@@H](NC(=O)/C(=C/c1ccc(Cl)cc1)NC(=O)c1ccc(C(C)(C)C)cc1)C(=O)NCCCNC(=O)c1ccc(-c2c3nc(c(-c4c(F)cccc4F)c4ccc([nH]4)c(-c4c(F)cccc4F)c4nc(c(-c5c(F)cccc5F)c5ccc2[nH]5)C=C4)C=C3)cc1
REMARK SMILES IDX 28 1 29 2 30 3 2 5 1 6 3 7 4 8 5 10 6 11 7 12 15 13 16 14
REMARK SMILES IDX 17 16 18 17 19 18 27 19 20 20 26 21 21 22 22 23 23 24 24 25
REMARK SMILES IDX 25 26 8 27 9 28 14 29 10 30 13 31 11 32 12 33 31 34 32 35
REMARK SMILES IDX 33 36 34 37 35 38 36 40 37 41 38 42 90 43 39 44 89 45 40 46
REMARK SMILES IDX 41 47 42 48 83 49 43 50 88 51 82 52 84 53 44 54 87 55 81 56
REMARK SMILES IDX 80 57 45 59 71 60 54 61 70 62 55 63 58 64 69 65 85 66 56 67
REMARK SMILES IDX 57 68 68 70 86 71 59 72 46 73 47 74 52 75 48 76 49 77 51 78
REMARK SMILES IDX 53 79 50 80 72 81 73 82 78 83 74 84 75 85 77 86 79 87 76 88
REMARK SMILES IDX 60 89 61 90 66 91 62 92 63 93 65 94 67 95 64 96
REMARK H PARENT 30 4 3 9 15 15 34 39 84 58 58 69
REMARK Flexibility Score: inf
ROOT
ATOM      1  C   UNL A   1      33.136  28.447  23.070  1.00  0.00     0.242 C 
ATOM      2  O   UNL A   1      33.932  28.160  22.169  1.00  0.00    -0.273 OA
ATOM      3  N   UNL A   1      33.589  29.236  24.078  1.00  0.00    -0.354 N 
ATOM      4  H   UNL A   1      34.521  29.543  23.990  1.00  0.00     0.163 HD
ENDROOT
BRANCH   1   5
ATOM      5  C   UNL A   1      31.742  27.798  23.111  1.00  0.00     0.168 C 
ATOM      6  C   UNL A   1      30.778  28.782  22.439  1.00  0.00     0.041 C 
BRANCH   5   7
ATOM      7  N   UNL A   1      31.557  26.445  22.559  1.00  0.00    -0.339 N 
ATOM      8  C   UNL A   1      31.332  25.303  23.294  1.00  0.00     0.268 C 
ATOM      9  H   UNL A   1      31.596  26.348  21.580  1.00  0.00     0.164 HD
ATOM     10  O   UNL A   1      30.312  24.647  23.102  1.00  0.00    -0.268 OA
BRANCH   8  11
ATOM     11  C   UNL A   1      32.437  24.785  24.168  1.00  0.00     0.107 C 
ATOM     12  C   UNL A   1      33.659  24.704  23.609  1.00  0.00     0.040 C 
BRANCH  11  13
ATOM     13  N   UNL A   1      32.231  24.501  25.506  1.00  0.00    -0.317 N 
ATOM     14  C   UNL A   1      32.187  23.349  26.255  1.00  0.00     0.255 C 
ATOM     15  H   UNL A   1      32.081  25.311  26.045  1.00  0.00     0.170 HD
ATOM     16  O   UNL A   1      31.861  23.423  27.441  1.00  0.00    -0.269 OA
BRANCH  14  17
ATOM     17  C   UNL A   1      32.520  22.027  25.713  1.00  0.00     0.040 A 
ATOM     18  C   UNL A   1      33.566  21.318  26.298  1.00  0.00     0.014 A 
ATOM     19  C   UNL A   1      31.868  21.518  24.592  1.00  0.00     0.014 A 
ATOM     20  C   UNL A   1      33.886  20.046  25.823  1.00  0.00     0.005 A 
ATOM     21  C   UNL A   1      32.188  20.237  24.127  1.00  0.00     0.005 A 
ATOM     22  C   UNL A   1      33.175  19.458  24.757  1.00  0.00    -0.043 A 
BRANCH  22  23
ATOM     23  C   UNL A   1      33.486  18.010  24.337  1.00  0.00    -0.013 C 
ATOM     24  C   UNL A   1      32.860  17.033  25.352  1.00  0.00     0.016 C 
ATOM     25  C   UNL A   1      32.899  17.732  22.934  1.00  0.00     0.016 C 
ATOM     26  C   UNL A   1      34.998  17.703  24.255  1.00  0.00     0.016 C 
ENDBRANCH  22  23
ENDBRANCH  14  17
ENDBRANCH  11  13
BRANCH  12  27
ATOM     27  C   UNL A   1      34.897  24.079  24.126  1.00  0.00    -0.023 A 
ATOM     28  C   UNL A   1      35.500  24.452  25.338  1.00  0.00     0.010 A 
ATOM     29  C   UNL A   1      35.404  22.959  23.452  1.00  0.00     0.010 A 
ATOM     30  C   UNL A   1      36.617  23.768  25.827  1.00  0.00     0.021 A 
ATOM     31  C   UNL A   1      36.507  22.258  23.951  1.00  0.00     0.021 A 
ATOM     32  C   UNL A   1      37.116  22.671  25.132  1.00  0.00     0.041 A 
ATOM     33  Cl  UNL A   1      38.467  21.807  25.752  1.00  0.00    -0.084 Cl
ENDBRANCH  12  27
ENDBRANCH   8  11
ENDBRANCH   5   7
ENDBRANCH   1   5
BRANCH   3  34
ATOM     34  C   UNL A   1      32.895  29.691  25.265  1.00  0.00     0.117 C 
BRANCH  34  35
ATOM     35  C   UNL A   1      32.785  28.586  26.300  1.00  0.00     0.042 C 
BRANCH  35  36
ATOM     36  C   UNL A   1      33.734  28.780  27.474  1.00  0.00     0.118 C 
BRANCH  36  37
ATOM     37  N   UNL A   1      33.783  30.157  27.946  1.00  0.00    -0.352 N 
ATOM     38  C   UNL A   1      34.860  30.817  28.499  1.00  0.00     0.251 C 
ATOM     39  H   UNL A   1      32.951  30.676  27.862  1.00  0.00     0.163 HD
ATOM     40  O   UNL A   1      34.744  31.942  28.962  1.00  0.00    -0.269 OA
BRANCH  38  41
ATOM     41  C   UNL A   1      36.154  30.112  28.557  1.00  0.00     0.039 A 
ATOM     42  C   UNL A   1      37.008  30.167  27.453  1.00  0.00     0.014 A 
ATOM     43  C   UNL A   1      36.558  29.499  29.745  1.00  0.00     0.014 A 
ATOM     44  C   UNL A   1      38.310  29.677  27.570  1.00  0.00     0.010 A 
ATOM     45  C   UNL A   1      37.876  29.081  29.882  1.00  0.00     0.010 A 
ATOM     46  C   UNL A   1      38.767  29.173  28.799  1.00  0.00    -0.014 A 
BRANCH  46  47
ATOM     47  C   UNL A   1      40.167  28.722  28.989  1.00  0.00     0.031 A 
ATOM     48  C   UNL A   1      41.187  29.691  29.516  1.00  0.00     0.074 A 
ATOM     49  C   UNL A   1      40.544  27.491  28.592  1.00  0.00     0.049 A 
ATOM     50  N   UNL A   1      42.486  29.569  29.590  1.00  0.00    -0.248 NA
ATOM     51  C   UNL A   1      40.675  30.989  29.987  1.00  0.00     0.031 C 
ATOM     52  C   UNL A   1      39.658  26.471  28.028  1.00  0.00     0.029 A 
ATOM     53  N   UNL A   1      41.781  26.897  28.584  1.00  0.00    -0.354 N 
ATOM     54  C   UNL A   1      42.950  30.784  30.076  1.00  0.00     0.074 A 
ATOM     55  C   UNL A   1      41.798  31.643  30.245  1.00  0.00     0.031 C 
ATOM     56  C   UNL A   1      40.379  25.372  27.742  1.00  0.00     0.029 A 
ATOM     57  C   UNL A   1      41.780  25.626  28.063  1.00  0.00     0.049 A 
ATOM     58  H   UNL A   1      42.594  27.341  28.921  1.00  0.00     0.167 HD
ATOM     59  C   UNL A   1      44.219  31.147  30.372  1.00  0.00     0.037 A 
ATOM     60  C   UNL A   1      42.798  24.769  27.855  1.00  0.00     0.037 A 
ATOM     61  C   UNL A   1      45.356  30.275  30.251  1.00  0.00     0.049 A 
ATOM     62  C   UNL A   1      44.195  25.182  28.222  1.00  0.00     0.074 A 
ATOM     63  C   UNL A   1      46.676  30.528  30.580  1.00  0.00     0.029 A 
ATOM     64  N   UNL A   1      45.303  28.974  29.774  1.00  0.00    -0.354 N 
ATOM     65  N   UNL A   1      44.616  26.321  28.716  1.00  0.00    -0.248 NA
ATOM     66  C   UNL A   1      45.260  24.192  28.007  1.00  0.00     0.031 C 
ATOM     67  C   UNL A   1      47.426  29.385  30.282  1.00  0.00     0.029 A 
ATOM     68  C   UNL A   1      46.567  28.412  29.798  1.00  0.00     0.049 A 
ATOM     69  H   UNL A   1      44.487  28.520  29.464  1.00  0.00     0.167 HD
ATOM     70  C   UNL A   1      45.984  26.174  28.901  1.00  0.00     0.074 A 
ATOM     71  C   UNL A   1      46.325  24.835  28.468  1.00  0.00     0.031 C 
ATOM     72  C   UNL A   1      46.879  27.068  29.387  1.00  0.00     0.037 A 
BRANCH  59  73
ATOM     73  C   UNL A   1      44.438  32.547  30.861  1.00  0.00     0.057 A 
ATOM     74  C   UNL A   1      44.697  33.604  29.979  1.00  0.00     0.134 A 
ATOM     75  C   UNL A   1      44.373  32.843  32.227  1.00  0.00     0.134 A 
ATOM     76  F   UNL A   1      44.789  33.381  28.660  1.00  0.00    -0.206 F 
ATOM     77  C   UNL A   1      44.914  34.902  30.442  1.00  0.00     0.040 A 
ATOM     78  C   UNL A   1      44.562  34.143  32.700  1.00  0.00     0.040 A 
ATOM     79  F   UNL A   1      44.124  31.878  33.125  1.00  0.00    -0.206 F 
ATOM     80  C   UNL A   1      44.841  35.175  31.806  1.00  0.00     0.006 A 
ENDBRANCH  59  73
BRANCH  60  81
ATOM     81  C   UNL A   1      42.532  23.421  27.293  1.00  0.00     0.057 A 
ATOM     82  C   UNL A   1      42.182  22.353  28.126  1.00  0.00     0.134 A 
ATOM     83  C   UNL A   1      42.626  23.166  25.920  1.00  0.00     0.134 A 
ATOM     84  F   UNL A   1      42.094  22.533  29.452  1.00  0.00    -0.206 F 
ATOM     85  C   UNL A   1      41.951  21.074  27.617  1.00  0.00     0.040 A 
ATOM     86  C   UNL A   1      42.380  21.897  25.395  1.00  0.00     0.040 A 
ATOM     87  F   UNL A   1      42.951  24.150  25.069  1.00  0.00    -0.206 F 
ATOM     88  C   UNL A   1      42.046  20.844  26.247  1.00  0.00     0.006 A 
ENDBRANCH  60  81
BRANCH  72  89
ATOM     89  C   UNL A   1      48.299  26.613  29.528  1.00  0.00     0.057 A 
ATOM     90  C   UNL A   1      48.751  25.947  30.672  1.00  0.00     0.134 A 
ATOM     91  C   UNL A   1      49.205  26.790  28.476  1.00  0.00     0.134 A 
ATOM     92  F   UNL A   1      47.930  25.758  31.718  1.00  0.00    -0.206 F 
ATOM     93  C   UNL A   1      50.062  25.481  30.771  1.00  0.00     0.040 A 
ATOM     94  C   UNL A   1      50.514  26.312  28.555  1.00  0.00     0.040 A 
ATOM     95  F   UNL A   1      48.829  27.415  27.351  1.00  0.00    -0.206 F 
ATOM     96  C   UNL A   1      50.945  25.657  29.706  1.00  0.00     0.006 A 
ENDBRANCH  72  89
ENDBRANCH  46  47
ENDBRANCH  38  41
ENDBRANCH  36  37
ENDBRANCH  35  36
ENDBRANCH  34  35
ENDBRANCH   3  34
TORSDOF 16
ENDMDL
MODEL 2
REMARK VINA RESULT:     -12.9      2.438      7.900
REMARK SMILES C[C@@H](NC(=O)/C(=C/c1ccc(Cl)cc1)NC(=O)c1ccc(C(C)(C)C)cc1)C(=O)NCCCNC(=O)c1ccc(-c2c3nc(c(-c4c(F)cccc4F)c4ccc([nH]4)c(-c4c(F)cccc4F)c4nc(c(-c5c(F)cccc5F)c5ccc2[nH]5)C=C4)C=C3)cc1
REMARK SMILES IDX 28 1 29 2 30 3 2 5 1 6 3 7 4 8 5 10 6 11 7 12 15 13 16 14
REMARK SMILES IDX 17 16 18 17 19 18 27 19 20 20 26 21 21 22 22 23 23 24 24 25
REMARK SMILES IDX 25 26 8 27 9 28 14 29 10 30 13 31 11 32 12 33 31 34 32 35
REMARK SMILES IDX 33 36 34 37 35 38 36 40 37 41 38 42 90 43 39 44 89 45 40 46
REMARK SMILES IDX 41 47 42 48 83 49 43 50 88 51 82 52 84 53 44 54 87 55 81 56
REMARK SMILES IDX 80 57 45 59 71 60 54 61 70 62 55 63 58 64 69 65 85 66 56 67
REMARK SMILES IDX 57 68 68 70 86 71 59 72 46 73 47 74 52 75 48 76 49 77 51 78
REMARK SMILES IDX 53 79 50 80 72 81 73 82 78 83 74 84 75 85 77 86 79 87 76 88
REMARK SMILES IDX 60 89 61 90 66 91 62 92 63 93 65 94 67 95 64 96
REMARK H PARENT 30 4 3 9 15 15 34 39 84 58 58 69
REMARK Flexibility Score: inf
ROOT
ATOM      1  C   UNL A   1      34.529  21.634  26.481  1.00  0.00     0.242 C 
ATOM      2  O   UNL A   1      34.058  21.521  27.618  1.00  0.00    -0.273 OA
ATOM      3  N   UNL A   1      35.829  22.013  26.377  1.00  0.00    -0.354 N 
ATOM      4  H   UNL A   1      36.303  22.139  27.231  1.00  0.00     0.163 HD
ENDROOT
BRANCH   1   5
ATOM      5  C   UNL A   1      33.621  21.501  25.247  1.00  0.00     0.168 C 
ATOM      6  C   UNL A   1      33.509  20.003  24.941  1.00  0.00     0.041 C 
BRANCH   5   7
ATOM      7  N   UNL A   1      32.284  22.120  25.261  1.00  0.00    -0.339 N 
ATOM      8  C   UNL A   1      31.863  23.138  24.436  1.00  0.00     0.268 C 
ATOM      9  H   UNL A   1      31.635  21.776  25.917  1.00  0.00     0.164 HD
ATOM     10  O   UNL A   1      30.891  22.966  23.706  1.00  0.00    -0.268 OA
BRANCH   8  11
ATOM     11  C   UNL A   1      32.483  24.496  24.600  1.00  0.00     0.107 C 
ATOM     12  C   UNL A   1      32.304  25.099  25.790  1.00  0.00     0.040 C 
BRANCH  11  13
ATOM     13  N   UNL A   1      33.280  25.052  23.616  1.00  0.00    -0.317 N 
ATOM     14  C   UNL A   1      33.154  26.120  22.758  1.00  0.00     0.255 C 
ATOM     15  H   UNL A   1      34.132  24.573  23.504  1.00  0.00     0.170 HD
ATOM     16  O   UNL A   1      34.017  26.294  21.896  1.00  0.00    -0.269 OA
BRANCH  14  17
ATOM     17  C   UNL A   1      32.043  27.074  22.824  1.00  0.00     0.040 A 
ATOM     18  C   UNL A   1      32.338  28.419  23.037  1.00  0.00     0.014 A 
ATOM     19  C   UNL A   1      30.718  26.650  22.758  1.00  0.00     0.014 A 
ATOM     20  C   UNL A   1      31.304  29.354  23.074  1.00  0.00     0.005 A 
ATOM     21  C   UNL A   1      29.686  27.595  22.786  1.00  0.00     0.005 A 
ATOM     22  C   UNL A   1      29.958  28.970  22.904  1.00  0.00    -0.043 A 
BRANCH  22  23
ATOM     23  C   UNL A   1      28.859  30.046  22.841  1.00  0.00    -0.013 C 
ATOM     24  C   UNL A   1      29.158  31.149  23.875  1.00  0.00     0.016 C 
ATOM     25  C   UNL A   1      28.816  30.671  21.428  1.00  0.00     0.016 C 
ATOM     26  C   UNL A   1      27.443  29.498  23.129  1.00  0.00     0.016 C 
ENDBRANCH  22  23
ENDBRANCH  14  17
ENDBRANCH  11  13
BRANCH  12  27
ATOM     27  C   UNL A   1      32.620  26.483  26.205  1.00  0.00    -0.023 A 
ATOM     28  C   UNL A   1      33.909  27.037  26.125  1.00  0.00     0.010 A 
ATOM     29  C   UNL A   1      31.557  27.331  26.550  1.00  0.00     0.010 A 
ATOM     30  C   UNL A   1      34.137  28.380  26.444  1.00  0.00     0.021 A 
ATOM     31  C   UNL A   1      31.779  28.680  26.847  1.00  0.00     0.021 A 
ATOM     32  C   UNL A   1      33.070  29.196  26.802  1.00  0.00     0.041 A 
ATOM     33  Cl  UNL A   1      33.345  30.856  27.159  1.00  0.00    -0.084 Cl
ENDBRANCH  12  27
ENDBRANCH   8  11
ENDBRANCH   5   7
ENDBRANCH   1   5
BRANCH   3  34
ATOM     34  C   UNL A   1      36.617  22.257  25.187  1.00  0.00     0.117 C 
BRANCH  34  35
ATOM     35  C   UNL A   1      37.595  21.124  24.927  1.00  0.00     0.042 C 
BRANCH  35  36
ATOM     36  C   UNL A   1      38.813  21.175  25.839  1.00  0.00     0.118 C 
BRANCH  36  37
ATOM     37  N   UNL A   1      39.639  19.978  25.753  1.00  0.00    -0.352 N 
ATOM     38  C   UNL A   1      40.988  19.869  26.015  1.00  0.00     0.251 C 
ATOM     39  H   UNL A   1      39.181  19.152  25.475  1.00  0.00     0.163 HD
ATOM     40  O   UNL A   1      41.593  18.830  25.797  1.00  0.00    -0.269 OA
BRANCH  38  41
ATOM     41  C   UNL A   1      41.696  21.056  26.528  1.00  0.00     0.039 A 
ATOM     42  C   UNL A   1      42.156  22.016  25.624  1.00  0.00     0.014 A 
ATOM     43  C   UNL A   1      41.799  21.263  27.906  1.00  0.00     0.014 A 
ATOM     44  C   UNL A   1      42.645  23.232  26.106  1.00  0.00     0.010 A 
ATOM     45  C   UNL A   1      42.215  22.500  28.379  1.00  0.00     0.010 A 
ATOM     46  C   UNL A   1      42.635  23.499  27.484  1.00  0.00    -0.014 A 
BRANCH  46  47
ATOM     47  C   UNL A   1      43.067  24.809  28.031  1.00  0.00     0.031 A 
ATOM     48  C   UNL A   1      42.030  25.847  28.355  1.00  0.00     0.074 A 
ATOM     49  C   UNL A   1      44.377  25.104  28.134  1.00  0.00     0.049 A 
ATOM     50  N   UNL A   1      42.189  27.106  28.668  1.00  0.00    -0.248 NA
ATOM     51  C   UNL A   1      40.624  25.417  28.278  1.00  0.00     0.031 C 
ATOM     52  C   UNL A   1      45.481  24.197  27.813  1.00  0.00     0.029 A 
ATOM     53  N   UNL A   1      45.001  26.264  28.519  1.00  0.00    -0.354 N 
ATOM     54  C   UNL A   1      40.907  27.628  28.785  1.00  0.00     0.074 A 
ATOM     55  C   UNL A   1      39.983  26.559  28.474  1.00  0.00     0.031 C 
ATOM     56  C   UNL A   1      46.647  24.831  28.028  1.00  0.00     0.029 A 
ATOM     57  C   UNL A   1      46.373  26.198  28.461  1.00  0.00     0.049 A 
ATOM     58  H   UNL A   1      44.513  27.068  28.811  1.00  0.00     0.167 HD
ATOM     59  C   UNL A   1      40.532  28.880  29.137  1.00  0.00     0.037 A 
ATOM     60  C   UNL A   1      47.302  27.139  28.714  1.00  0.00     0.037 A 
ATOM     61  C   UNL A   1      41.451  29.926  29.495  1.00  0.00     0.049 A 
ATOM     62  C   UNL A   1      46.862  28.513  29.135  1.00  0.00     0.074 A 
ATOM     63  C   UNL A   1      41.170  31.212  29.922  1.00  0.00     0.029 A 
ATOM     64  N   UNL A   1      42.831  29.800  29.480  1.00  0.00    -0.354 N 
ATOM     65  N   UNL A   1      45.646  28.983  29.279  1.00  0.00    -0.248 NA
ATOM     66  C   UNL A   1      47.921  29.488  29.434  1.00  0.00     0.031 C 
ATOM     67  C   UNL A   1      42.384  31.871  30.145  1.00  0.00     0.029 A 
ATOM     68  C   UNL A   1      43.417  30.985  29.887  1.00  0.00     0.049 A 
ATOM     69  H   UNL A   1      43.321  28.987  29.216  1.00  0.00     0.167 HD
ATOM     70  C   UNL A   1      45.793  30.293  29.714  1.00  0.00     0.074 A 
ATOM     71  C   UNL A   1      47.215  30.545  29.813  1.00  0.00     0.031 C 
ATOM     72  C   UNL A   1      44.835  31.206  30.005  1.00  0.00     0.037 A 
BRANCH  59  73
ATOM     73  C   UNL A   1      39.063  29.177  29.156  1.00  0.00     0.057 A 
ATOM     74  C   UNL A   1      38.373  29.560  27.999  1.00  0.00     0.134 A 
ATOM     75  C   UNL A   1      38.328  29.065  30.342  1.00  0.00     0.134 A 
ATOM     76  F   UNL A   1      39.025  29.702  26.835  1.00  0.00    -0.206 F 
ATOM     77  C   UNL A   1      37.009  29.850  28.026  1.00  0.00     0.040 A 
ATOM     78  C   UNL A   1      36.958  29.328  30.376  1.00  0.00     0.040 A 
ATOM     79  F   UNL A   1      38.928  28.699  31.485  1.00  0.00    -0.206 F 
ATOM     80  C   UNL A   1      36.296  29.728  29.217  1.00  0.00     0.006 A 
ENDBRANCH  59  73
BRANCH  60  81
ATOM     81  C   UNL A   1      48.745  26.809  28.602  1.00  0.00     0.057 A 
ATOM     82  C   UNL A   1      49.427  26.981  27.392  1.00  0.00     0.134 A 
ATOM     83  C   UNL A   1      49.470  26.309  29.689  1.00  0.00     0.134 A 
ATOM     84  F   UNL A   1      48.779  27.438  26.311  1.00  0.00    -0.206 F 
ATOM     85  C   UNL A   1      50.778  26.653  27.263  1.00  0.00     0.040 A 
ATOM     86  C   UNL A   1      50.826  25.996  29.579  1.00  0.00     0.040 A 
ATOM     87  F   UNL A   1      48.874  26.129  30.876  1.00  0.00    -0.206 F 
ATOM     88  C   UNL A   1      51.482  26.162  28.360  1.00  0.00     0.006 A 
ENDBRANCH  60  81
BRANCH  72  89
ATOM     89  C   UNL A   1      45.288  32.541  30.511  1.00  0.00     0.057 A 
ATOM     90  C   UNL A   1      45.518  33.618  29.648  1.00  0.00     0.134 A 
ATOM     91  C   UNL A   1      45.434  32.764  31.885  1.00  0.00     0.134 A 
ATOM     92  F   UNL A   1      45.405  33.461  28.320  1.00  0.00    -0.206 F 
ATOM     93  C   UNL A   1      45.890  34.871  30.134  1.00  0.00     0.040 A 
ATOM     94  C   UNL A   1      45.786  34.018  32.385  1.00  0.00     0.040 A 
ATOM     95  F   UNL A   1      45.221  31.772  32.763  1.00  0.00    -0.206 F 
ATOM     96  C   UNL A   1      46.017  35.075  31.508  1.00  0.00     0.006 A 
ENDBRANCH  72  89
ENDBRANCH  46  47
ENDBRANCH  38  41
ENDBRANCH  36  37
ENDBRANCH  35  36
ENDBRANCH  34  35
ENDBRANCH   3  34
TORSDOF 16
ENDMDL
MODEL 3
REMARK VINA RESULT:     -12.9      2.475      8.109
REMARK SMILES C[C@@H](NC(=O)/C(=C/c1ccc(Cl)cc1)NC(=O)c1ccc(C(C)(C)C)cc1)C(=O)NCCCNC(=O)c1ccc(-c2c3nc(c(-c4c(F)cccc4F)c4ccc([nH]4)c(-c4c(F)cccc4F)c4nc(c(-c5c(F)cccc5F)c5ccc2[nH]5)C=C4)C=C3)cc1
REMARK SMILES IDX 28 1 29 2 30 3 2 5 1 6 3 7 4 8 5 10 6 11 7 12 15 13 16 14
REMARK SMILES IDX 17 16 18 17 19 18 27 19 20 20 26 21 21 22 22 23 23 24 24 25
REMARK SMILES IDX 25 26 8 27 9 28 14 29 10 30 13 31 11 32 12 33 31 34 32 35
REMARK SMILES IDX 33 36 34 37 35 38 36 40 37 41 38 42 90 43 39 44 89 45 40 46
REMARK SMILES IDX 41 47 42 48 83 49 43 50 88 51 82 52 84 53 44 54 87 55 81 56
REMARK SMILES IDX 80 57 45 59 71 60 54 61 70 62 55 63 58 64 69 65 85 66 56 67
REMARK SMILES IDX 57 68 68 70 86 71 59 72 46 73 47 74 52 75 48 76 49 77 51 78
REMARK SMILES IDX 53 79 50 80 72 81 73 82 78 83 74 84 75 85 77 86 79 87 76 88
REMARK SMILES IDX 60 89 61 90 66 91 62 92 63 93 65 94 67 95 64 96
REMARK H PARENT 30 4 3 9 15 15 34 39 84 58 58 69
REMARK Flexibility Score: inf
ROOT
ATOM      1  C   UNL A   1      34.774  21.749  26.289  1.00  0.00     0.242 C 
ATOM      2  O   UNL A   1      34.366  22.005  27.427  1.00  0.00    -0.273 OA
ATOM      3  N   UNL A   1      36.116  21.773  26.085  1.00  0.00    -0.354 N 
ATOM      4  H   UNL A   1      36.662  21.967  26.881  1.00  0.00     0.163 HD
ENDROOT
BRANCH   1   5
ATOM      5  C   UNL A   1      33.779  21.568  25.130  1.00  0.00     0.168 C 
ATOM      6  C   UNL A   1      33.702  20.063  24.846  1.00  0.00     0.041 C 
BRANCH   5   7
ATOM      7  N   UNL A   1      32.425  22.136  25.242  1.00  0.00    -0.339 N 
ATOM      8  C   UNL A   1      31.912  23.146  24.461  1.00  0.00     0.268 C 
ATOM      9  H   UNL A   1      31.835  21.760  25.936  1.00  0.00     0.164 HD
ATOM     10  O   UNL A   1      30.899  22.946  23.796  1.00  0.00    -0.268 OA
BRANCH   8  11
ATOM     11  C   UNL A   1      32.491  24.524  24.601  1.00  0.00     0.107 C 
ATOM     12  C   UNL A   1      32.298  25.141  25.783  1.00  0.00     0.040 C 
BRANCH  11  13
ATOM     13  N   UNL A   1      33.267  25.089  23.606  1.00  0.00    -0.317 N 
ATOM     14  C   UNL A   1      33.110  26.144  22.738  1.00  0.00     0.255 C 
ATOM     15  H   UNL A   1      34.130  24.630  23.493  1.00  0.00     0.170 HD
ATOM     16  O   UNL A   1      33.961  26.330  21.867  1.00  0.00    -0.269 OA
BRANCH  14  17
ATOM     17  C   UNL A   1      31.976  27.073  22.803  1.00  0.00     0.040 A 
ATOM     18  C   UNL A   1      32.244  28.436  22.911  1.00  0.00     0.014 A 
ATOM     19  C   UNL A   1      30.662  26.612  22.836  1.00  0.00     0.014 A 
ATOM     20  C   UNL A   1      31.187  29.345  22.945  1.00  0.00     0.005 A 
ATOM     21  C   UNL A   1      29.606  27.531  22.860  1.00  0.00     0.005 A 
ATOM     22  C   UNL A   1      29.846  28.917  22.873  1.00  0.00    -0.043 A 
BRANCH  22  23
ATOM     23  C   UNL A   1      28.714  29.958  22.801  1.00  0.00    -0.013 C 
ATOM     24  C   UNL A   1      28.655  30.557  21.382  1.00  0.00     0.016 C 
ATOM     25  C   UNL A   1      27.360  29.285  23.126  1.00  0.00     0.016 C 
ATOM     26  C   UNL A   1      28.883  31.124  23.801  1.00  0.00     0.016 C 
ENDBRANCH  22  23
ENDBRANCH  14  17
ENDBRANCH  11  13
BRANCH  12  27
ATOM     27  C   UNL A   1      32.573  26.540  26.175  1.00  0.00    -0.023 A 
ATOM     28  C   UNL A   1      33.846  27.128  26.091  1.00  0.00     0.010 A 
ATOM     29  C   UNL A   1      31.485  27.363  26.501  1.00  0.00     0.010 A 
ATOM     30  C   UNL A   1      34.036  28.482  26.387  1.00  0.00     0.021 A 
ATOM     31  C   UNL A   1      31.668  28.723  26.775  1.00  0.00     0.021 A 
ATOM     32  C   UNL A   1      32.945  29.275  26.726  1.00  0.00     0.041 A 
ATOM     33  Cl  UNL A   1      33.171  30.947  27.056  1.00  0.00    -0.084 Cl
ENDBRANCH  12  27
ENDBRANCH   8  11
ENDBRANCH   5   7
ENDBRANCH   1   5
BRANCH   3  34
ATOM     34  C   UNL A   1      36.858  21.553  24.861  1.00  0.00     0.117 C 
BRANCH  34  35
ATOM     35  C   UNL A   1      37.771  20.345  24.975  1.00  0.00     0.042 C 
BRANCH  35  36
ATOM     36  C   UNL A   1      39.008  20.616  25.819  1.00  0.00     0.118 C 
BRANCH  36  37
ATOM     37  N   UNL A   1      39.953  19.507  25.819  1.00  0.00    -0.352 N 
ATOM     38  C   UNL A   1      41.294  19.548  26.133  1.00  0.00     0.251 C 
ATOM     39  H   UNL A   1      39.592  18.628  25.564  1.00  0.00     0.163 HD
ATOM     40  O   UNL A   1      42.009  18.568  25.986  1.00  0.00    -0.269 OA
BRANCH  38  41
ATOM     41  C   UNL A   1      41.859  20.823  26.614  1.00  0.00     0.039 A 
ATOM     42  C   UNL A   1      42.378  21.728  25.686  1.00  0.00     0.014 A 
ATOM     43  C   UNL A   1      41.767  21.157  27.967  1.00  0.00     0.014 A 
ATOM     44  C   UNL A   1      42.729  23.013  26.106  1.00  0.00     0.010 A 
ATOM     45  C   UNL A   1      42.045  22.458  28.367  1.00  0.00     0.010 A 
ATOM     46  C   UNL A   1      42.522  23.400  27.440  1.00  0.00    -0.014 A 
BRANCH  46  47
ATOM     47  C   UNL A   1      42.800  24.780  27.907  1.00  0.00     0.031 A 
ATOM     48  C   UNL A   1      44.205  25.161  28.280  1.00  0.00     0.074 A 
ATOM     49  C   UNL A   1      41.790  25.650  28.098  1.00  0.00     0.049 A 
ATOM     50  N   UNL A   1      44.641  26.240  28.875  1.00  0.00    -0.248 NA
ATOM     51  C   UNL A   1      45.255  24.174  27.976  1.00  0.00     0.031 C 
ATOM     52  C   UNL A   1      40.377  25.388  27.812  1.00  0.00     0.029 A 
ATOM     53  N   UNL A   1      41.795  26.927  28.600  1.00  0.00    -0.354 N 
ATOM     54  C   UNL A   1      46.005  26.046  29.052  1.00  0.00     0.074 A 
ATOM     55  C   UNL A   1      46.318  24.731  28.535  1.00  0.00     0.031 C 
ATOM     56  C   UNL A   1      39.656  26.477  28.132  1.00  0.00     0.029 A 
ATOM     57  C   UNL A   1      40.547  27.494  28.681  1.00  0.00     0.049 A 
ATOM     58  H   UNL A   1      42.618  27.393  28.877  1.00  0.00     0.167 HD
ATOM     59  C   UNL A   1      46.917  26.892  29.582  1.00  0.00     0.037 A 
ATOM     60  C   UNL A   1      40.164  28.694  29.158  1.00  0.00     0.037 A 
ATOM     61  C   UNL A   1      46.612  28.218  30.048  1.00  0.00     0.049 A 
ATOM     62  C   UNL A   1      41.200  29.631  29.711  1.00  0.00     0.074 A 
ATOM     63  C   UNL A   1      47.477  29.176  30.548  1.00  0.00     0.029 A 
ATOM     64  N   UNL A   1      45.344  28.776  30.057  1.00  0.00    -0.354 N 
ATOM     65  N   UNL A   1      42.492  29.450  29.839  1.00  0.00    -0.248 NA
ATOM     66  C   UNL A   1      40.729  30.940  30.184  1.00  0.00     0.031 C 
ATOM     67  C   UNL A   1      46.725  30.308  30.880  1.00  0.00     0.029 A 
ATOM     68  C   UNL A   1      45.400  30.065  30.557  1.00  0.00     0.049 A 
ATOM     69  H   UNL A   1      44.525  28.322  29.754  1.00  0.00     0.167 HD
ATOM     70  C   UNL A   1      42.992  30.629  30.374  1.00  0.00     0.074 A 
ATOM     71  C   UNL A   1      41.864  31.522  30.547  1.00  0.00     0.031 C 
ATOM     72  C   UNL A   1      44.270  30.946  30.694  1.00  0.00     0.037 A 
BRANCH  59  73
ATOM     73  C   UNL A   1      48.332  26.406  29.676  1.00  0.00     0.057 A 
ATOM     74  C   UNL A   1      49.261  26.638  28.654  1.00  0.00     0.134 A 
ATOM     75  C   UNL A   1      48.773  25.711  30.808  1.00  0.00     0.134 A 
ATOM     76  F   UNL A   1      48.895  27.284  27.537  1.00  0.00    -0.206 F 
ATOM     77  C   UNL A   1      50.573  26.171  28.742  1.00  0.00     0.040 A 
ATOM     78  C   UNL A   1      50.090  25.261  30.918  1.00  0.00     0.040 A 
ATOM     79  F   UNL A   1      47.935  25.459  31.825  1.00  0.00    -0.206 F 
ATOM     80  C   UNL A   1      50.992  25.484  29.880  1.00  0.00     0.006 A 
ENDBRANCH  59  73
BRANCH  60  81
ATOM     81  C   UNL A   1      38.734  29.091  29.112  1.00  0.00     0.057 A 
ATOM     82  C   UNL A   1      38.172  29.609  27.939  1.00  0.00     0.134 A 
ATOM     83  C   UNL A   1      37.902  28.971  30.230  1.00  0.00     0.134 A 
ATOM     84  F   UNL A   1      38.927  29.764  26.841  1.00  0.00    -0.206 F 
ATOM     85  C   UNL A   1      36.837  30.009  27.884  1.00  0.00     0.040 A 
ATOM     86  C   UNL A   1      36.559  29.350  30.183  1.00  0.00     0.040 A 
ATOM     87  F   UNL A   1      38.380  28.476  31.380  1.00  0.00    -0.206 F 
ATOM     88  C   UNL A   1      36.024  29.877  29.008  1.00  0.00     0.006 A 
ENDBRANCH  60  81
BRANCH  72  89
ATOM     89  C   UNL A   1      44.528  32.328  31.210  1.00  0.00     0.057 A 
ATOM     90  C   UNL A   1      44.776  33.403  30.350  1.00  0.00     0.134 A 
ATOM     91  C   UNL A   1      44.463  32.593  32.583  1.00  0.00     0.134 A 
ATOM     92  F   UNL A   1      44.861  33.208  29.025  1.00  0.00    -0.206 F 
ATOM     93  C   UNL A   1      44.963  34.696  30.839  1.00  0.00     0.040 A 
ATOM     94  C   UNL A   1      44.629  33.885  33.083  1.00  0.00     0.040 A 
ATOM     95  F   UNL A   1      44.222  31.605  33.458  1.00  0.00    -0.206 F 
ATOM     96  C   UNL A   1      44.882  34.941  32.210  1.00  0.00     0.006 A 
ENDBRANCH  72  89
ENDBRANCH  46  47
ENDBRANCH  38  41
ENDBRANCH  36  37
ENDBRANCH  35  36
ENDBRANCH  34  35
ENDBRANCH   3  34
TORSDOF 16
ENDMDL
