MODEL 1
REMARK VINA RESULT:     -13.3      0.000      0.000
REMARK SMILES CC(C)(C)OC(=O)N1CCC(n2c(=S)[nH]c3cc(C(=O)NCCCNC(=O)c4ccc(-c5c6nc(c(-c7c(F)cccc7F)c7ccc([nH]7)c(-c7c(F)cccc7F)c7nc(c(-c8c(F)cccc8F)c8ccc5[nH]8)C=C7)C=C6)cc4)ccc3c2=O)CC1
REMARK SMILES IDX 22 1 21 2 19 3 20 4 18 6 12 7 13 8 85 9 14 10 15 11 84 12
REMARK SMILES IDX 86 13 16 14 83 16 17 17 82 18 11 19 6 20 7 21 8 22 9 23
REMARK SMILES IDX 88 24 10 25 87 26 5 27 2 28 1 29 3 30 4 31 23 32 24 33 25 34
REMARK SMILES IDX 26 35 27 37 28 38 29 39 81 40 30 41 80 42 31 43 32 44 33 45
REMARK SMILES IDX 74 46 34 47 79 48 73 49 75 50 35 51 78 52 72 53 71 54 36 56
REMARK SMILES IDX 62 57 45 58 61 59 46 60 49 61 60 62 76 63 47 64 48 65 59 67
REMARK SMILES IDX 77 68 50 69 37 70 38 71 43 72 39 73 40 74 42 75 44 76 41 77
REMARK SMILES IDX 63 78 64 79 69 80 65 81 66 82 68 83 70 84 67 85 51 86 52 87
REMARK SMILES IDX 57 88 53 89 54 90 56 91 58 92 55 93
REMARK H PARENT 21 5 15 15 25 36 75 55 49 66
REMARK Flexibility Score: inf
ROOT
ATOM      1  C   UNL A   1      39.353  22.159  26.334  1.00  0.00     0.118 C 
ENDROOT
BRANCH   1   2
ATOM      2  N   UNL A   1      38.937  20.865  25.818  1.00  0.00    -0.352 N 
ATOM      3  C   UNL A   1      37.837  20.466  25.101  1.00  0.00     0.251 C 
ATOM      4  O   UNL A   1      37.781  19.291  24.741  1.00  0.00    -0.269 OA
ATOM      5  H   UNL A   1      39.566  20.136  26.021  1.00  0.00     0.163 HD
BRANCH   3   6
ATOM      6  C   UNL A   1      36.737  21.389  24.705  1.00  0.00     0.041 A 
ATOM      7  N   UNL A   1      32.392  23.979  24.641  1.00  0.00    -0.282 N 
ATOM      8  C   UNL A   1      32.292  23.091  25.726  1.00  0.00     0.180 A 
ATOM      9  C   UNL A   1      33.424  23.871  23.701  1.00  0.00     0.262 A 
ATOM     10  S   UNL A   1      31.049  22.993  26.853  1.00  0.00    -0.040 S 
ATOM     11  N   UNL A   1      33.330  22.213  25.919  1.00  0.00    -0.332 N 
ATOM     12  C   UNL A   1      34.572  23.031  24.051  1.00  0.00     0.064 A 
ATOM     13  O   UNL A   1      33.453  24.399  22.594  1.00  0.00    -0.269 OA
ATOM     14  C   UNL A   1      34.486  22.192  25.144  1.00  0.00     0.054 A 
ATOM     15  H   UNL A   1      33.252  21.558  26.649  1.00  0.00     0.169 HD
ATOM     16  C   UNL A   1      35.747  23.107  23.309  1.00  0.00     0.017 A 
ATOM     17  C   UNL A   1      35.555  21.356  25.471  1.00  0.00     0.040 A 
ATOM     18  C   UNL A   1      36.834  22.311  23.659  1.00  0.00     0.015 A 
BRANCH   7  19
ATOM     19  C   UNL A   1      31.482  25.164  24.554  1.00  0.00     0.097 C 
ATOM     20  C   UNL A   1      30.433  28.700  22.589  1.00  0.00     0.410 C 
ATOM     21  O   UNL A   1      31.382  29.443  22.388  1.00  0.00    -0.224 OA
ATOM     22  N   UNL A   1      30.478  27.651  23.488  1.00  0.00    -0.308 N 
ATOM     23  C   UNL A   1      31.480  27.673  24.535  1.00  0.00     0.125 C 
ATOM     24  C   UNL A   1      29.596  26.489  23.453  1.00  0.00     0.125 C 
ATOM     25  C   UNL A   1      32.351  26.435  24.476  1.00  0.00     0.047 C 
ATOM     26  C   UNL A   1      30.435  25.205  23.412  1.00  0.00     0.047 C 
BRANCH  20  27
ATOM     27  O   UNL A   1      29.197  28.860  22.048  1.00  0.00    -0.444 OA
BRANCH  27  28
ATOM     28  C   UNL A   1      28.390  30.014  22.409  1.00  0.00     0.106 C 
ATOM     29  C   UNL A   1      27.104  29.423  23.004  1.00  0.00     0.056 C 
ATOM     30  C   UNL A   1      28.047  30.819  21.154  1.00  0.00     0.056 C 
ATOM     31  C   UNL A   1      29.035  30.902  23.490  1.00  0.00     0.056 C 
ENDBRANCH  27  28
ENDBRANCH  20  27
ENDBRANCH   7  19
ENDBRANCH   3   6
ENDBRANCH   1   2
BRANCH   1  32
ATOM     32  C   UNL A   1      40.759  22.092  26.929  1.00  0.00     0.042 C 
BRANCH  32  33
ATOM     33  C   UNL A   1      41.331  23.458  27.281  1.00  0.00     0.118 C 
BRANCH  33  34
ATOM     34  N   UNL A   1      41.932  24.119  26.133  1.00  0.00    -0.352 N 
ATOM     35  C   UNL A   1      42.000  25.462  25.842  1.00  0.00     0.251 C 
ATOM     36  H   UNL A   1      42.348  23.522  25.470  1.00  0.00     0.163 HD
ATOM     37  O   UNL A   1      42.391  25.834  24.740  1.00  0.00    -0.269 OA
BRANCH  35  38
ATOM     38  C   UNL A   1      41.562  26.454  26.847  1.00  0.00     0.039 A 
ATOM     39  C   UNL A   1      42.041  27.765  26.813  1.00  0.00     0.014 A 
ATOM     40  C   UNL A   1      40.683  26.053  27.857  1.00  0.00     0.014 A 
ATOM     41  C   UNL A   1      41.782  28.623  27.878  1.00  0.00     0.010 A 
ATOM     42  C   UNL A   1      40.358  26.942  28.885  1.00  0.00     0.010 A 
ATOM     43  C   UNL A   1      40.952  28.214  28.933  1.00  0.00    -0.014 A 
BRANCH  43  44
ATOM     44  C   UNL A   1      40.756  29.106  30.105  1.00  0.00     0.031 A 
ATOM     45  C   UNL A   1      39.610  30.083  30.130  1.00  0.00     0.074 A 
ATOM     46  C   UNL A   1      41.576  29.004  31.167  1.00  0.00     0.049 A 
ATOM     47  N   UNL A   1      39.283  30.953  31.052  1.00  0.00    -0.248 NA
ATOM     48  C   UNL A   1      38.715  30.086  28.961  1.00  0.00     0.031 C 
ATOM     49  C   UNL A   1      42.700  28.073  31.280  1.00  0.00     0.029 A 
ATOM     50  N   UNL A   1      41.577  29.675  32.364  1.00  0.00    -0.354 N 
ATOM     51  C   UNL A   1      38.169  31.626  30.564  1.00  0.00     0.074 A 
ATOM     52  C   UNL A   1      37.887  31.078  29.255  1.00  0.00     0.031 C 
ATOM     53  C   UNL A   1      43.251  28.197  32.498  1.00  0.00     0.029 A 
ATOM     54  C   UNL A   1      42.560  29.257  33.225  1.00  0.00     0.049 A 
ATOM     55  H   UNL A   1      40.933  30.387  32.583  1.00  0.00     0.167 HD
ATOM     56  C   UNL A   1      37.443  32.605  31.155  1.00  0.00     0.037 A 
ATOM     57  C   UNL A   1      42.879  29.690  34.459  1.00  0.00     0.037 A 
ATOM     58  C   UNL A   1      37.703  33.125  32.471  1.00  0.00     0.049 A 
ATOM     59  C   UNL A   1      42.096  30.819  35.065  1.00  0.00     0.074 A 
ATOM     60  C   UNL A   1      37.001  34.089  33.174  1.00  0.00     0.029 A 
ATOM     61  N   UNL A   1      38.752  32.724  33.284  1.00  0.00    -0.354 N 
ATOM     62  N   UNL A   1      41.041  31.441  34.594  1.00  0.00    -0.248 NA
ATOM     63  C   UNL A   1      42.559  31.317  36.367  1.00  0.00     0.031 C 
ATOM     64  C   UNL A   1      37.651  34.300  34.396  1.00  0.00     0.029 A 
ATOM     65  C   UNL A   1      38.733  33.439  34.470  1.00  0.00     0.049 A 
ATOM     66  H   UNL A   1      39.413  32.032  33.052  1.00  0.00     0.167 HD
ATOM     67  C   UNL A   1      40.700  32.385  35.553  1.00  0.00     0.074 A 
ATOM     68  C   UNL A   1      41.654  32.249  36.635  1.00  0.00     0.031 C 
ATOM     69  C   UNL A   1      39.686  33.284  35.539  1.00  0.00     0.037 A 
BRANCH  56  70
ATOM     70  C   UNL A   1      36.311  33.197  30.366  1.00  0.00     0.057 A 
ATOM     71  C   UNL A   1      36.567  34.108  29.333  1.00  0.00     0.134 A 
ATOM     72  C   UNL A   1      34.972  32.882  30.632  1.00  0.00     0.134 A 
ATOM     73  F   UNL A   1      37.826  34.455  29.029  1.00  0.00    -0.206 F 
ATOM     74  C   UNL A   1      35.533  34.680  28.590  1.00  0.00     0.040 A 
ATOM     75  C   UNL A   1      33.930  33.431  29.881  1.00  0.00     0.040 A 
ATOM     76  F   UNL A   1      34.658  32.005  31.598  1.00  0.00    -0.206 F 
ATOM     77  C   UNL A   1      34.210  34.336  28.859  1.00  0.00     0.006 A 
ENDBRANCH  56  70
BRANCH  57  78
ATOM     78  C   UNL A   1      43.994  29.057  35.205  1.00  0.00     0.057 A 
ATOM     79  C   UNL A   1      45.320  29.468  35.031  1.00  0.00     0.134 A 
ATOM     80  C   UNL A   1      43.751  28.028  36.121  1.00  0.00     0.134 A 
ATOM     81  F   UNL A   1      45.617  30.450  34.166  1.00  0.00    -0.206 F 
ATOM     82  C   UNL A   1      46.368  28.870  35.732  1.00  0.00     0.040 A 
ATOM     83  C   UNL A   1      44.785  27.437  36.846  1.00  0.00     0.040 A 
ATOM     84  F   UNL A   1      42.497  27.606  36.346  1.00  0.00    -0.206 F 
ATOM     85  C   UNL A   1      46.100  27.855  36.648  1.00  0.00     0.006 A 
ENDBRANCH  57  78
BRANCH  69  86
ATOM     86  C   UNL A   1      39.535  34.160  36.747  1.00  0.00     0.057 A 
ATOM     87  C   UNL A   1      38.855  33.698  37.880  1.00  0.00     0.134 A 
ATOM     88  C   UNL A   1      40.042  35.464  36.780  1.00  0.00     0.134 A 
ATOM     89  F   UNL A   1      38.342  32.459  37.909  1.00  0.00    -0.206 F 
ATOM     90  C   UNL A   1      38.680  34.506  39.004  1.00  0.00     0.040 A 
ATOM     91  C   UNL A   1      39.893  36.274  37.907  1.00  0.00     0.040 A 
ATOM     92  F   UNL A   1      40.718  35.958  35.732  1.00  0.00    -0.206 F 
ATOM     93  C   UNL A   1      39.204  35.796  39.022  1.00  0.00     0.006 A 
ENDBRANCH  69  86
ENDBRANCH  43  44
ENDBRANCH  35  38
ENDBRANCH  33  34
ENDBRANCH  32  33
ENDBRANCH   1  32
TORSDOF 13
ENDMDL
MODEL 2
REMARK VINA RESULT:     -13.3      1.338      2.086
REMARK SMILES CC(C)(C)OC(=O)N1CCC(n2c(=S)[nH]c3cc(C(=O)NCCCNC(=O)c4ccc(-c5c6nc(c(-c7c(F)cccc7F)c7ccc([nH]7)c(-c7c(F)cccc7F)c7nc(c(-c8c(F)cccc8F)c8ccc5[nH]8)C=C7)C=C6)cc4)ccc3c2=O)CC1
REMARK SMILES IDX 22 1 21 2 19 3 20 4 18 6 12 7 13 8 85 9 14 10 15 11 84 12
REMARK SMILES IDX 86 13 16 14 83 16 17 17 82 18 11 19 6 20 7 21 8 22 9 23
REMARK SMILES IDX 88 24 10 25 87 26 5 27 2 28 1 29 3 30 4 31 23 32 24 33 25 34
REMARK SMILES IDX 26 35 27 37 28 38 29 39 81 40 30 41 80 42 31 43 32 44 33 45
REMARK SMILES IDX 74 46 34 47 79 48 73 49 75 50 35 51 78 52 72 53 71 54 36 56
REMARK SMILES IDX 62 57 45 58 61 59 46 60 49 61 60 62 76 63 47 64 48 65 59 67
REMARK SMILES IDX 77 68 50 69 37 70 38 71 43 72 39 73 40 74 42 75 44 76 41 77
REMARK SMILES IDX 63 78 64 79 69 80 65 81 66 82 68 83 70 84 67 85 51 86 52 87
REMARK SMILES IDX 57 88 53 89 54 90 56 91 58 92 55 93
REMARK H PARENT 21 5 15 15 25 36 75 55 49 66
REMARK Flexibility Score: inf
ROOT
ATOM      1  C   UNL A   1      41.300  22.137  28.002  1.00  0.00     0.118 C 
ENDROOT
BRANCH   1   2
ATOM      2  N   UNL A   1      41.249  20.921  27.205  1.00  0.00    -0.352 N 
ATOM      3  C   UNL A   1      40.327  20.442  26.308  1.00  0.00     0.251 C 
ATOM      4  O   UNL A   1      40.586  19.389  25.727  1.00  0.00    -0.269 OA
ATOM      5  H   UNL A   1      42.025  20.330  27.333  1.00  0.00     0.163 HD
BRANCH   3   6
ATOM      6  C   UNL A   1      39.060  21.151  25.976  1.00  0.00     0.041 A 
ATOM      7  N   UNL A   1      34.235  22.131  24.813  1.00  0.00    -0.282 N 
ATOM      8  C   UNL A   1      34.359  20.731  24.784  1.00  0.00     0.180 A 
ATOM      9  C   UNL A   1      35.358  22.962  24.897  1.00  0.00     0.262 A 
ATOM     10  S   UNL A   1      33.136  19.603  24.544  1.00  0.00    -0.040 S 
ATOM     11  N   UNL A   1      35.609  20.205  24.999  1.00  0.00    -0.332 N 
ATOM     12  C   UNL A   1      36.629  22.345  25.284  1.00  0.00     0.064 A 
ATOM     13  O   UNL A   1      35.389  24.165  24.656  1.00  0.00    -0.269 OA
ATOM     14  C   UNL A   1      36.734  20.968  25.297  1.00  0.00     0.054 A 
ATOM     15  H   UNL A   1      35.716  19.229  24.939  1.00  0.00     0.169 HD
ATOM     16  C   UNL A   1      37.706  23.139  25.668  1.00  0.00     0.017 A 
ATOM     17  C   UNL A   1      37.948  20.361  25.626  1.00  0.00     0.040 A 
ATOM     18  C   UNL A   1      38.904  22.538  26.044  1.00  0.00     0.015 A 
BRANCH   7  19
ATOM     19  C   UNL A   1      32.883  22.763  24.914  1.00  0.00     0.097 C 
ATOM     20  C   UNL A   1      30.615  26.235  25.431  1.00  0.00     0.410 C 
ATOM     21  O   UNL A   1      30.978  26.915  26.379  1.00  0.00    -0.224 OA
ATOM     22  N   UNL A   1      30.993  24.917  25.264  1.00  0.00    -0.308 N 
ATOM     23  C   UNL A   1      31.452  24.171  26.419  1.00  0.00     0.125 C 
ATOM     24  C   UNL A   1      30.988  24.207  23.990  1.00  0.00     0.125 C 
ATOM     25  C   UNL A   1      32.847  23.627  26.191  1.00  0.00     0.047 C 
ATOM     26  C   UNL A   1      32.379  23.617  23.722  1.00  0.00     0.047 C 
BRANCH  20  27
ATOM     27  O   UNL A   1      29.727  26.639  24.486  1.00  0.00    -0.444 OA
BRANCH  27  28
ATOM     28  C   UNL A   1      30.062  27.739  23.596  1.00  0.00     0.106 C 
ATOM     29  C   UNL A   1      28.708  28.288  23.123  1.00  0.00     0.056 C 
ATOM     30  C   UNL A   1      30.845  27.211  22.393  1.00  0.00     0.056 C 
ATOM     31  C   UNL A   1      30.809  28.890  24.295  1.00  0.00     0.056 C 
ENDBRANCH  27  28
ENDBRANCH  20  27
ENDBRANCH   7  19
ENDBRANCH   3   6
ENDBRANCH   1   2
BRANCH   1  32
ATOM     32  C   UNL A   1      42.742  22.584  28.237  1.00  0.00     0.042 C 
BRANCH  32  33
ATOM     33  C   UNL A   1      43.016  24.005  27.768  1.00  0.00     0.118 C 
BRANCH  33  34
ATOM     34  N   UNL A   1      42.422  24.285  26.470  1.00  0.00    -0.352 N 
ATOM     35  C   UNL A   1      41.493  25.241  26.129  1.00  0.00     0.251 C 
ATOM     36  H   UNL A   1      42.727  23.709  25.731  1.00  0.00     0.163 HD
ATOM     37  O   UNL A   1      40.969  25.222  25.019  1.00  0.00    -0.269 OA
BRANCH  35  38
ATOM     38  C   UNL A   1      41.097  26.267  27.118  1.00  0.00     0.039 A 
ATOM     39  C   UNL A   1      41.687  27.532  27.110  1.00  0.00     0.014 A 
ATOM     40  C   UNL A   1      40.143  25.942  28.086  1.00  0.00     0.014 A 
ATOM     41  C   UNL A   1      41.455  28.408  28.166  1.00  0.00     0.010 A 
ATOM     42  C   UNL A   1      39.850  26.854  29.103  1.00  0.00     0.010 A 
ATOM     43  C   UNL A   1      40.547  28.071  29.182  1.00  0.00    -0.014 A 
BRANCH  43  44
ATOM     44  C   UNL A   1      40.376  28.976  30.348  1.00  0.00     0.031 A 
ATOM     45  C   UNL A   1      39.291  30.020  30.344  1.00  0.00     0.074 A 
ATOM     46  C   UNL A   1      41.162  28.828  31.429  1.00  0.00     0.049 A 
ATOM     47  N   UNL A   1      38.993  30.910  31.257  1.00  0.00    -0.248 NA
ATOM     48  C   UNL A   1      38.426  30.074  29.153  1.00  0.00     0.031 C 
ATOM     49  C   UNL A   1      42.226  27.832  31.571  1.00  0.00     0.029 A 
ATOM     50  N   UNL A   1      41.174  29.500  32.625  1.00  0.00    -0.354 N 
ATOM     51  C   UNL A   1      37.934  31.647  30.741  1.00  0.00     0.074 A 
ATOM     52  C   UNL A   1      37.652  31.113  29.425  1.00  0.00     0.031 C 
ATOM     53  C   UNL A   1      42.754  27.926  32.802  1.00  0.00     0.029 A 
ATOM     54  C   UNL A   1      42.110  29.027  33.511  1.00  0.00     0.049 A 
ATOM     55  H   UNL A   1      40.569  30.250  32.828  1.00  0.00     0.167 HD
ATOM     56  C   UNL A   1      37.253  32.669  31.312  1.00  0.00     0.037 A 
ATOM     57  C   UNL A   1      42.423  29.444  34.752  1.00  0.00     0.037 A 
ATOM     58  C   UNL A   1      37.512  33.176  32.634  1.00  0.00     0.049 A 
ATOM     59  C   UNL A   1      41.694  30.619  35.337  1.00  0.00     0.074 A 
ATOM     60  C   UNL A   1      36.852  34.182  33.318  1.00  0.00     0.029 A 
ATOM     61  N   UNL A   1      38.515  32.715  33.473  1.00  0.00    -0.354 N 
ATOM     62  N   UNL A   1      40.691  31.301  34.840  1.00  0.00    -0.248 NA
ATOM     63  C   UNL A   1      42.154  31.092  36.649  1.00  0.00     0.031 C 
ATOM     64  C   UNL A   1      37.483  34.357  34.555  1.00  0.00     0.029 A 
ATOM     65  C   UNL A   1      38.510  33.433  34.657  1.00  0.00     0.049 A 
ATOM     66  H   UNL A   1      39.139  31.985  33.258  1.00  0.00     0.167 HD
ATOM     67  C   UNL A   1      40.383  32.267  35.790  1.00  0.00     0.074 A 
ATOM     68  C   UNL A   1      41.301  32.076  36.894  1.00  0.00     0.031 C 
ATOM     69  C   UNL A   1      39.425  33.224  35.750  1.00  0.00     0.037 A 
BRANCH  56  70
ATOM     70  C   UNL A   1      36.179  33.325  30.495  1.00  0.00     0.057 A 
ATOM     71  C   UNL A   1      36.514  34.178  29.436  1.00  0.00     0.134 A 
ATOM     72  C   UNL A   1      34.817  33.130  30.760  1.00  0.00     0.134 A 
ATOM     73  F   UNL A   1      37.800  34.412  29.132  1.00  0.00    -0.206 F 
ATOM     74  C   UNL A   1      35.535  34.809  28.666  1.00  0.00     0.040 A 
ATOM     75  C   UNL A   1      33.828  33.737  29.982  1.00  0.00     0.040 A 
ATOM     76  F   UNL A   1      34.426  32.313  31.750  1.00  0.00    -0.206 F 
ATOM     77  C   UNL A   1      34.187  34.583  28.935  1.00  0.00     0.006 A 
ENDBRANCH  56  70
BRANCH  57  78
ATOM     78  C   UNL A   1      43.480  28.747  35.525  1.00  0.00     0.057 A 
ATOM     79  C   UNL A   1      44.829  29.095  35.403  1.00  0.00     0.134 A 
ATOM     80  C   UNL A   1      43.156  27.719  36.418  1.00  0.00     0.134 A 
ATOM     81  F   UNL A   1      45.204  30.072  34.562  1.00  0.00    -0.206 F 
ATOM     82  C   UNL A   1      45.823  28.436  36.129  1.00  0.00     0.040 A 
ATOM     83  C   UNL A   1      44.135  27.069  37.169  1.00  0.00     0.040 A 
ATOM     84  F   UNL A   1      41.876  27.357  36.594  1.00  0.00    -0.206 F 
ATOM     85  C   UNL A   1      45.475  27.425  37.021  1.00  0.00     0.006 A 
ENDBRANCH  57  78
BRANCH  69  86
ATOM     86  C   UNL A   1      39.298  34.110  36.952  1.00  0.00     0.057 A 
ATOM     87  C   UNL A   1      39.864  35.390  36.956  1.00  0.00     0.134 A 
ATOM     88  C   UNL A   1      38.636  33.689  38.112  1.00  0.00     0.134 A 
ATOM     89  F   UNL A   1      40.515  35.850  35.877  1.00  0.00    -0.206 F 
ATOM     90  C   UNL A   1      39.782  36.220  38.074  1.00  0.00     0.040 A 
ATOM     91  C   UNL A   1      38.527  34.519  39.229  1.00  0.00     0.040 A 
ATOM     92  F   UNL A   1      38.058  32.480  38.165  1.00  0.00    -0.206 F 
ATOM     93  C   UNL A   1      39.107  35.787  39.213  1.00  0.00     0.006 A 
ENDBRANCH  69  86
ENDBRANCH  43  44
ENDBRANCH  35  38
ENDBRANCH  33  34
ENDBRANCH  32  33
ENDBRANCH   1  32
TORSDOF 13
ENDMDL
MODEL 3
REMARK VINA RESULT:     -13.3      5.129     10.775
REMARK SMILES CC(C)(C)OC(=O)N1CCC(n2c(=S)[nH]c3cc(C(=O)NCCCNC(=O)c4ccc(-c5c6nc(c(-c7c(F)cccc7F)c7ccc([nH]7)c(-c7c(F)cccc7F)c7nc(c(-c8c(F)cccc8F)c8ccc5[nH]8)C=C7)C=C6)cc4)ccc3c2=O)CC1
REMARK SMILES IDX 22 1 21 2 19 3 20 4 18 6 12 7 13 8 85 9 14 10 15 11 84 12
REMARK SMILES IDX 86 13 16 14 83 16 17 17 82 18 11 19 6 20 7 21 8 22 9 23
REMARK SMILES IDX 88 24 10 25 87 26 5 27 2 28 1 29 3 30 4 31 23 32 24 33 25 34
REMARK SMILES IDX 26 35 27 37 28 38 29 39 81 40 30 41 80 42 31 43 32 44 33 45
REMARK SMILES IDX 74 46 34 47 79 48 73 49 75 50 35 51 78 52 72 53 71 54 36 56
REMARK SMILES IDX 62 57 45 58 61 59 46 60 49 61 60 62 76 63 47 64 48 65 59 67
REMARK SMILES IDX 77 68 50 69 37 70 38 71 43 72 39 73 40 74 42 75 44 76 41 77
REMARK SMILES IDX 63 78 64 79 69 80 65 81 66 82 68 83 70 84 67 85 51 86 52 87
REMARK SMILES IDX 57 88 53 89 54 90 56 91 58 92 55 93
REMARK H PARENT 21 5 15 15 25 36 75 55 49 66
REMARK Flexibility Score: inf
ROOT
ATOM      1  C   UNL A   1      34.143  31.458  27.881  1.00  0.00     0.118 C 
ENDROOT
BRANCH   1   2
ATOM      2  N   UNL A   1      32.928  31.944  27.247  1.00  0.00    -0.352 N 
ATOM      3  C   UNL A   1      31.917  31.304  26.574  1.00  0.00     0.251 C 
ATOM      4  O   UNL A   1      30.963  31.982  26.193  1.00  0.00    -0.269 OA
ATOM      5  H   UNL A   1      32.807  32.918  27.315  1.00  0.00     0.163 HD
BRANCH   3   6
ATOM      6  C   UNL A   1      31.899  29.836  26.323  1.00  0.00     0.041 A 
ATOM      7  N   UNL A   1      32.262  25.314  24.085  1.00  0.00    -0.282 N 
ATOM      8  C   UNL A   1      32.469  26.262  23.067  1.00  0.00     0.180 A 
ATOM      9  C   UNL A   1      31.797  25.691  25.350  1.00  0.00     0.262 A 
ATOM     10  S   UNL A   1      32.883  25.966  21.465  1.00  0.00    -0.040 S 
ATOM     11  N   UNL A   1      32.350  27.587  23.408  1.00  0.00    -0.332 N 
ATOM     12  C   UNL A   1      31.847  27.114  25.693  1.00  0.00     0.064 A 
ATOM     13  O   UNL A   1      31.328  24.942  26.201  1.00  0.00    -0.269 OA
ATOM     14  C   UNL A   1      32.094  28.039  24.699  1.00  0.00     0.054 A 
ATOM     15  H   UNL A   1      32.450  28.258  22.695  1.00  0.00     0.169 HD
ATOM     16  C   UNL A   1      31.681  27.522  27.013  1.00  0.00     0.017 A 
ATOM     17  C   UNL A   1      32.107  29.403  24.999  1.00  0.00     0.040 A 
ATOM     18  C   UNL A   1      31.741  28.877  27.327  1.00  0.00     0.015 A 
BRANCH   7  19
ATOM     19  C   UNL A   1      32.686  23.893  23.884  1.00  0.00     0.097 C 
ATOM     20  C   UNL A   1      32.875  19.998  25.386  1.00  0.00     0.410 C 
ATOM     21  O   UNL A   1      33.299  19.939  26.530  1.00  0.00    -0.224 OA
ATOM     22  N   UNL A   1      33.026  21.114  24.586  1.00  0.00    -0.308 N 
ATOM     23  C   UNL A   1      34.069  22.067  24.908  1.00  0.00     0.125 C 
ATOM     24  C   UNL A   1      32.189  21.428  23.433  1.00  0.00     0.125 C 
ATOM     25  C   UNL A   1      33.490  23.450  25.123  1.00  0.00     0.047 C 
ATOM     26  C   UNL A   1      31.593  22.833  23.595  1.00  0.00     0.047 C 
BRANCH  20  27
ATOM     27  O   UNL A   1      32.300  18.962  24.721  1.00  0.00    -0.444 OA
BRANCH  27  28
ATOM     28  C   UNL A   1      33.110  17.832  24.296  1.00  0.00     0.106 C 
ATOM     29  C   UNL A   1      32.773  17.644  22.810  1.00  0.00     0.056 C 
ATOM     30  C   UNL A   1      32.701  16.581  25.073  1.00  0.00     0.056 C 
ATOM     31  C   UNL A   1      34.625  18.090  24.397  1.00  0.00     0.056 C 
ENDBRANCH  27  28
ENDBRANCH  20  27
ENDBRANCH   7  19
ENDBRANCH   3   6
ENDBRANCH   1   2
BRANCH   1  32
ATOM     32  C   UNL A   1      34.732  32.505  28.824  1.00  0.00     0.042 C 
BRANCH  32  33
ATOM     33  C   UNL A   1      36.051  32.078  29.451  1.00  0.00     0.118 C 
BRANCH  33  34
ATOM     34  N   UNL A   1      35.864  31.177  30.578  1.00  0.00    -0.352 N 
ATOM     35  C   UNL A   1      36.705  30.202  31.060  1.00  0.00     0.251 C 
ATOM     36  H   UNL A   1      35.014  31.280  31.065  1.00  0.00     0.163 HD
ATOM     37  O   UNL A   1      36.311  29.414  31.914  1.00  0.00    -0.269 OA
BRANCH  35  38
ATOM     38  C   UNL A   1      38.075  30.078  30.514  1.00  0.00     0.039 A 
ATOM     39  C   UNL A   1      38.290  29.986  29.138  1.00  0.00     0.014 A 
ATOM     40  C   UNL A   1      39.154  30.022  31.401  1.00  0.00     0.014 A 
ATOM     41  C   UNL A   1      39.557  29.666  28.658  1.00  0.00     0.010 A 
ATOM     42  C   UNL A   1      40.440  29.779  30.910  1.00  0.00     0.010 A 
ATOM     43  C   UNL A   1      40.640  29.542  29.540  1.00  0.00    -0.014 A 
BRANCH  43  44
ATOM     44  C   UNL A   1      41.966  29.113  29.025  1.00  0.00     0.031 A 
ATOM     45  C   UNL A   1      42.171  27.702  28.542  1.00  0.00     0.074 A 
ATOM     46  C   UNL A   1      42.971  30.004  28.944  1.00  0.00     0.049 A 
ATOM     47  N   UNL A   1      43.254  27.135  28.073  1.00  0.00    -0.248 NA
ATOM     48  C   UNL A   1      41.004  26.806  28.596  1.00  0.00     0.031 C 
ATOM     49  C   UNL A   1      42.890  31.409  29.346  1.00  0.00     0.029 A 
ATOM     50  N   UNL A   1      44.253  29.866  28.475  1.00  0.00    -0.354 N 
ATOM     51  C   UNL A   1      42.910  25.815  27.808  1.00  0.00     0.074 A 
ATOM     52  C   UNL A   1      41.522  25.658  28.187  1.00  0.00     0.031 C 
ATOM     53  C   UNL A   1      44.053  32.015  29.061  1.00  0.00     0.029 A 
ATOM     54  C   UNL A   1      44.980  31.029  28.516  1.00  0.00     0.049 A 
ATOM     55  H   UNL A   1      44.616  29.013  28.140  1.00  0.00     0.167 HD
ATOM     56  C   UNL A   1      43.677  24.826  27.289  1.00  0.00     0.037 A 
ATOM     57  C   UNL A   1      46.258  31.270  28.167  1.00  0.00     0.037 A 
ATOM     58  C   UNL A   1      45.047  24.992  26.881  1.00  0.00     0.049 A 
ATOM     59  C   UNL A   1      47.104  30.141  27.653  1.00  0.00     0.074 A 
ATOM     60  C   UNL A   1      45.897  24.062  26.308  1.00  0.00     0.029 A 
ATOM     61  N   UNL A   1      45.769  26.169  27.005  1.00  0.00    -0.354 N 
ATOM     62  N   UNL A   1      46.763  28.900  27.402  1.00  0.00    -0.248 NA
ATOM     63  C   UNL A   1      48.517  30.443  27.391  1.00  0.00     0.031 C 
ATOM     64  C   UNL A   1      47.146  24.665  26.124  1.00  0.00     0.029 A 
ATOM     65  C   UNL A   1      47.061  25.983  26.544  1.00  0.00     0.049 A 
ATOM     66  H   UNL A   1      45.414  27.013  27.366  1.00  0.00     0.167 HD
ATOM     67  C   UNL A   1      47.912  28.280  26.928  1.00  0.00     0.074 A 
ATOM     68  C   UNL A   1      48.956  29.285  26.920  1.00  0.00     0.031 C 
ATOM     69  C   UNL A   1      48.086  26.995  26.534  1.00  0.00     0.037 A 
BRANCH  56  70
ATOM     70  C   UNL A   1      43.055  23.465  27.162  1.00  0.00     0.057 A 
ATOM     71  C   UNL A   1      42.918  22.640  28.285  1.00  0.00     0.134 A 
ATOM     72  C   UNL A   1      42.607  22.963  25.933  1.00  0.00     0.134 A 
ATOM     73  F   UNL A   1      43.330  23.058  29.491  1.00  0.00    -0.206 F 
ATOM     74  C   UNL A   1      42.352  21.367  28.193  1.00  0.00     0.040 A 
ATOM     75  C   UNL A   1      42.019  21.701  25.832  1.00  0.00     0.040 A 
ATOM     76  F   UNL A   1      42.695  23.708  24.820  1.00  0.00    -0.206 F 
ATOM     77  C   UNL A   1      41.894  20.897  26.964  1.00  0.00     0.006 A 
ENDBRANCH  56  70
BRANCH  57  78
ATOM     78  C   UNL A   1      46.818  32.638  28.294  1.00  0.00     0.057 A 
ATOM     79  C   UNL A   1      47.481  33.055  29.453  1.00  0.00     0.134 A 
ATOM     80  C   UNL A   1      46.709  33.557  27.245  1.00  0.00     0.134 A 
ATOM     81  F   UNL A   1      47.616  32.219  30.494  1.00  0.00    -0.206 F 
ATOM     82  C   UNL A   1      48.004  34.343  29.571  1.00  0.00     0.040 A 
ATOM     83  C   UNL A   1      47.249  34.840  27.340  1.00  0.00     0.040 A 
ATOM     84  F   UNL A   1      46.103  33.207  26.100  1.00  0.00    -0.206 F 
ATOM     85  C   UNL A   1      47.895  35.237  28.509  1.00  0.00     0.006 A 
ENDBRANCH  57  78
BRANCH  69  86
ATOM     86  C   UNL A   1      49.444  26.617  26.025  1.00  0.00     0.057 A 
ATOM     87  C   UNL A   1      50.369  25.988  26.865  1.00  0.00     0.134 A 
ATOM     88  C   UNL A   1      49.843  26.896  24.712  1.00  0.00     0.134 A 
ATOM     89  F   UNL A   1      50.049  25.699  28.135  1.00  0.00    -0.206 F 
ATOM     90  C   UNL A   1      51.648  25.653  26.420  1.00  0.00     0.040 A 
ATOM     91  C   UNL A   1      51.111  26.545  24.248  1.00  0.00     0.040 A 
ATOM     92  F   UNL A   1      48.995  27.482  23.853  1.00  0.00    -0.206 F 
ATOM     93  C   UNL A   1      52.020  25.926  25.106  1.00  0.00     0.006 A 
ENDBRANCH  69  86
ENDBRANCH  43  44
ENDBRANCH  35  38
ENDBRANCH  33  34
ENDBRANCH  32  33
ENDBRANCH   1  32
TORSDOF 13
ENDMDL
