MODEL 1
REMARK VINA RESULT:     -12.2      0.000      0.000
REMARK SMILES Cc1nn(C)cc1C[NH+]1CCN(C(=O)Cn2ccc(C(=O)NCCCNC(=O)c3ccc(-c4c5nc(c(-c6c(F)cccc6F)c6ccc([nH]6)c(-c6c(F)cccc6F)c6nc(c(-c7c(F)cccc7F)c7ccc4[nH]7)C=C6)C=C5)cc3)n2)CC1
REMARK SMILES IDX 23 1 22 2 20 3 21 4 19 6 16 7 17 8 83 9 18 10 15 11 13 12
REMARK SMILES IDX 9 13 10 14 85 15 11 17 84 18 12 19 14 20 8 21 7 22 1 23 2 24
REMARK SMILES IDX 3 25 4 26 6 27 5 28 24 29 25 30 26 31 27 32 28 34 29 35
REMARK SMILES IDX 30 36 82 37 31 38 81 39 32 40 33 41 34 42 75 43 35 44 80 45
REMARK SMILES IDX 74 46 76 47 36 48 79 49 73 50 72 51 37 53 63 54 46 55 62 56
REMARK SMILES IDX 47 57 50 58 61 59 77 60 48 61 49 62 60 64 78 65 51 66 38 67
REMARK SMILES IDX 39 68 44 69 40 70 41 71 43 72 45 73 42 74 64 75 65 76 70 77
REMARK SMILES IDX 66 78 67 79 69 80 71 81 68 82 52 83 53 84 58 85 54 86 55 87
REMARK SMILES IDX 57 88 59 89 56 90
REMARK H PARENT 22 5 9 16 26 33 76 52 50 63
REMARK Flexibility Score: inf
ROOT
ATOM      1  C   UNL A   1      40.319  21.145  27.160  1.00  0.00     0.118 C 
ENDROOT
BRANCH   1   2
ATOM      2  N   UNL A   1      39.971  22.483  26.712  1.00  0.00    -0.351 N 
ATOM      3  C   UNL A   1      38.810  22.970  26.153  1.00  0.00     0.271 C 
ATOM      4  O   UNL A   1      38.761  24.197  25.980  1.00  0.00    -0.267 OA
ATOM      5  H   UNL A   1      40.683  23.152  26.827  1.00  0.00     0.163 HD
BRANCH   3   6
ATOM      6  C   UNL A   1      37.692  22.074  25.797  1.00  0.00     0.150 A 
ATOM      7  N   UNL A   1      35.670  21.356  25.719  1.00  0.00    -0.263 N 
ATOM      8  C   UNL A   1      36.394  20.408  25.062  1.00  0.00     0.110 A 
ATOM      9  N   UNL A   1      36.423  22.396  26.126  1.00  0.00    -0.167 NA
ATOM     10  C   UNL A   1      37.695  20.848  25.077  1.00  0.00     0.056 A 
BRANCH   7  11
ATOM     11  C   UNL A   1      34.227  21.432  25.922  1.00  0.00     0.244 C 
BRANCH  11  12
ATOM     12  C   UNL A   1      33.476  21.919  24.695  1.00  0.00     0.244 C 
ATOM     13  N   UNL A   1      30.296  24.892  24.981  1.00  0.00    -0.328 N 
ATOM     14  C   UNL A   1      30.656  24.236  23.722  1.00  0.00     0.284 C 
ATOM     15  C   UNL A   1      30.607  24.044  26.130  1.00  0.00     0.284 C 
ATOM     16  H   UNL A   1      29.280  24.977  24.967  1.00  0.00     0.348 HD
ATOM     17  C   UNL A   1      32.060  23.614  23.662  1.00  0.00     0.181 C 
ATOM     18  C   UNL A   1      31.984  23.351  26.145  1.00  0.00     0.181 C 
ATOM     19  N   UNL A   1      32.446  22.846  24.851  1.00  0.00    -0.330 N 
ATOM     20  O   UNL A   1      33.817  21.528  23.573  1.00  0.00    -0.273 OA
BRANCH  13  21
ATOM     21  C   UNL A   1      30.615  26.318  25.104  1.00  0.00     0.302 C 
BRANCH  21  22
ATOM     22  C   UNL A   1      30.162  27.146  23.954  1.00  0.00     0.047 A 
ATOM     23  C   UNL A   1      32.371  27.465  22.558  1.00  0.00     0.069 C 
ATOM     24  C   UNL A   1      30.934  27.668  22.873  1.00  0.00     0.068 A 
ATOM     25  N   UNL A   1      30.207  28.484  22.096  1.00  0.00    -0.178 NA
ATOM     26  N   UNL A   1      28.990  28.467  22.656  1.00  0.00    -0.275 N 
ATOM     27  C   UNL A   1      28.876  27.563  23.668  1.00  0.00     0.118 A 
ATOM     28  C   UNL A   1      28.003  29.439  22.256  1.00  0.00     0.173 C 
ENDBRANCH  21  22
ENDBRANCH  13  21
ENDBRANCH  11  12
ENDBRANCH   7  11
ENDBRANCH   3   6
ENDBRANCH   1   2
BRANCH   1  29
ATOM     29  C   UNL A   1      41.129  20.373  26.112  1.00  0.00     0.042 C 
BRANCH  29  30
ATOM     30  C   UNL A   1      42.440  19.842  26.672  1.00  0.00     0.118 C 
BRANCH  30  31
ATOM     31  N   UNL A   1      43.509  19.812  25.662  1.00  0.00    -0.352 N 
ATOM     32  C   UNL A   1      44.107  20.855  24.988  1.00  0.00     0.251 C 
ATOM     33  H   UNL A   1      43.848  18.916  25.435  1.00  0.00     0.163 HD
ATOM     34  O   UNL A   1      44.754  20.646  23.955  1.00  0.00    -0.269 OA
BRANCH  32  35
ATOM     35  C   UNL A   1      43.973  22.221  25.504  1.00  0.00     0.039 A 
ATOM     36  C   UNL A   1      43.069  23.148  24.969  1.00  0.00     0.014 A 
ATOM     37  C   UNL A   1      44.772  22.560  26.587  1.00  0.00     0.014 A 
ATOM     38  C   UNL A   1      42.934  24.391  25.586  1.00  0.00     0.010 A 
ATOM     39  C   UNL A   1      44.464  23.660  27.326  1.00  0.00     0.010 A 
ATOM     40  C   UNL A   1      43.637  24.628  26.773  1.00  0.00    -0.014 A 
BRANCH  40  41
ATOM     41  C   UNL A   1      43.522  25.863  27.531  1.00  0.00     0.031 A 
ATOM     42  C   UNL A   1      44.501  26.916  27.154  1.00  0.00     0.074 A 
ATOM     43  C   UNL A   1      42.391  26.124  28.228  1.00  0.00     0.049 A 
ATOM     44  N   UNL A   1      45.413  27.463  27.888  1.00  0.00    -0.248 NA
ATOM     45  C   UNL A   1      44.559  27.319  25.737  1.00  0.00     0.031 C 
ATOM     46  C   UNL A   1      41.182  25.289  28.336  1.00  0.00     0.029 A 
ATOM     47  N   UNL A   1      42.012  27.265  28.856  1.00  0.00    -0.354 N 
ATOM     48  C   UNL A   1      46.003  28.439  27.085  1.00  0.00     0.074 A 
ATOM     49  C   UNL A   1      45.610  28.139  25.736  1.00  0.00     0.031 C 
ATOM     50  C   UNL A   1      40.147  26.042  28.762  1.00  0.00     0.029 A 
ATOM     51  C   UNL A   1      40.649  27.352  29.123  1.00  0.00     0.049 A 
ATOM     52  H   UNL A   1      42.649  27.975  29.103  1.00  0.00     0.167 HD
ATOM     53  C   UNL A   1      46.521  29.578  27.624  1.00  0.00     0.037 A 
ATOM     54  C   UNL A   1      39.985  28.449  29.562  1.00  0.00     0.037 A 
ATOM     55  C   UNL A   1      46.712  29.434  29.047  1.00  0.00     0.049 A 
ATOM     56  C   UNL A   1      41.004  29.390  30.093  1.00  0.00     0.074 A 
ATOM     57  C   UNL A   1      47.409  28.552  29.851  1.00  0.00     0.029 A 
ATOM     58  N   UNL A   1      45.805  30.050  29.877  1.00  0.00    -0.354 N 
ATOM     59  N   UNL A   1      41.721  29.162  31.159  1.00  0.00    -0.248 NA
ATOM     60  C   UNL A   1      41.560  30.365  29.165  1.00  0.00     0.031 C 
ATOM     61  C   UNL A   1      46.556  28.324  30.972  1.00  0.00     0.029 A 
ATOM     62  C   UNL A   1      45.429  29.135  30.825  1.00  0.00     0.049 A 
ATOM     63  H   UNL A   1      45.485  30.978  29.803  1.00  0.00     0.167 HD
ATOM     64  C   UNL A   1      42.991  29.624  30.839  1.00  0.00     0.074 A 
ATOM     65  C   UNL A   1      42.810  30.428  29.632  1.00  0.00     0.031 C 
ATOM     66  C   UNL A   1      44.106  29.069  31.401  1.00  0.00     0.037 A 
BRANCH  53  67
ATOM     67  C   UNL A   1      46.484  30.937  26.957  1.00  0.00     0.057 A 
ATOM     68  C   UNL A   1      47.661  31.711  26.929  1.00  0.00     0.134 A 
ATOM     69  C   UNL A   1      45.311  31.638  26.607  1.00  0.00     0.134 A 
ATOM     70  F   UNL A   1      48.848  31.170  27.242  1.00  0.00    -0.206 F 
ATOM     71  C   UNL A   1      47.654  33.086  26.666  1.00  0.00     0.040 A 
ATOM     72  C   UNL A   1      45.301  32.999  26.288  1.00  0.00     0.040 A 
ATOM     73  F   UNL A   1      44.094  31.084  26.648  1.00  0.00    -0.206 F 
ATOM     74  C   UNL A   1      46.469  33.737  26.354  1.00  0.00     0.006 A 
ENDBRANCH  53  67
BRANCH  54  75
ATOM     75  C   UNL A   1      38.589  28.858  29.286  1.00  0.00     0.057 A 
ATOM     76  C   UNL A   1      37.647  28.964  30.318  1.00  0.00     0.134 A 
ATOM     77  C   UNL A   1      38.211  29.406  28.047  1.00  0.00     0.134 A 
ATOM     78  F   UNL A   1      37.931  28.508  31.547  1.00  0.00    -0.206 F 
ATOM     79  C   UNL A   1      36.409  29.598  30.136  1.00  0.00     0.040 A 
ATOM     80  C   UNL A   1      36.976  30.034  27.850  1.00  0.00     0.040 A 
ATOM     81  F   UNL A   1      39.062  29.430  27.011  1.00  0.00    -0.206 F 
ATOM     82  C   UNL A   1      36.075  30.145  28.901  1.00  0.00     0.006 A 
ENDBRANCH  54  75
BRANCH  66  83
ATOM     83  C   UNL A   1      43.922  28.115  32.551  1.00  0.00     0.057 A 
ATOM     84  C   UNL A   1      43.854  26.720  32.414  1.00  0.00     0.134 A 
ATOM     85  C   UNL A   1      43.997  28.614  33.854  1.00  0.00     0.134 A 
ATOM     86  F   UNL A   1      43.878  26.138  31.210  1.00  0.00    -0.206 F 
ATOM     87  C   UNL A   1      43.825  25.866  33.521  1.00  0.00     0.040 A 
ATOM     88  C   UNL A   1      44.003  27.771  34.969  1.00  0.00     0.040 A 
ATOM     89  F   UNL A   1      44.124  29.934  34.066  1.00  0.00    -0.206 F 
ATOM     90  C   UNL A   1      43.910  26.392  34.805  1.00  0.00     0.006 A 
ENDBRANCH  66  83
ENDBRANCH  40  41
ENDBRANCH  32  35
ENDBRANCH  30  31
ENDBRANCH  29  30
ENDBRANCH   1  29
TORSDOF 14
ENDMDL
MODEL 2
REMARK VINA RESULT:     -11.7      2.082      5.821
REMARK SMILES Cc1nn(C)cc1C[NH+]1CCN(C(=O)Cn2ccc(C(=O)NCCCNC(=O)c3ccc(-c4c5nc(c(-c6c(F)cccc6F)c6ccc([nH]6)c(-c6c(F)cccc6F)c6nc(c(-c7c(F)cccc7F)c7ccc4[nH]7)C=C6)C=C5)cc3)n2)CC1
REMARK SMILES IDX 23 1 22 2 20 3 21 4 19 6 16 7 17 8 83 9 18 10 15 11 13 12
REMARK SMILES IDX 9 13 10 14 85 15 11 17 84 18 12 19 14 20 8 21 7 22 1 23 2 24
REMARK SMILES IDX 3 25 4 26 6 27 5 28 24 29 25 30 26 31 27 32 28 34 29 35
REMARK SMILES IDX 30 36 82 37 31 38 81 39 32 40 33 41 34 42 75 43 35 44 80 45
REMARK SMILES IDX 74 46 76 47 36 48 79 49 73 50 72 51 37 53 63 54 46 55 62 56
REMARK SMILES IDX 47 57 50 58 61 59 77 60 48 61 49 62 60 64 78 65 51 66 38 67
REMARK SMILES IDX 39 68 44 69 40 70 41 71 43 72 45 73 42 74 64 75 65 76 70 77
REMARK SMILES IDX 66 78 67 79 69 80 71 81 68 82 52 83 53 84 58 85 54 86 55 87
REMARK SMILES IDX 57 88 59 89 56 90
REMARK H PARENT 22 5 9 16 26 33 76 52 50 63
REMARK Flexibility Score: inf
ROOT
ATOM      1  C   UNL A   1      36.677  20.353  24.961  1.00  0.00     0.118 C 
ENDROOT
BRANCH   1   2
ATOM      2  N   UNL A   1      37.068  21.736  25.175  1.00  0.00    -0.351 N 
ATOM      3  C   UNL A   1      36.405  22.773  25.793  1.00  0.00     0.271 C 
ATOM      4  O   UNL A   1      37.046  23.825  25.931  1.00  0.00    -0.267 OA
ATOM      5  H   UNL A   1      37.954  21.971  24.817  1.00  0.00     0.163 HD
BRANCH   3   6
ATOM      6  C   UNL A   1      35.016  22.622  26.271  1.00  0.00     0.150 A 
ATOM      7  N   UNL A   1      32.878  22.821  26.257  1.00  0.00    -0.263 N 
ATOM      8  C   UNL A   1      33.154  22.190  27.431  1.00  0.00     0.110 A 
ATOM      9  N   UNL A   1      33.981  23.045  25.516  1.00  0.00    -0.167 NA
ATOM     10  C   UNL A   1      34.517  22.030  27.464  1.00  0.00     0.056 A 
BRANCH   7  11
ATOM     11  C   UNL A   1      31.582  23.161  25.679  1.00  0.00     0.244 C 
BRANCH  11  12
ATOM     12  C   UNL A   1      30.971  24.416  26.279  1.00  0.00     0.244 C 
ATOM     13  N   UNL A   1      32.858  28.324  25.833  1.00  0.00    -0.328 N 
ATOM     14  C   UNL A   1      31.651  28.115  26.635  1.00  0.00     0.284 C 
ATOM     15  C   UNL A   1      33.670  27.111  25.769  1.00  0.00     0.284 C 
ATOM     16  H   UNL A   1      33.417  29.004  26.349  1.00  0.00     0.348 HD
ATOM     17  C   UNL A   1      30.837  26.850  26.314  1.00  0.00     0.181 C 
ATOM     18  C   UNL A   1      32.938  25.785  25.481  1.00  0.00     0.181 C 
ATOM     19  N   UNL A   1      31.636  25.632  26.134  1.00  0.00    -0.330 N 
ATOM     20  O   UNL A   1      29.875  24.353  26.845  1.00  0.00    -0.273 OA
BRANCH  13  21
ATOM     21  C   UNL A   1      32.709  29.088  24.591  1.00  0.00     0.302 C 
BRANCH  21  22
ATOM     22  C   UNL A   1      32.291  28.272  23.419  1.00  0.00     0.047 A 
ATOM     23  C   UNL A   1      29.697  28.707  23.299  1.00  0.00     0.069 C 
ATOM     24  C   UNL A   1      30.980  28.084  22.885  1.00  0.00     0.068 A 
ATOM     25  N   UNL A   1      30.974  27.170  21.904  1.00  0.00    -0.178 NA
ATOM     26  N   UNL A   1      32.257  26.797  21.798  1.00  0.00    -0.275 N 
ATOM     27  C   UNL A   1      33.098  27.540  22.569  1.00  0.00     0.118 A 
ATOM     28  C   UNL A   1      32.602  25.628  21.029  1.00  0.00     0.173 C 
ENDBRANCH  21  22
ENDBRANCH  13  21
ENDBRANCH  11  12
ENDBRANCH   7  11
ENDBRANCH   3   6
ENDBRANCH   1   2
BRANCH   1  29
ATOM     29  C   UNL A   1      37.876  19.398  24.994  1.00  0.00     0.042 C 
BRANCH  29  30
ATOM     30  C   UNL A   1      39.077  20.006  25.702  1.00  0.00     0.118 C 
BRANCH  30  31
ATOM     31  N   UNL A   1      40.205  19.066  25.799  1.00  0.00    -0.352 N 
ATOM     32  C   UNL A   1      41.543  19.322  26.006  1.00  0.00     0.251 C 
ATOM     33  H   UNL A   1      39.969  18.116  25.703  1.00  0.00     0.163 HD
ATOM     34  O   UNL A   1      42.394  18.463  25.747  1.00  0.00    -0.269 OA
BRANCH  32  35
ATOM     35  C   UNL A   1      41.956  20.624  26.542  1.00  0.00     0.039 A 
ATOM     36  C   UNL A   1      42.585  21.600  25.758  1.00  0.00     0.014 A 
ATOM     37  C   UNL A   1      41.667  20.869  27.876  1.00  0.00     0.014 A 
ATOM     38  C   UNL A   1      42.851  22.847  26.322  1.00  0.00     0.010 A 
ATOM     39  C   UNL A   1      41.699  22.147  28.343  1.00  0.00     0.010 A 
ATOM     40  C   UNL A   1      42.393  23.107  27.618  1.00  0.00    -0.014 A 
BRANCH  40  41
ATOM     41  C   UNL A   1      42.560  24.391  28.278  1.00  0.00     0.031 A 
ATOM     42  C   UNL A   1      41.447  25.352  28.058  1.00  0.00     0.074 A 
ATOM     43  C   UNL A   1      43.456  24.521  29.284  1.00  0.00     0.049 A 
ATOM     44  N   UNL A   1      41.489  26.513  27.494  1.00  0.00    -0.248 NA
ATOM     45  C   UNL A   1      40.082  24.903  28.390  1.00  0.00     0.031 C 
ATOM     46  C   UNL A   1      44.343  23.488  29.845  1.00  0.00     0.029 A 
ATOM     47  N   UNL A   1      43.653  25.562  30.132  1.00  0.00    -0.354 N 
ATOM     48  C   UNL A   1      40.200  27.032  27.609  1.00  0.00     0.074 A 
ATOM     49  C   UNL A   1      39.349  25.923  27.941  1.00  0.00     0.031 C 
ATOM     50  C   UNL A   1      44.777  23.873  31.062  1.00  0.00     0.029 A 
ATOM     51  C   UNL A   1      44.351  25.239  31.291  1.00  0.00     0.049 A 
ATOM     52  H   UNL A   1      43.327  26.472  29.943  1.00  0.00     0.167 HD
ATOM     53  C   UNL A   1      39.986  28.374  27.712  1.00  0.00     0.037 A 
ATOM     54  C   UNL A   1      44.515  26.033  32.377  1.00  0.00     0.037 A 
ATOM     55  C   UNL A   1      41.156  29.115  27.307  1.00  0.00     0.049 A 
ATOM     56  C   UNL A   1      44.187  27.419  31.956  1.00  0.00     0.074 A 
ATOM     57  C   UNL A   1      41.924  29.170  26.160  1.00  0.00     0.029 A 
ATOM     58  N   UNL A   1      41.934  29.669  28.297  1.00  0.00    -0.354 N 
ATOM     59  N   UNL A   1      44.898  28.109  31.107  1.00  0.00    -0.248 NA
ATOM     60  C   UNL A   1      42.807  27.856  32.115  1.00  0.00     0.031 C 
ATOM     61  C   UNL A   1      43.269  29.276  26.622  1.00  0.00     0.029 A 
ATOM     62  C   UNL A   1      43.238  29.358  28.016  1.00  0.00     0.049 A 
ATOM     63  H   UNL A   1      41.611  30.193  29.066  1.00  0.00     0.167 HD
ATOM     64  C   UNL A   1      43.966  28.775  30.322  1.00  0.00     0.074 A 
ATOM     65  C   UNL A   1      42.701  28.646  31.043  1.00  0.00     0.031 C 
ATOM     66  C   UNL A   1      44.241  29.104  29.025  1.00  0.00     0.037 A 
BRANCH  53  67
ATOM     67  C   UNL A   1      38.888  29.007  28.542  1.00  0.00     0.057 A 
ATOM     68  C   UNL A   1      38.797  28.679  29.909  1.00  0.00     0.134 A 
ATOM     69  C   UNL A   1      37.761  29.677  28.022  1.00  0.00     0.134 A 
ATOM     70  F   UNL A   1      39.799  28.038  30.531  1.00  0.00    -0.206 F 
ATOM     71  C   UNL A   1      37.644  28.915  30.667  1.00  0.00     0.040 A 
ATOM     72  C   UNL A   1      36.627  29.968  28.785  1.00  0.00     0.040 A 
ATOM     73  F   UNL A   1      37.641  30.002  26.730  1.00  0.00    -0.206 F 
ATOM     74  C   UNL A   1      36.549  29.554  30.103  1.00  0.00     0.006 A 
ENDBRANCH  53  67
BRANCH  54  75
ATOM     75  C   UNL A   1      44.643  25.641  33.799  1.00  0.00     0.057 A 
ATOM     76  C   UNL A   1      45.896  25.566  34.421  1.00  0.00     0.134 A 
ATOM     77  C   UNL A   1      43.526  25.584  34.653  1.00  0.00     0.134 A 
ATOM     78  F   UNL A   1      47.021  25.652  33.696  1.00  0.00    -0.206 F 
ATOM     79  C   UNL A   1      46.033  25.463  35.814  1.00  0.00     0.040 A 
ATOM     80  C   UNL A   1      43.649  25.473  36.043  1.00  0.00     0.040 A 
ATOM     81  F   UNL A   1      42.281  25.723  34.176  1.00  0.00    -0.206 F 
ATOM     82  C   UNL A   1      44.907  25.427  36.630  1.00  0.00     0.006 A 
ENDBRANCH  54  75
BRANCH  66  83
ATOM     83  C   UNL A   1      45.657  28.949  28.538  1.00  0.00     0.057 A 
ATOM     84  C   UNL A   1      46.150  27.797  27.906  1.00  0.00     0.134 A 
ATOM     85  C   UNL A   1      46.496  30.067  28.548  1.00  0.00     0.134 A 
ATOM     86  F   UNL A   1      45.390  26.707  27.755  1.00  0.00    -0.206 F 
ATOM     87  C   UNL A   1      47.430  27.750  27.344  1.00  0.00     0.040 A 
ATOM     88  C   UNL A   1      47.764  30.044  27.961  1.00  0.00     0.040 A 
ATOM     89  F   UNL A   1      46.073  31.223  29.082  1.00  0.00    -0.206 F 
ATOM     90  C   UNL A   1      48.239  28.880  27.362  1.00  0.00     0.006 A 
ENDBRANCH  66  83
ENDBRANCH  40  41
ENDBRANCH  32  35
ENDBRANCH  30  31
ENDBRANCH  29  30
ENDBRANCH   1  29
TORSDOF 14
ENDMDL
MODEL 3
REMARK VINA RESULT:     -11.6      2.081      5.894
REMARK SMILES Cc1nn(C)cc1C[NH+]1CCN(C(=O)Cn2ccc(C(=O)NCCCNC(=O)c3ccc(-c4c5nc(c(-c6c(F)cccc6F)c6ccc([nH]6)c(-c6c(F)cccc6F)c6nc(c(-c7c(F)cccc7F)c7ccc4[nH]7)C=C6)C=C5)cc3)n2)CC1
REMARK SMILES IDX 23 1 22 2 20 3 21 4 19 6 16 7 17 8 83 9 18 10 15 11 13 12
REMARK SMILES IDX 9 13 10 14 85 15 11 17 84 18 12 19 14 20 8 21 7 22 1 23 2 24
REMARK SMILES IDX 3 25 4 26 6 27 5 28 24 29 25 30 26 31 27 32 28 34 29 35
REMARK SMILES IDX 30 36 82 37 31 38 81 39 32 40 33 41 34 42 75 43 35 44 80 45
REMARK SMILES IDX 74 46 76 47 36 48 79 49 73 50 72 51 37 53 63 54 46 55 62 56
REMARK SMILES IDX 47 57 50 58 61 59 77 60 48 61 49 62 60 64 78 65 51 66 38 67
REMARK SMILES IDX 39 68 44 69 40 70 41 71 43 72 45 73 42 74 64 75 65 76 70 77
REMARK SMILES IDX 66 78 67 79 69 80 71 81 68 82 52 83 53 84 58 85 54 86 55 87
REMARK SMILES IDX 57 88 59 89 56 90
REMARK H PARENT 22 5 9 16 26 33 76 52 50 63
REMARK Flexibility Score: inf
ROOT
ATOM      1  C   UNL A   1      36.952  20.069  24.985  1.00  0.00     0.118 C 
ENDROOT
BRANCH   1   2
ATOM      2  N   UNL A   1      37.256  21.457  25.295  1.00  0.00    -0.351 N 
ATOM      3  C   UNL A   1      36.458  22.462  25.795  1.00  0.00     0.271 C 
ATOM      4  O   UNL A   1      37.031  23.526  26.072  1.00  0.00    -0.267 OA
ATOM      5  H   UNL A   1      38.187  21.722  25.117  1.00  0.00     0.163 HD
BRANCH   3   6
ATOM      6  C   UNL A   1      35.009  22.266  25.997  1.00  0.00     0.150 A 
ATOM      7  N   UNL A   1      32.940  22.061  25.462  1.00  0.00    -0.263 N 
ATOM      8  C   UNL A   1      32.948  21.999  26.822  1.00  0.00     0.110 A 
ATOM      9  N   UNL A   1      34.176  22.168  24.939  1.00  0.00    -0.167 NA
ATOM     10  C   UNL A   1      34.265  22.109  27.198  1.00  0.00     0.056 A 
BRANCH   7  11
ATOM     11  C   UNL A   1      31.815  21.911  24.543  1.00  0.00     0.244 C 
BRANCH  11  12
ATOM     12  C   UNL A   1      32.084  22.502  23.170  1.00  0.00     0.244 C 
ATOM     13  N   UNL A   1      32.071  26.811  22.485  1.00  0.00    -0.328 N 
ATOM     14  C   UNL A   1      32.247  25.838  21.404  1.00  0.00     0.284 C 
ATOM     15  C   UNL A   1      31.296  26.246  23.588  1.00  0.00     0.284 C 
ATOM     16  H   UNL A   1      31.493  27.555  22.093  1.00  0.00     0.348 HD
ATOM     17  C   UNL A   1      32.717  24.436  21.828  1.00  0.00     0.181 C 
ATOM     18  C   UNL A   1      31.675  24.829  24.064  1.00  0.00     0.181 C 
ATOM     19  N   UNL A   1      32.034  23.885  23.003  1.00  0.00    -0.330 N 
ATOM     20  O   UNL A   1      32.390  21.758  22.232  1.00  0.00    -0.273 OA
BRANCH  13  21
ATOM     21  C   UNL A   1      33.235  27.628  22.842  1.00  0.00     0.302 C 
BRANCH  21  22
ATOM     22  C   UNL A   1      33.219  28.133  24.242  1.00  0.00     0.047 A 
ATOM     23  C   UNL A   1      34.375  26.182  25.580  1.00  0.00     0.069 C 
ATOM     24  C   UNL A   1      33.683  27.487  25.428  1.00  0.00     0.068 A 
ATOM     25  N   UNL A   1      33.380  28.194  26.525  1.00  0.00    -0.178 NA
ATOM     26  N   UNL A   1      32.753  29.280  26.050  1.00  0.00    -0.275 N 
ATOM     27  C   UNL A   1      32.775  29.362  24.692  1.00  0.00     0.118 A 
ATOM     28  C   UNL A   1      32.037  30.147  26.953  1.00  0.00     0.173 C 
ENDBRANCH  21  22
ENDBRANCH  13  21
ENDBRANCH  11  12
ENDBRANCH   7  11
ENDBRANCH   3   6
ENDBRANCH   1   2
BRANCH   1  29
ATOM     29  C   UNL A   1      38.203  19.183  25.000  1.00  0.00     0.042 C 
BRANCH  29  30
ATOM     30  C   UNL A   1      39.336  19.798  25.807  1.00  0.00     0.118 C 
BRANCH  30  31
ATOM     31  N   UNL A   1      40.550  18.969  25.790  1.00  0.00    -0.352 N 
ATOM     32  C   UNL A   1      41.870  19.344  25.924  1.00  0.00     0.251 C 
ATOM     33  H   UNL A   1      40.399  18.004  25.666  1.00  0.00     0.163 HD
ATOM     34  O   UNL A   1      42.778  18.582  25.573  1.00  0.00    -0.269 OA
BRANCH  32  35
ATOM     35  C   UNL A   1      42.194  20.657  26.492  1.00  0.00     0.039 A 
ATOM     36  C   UNL A   1      42.854  21.655  25.763  1.00  0.00     0.014 A 
ATOM     37  C   UNL A   1      41.785  20.891  27.797  1.00  0.00     0.014 A 
ATOM     38  C   UNL A   1      43.031  22.909  26.346  1.00  0.00     0.010 A 
ATOM     39  C   UNL A   1      41.736  22.168  28.264  1.00  0.00     0.010 A 
ATOM     40  C   UNL A   1      42.457  23.151  27.599  1.00  0.00    -0.014 A 
BRANCH  40  41
ATOM     41  C   UNL A   1      42.526  24.439  28.269  1.00  0.00     0.031 A 
ATOM     42  C   UNL A   1      41.304  25.275  28.135  1.00  0.00     0.074 A 
ATOM     43  C   UNL A   1      43.465  24.656  29.220  1.00  0.00     0.049 A 
ATOM     44  N   UNL A   1      41.186  26.440  27.589  1.00  0.00    -0.248 NA
ATOM     45  C   UNL A   1      40.019  24.678  28.543  1.00  0.00     0.031 C 
ATOM     46  C   UNL A   1      44.491  23.718  29.707  1.00  0.00     0.029 A 
ATOM     47  N   UNL A   1      43.601  25.702  30.072  1.00  0.00    -0.354 N 
ATOM     48  C   UNL A   1      39.858  26.816  27.793  1.00  0.00     0.074 A 
ATOM     49  C   UNL A   1      39.154  25.617  28.158  1.00  0.00     0.031 C 
ATOM     50  C   UNL A   1      44.958  24.136  30.903  1.00  0.00     0.029 A 
ATOM     51  C   UNL A   1      44.402  25.445  31.181  1.00  0.00     0.049 A 
ATOM     52  H   UNL A   1      43.168  26.574  29.919  1.00  0.00     0.167 HD
ATOM     53  C   UNL A   1      39.508  28.125  27.932  1.00  0.00     0.037 A 
ATOM     54  C   UNL A   1      44.548  26.241  32.268  1.00  0.00     0.037 A 
ATOM     55  C   UNL A   1      40.563  28.993  27.469  1.00  0.00     0.049 A 
ATOM     56  C   UNL A   1      44.047  27.587  31.892  1.00  0.00     0.074 A 
ATOM     57  C   UNL A   1      41.247  29.143  26.277  1.00  0.00     0.029 A 
ATOM     58  N   UNL A   1      41.338  29.618  28.419  1.00  0.00    -0.354 N 
ATOM     59  N   UNL A   1      44.624  28.358  31.013  1.00  0.00    -0.248 NA
ATOM     60  C   UNL A   1      42.640  27.870  32.143  1.00  0.00     0.031 C 
ATOM     61  C   UNL A   1      42.599  29.389  26.658  1.00  0.00     0.029 A 
ATOM     62  C   UNL A   1      42.648  29.453  28.052  1.00  0.00     0.049 A 
ATOM     63  H   UNL A   1      41.010  30.095  29.215  1.00  0.00     0.167 HD
ATOM     64  C   UNL A   1      43.578  28.928  30.299  1.00  0.00     0.074 A 
ATOM     65  C   UNL A   1      42.382  28.654  31.094  1.00  0.00     0.031 C 
ATOM     66  C   UNL A   1      43.734  29.299  28.993  1.00  0.00     0.037 A 
BRANCH  53  67
ATOM     67  C   UNL A   1      38.403  28.626  28.839  1.00  0.00     0.057 A 
ATOM     68  C   UNL A   1      37.509  29.596  28.346  1.00  0.00     0.134 A 
ATOM     69  C   UNL A   1      38.346  28.430  30.235  1.00  0.00     0.134 A 
ATOM     70  F   UNL A   1      37.459  29.884  27.036  1.00  0.00    -0.206 F 
ATOM     71  C   UNL A   1      36.696  30.370  29.184  1.00  0.00     0.040 A 
ATOM     72  C   UNL A   1      37.498  29.158  31.074  1.00  0.00     0.040 A 
ATOM     73  F   UNL A   1      39.170  27.602  30.887  1.00  0.00    -0.206 F 
ATOM     74  C   UNL A   1      36.696  30.158  30.555  1.00  0.00     0.006 A 
ENDBRANCH  53  67
BRANCH  54  75
ATOM     75  C   UNL A   1      44.806  25.849  33.672  1.00  0.00     0.057 A 
ATOM     76  C   UNL A   1      45.740  26.539  34.458  1.00  0.00     0.134 A 
ATOM     77  C   UNL A   1      43.960  24.960  34.360  1.00  0.00     0.134 A 
ATOM     78  F   UNL A   1      46.564  27.438  33.900  1.00  0.00    -0.206 F 
ATOM     79  C   UNL A   1      45.814  26.372  35.849  1.00  0.00     0.040 A 
ATOM     80  C   UNL A   1      44.028  24.778  35.746  1.00  0.00     0.040 A 
ATOM     81  F   UNL A   1      42.979  24.305  33.723  1.00  0.00    -0.206 F 
ATOM     82  C   UNL A   1      44.949  25.497  36.498  1.00  0.00     0.006 A 
ENDBRANCH  54  75
BRANCH  66  83
ATOM     83  C   UNL A   1      45.124  29.303  28.417  1.00  0.00     0.057 A 
ATOM     84  C   UNL A   1      45.702  28.215  27.745  1.00  0.00     0.134 A 
ATOM     85  C   UNL A   1      45.833  30.507  28.385  1.00  0.00     0.134 A 
ATOM     86  F   UNL A   1      45.059  27.048  27.632  1.00  0.00    -0.206 F 
ATOM     87  C   UNL A   1      46.941  28.312  27.104  1.00  0.00     0.040 A 
ATOM     88  C   UNL A   1      47.057  30.628  27.720  1.00  0.00     0.040 A 
ATOM     89  F   UNL A   1      45.319  31.609  28.956  1.00  0.00    -0.206 F 
ATOM     90  C   UNL A   1      47.618  29.526  27.082  1.00  0.00     0.006 A 
ENDBRANCH  66  83
ENDBRANCH  40  41
ENDBRANCH  32  35
ENDBRANCH  30  31
ENDBRANCH  29  30
ENDBRANCH   1  29
TORSDOF 14
ENDMDL
