MODEL 1
REMARK VINA RESULT:     -11.0      0.000      0.000
REMARK SMILES CCN(CC)C(=O)C[C@](C)(C(=O)NCCCNC(=O)c1ccc(-c2c3nc(c(-c4c(F)cccc4F)c4ccc([nH]4)c(-c4c(F)cccc4F)c4nc(c(-c5c(F)cccc5F)c5ccc2[nH]5)C=C4)C=C3)cc1)c1ccccc1
REMARK SMILES IDX 14 1 13 2 11 3 12 4 9 6 10 7 8 8 6 9 3 10 7 11 2 12 1 13
REMARK SMILES IDX 4 14 5 15 74 16 75 17 79 18 76 19 78 20 77 21 15 22 16 23
REMARK SMILES IDX 17 24 18 25 19 27 20 28 21 29 73 30 22 31 72 32 23 33 24 34
REMARK SMILES IDX 25 35 66 36 26 37 71 38 65 39 67 40 27 41 70 42 64 43 63 44
REMARK SMILES IDX 28 46 54 47 37 48 53 49 38 50 41 51 52 52 68 53 39 54 40 55
REMARK SMILES IDX 51 57 69 58 42 59 29 60 30 61 35 62 31 63 32 64 34 65 36 66
REMARK SMILES IDX 33 67 55 68 56 69 61 70 57 71 58 72 60 73 62 74 59 75 43 76
REMARK SMILES IDX 44 77 49 78 45 79 46 80 48 81 50 82 47 83
REMARK H PARENT 13 5 17 26 67 45 41 56
REMARK Flexibility Score: inf
ROOT
ATOM      1  C   UNL A   1      36.341  21.012  24.902  1.00  0.00     0.117 C 
ENDROOT
BRANCH   1   2
ATOM      2  N   UNL A   1      35.586  21.108  26.142  1.00  0.00    -0.355 N 
ATOM      3  C   UNL A   1      34.291  21.428  26.423  1.00  0.00     0.230 C 
ATOM      4  O   UNL A   1      34.059  21.588  27.626  1.00  0.00    -0.274 OA
ATOM      5  H   UNL A   1      36.120  20.900  26.943  1.00  0.00     0.163 HD
BRANCH   3   6
ATOM      6  C   UNL A   1      33.191  21.554  25.311  1.00  0.00     0.080 C 
ATOM      7  C   UNL A   1      32.003  22.294  25.986  1.00  0.00     0.027 C 
BRANCH   6   8
ATOM      8  C   UNL A   1      33.850  22.339  24.132  1.00  0.00     0.121 C 
BRANCH   8   9
ATOM      9  C   UNL A   1      34.011  23.837  24.316  1.00  0.00     0.223 C 
ATOM     10  N   UNL A   1      33.126  24.721  23.713  1.00  0.00    -0.343 N 
ATOM     11  O   UNL A   1      34.955  24.238  25.005  1.00  0.00    -0.275 OA
BRANCH  10  12
ATOM     12  C   UNL A   1      33.242  26.141  24.061  1.00  0.00     0.116 C 
ATOM     13  C   UNL A   1      33.448  27.031  22.838  1.00  0.00     0.027 C 
ENDBRANCH  10  12
BRANCH  10  14
ATOM     14  C   UNL A   1      32.077  24.362  22.752  1.00  0.00     0.116 C 
ATOM     15  C   UNL A   1      30.652  24.486  23.274  1.00  0.00     0.027 C 
ENDBRANCH  10  14
ENDBRANCH   8   9
ENDBRANCH   6   8
BRANCH   6  16
ATOM     16  C   UNL A   1      32.808  20.146  24.745  1.00  0.00    -0.032 A 
ATOM     17  C   UNL A   1      32.901  19.009  25.587  1.00  0.00     0.005 A 
ATOM     18  C   UNL A   1      32.529  19.899  23.388  1.00  0.00     0.005 A 
ATOM     19  C   UNL A   1      32.774  17.707  25.093  1.00  0.00     0.000 A 
ATOM     20  C   UNL A   1      32.391  18.594  22.895  1.00  0.00     0.000 A 
ATOM     21  C   UNL A   1      32.530  17.500  23.742  1.00  0.00     0.000 A 
ENDBRANCH   6  16
ENDBRANCH   3   6
ENDBRANCH   1   2
BRANCH   1  22
ATOM     22  C   UNL A   1      37.452  19.972  25.001  1.00  0.00     0.042 C 
BRANCH  22  23
ATOM     23  C   UNL A   1      38.686  20.466  25.748  1.00  0.00     0.118 C 
BRANCH  23  24
ATOM     24  N   UNL A   1      39.734  19.459  25.830  1.00  0.00    -0.352 N 
ATOM     25  C   UNL A   1      41.069  19.598  26.126  1.00  0.00     0.251 C 
ATOM     26  H   UNL A   1      39.442  18.537  25.646  1.00  0.00     0.163 HD
ATOM     27  O   UNL A   1      41.834  18.657  25.957  1.00  0.00    -0.269 OA
BRANCH  25  28
ATOM     28  C   UNL A   1      41.586  20.889  26.627  1.00  0.00     0.039 A 
ATOM     29  C   UNL A   1      42.066  21.827  25.710  1.00  0.00     0.014 A 
ATOM     30  C   UNL A   1      41.609  21.172  27.995  1.00  0.00     0.014 A 
ATOM     31  C   UNL A   1      42.506  23.074  26.161  1.00  0.00     0.010 A 
ATOM     32  C   UNL A   1      41.956  22.446  28.433  1.00  0.00     0.010 A 
ATOM     33  C   UNL A   1      42.419  23.407  27.524  1.00  0.00    -0.014 A 
BRANCH  33  34
ATOM     34  C   UNL A   1      42.827  24.745  28.020  1.00  0.00     0.031 A 
ATOM     35  C   UNL A   1      41.788  25.805  28.269  1.00  0.00     0.074 A 
ATOM     36  C   UNL A   1      44.134  25.030  28.185  1.00  0.00     0.049 A 
ATOM     37  N   UNL A   1      41.948  27.055  28.626  1.00  0.00    -0.248 NA
ATOM     38  C   UNL A   1      40.383  25.418  28.058  1.00  0.00     0.031 C 
ATOM     39  C   UNL A   1      45.242  24.106  27.933  1.00  0.00     0.029 A 
ATOM     40  N   UNL A   1      44.753  26.185  28.596  1.00  0.00    -0.354 N 
ATOM     41  C   UNL A   1      40.672  27.602  28.665  1.00  0.00     0.074 A 
ATOM     42  C   UNL A   1      39.754  26.569  28.236  1.00  0.00     0.031 C 
ATOM     43  C   UNL A   1      46.401  24.720  28.220  1.00  0.00     0.029 A 
ATOM     44  C   UNL A   1      46.124  26.092  28.632  1.00  0.00     0.049 A 
ATOM     45  H   UNL A   1      44.262  27.002  28.841  1.00  0.00     0.167 HD
ATOM     46  C   UNL A   1      40.294  28.844  29.048  1.00  0.00     0.037 A 
ATOM     47  C   UNL A   1      47.052  27.014  28.953  1.00  0.00     0.037 A 
ATOM     48  C   UNL A   1      41.207  29.861  29.499  1.00  0.00     0.049 A 
ATOM     49  C   UNL A   1      46.608  28.390  29.365  1.00  0.00     0.074 A 
ATOM     50  C   UNL A   1      40.919  31.133  29.964  1.00  0.00     0.029 A 
ATOM     51  N   UNL A   1      42.586  29.724  29.538  1.00  0.00    -0.354 N 
ATOM     52  N   UNL A   1      45.393  28.873  29.463  1.00  0.00    -0.248 NA
ATOM     53  C   UNL A   1      47.665  29.349  29.718  1.00  0.00     0.031 C 
ATOM     54  C   UNL A   1      42.127  31.781  30.237  1.00  0.00     0.029 A 
ATOM     55  C   UNL A   1      43.164  30.895  29.997  1.00  0.00     0.049 A 
ATOM     56  H   UNL A   1      43.080  28.913  29.277  1.00  0.00     0.167 HD
ATOM     57  C   UNL A   1      45.536  30.177  29.919  1.00  0.00     0.074 A 
ATOM     58  C   UNL A   1      46.956  30.405  30.091  1.00  0.00     0.031 C 
ATOM     59  C   UNL A   1      44.580  31.102  30.174  1.00  0.00     0.037 A 
BRANCH  46  60
ATOM     60  C   UNL A   1      38.828  29.169  29.000  1.00  0.00     0.057 A 
ATOM     61  C   UNL A   1      38.195  29.564  27.813  1.00  0.00     0.134 A 
ATOM     62  C   UNL A   1      38.032  29.058  30.147  1.00  0.00     0.134 A 
ATOM     63  F   UNL A   1      38.900  29.702  26.680  1.00  0.00    -0.206 F 
ATOM     64  C   UNL A   1      36.832  29.864  27.775  1.00  0.00     0.040 A 
ATOM     65  C   UNL A   1      36.662  29.326  30.116  1.00  0.00     0.040 A 
ATOM     66  F   UNL A   1      38.570  28.680  31.316  1.00  0.00    -0.206 F 
ATOM     67  C   UNL A   1      36.061  29.738  28.928  1.00  0.00     0.006 A 
ENDBRANCH  46  60
BRANCH  47  68
ATOM     68  C   UNL A   1      48.495  26.661  28.919  1.00  0.00     0.057 A 
ATOM     69  C   UNL A   1      49.263  26.874  27.768  1.00  0.00     0.134 A 
ATOM     70  C   UNL A   1      49.137  26.090  30.024  1.00  0.00     0.134 A 
ATOM     71  F   UNL A   1      48.702  27.401  26.670  1.00  0.00    -0.206 F 
ATOM     72  C   UNL A   1      50.610  26.512  27.709  1.00  0.00     0.040 A 
ATOM     73  C   UNL A   1      50.490  25.748  29.989  1.00  0.00     0.040 A 
ATOM     74  F   UNL A   1      48.459  25.867  31.161  1.00  0.00    -0.206 F 
ATOM     75  C   UNL A   1      51.228  25.950  28.825  1.00  0.00     0.006 A 
ENDBRANCH  47  68
BRANCH  59  76
ATOM     76  C   UNL A   1      45.030  32.431  30.709  1.00  0.00     0.057 A 
ATOM     77  C   UNL A   1      45.194  32.663  32.081  1.00  0.00     0.134 A 
ATOM     78  C   UNL A   1      45.342  33.479  29.834  1.00  0.00     0.134 A 
ATOM     79  F   UNL A   1      44.901  31.705  32.973  1.00  0.00    -0.206 F 
ATOM     80  C   UNL A   1      45.630  33.898  32.563  1.00  0.00     0.040 A 
ATOM     81  C   UNL A   1      45.808  34.708  30.303  1.00  0.00     0.040 A 
ATOM     82  F   UNL A   1      45.218  33.320  28.507  1.00  0.00    -0.206 F 
ATOM     83  C   UNL A   1      45.946  34.922  31.673  1.00  0.00     0.006 A 
ENDBRANCH  59  76
ENDBRANCH  33  34
ENDBRANCH  25  28
ENDBRANCH  23  24
ENDBRANCH  22  23
ENDBRANCH   1  22
TORSDOF 15
ENDMDL
MODEL 2
REMARK VINA RESULT:     -10.9      4.800      9.789
REMARK SMILES CCN(CC)C(=O)C[C@](C)(C(=O)NCCCNC(=O)c1ccc(-c2c3nc(c(-c4c(F)cccc4F)c4ccc([nH]4)c(-c4c(F)cccc4F)c4nc(c(-c5c(F)cccc5F)c5ccc2[nH]5)C=C4)C=C3)cc1)c1ccccc1
REMARK SMILES IDX 14 1 13 2 11 3 12 4 9 6 10 7 8 8 6 9 3 10 7 11 2 12 1 13
REMARK SMILES IDX 4 14 5 15 74 16 75 17 79 18 76 19 78 20 77 21 15 22 16 23
REMARK SMILES IDX 17 24 18 25 19 27 20 28 21 29 73 30 22 31 72 32 23 33 24 34
REMARK SMILES IDX 25 35 66 36 26 37 71 38 65 39 67 40 27 41 70 42 64 43 63 44
REMARK SMILES IDX 28 46 54 47 37 48 53 49 38 50 41 51 52 52 68 53 39 54 40 55
REMARK SMILES IDX 51 57 69 58 42 59 29 60 30 61 35 62 31 63 32 64 34 65 36 66
REMARK SMILES IDX 33 67 55 68 56 69 61 70 57 71 58 72 60 73 62 74 59 75 43 76
REMARK SMILES IDX 44 77 49 78 45 79 46 80 48 81 50 82 47 83
REMARK H PARENT 13 5 17 26 67 45 41 56
REMARK Flexibility Score: inf
ROOT
ATOM      1  C   UNL A   1      31.023  30.268  25.447  1.00  0.00     0.117 C 
ENDROOT
BRANCH   1   2
ATOM      2  N   UNL A   1      32.175  29.920  24.630  1.00  0.00    -0.355 N 
ATOM      3  C   UNL A   1      32.440  28.882  23.785  1.00  0.00     0.230 C 
ATOM      4  O   UNL A   1      33.615  28.825  23.407  1.00  0.00    -0.274 OA
ATOM      5  H   UNL A   1      32.916  30.565  24.701  1.00  0.00     0.163 HD
BRANCH   3   6
ATOM      6  C   UNL A   1      31.336  27.870  23.318  1.00  0.00     0.080 C 
ATOM      7  C   UNL A   1      32.026  26.963  22.261  1.00  0.00     0.027 C 
BRANCH   6   8
ATOM      8  C   UNL A   1      30.865  27.115  24.602  1.00  0.00     0.121 C 
BRANCH   8   9
ATOM      9  C   UNL A   1      30.794  25.602  24.515  1.00  0.00     0.223 C 
ATOM     10  N   UNL A   1      31.681  24.811  25.234  1.00  0.00    -0.343 N 
ATOM     11  O   UNL A   1      29.934  25.104  23.780  1.00  0.00    -0.275 OA
BRANCH  10  12
ATOM     12  C   UNL A   1      31.455  23.362  25.229  1.00  0.00     0.116 C 
ATOM     13  C   UNL A   1      30.836  22.859  26.531  1.00  0.00     0.027 C 
ENDBRANCH  10  12
BRANCH  10  14
ATOM     14  C   UNL A   1      32.832  25.296  26.002  1.00  0.00     0.116 C 
ATOM     15  C   UNL A   1      34.111  25.490  25.197  1.00  0.00     0.027 C 
ENDBRANCH  10  14
ENDBRANCH   8   9
ENDBRANCH   6   8
BRANCH   6  16
ATOM     16  C   UNL A   1      30.083  28.629  22.766  1.00  0.00    -0.032 A 
ATOM     17  C   UNL A   1      30.266  29.733  21.896  1.00  0.00     0.005 A 
ATOM     18  C   UNL A   1      28.769  28.391  23.209  1.00  0.00     0.005 A 
ATOM     19  C   UNL A   1      29.210  30.574  21.533  1.00  0.00     0.000 A 
ATOM     20  C   UNL A   1      27.708  29.229  22.836  1.00  0.00     0.000 A 
ATOM     21  C   UNL A   1      27.931  30.328  22.014  1.00  0.00     0.000 A 
ENDBRANCH   6  16
ENDBRANCH   3   6
ENDBRANCH   1   2
BRANCH   1  22
ATOM     22  C   UNL A   1      31.037  31.743  25.835  1.00  0.00     0.042 C 
BRANCH  22  23
ATOM     23  C   UNL A   1      32.175  32.117  26.777  1.00  0.00     0.118 C 
BRANCH  23  24
ATOM     24  N   UNL A   1      32.141  33.518  27.172  1.00  0.00    -0.352 N 
ATOM     25  C   UNL A   1      32.921  34.198  28.076  1.00  0.00     0.251 C 
ATOM     26  H   UNL A   1      31.453  34.061  26.724  1.00  0.00     0.163 HD
ATOM     27  O   UNL A   1      32.615  35.334  28.416  1.00  0.00    -0.269 OA
BRANCH  25  28
ATOM     28  C   UNL A   1      34.119  33.552  28.654  1.00  0.00     0.039 A 
ATOM     29  C   UNL A   1      35.330  34.249  28.654  1.00  0.00     0.014 A 
ATOM     30  C   UNL A   1      34.054  32.261  29.185  1.00  0.00     0.014 A 
ATOM     31  C   UNL A   1      36.458  33.675  29.246  1.00  0.00     0.010 A 
ATOM     32  C   UNL A   1      35.150  31.733  29.859  1.00  0.00     0.010 A 
ATOM     33  C   UNL A   1      36.367  32.428  29.887  1.00  0.00    -0.014 A 
BRANCH  33  34
ATOM     34  C   UNL A   1      37.537  31.824  30.574  1.00  0.00     0.031 A 
ATOM     35  C   UNL A   1      38.371  30.788  29.869  1.00  0.00     0.074 A 
ATOM     36  C   UNL A   1      37.811  32.156  31.851  1.00  0.00     0.049 A 
ATOM     37  N   UNL A   1      39.380  30.088  30.323  1.00  0.00    -0.248 NA
ATOM     38  C   UNL A   1      38.002  30.474  28.479  1.00  0.00     0.031 C 
ATOM     39  C   UNL A   1      37.051  33.111  32.660  1.00  0.00     0.029 A 
ATOM     40  N   UNL A   1      38.800  31.719  32.696  1.00  0.00    -0.354 N 
ATOM     41  C   UNL A   1      39.752  29.245  29.283  1.00  0.00     0.074 A 
ATOM     42  C   UNL A   1      38.824  29.475  28.198  1.00  0.00     0.031 C 
ATOM     43  C   UNL A   1      37.617  33.207  33.874  1.00  0.00     0.029 A 
ATOM     44  C   UNL A   1      38.750  32.291  33.945  1.00  0.00     0.049 A 
ATOM     45  H   UNL A   1      39.481  31.058  32.433  1.00  0.00     0.167 HD
ATOM     46  C   UNL A   1      40.789  28.376  29.227  1.00  0.00     0.037 A 
ATOM     47  C   UNL A   1      39.527  32.091  35.027  1.00  0.00     0.037 A 
ATOM     48  C   UNL A   1      41.726  28.169  30.299  1.00  0.00     0.049 A 
ATOM     49  C   UNL A   1      40.665  31.113  34.943  1.00  0.00     0.074 A 
ATOM     50  C   UNL A   1      42.845  27.354  30.320  1.00  0.00     0.029 A 
ATOM     51  N   UNL A   1      41.652  28.779  31.542  1.00  0.00    -0.354 N 
ATOM     52  N   UNL A   1      41.047  30.371  33.931  1.00  0.00    -0.248 NA
ATOM     53  C   UNL A   1      41.487  30.946  36.151  1.00  0.00     0.031 C 
ATOM     54  C   UNL A   1      43.419  27.434  31.593  1.00  0.00     0.029 A 
ATOM     55  C   UNL A   1      42.692  28.342  32.345  1.00  0.00     0.049 A 
ATOM     56  H   UNL A   1      40.962  29.428  31.812  1.00  0.00     0.167 HD
ATOM     57  C   UNL A   1      42.168  29.678  34.367  1.00  0.00     0.074 A 
ATOM     58  C   UNL A   1      42.413  30.098  35.732  1.00  0.00     0.031 C 
ATOM     59  C   UNL A   1      42.929  28.777  33.698  1.00  0.00     0.037 A 
BRANCH  46  60
ATOM     60  C   UNL A   1      40.965  27.588  27.961  1.00  0.00     0.057 A 
ATOM     61  C   UNL A   1      41.694  28.087  26.873  1.00  0.00     0.134 A 
ATOM     62  C   UNL A   1      40.425  26.301  27.837  1.00  0.00     0.134 A 
ATOM     63  F   UNL A   1      42.229  29.317  26.918  1.00  0.00    -0.206 F 
ATOM     64  C   UNL A   1      41.855  27.349  25.698  1.00  0.00     0.040 A 
ATOM     65  C   UNL A   1      40.605  25.541  26.680  1.00  0.00     0.040 A 
ATOM     66  F   UNL A   1      39.721  25.758  28.841  1.00  0.00    -0.206 F 
ATOM     67  C   UNL A   1      41.315  26.068  25.604  1.00  0.00     0.006 A 
ENDBRANCH  46  60
BRANCH  47  68
ATOM     68  C   UNL A   1      39.268  32.847  36.279  1.00  0.00     0.057 A 
ATOM     69  C   UNL A   1      38.435  32.328  37.278  1.00  0.00     0.134 A 
ATOM     70  C   UNL A   1      39.830  34.110  36.503  1.00  0.00     0.134 A 
ATOM     71  F   UNL A   1      37.852  31.131  37.115  1.00  0.00    -0.206 F 
ATOM     72  C   UNL A   1      38.152  33.044  38.442  1.00  0.00     0.040 A 
ATOM     73  C   UNL A   1      39.578  34.826  37.674  1.00  0.00     0.040 A 
ATOM     74  F   UNL A   1      40.643  34.661  35.589  1.00  0.00    -0.206 F 
ATOM     75  C   UNL A   1      38.728  34.297  38.644  1.00  0.00     0.006 A 
ENDBRANCH  47  68
BRANCH  59  76
ATOM     76  C   UNL A   1      44.124  28.216  34.414  1.00  0.00     0.057 A 
ATOM     77  C   UNL A   1      45.367  28.862  34.404  1.00  0.00     0.134 A 
ATOM     78  C   UNL A   1      44.014  27.035  35.158  1.00  0.00     0.134 A 
ATOM     79  F   UNL A   1      45.542  29.990  33.701  1.00  0.00    -0.206 F 
ATOM     80  C   UNL A   1      46.465  28.338  35.088  1.00  0.00     0.040 A 
ATOM     81  C   UNL A   1      45.097  26.518  35.871  1.00  0.00     0.040 A 
ATOM     82  F   UNL A   1      42.849  26.372  35.219  1.00  0.00    -0.206 F 
ATOM     83  C   UNL A   1      46.329  27.166  35.830  1.00  0.00     0.006 A 
ENDBRANCH  59  76
ENDBRANCH  33  34
ENDBRANCH  25  28
ENDBRANCH  23  24
ENDBRANCH  22  23
ENDBRANCH   1  22
TORSDOF 15
ENDMDL
MODEL 3
REMARK VINA RESULT:     -10.9      4.466      9.104
REMARK SMILES CCN(CC)C(=O)C[C@](C)(C(=O)NCCCNC(=O)c1ccc(-c2c3nc(c(-c4c(F)cccc4F)c4ccc([nH]4)c(-c4c(F)cccc4F)c4nc(c(-c5c(F)cccc5F)c5ccc2[nH]5)C=C4)C=C3)cc1)c1ccccc1
REMARK SMILES IDX 14 1 13 2 11 3 12 4 9 6 10 7 8 8 6 9 3 10 7 11 2 12 1 13
REMARK SMILES IDX 4 14 5 15 74 16 75 17 79 18 76 19 78 20 77 21 15 22 16 23
REMARK SMILES IDX 17 24 18 25 19 27 20 28 21 29 73 30 22 31 72 32 23 33 24 34
REMARK SMILES IDX 25 35 66 36 26 37 71 38 65 39 67 40 27 41 70 42 64 43 63 44
REMARK SMILES IDX 28 46 54 47 37 48 53 49 38 50 41 51 52 52 68 53 39 54 40 55
REMARK SMILES IDX 51 57 69 58 42 59 29 60 30 61 35 62 31 63 32 64 34 65 36 66
REMARK SMILES IDX 33 67 55 68 56 69 61 70 57 71 58 72 60 73 62 74 59 75 43 76
REMARK SMILES IDX 44 77 49 78 45 79 46 80 48 81 50 82 47 83
REMARK H PARENT 13 5 17 26 67 45 41 56
REMARK Flexibility Score: inf
ROOT
ATOM      1  C   UNL A   1      31.395  30.097  25.751  1.00  0.00     0.117 C 
ENDROOT
BRANCH   1   2
ATOM      2  N   UNL A   1      32.377  29.916  24.693  1.00  0.00    -0.355 N 
ATOM      3  C   UNL A   1      32.543  28.968  23.727  1.00  0.00     0.230 C 
ATOM      4  O   UNL A   1      33.616  29.048  23.119  1.00  0.00    -0.274 OA
ATOM      5  H   UNL A   1      33.063  30.622  24.670  1.00  0.00     0.163 HD
BRANCH   3   6
ATOM      6  C   UNL A   1      31.451  27.890  23.405  1.00  0.00     0.080 C 
ATOM      7  C   UNL A   1      32.125  26.899  22.415  1.00  0.00     0.027 C 
BRANCH   6   8
ATOM      8  C   UNL A   1      31.047  27.253  24.774  1.00  0.00     0.121 C 
BRANCH   8   9
ATOM      9  C   UNL A   1      32.078  26.362  25.441  1.00  0.00     0.223 C 
ATOM     10  N   UNL A   1      31.919  24.983  25.450  1.00  0.00    -0.343 N 
ATOM     11  O   UNL A   1      33.049  26.904  25.982  1.00  0.00    -0.275 OA
BRANCH  10  12
ATOM     12  C   UNL A   1      33.027  24.175  25.970  1.00  0.00     0.116 C 
ATOM     13  C   UNL A   1      32.555  23.051  26.890  1.00  0.00     0.027 C 
ENDBRANCH  10  12
BRANCH  10  14
ATOM     14  C   UNL A   1      30.734  24.254  24.985  1.00  0.00     0.116 C 
ATOM     15  C   UNL A   1      30.814  23.737  23.555  1.00  0.00     0.027 C 
ENDBRANCH  10  14
ENDBRANCH   8   9
ENDBRANCH   6   8
BRANCH   6  16
ATOM     16  C   UNL A   1      30.158  28.561  22.831  1.00  0.00    -0.032 A 
ATOM     17  C   UNL A   1      30.278  29.705  22.002  1.00  0.00     0.005 A 
ATOM     18  C   UNL A   1      28.854  28.202  23.218  1.00  0.00     0.005 A 
ATOM     19  C   UNL A   1      29.168  30.468  21.628  1.00  0.00     0.000 A 
ATOM     20  C   UNL A   1      27.741  28.962  22.833  1.00  0.00     0.000 A 
ATOM     21  C   UNL A   1      27.899  30.103  22.054  1.00  0.00     0.000 A 
ENDBRANCH   6  16
ENDBRANCH   3   6
ENDBRANCH   1   2
BRANCH   1  22
ATOM     22  C   UNL A   1      31.247  31.566  26.133  1.00  0.00     0.042 C 
BRANCH  22  23
ATOM     23  C   UNL A   1      32.439  32.120  26.904  1.00  0.00     0.118 C 
BRANCH  23  24
ATOM     24  N   UNL A   1      32.280  33.525  27.252  1.00  0.00    -0.352 N 
ATOM     25  C   UNL A   1      32.960  34.288  28.169  1.00  0.00     0.251 C 
ATOM     26  H   UNL A   1      31.577  34.001  26.754  1.00  0.00     0.163 HD
ATOM     27  O   UNL A   1      32.553  35.406  28.458  1.00  0.00    -0.269 OA
BRANCH  25  28
ATOM     28  C   UNL A   1      34.173  33.752  28.826  1.00  0.00     0.039 A 
ATOM     29  C   UNL A   1      34.027  32.832  29.867  1.00  0.00     0.014 A 
ATOM     30  C   UNL A   1      35.447  34.162  28.425  1.00  0.00     0.014 A 
ATOM     31  C   UNL A   1      35.162  32.274  30.460  1.00  0.00     0.010 A 
ATOM     32  C   UNL A   1      36.572  33.534  28.949  1.00  0.00     0.010 A 
ATOM     33  C   UNL A   1      36.444  32.593  29.980  1.00  0.00    -0.014 A 
BRANCH  33  34
ATOM     34  C   UNL A   1      37.662  31.970  30.556  1.00  0.00     0.031 A 
ATOM     35  C   UNL A   1      38.269  32.526  31.816  1.00  0.00     0.074 A 
ATOM     36  C   UNL A   1      38.261  30.948  29.913  1.00  0.00     0.049 A 
ATOM     37  N   UNL A   1      39.371  32.174  32.430  1.00  0.00    -0.248 NA
ATOM     38  C   UNL A   1      37.561  33.648  32.453  1.00  0.00     0.031 C 
ATOM     39  C   UNL A   1      37.800  30.348  28.659  1.00  0.00     0.029 A 
ATOM     40  N   UNL A   1      39.395  30.238  30.222  1.00  0.00    -0.354 N 
ATOM     41  C   UNL A   1      39.493  33.040  33.510  1.00  0.00     0.074 A 
ATOM     42  C   UNL A   1      38.389  33.972  33.434  1.00  0.00     0.031 C 
ATOM     43  C   UNL A   1      38.626  29.345  28.321  1.00  0.00     0.029 A 
ATOM     44  C   UNL A   1      39.699  29.259  29.307  1.00  0.00     0.049 A 
ATOM     45  H   UNL A   1      39.939  30.413  31.024  1.00  0.00     0.167 HD
ATOM     46  C   UNL A   1      40.424  33.042  34.493  1.00  0.00     0.037 A 
ATOM     47  C   UNL A   1      40.732  28.396  29.263  1.00  0.00     0.037 A 
ATOM     48  C   UNL A   1      41.506  32.098  34.580  1.00  0.00     0.049 A 
ATOM     49  C   UNL A   1      41.759  28.426  30.360  1.00  0.00     0.074 A 
ATOM     50  C   UNL A   1      42.470  31.979  35.567  1.00  0.00     0.029 A 
ATOM     51  N   UNL A   1      41.771  31.111  33.643  1.00  0.00    -0.354 N 
ATOM     52  N   UNL A   1      41.825  29.205  31.413  1.00  0.00    -0.248 NA
ATOM     53  C   UNL A   1      42.856  27.450  30.268  1.00  0.00     0.031 C 
ATOM     54  C   UNL A   1      43.345  30.953  35.202  1.00  0.00     0.029 A 
ATOM     55  C   UNL A   1      42.895  30.394  34.017  1.00  0.00     0.049 A 
ATOM     56  H   UNL A   1      41.237  30.944  32.832  1.00  0.00     0.167 HD
ATOM     57  C   UNL A   1      42.946  28.794  32.123  1.00  0.00     0.074 A 
ATOM     58  C   UNL A   1      43.522  27.688  31.387  1.00  0.00     0.031 C 
ATOM     59  C   UNL A   1      43.451  29.287  33.280  1.00  0.00     0.037 A 
BRANCH  46  60
ATOM     60  C   UNL A   1      40.310  34.098  35.554  1.00  0.00     0.057 A 
ATOM     61  C   UNL A   1      40.885  35.368  35.402  1.00  0.00     0.134 A 
ATOM     62  C   UNL A   1      39.590  33.856  36.731  1.00  0.00     0.134 A 
ATOM     63  F   UNL A   1      41.599  35.664  34.305  1.00  0.00    -0.206 F 
ATOM     64  C   UNL A   1      40.775  36.345  36.393  1.00  0.00     0.040 A 
ATOM     65  C   UNL A   1      39.446  34.835  37.716  1.00  0.00     0.040 A 
ATOM     66  F   UNL A   1      39.007  32.666  36.940  1.00  0.00    -0.206 F 
ATOM     67  C   UNL A   1      40.046  36.082  37.551  1.00  0.00     0.006 A 
ENDBRANCH  46  60
BRANCH  47  68
ATOM     68  C   UNL A   1      40.836  27.414  28.153  1.00  0.00     0.057 A 
ATOM     69  C   UNL A   1      41.623  27.680  27.026  1.00  0.00     0.134 A 
ATOM     70  C   UNL A   1      40.143  26.198  28.181  1.00  0.00     0.134 A 
ATOM     71  F   UNL A   1      42.298  28.835  26.931  1.00  0.00    -0.206 F 
ATOM     72  C   UNL A   1      41.700  26.784  25.958  1.00  0.00     0.040 A 
ATOM     73  C   UNL A   1      40.232  25.281  27.133  1.00  0.00     0.040 A 
ATOM     74  F   UNL A   1      39.377  25.879  29.236  1.00  0.00    -0.206 F 
ATOM     75  C   UNL A   1      41.005  25.577  26.012  1.00  0.00     0.006 A 
ENDBRANCH  47  68
BRANCH  59  76
ATOM     76  C   UNL A   1      44.663  28.607  33.848  1.00  0.00     0.057 A 
ATOM     77  C   UNL A   1      45.962  29.053  33.574  1.00  0.00     0.134 A 
ATOM     78  C   UNL A   1      44.522  27.515  34.714  1.00  0.00     0.134 A 
ATOM     79  F   UNL A   1      46.166  30.085  32.744  1.00  0.00    -0.206 F 
ATOM     80  C   UNL A   1      47.080  28.421  34.124  1.00  0.00     0.040 A 
ATOM     81  C   UNL A   1      45.631  26.895  35.293  1.00  0.00     0.040 A 
ATOM     82  F   UNL A   1      43.305  27.044  35.027  1.00  0.00    -0.206 F 
ATOM     83  C   UNL A   1      46.914  27.344  34.992  1.00  0.00     0.006 A 
ENDBRANCH  59  76
ENDBRANCH  33  34
ENDBRANCH  25  28
ENDBRANCH  23  24
ENDBRANCH  22  23
ENDBRANCH   1  22
TORSDOF 15
ENDMDL
