MODEL 1
REMARK VINA RESULT:     -11.8      0.000      0.000
REMARK SMILES Cc1ccc(Cl)c(Nc2ccccc2C(=O)N[C@@H](C)C(=O)NCCCNC(=O)c2ccc(-c3c4nc(c(-c5c(F)cccc5F)c5ccc([nH]5)c(-c5c(F)cccc5F)c5nc(c(-c6c(F)cccc6F)c6ccc3[nH]6)C=C5)C=C4)cc2)c1Cl
REMARK SMILES IDX 23 1 22 2 20 3 21 4 18 6 19 7 17 8 15 9 16 10 14 12 9 13
REMARK SMILES IDX 10 14 11 15 13 16 12 17 8 18 7 20 1 21 2 22 3 23 83 24 4 25
REMARK SMILES IDX 84 26 5 27 6 28 24 29 25 30 26 31 27 32 28 34 29 35 30 36
REMARK SMILES IDX 82 37 31 38 81 39 32 40 33 41 34 42 75 43 35 44 80 45 74 46
REMARK SMILES IDX 76 47 36 48 79 49 73 50 72 51 37 53 63 54 46 55 62 56 47 57
REMARK SMILES IDX 50 58 61 59 77 60 48 61 49 62 60 64 78 65 51 66 38 67 39 68
REMARK SMILES IDX 44 69 40 70 41 71 43 72 45 73 42 74 64 75 65 76 70 77 66 78
REMARK SMILES IDX 67 79 69 80 71 81 68 82 52 83 53 84 58 85 54 86 55 87 57 88
REMARK SMILES IDX 59 89 56 90
REMARK H PARENT 22 5 17 11 8 19 26 33 76 52 50 63
REMARK Flexibility Score: inf
ROOT
ATOM      1  C   UNL A   1      36.614  20.278  24.943  1.00  0.00     0.117 C 
ENDROOT
BRANCH   1   2
ATOM      2  N   UNL A   1      36.791  21.715  25.105  1.00  0.00    -0.354 N 
ATOM      3  C   UNL A   1      36.190  22.549  24.198  1.00  0.00     0.242 C 
ATOM      4  O   UNL A   1      36.733  22.694  23.103  1.00  0.00    -0.273 OA
ATOM      5  H   UNL A   1      37.327  22.078  25.847  1.00  0.00     0.163 HD
BRANCH   3   6
ATOM      6  C   UNL A   1      34.897  23.294  24.613  1.00  0.00     0.168 C 
ATOM      7  C   UNL A   1      34.672  23.376  26.115  1.00  0.00     0.041 C 
BRANCH   6   8
ATOM      8  N   UNL A   1      33.827  22.565  23.947  1.00  0.00    -0.340 N 
ATOM      9  C   UNL A   1      32.550  22.997  23.672  1.00  0.00     0.254 C 
ATOM     10  O   UNL A   1      32.096  22.686  22.565  1.00  0.00    -0.269 OA
ATOM     11  H   UNL A   1      34.043  21.648  23.659  1.00  0.00     0.164 HD
BRANCH   9  12
ATOM     12  C   UNL A   1      31.606  23.503  24.713  1.00  0.00     0.063 A 
ATOM     13  C   UNL A   1      31.180  24.815  24.994  1.00  0.00     0.051 A 
ATOM     14  C   UNL A   1      30.318  25.008  26.104  1.00  0.00     0.027 A 
ATOM     15  C   UNL A   1      29.836  23.949  26.872  1.00  0.00     0.002 A 
ATOM     16  C   UNL A   1      31.091  22.441  25.499  1.00  0.00     0.016 A 
ATOM     17  C   UNL A   1      30.210  22.655  26.556  1.00  0.00     0.001 A 
BRANCH  13  18
ATOM     18  N   UNL A   1      31.410  25.980  24.239  1.00  0.00    -0.352 N 
ATOM     19  H   UNL A   1      31.454  25.804  23.271  1.00  0.00     0.167 HD
BRANCH  18  20
ATOM     20  C   UNL A   1      31.594  27.350  24.554  1.00  0.00     0.077 A 
ATOM     21  C   UNL A   1      33.465  29.770  26.880  1.00  0.00     0.046 C 
ATOM     22  C   UNL A   1      32.535  29.234  25.824  1.00  0.00    -0.030 A 
ATOM     23  C   UNL A   1      31.583  30.099  25.264  1.00  0.00     0.006 A 
ATOM     24  C   UNL A   1      32.568  27.873  25.431  1.00  0.00     0.069 A 
ATOM     25  C   UNL A   1      30.661  29.624  24.340  1.00  0.00     0.023 A 
ATOM     26  Cl  UNL A   1      33.912  26.910  25.966  1.00  0.00    -0.082 Cl
ATOM     27  C   UNL A   1      30.661  28.271  24.005  1.00  0.00     0.066 A 
ATOM     28  Cl  UNL A   1      29.433  27.733  22.900  1.00  0.00    -0.082 Cl
ENDBRANCH  18  20
ENDBRANCH  13  18
ENDBRANCH   9  12
ENDBRANCH   6   8
ENDBRANCH   3   6
ENDBRANCH   1   2
BRANCH   1  29
ATOM     29  C   UNL A   1      37.920  19.474  24.947  1.00  0.00     0.042 C 
BRANCH  29  30
ATOM     30  C   UNL A   1      39.049  20.109  25.751  1.00  0.00     0.118 C 
BRANCH  30  31
ATOM     31  N   UNL A   1      40.210  19.232  25.841  1.00  0.00    -0.352 N 
ATOM     32  C   UNL A   1      41.527  19.546  26.048  1.00  0.00     0.251 C 
ATOM     33  H   UNL A   1      40.019  18.272  25.738  1.00  0.00     0.163 HD
ATOM     34  O   UNL A   1      42.398  18.705  25.803  1.00  0.00    -0.269 OA
BRANCH  32  35
ATOM     35  C   UNL A   1      41.915  20.876  26.554  1.00  0.00     0.039 A 
ATOM     36  C   UNL A   1      41.916  21.107  27.932  1.00  0.00     0.014 A 
ATOM     37  C   UNL A   1      42.221  21.914  25.669  1.00  0.00     0.014 A 
ATOM     38  C   UNL A   1      42.272  22.366  28.424  1.00  0.00     0.010 A 
ATOM     39  C   UNL A   1      42.644  23.145  26.163  1.00  0.00     0.010 A 
ATOM     40  C   UNL A   1      42.660  23.389  27.544  1.00  0.00    -0.014 A 
BRANCH  40  41
ATOM     41  C   UNL A   1      43.065  24.727  28.045  1.00  0.00     0.031 A 
ATOM     42  C   UNL A   1      42.020  25.772  28.332  1.00  0.00     0.074 A 
ATOM     43  C   UNL A   1      44.371  25.023  28.181  1.00  0.00     0.049 A 
ATOM     44  N   UNL A   1      42.176  27.017  28.705  1.00  0.00    -0.248 NA
ATOM     45  C   UNL A   1      40.616  25.371  28.151  1.00  0.00     0.031 C 
ATOM     46  C   UNL A   1      45.481  24.113  27.892  1.00  0.00     0.029 A 
ATOM     47  N   UNL A   1      44.987  26.180  28.588  1.00  0.00    -0.354 N 
ATOM     48  C   UNL A   1      40.896  27.552  28.777  1.00  0.00     0.074 A 
ATOM     49  C   UNL A   1      39.979  26.512  28.367  1.00  0.00     0.031 C 
ATOM     50  C   UNL A   1      46.641  24.739  28.151  1.00  0.00     0.029 A 
ATOM     51  C   UNL A   1      46.359  26.102  28.591  1.00  0.00     0.049 A 
ATOM     52  H   UNL A   1      44.493  26.989  28.853  1.00  0.00     0.167 HD
ATOM     53  C   UNL A   1      40.517  28.793  29.170  1.00  0.00     0.037 A 
ATOM     54  C   UNL A   1      47.284  27.026  28.909  1.00  0.00     0.037 A 
ATOM     55  C   UNL A   1      41.429  29.815  29.611  1.00  0.00     0.049 A 
ATOM     56  C   UNL A   1      46.836  28.391  29.353  1.00  0.00     0.074 A 
ATOM     57  C   UNL A   1      41.139  31.081  30.091  1.00  0.00     0.029 A 
ATOM     58  N   UNL A   1      42.810  29.686  29.628  1.00  0.00    -0.354 N 
ATOM     59  N   UNL A   1      45.620  28.863  29.482  1.00  0.00    -0.248 NA
ATOM     60  C   UNL A   1      47.893  29.351  29.706  1.00  0.00     0.031 C 
ATOM     61  C   UNL A   1      42.347  31.731  30.364  1.00  0.00     0.029 A 
ATOM     62  C   UNL A   1      43.386  30.855  30.095  1.00  0.00     0.049 A 
ATOM     63  H   UNL A   1      43.306  28.883  29.348  1.00  0.00     0.167 HD
ATOM     64  C   UNL A   1      45.763  30.158  29.961  1.00  0.00     0.074 A 
ATOM     65  C   UNL A   1      47.183  30.396  30.109  1.00  0.00     0.031 C 
ATOM     66  C   UNL A   1      44.802  31.069  30.253  1.00  0.00     0.037 A 
BRANCH  53  67
ATOM     67  C   UNL A   1      39.050  29.108  29.146  1.00  0.00     0.057 A 
ATOM     68  C   UNL A   1      38.392  29.479  27.966  1.00  0.00     0.134 A 
ATOM     69  C   UNL A   1      38.278  29.010  30.311  1.00  0.00     0.134 A 
ATOM     70  F   UNL A   1      39.075  29.603  26.818  1.00  0.00    -0.206 F 
ATOM     71  C   UNL A   1      37.027  29.767  27.950  1.00  0.00     0.040 A 
ATOM     72  C   UNL A   1      36.907  29.270  30.302  1.00  0.00     0.040 A 
ATOM     73  F   UNL A   1      38.842  28.654  31.475  1.00  0.00    -0.206 F 
ATOM     74  C   UNL A   1      36.278  29.657  29.121  1.00  0.00     0.006 A 
ENDBRANCH  53  67
BRANCH  54  75
ATOM     75  C   UNL A   1      48.727  26.686  28.852  1.00  0.00     0.057 A 
ATOM     76  C   UNL A   1      49.485  26.960  27.708  1.00  0.00     0.134 A 
ATOM     77  C   UNL A   1      49.380  26.074  29.928  1.00  0.00     0.134 A 
ATOM     78  F   UNL A   1      48.911  27.529  26.639  1.00  0.00    -0.206 F 
ATOM     79  C   UNL A   1      50.836  26.618  27.626  1.00  0.00     0.040 A 
ATOM     80  C   UNL A   1      50.737  25.748  29.869  1.00  0.00     0.040 A 
ATOM     81  F   UNL A   1      48.710  25.792  31.056  1.00  0.00    -0.206 F 
ATOM     82  C   UNL A   1      51.467  26.013  28.713  1.00  0.00     0.006 A 
ENDBRANCH  54  75
BRANCH  66  83
ATOM     83  C   UNL A   1      45.254  32.387  30.809  1.00  0.00     0.057 A 
ATOM     84  C   UNL A   1      45.525  33.485  29.984  1.00  0.00     0.134 A 
ATOM     85  C   UNL A   1      45.383  32.567  32.191  1.00  0.00     0.134 A 
ATOM     86  F   UNL A   1      45.433  33.373  28.650  1.00  0.00    -0.206 F 
ATOM     87  C   UNL A   1      45.932  34.711  30.514  1.00  0.00     0.040 A 
ATOM     88  C   UNL A   1      45.764  33.794  32.735  1.00  0.00     0.040 A 
ATOM     89  F   UNL A   1      45.130  31.557  33.037  1.00  0.00    -0.206 F 
ATOM     90  C   UNL A   1      46.045  34.869  31.894  1.00  0.00     0.006 A 
ENDBRANCH  66  83
ENDBRANCH  40  41
ENDBRANCH  32  35
ENDBRANCH  30  31
ENDBRANCH  29  30
ENDBRANCH   1  29
TORSDOF 14
ENDMDL
MODEL 2
REMARK VINA RESULT:     -11.8      5.014     10.546
REMARK SMILES Cc1ccc(Cl)c(Nc2ccccc2C(=O)N[C@@H](C)C(=O)NCCCNC(=O)c2ccc(-c3c4nc(c(-c5c(F)cccc5F)c5ccc([nH]5)c(-c5c(F)cccc5F)c5nc(c(-c6c(F)cccc6F)c6ccc3[nH]6)C=C5)C=C4)cc2)c1Cl
REMARK SMILES IDX 23 1 22 2 20 3 21 4 18 6 19 7 17 8 15 9 16 10 14 12 9 13
REMARK SMILES IDX 10 14 11 15 13 16 12 17 8 18 7 20 1 21 2 22 3 23 83 24 4 25
REMARK SMILES IDX 84 26 5 27 6 28 24 29 25 30 26 31 27 32 28 34 29 35 30 36
REMARK SMILES IDX 82 37 31 38 81 39 32 40 33 41 34 42 75 43 35 44 80 45 74 46
REMARK SMILES IDX 76 47 36 48 79 49 73 50 72 51 37 53 63 54 46 55 62 56 47 57
REMARK SMILES IDX 50 58 61 59 77 60 48 61 49 62 60 64 78 65 51 66 38 67 39 68
REMARK SMILES IDX 44 69 40 70 41 71 43 72 45 73 42 74 64 75 65 76 70 77 66 78
REMARK SMILES IDX 67 79 69 80 71 81 68 82 52 83 53 84 58 85 54 86 55 87 57 88
REMARK SMILES IDX 59 89 56 90
REMARK H PARENT 22 5 17 11 8 19 26 33 76 52 50 63
REMARK Flexibility Score: inf
ROOT
ATOM      1  C   UNL A   1      34.635  34.089  31.643  1.00  0.00     0.117 C 
ENDROOT
BRANCH   1   2
ATOM      2  N   UNL A   1      35.876  34.839  31.503  1.00  0.00    -0.354 N 
ATOM      3  C   UNL A   1      36.956  34.451  32.253  1.00  0.00     0.242 C 
ATOM      4  O   UNL A   1      36.986  34.790  33.437  1.00  0.00    -0.273 OA
ATOM      5  H   UNL A   1      35.938  35.603  30.886  1.00  0.00     0.163 HD
BRANCH   3   6
ATOM      6  C   UNL A   1      38.093  33.654  31.566  1.00  0.00     0.168 C 
ATOM      7  C   UNL A   1      38.372  34.066  30.129  1.00  0.00     0.041 C 
BRANCH   6   8
ATOM      8  N   UNL A   1      37.669  32.264  31.656  1.00  0.00    -0.340 N 
ATOM      9  C   UNL A   1      37.659  31.450  32.765  1.00  0.00     0.254 C 
ATOM     10  O   UNL A   1      36.673  30.718  32.895  1.00  0.00    -0.269 OA
ATOM     11  H   UNL A   1      37.350  31.855  30.818  1.00  0.00     0.164 HD
BRANCH   9  12
ATOM     12  C   UNL A   1      38.868  31.172  33.596  1.00  0.00     0.063 A 
ATOM     13  C   UNL A   1      39.471  31.940  34.611  1.00  0.00     0.051 A 
ATOM     14  C   UNL A   1      40.670  31.450  35.188  1.00  0.00     0.027 A 
ATOM     15  C   UNL A   1      41.225  30.221  34.835  1.00  0.00     0.002 A 
ATOM     16  C   UNL A   1      39.443  29.919  33.265  1.00  0.00     0.016 A 
ATOM     17  C   UNL A   1      40.597  29.441  33.881  1.00  0.00     0.001 A 
BRANCH  13  18
ATOM     18  N   UNL A   1      38.976  33.106  35.223  1.00  0.00    -0.352 N 
ATOM     19  H   UNL A   1      37.998  33.091  35.335  1.00  0.00     0.167 HD
BRANCH  18  20
ATOM     20  C   UNL A   1      39.565  34.299  35.716  1.00  0.00     0.077 A 
ATOM     21  C   UNL A   1      42.297  36.914  35.037  1.00  0.00     0.046 C 
ATOM     22  C   UNL A   1      41.175  36.157  35.697  1.00  0.00    -0.030 A 
ATOM     23  C   UNL A   1      40.830  36.481  37.017  1.00  0.00     0.006 A 
ATOM     24  C   UNL A   1      40.508  35.097  35.034  1.00  0.00     0.069 A 
ATOM     25  C   UNL A   1      39.850  35.758  37.684  1.00  0.00     0.023 A 
ATOM     26  Cl  UNL A   1      40.798  34.898  33.332  1.00  0.00    -0.082 Cl
ATOM     27  C   UNL A   1      39.240  34.678  37.046  1.00  0.00     0.066 A 
ATOM     28  Cl  UNL A   1      38.078  33.773  37.966  1.00  0.00    -0.082 Cl
ENDBRANCH  18  20
ENDBRANCH  13  18
ENDBRANCH   9  12
ENDBRANCH   6   8
ENDBRANCH   3   6
ENDBRANCH   1   2
BRANCH   1  29
ATOM     29  C   UNL A   1      34.648  32.710  30.973  1.00  0.00     0.042 C 
BRANCH  29  30
ATOM     30  C   UNL A   1      34.881  32.743  29.466  1.00  0.00     0.118 C 
BRANCH  30  31
ATOM     31  N   UNL A   1      34.173  31.666  28.785  1.00  0.00    -0.352 N 
ATOM     32  C   UNL A   1      34.669  30.549  28.168  1.00  0.00     0.251 C 
ATOM     33  H   UNL A   1      33.193  31.755  28.765  1.00  0.00     0.163 HD
ATOM     34  O   UNL A   1      33.947  29.907  27.399  1.00  0.00    -0.269 OA
BRANCH  32  35
ATOM     35  C   UNL A   1      36.056  30.108  28.408  1.00  0.00     0.039 A 
ATOM     36  C   UNL A   1      37.009  30.274  27.399  1.00  0.00     0.014 A 
ATOM     37  C   UNL A   1      36.407  29.476  29.604  1.00  0.00     0.014 A 
ATOM     38  C   UNL A   1      38.324  29.851  27.609  1.00  0.00     0.010 A 
ATOM     39  C   UNL A   1      37.732  29.120  29.840  1.00  0.00     0.010 A 
ATOM     40  C   UNL A   1      38.701  29.291  28.840  1.00  0.00    -0.014 A 
BRANCH  40  41
ATOM     41  C   UNL A   1      40.098  28.856  29.095  1.00  0.00     0.031 A 
ATOM     42  C   UNL A   1      41.069  29.792  29.764  1.00  0.00     0.074 A 
ATOM     43  C   UNL A   1      40.510  27.647  28.668  1.00  0.00     0.049 A 
ATOM     44  N   UNL A   1      42.344  29.625  30.008  1.00  0.00    -0.248 NA
ATOM     45  C   UNL A   1      40.541  31.097  30.192  1.00  0.00     0.031 C 
ATOM     46  C   UNL A   1      39.680  26.668  27.966  1.00  0.00     0.029 A 
ATOM     47  N   UNL A   1      41.739  27.041  28.754  1.00  0.00    -0.354 N 
ATOM     48  C   UNL A   1      42.774  30.810  30.592  1.00  0.00     0.074 A 
ATOM     49  C   UNL A   1      41.637  31.703  30.625  1.00  0.00     0.031 C 
ATOM     50  C   UNL A   1      40.416  25.575  27.704  1.00  0.00     0.029 A 
ATOM     51  C   UNL A   1      41.776  25.790  28.188  1.00  0.00     0.049 A 
ATOM     52  H   UNL A   1      42.520  27.463  29.180  1.00  0.00     0.167 HD
ATOM     53  C   UNL A   1      44.001  31.119  31.077  1.00  0.00     0.037 A 
ATOM     54  C   UNL A   1      42.793  24.916  28.070  1.00  0.00     0.037 A 
ATOM     55  C   UNL A   1      45.122  30.218  31.074  1.00  0.00     0.049 A 
ATOM     56  C   UNL A   1      44.142  25.279  28.628  1.00  0.00     0.074 A 
ATOM     57  C   UNL A   1      46.388  30.413  31.600  1.00  0.00     0.029 A 
ATOM     58  N   UNL A   1      45.111  28.947  30.518  1.00  0.00    -0.354 N 
ATOM     59  N   UNL A   1      44.518  26.377  29.238  1.00  0.00    -0.248 NA
ATOM     60  C   UNL A   1      45.207  24.277  28.486  1.00  0.00     0.031 C 
ATOM     61  C   UNL A   1      47.154  29.274  31.330  1.00  0.00     0.029 A 
ATOM     62  C   UNL A   1      46.352  28.353  30.676  1.00  0.00     0.049 A 
ATOM     63  H   UNL A   1      44.336  28.530  30.078  1.00  0.00     0.167 HD
ATOM     64  C   UNL A   1      45.848  26.184  29.583  1.00  0.00     0.074 A 
ATOM     65  C   UNL A   1      46.213  24.861  29.121  1.00  0.00     0.031 C 
ATOM     66  C   UNL A   1      46.693  27.028  30.225  1.00  0.00     0.037 A 
BRANCH  53  67
ATOM     67  C   UNL A   1      44.191  32.491  31.657  1.00  0.00     0.057 A 
ATOM     68  C   UNL A   1      44.448  33.607  30.850  1.00  0.00     0.134 A 
ATOM     69  C   UNL A   1      44.084  32.704  33.037  1.00  0.00     0.134 A 
ATOM     70  F   UNL A   1      44.575  33.469  29.521  1.00  0.00    -0.206 F 
ATOM     71  C   UNL A   1      44.620  34.880  31.395  1.00  0.00     0.040 A 
ATOM     72  C   UNL A   1      44.227  33.977  33.592  1.00  0.00     0.040 A 
ATOM     73  F   UNL A   1      43.832  31.682  33.868  1.00  0.00    -0.206 F 
ATOM     74  C   UNL A   1      44.503  35.068  32.771  1.00  0.00     0.006 A 
ENDBRANCH  53  67
BRANCH  54  75
ATOM     75  C   UNL A   1      42.572  23.597  27.428  1.00  0.00     0.057 A 
ATOM     76  C   UNL A   1      42.269  22.467  28.195  1.00  0.00     0.134 A 
ATOM     77  C   UNL A   1      42.666  23.431  26.041  1.00  0.00     0.134 A 
ATOM     78  F   UNL A   1      42.182  22.560  29.529  1.00  0.00    -0.206 F 
ATOM     79  C   UNL A   1      42.088  21.212  27.609  1.00  0.00     0.040 A 
ATOM     80  C   UNL A   1      42.464  22.187  25.440  1.00  0.00     0.040 A 
ATOM     81  F   UNL A   1      42.947  24.478  25.251  1.00  0.00    -0.206 F 
ATOM     82  C   UNL A   1      42.182  21.072  26.225  1.00  0.00     0.006 A 
ENDBRANCH  54  75
BRANCH  66  83
ATOM     83  C   UNL A   1      48.077  26.525  30.511  1.00  0.00     0.057 A 
ATOM     84  C   UNL A   1      48.388  25.842  31.693  1.00  0.00     0.134 A 
ATOM     85  C   UNL A   1      49.103  26.697  29.573  1.00  0.00     0.134 A 
ATOM     86  F   UNL A   1      47.454  25.657  32.637  1.00  0.00    -0.206 F 
ATOM     87  C   UNL A   1      49.677  25.367  31.942  1.00  0.00     0.040 A 
ATOM     88  C   UNL A   1      50.388  26.204  29.798  1.00  0.00     0.040 A 
ATOM     89  F   UNL A   1      48.868  27.335  28.416  1.00  0.00    -0.206 F 
ATOM     90  C   UNL A   1      50.679  25.542  30.990  1.00  0.00     0.006 A 
ENDBRANCH  66  83
ENDBRANCH  40  41
ENDBRANCH  32  35
ENDBRANCH  30  31
ENDBRANCH  29  30
ENDBRANCH   1  29
TORSDOF 14
ENDMDL
MODEL 3
REMARK VINA RESULT:     -11.8      4.738     10.383
REMARK SMILES Cc1ccc(Cl)c(Nc2ccccc2C(=O)N[C@@H](C)C(=O)NCCCNC(=O)c2ccc(-c3c4nc(c(-c5c(F)cccc5F)c5ccc([nH]5)c(-c5c(F)cccc5F)c5nc(c(-c6c(F)cccc6F)c6ccc3[nH]6)C=C5)C=C4)cc2)c1Cl
REMARK SMILES IDX 23 1 22 2 20 3 21 4 18 6 19 7 17 8 15 9 16 10 14 12 9 13
REMARK SMILES IDX 10 14 11 15 13 16 12 17 8 18 7 20 1 21 2 22 3 23 83 24 4 25
REMARK SMILES IDX 84 26 5 27 6 28 24 29 25 30 26 31 27 32 28 34 29 35 30 36
REMARK SMILES IDX 82 37 31 38 81 39 32 40 33 41 34 42 75 43 35 44 80 45 74 46
REMARK SMILES IDX 76 47 36 48 79 49 73 50 72 51 37 53 63 54 46 55 62 56 47 57
REMARK SMILES IDX 50 58 61 59 77 60 48 61 49 62 60 64 78 65 51 66 38 67 39 68
REMARK SMILES IDX 44 69 40 70 41 71 43 72 45 73 42 74 64 75 65 76 70 77 66 78
REMARK SMILES IDX 67 79 69 80 71 81 68 82 52 83 53 84 58 85 54 86 55 87 57 88
REMARK SMILES IDX 59 89 56 90
REMARK H PARENT 22 5 17 11 8 19 26 33 76 52 50 63
REMARK Flexibility Score: inf
ROOT
ATOM      1  C   UNL A   1      33.831  34.728  30.363  1.00  0.00     0.117 C 
ENDROOT
BRANCH   1   2
ATOM      2  N   UNL A   1      35.034  34.655  31.180  1.00  0.00    -0.354 N 
ATOM      3  C   UNL A   1      34.924  34.914  32.522  1.00  0.00     0.242 C 
ATOM      4  O   UNL A   1      34.860  36.091  32.877  1.00  0.00    -0.273 OA
ATOM      5  H   UNL A   1      35.903  34.424  30.780  1.00  0.00     0.163 HD
BRANCH   3   6
ATOM      6  C   UNL A   1      34.934  33.724  33.514  1.00  0.00     0.168 C 
ATOM      7  C   UNL A   1      35.715  33.978  34.794  1.00  0.00     0.041 C 
BRANCH   6   8
ATOM      8  N   UNL A   1      35.496  32.618  32.751  1.00  0.00    -0.340 N 
ATOM      9  C   UNL A   1      36.730  32.028  32.897  1.00  0.00     0.254 C 
ATOM     10  O   UNL A   1      36.759  30.796  32.806  1.00  0.00    -0.269 OA
ATOM     11  H   UNL A   1      34.922  32.247  32.042  1.00  0.00     0.164 HD
BRANCH   9  12
ATOM     12  C   UNL A   1      38.019  32.779  32.826  1.00  0.00     0.063 A 
ATOM     13  C   UNL A   1      39.132  32.760  33.689  1.00  0.00     0.051 A 
ATOM     14  C   UNL A   1      40.204  33.644  33.406  1.00  0.00     0.027 A 
ATOM     15  C   UNL A   1      40.219  34.469  32.282  1.00  0.00     0.002 A 
ATOM     16  C   UNL A   1      38.063  33.616  31.683  1.00  0.00     0.016 A 
ATOM     17  C   UNL A   1      39.150  34.442  31.404  1.00  0.00     0.001 A 
BRANCH  13  18
ATOM     18  N   UNL A   1      39.380  31.883  34.761  1.00  0.00    -0.352 N 
ATOM     19  H   UNL A   1      38.670  31.905  35.443  1.00  0.00     0.167 HD
BRANCH  18  20
ATOM     20  C   UNL A   1      40.420  30.974  35.083  1.00  0.00     0.077 A 
ATOM     21  C   UNL A   1      41.663  27.377  34.552  1.00  0.00     0.046 C 
ATOM     22  C   UNL A   1      41.561  28.796  35.045  1.00  0.00    -0.030 A 
ATOM     23  C   UNL A   1      42.396  29.205  36.096  1.00  0.00     0.006 A 
ATOM     24  C   UNL A   1      40.608  29.698  34.510  1.00  0.00     0.069 A 
ATOM     25  C   UNL A   1      42.281  30.483  36.626  1.00  0.00     0.023 A 
ATOM     26  Cl  UNL A   1      39.775  29.227  33.059  1.00  0.00    -0.082 Cl
ATOM     27  C   UNL A   1      41.300  31.344  36.135  1.00  0.00     0.066 A 
ATOM     28  Cl  UNL A   1      41.165  32.900  36.896  1.00  0.00    -0.082 Cl
ENDBRANCH  18  20
ENDBRANCH  13  18
ENDBRANCH   9  12
ENDBRANCH   6   8
ENDBRANCH   3   6
ENDBRANCH   1   2
BRANCH   1  29
ATOM     29  C   UNL A   1      33.899  33.924  29.059  1.00  0.00     0.042 C 
BRANCH  29  30
ATOM     30  C   UNL A   1      34.731  32.648  29.147  1.00  0.00     0.118 C 
BRANCH  30  31
ATOM     31  N   UNL A   1      34.038  31.507  28.563  1.00  0.00    -0.352 N 
ATOM     32  C   UNL A   1      34.550  30.356  28.027  1.00  0.00     0.251 C 
ATOM     33  H   UNL A   1      33.056  31.574  28.551  1.00  0.00     0.163 HD
ATOM     34  O   UNL A   1      33.832  29.642  27.321  1.00  0.00    -0.269 OA
BRANCH  32  35
ATOM     35  C   UNL A   1      35.950  29.964  28.280  1.00  0.00     0.039 A 
ATOM     36  C   UNL A   1      36.303  29.474  29.540  1.00  0.00     0.014 A 
ATOM     37  C   UNL A   1      36.927  30.134  27.296  1.00  0.00     0.014 A 
ATOM     38  C   UNL A   1      37.627  29.108  29.796  1.00  0.00     0.010 A 
ATOM     39  C   UNL A   1      38.230  29.703  27.529  1.00  0.00     0.010 A 
ATOM     40  C   UNL A   1      38.597  29.199  28.786  1.00  0.00    -0.014 A 
BRANCH  40  41
ATOM     41  C   UNL A   1      40.005  28.794  29.028  1.00  0.00     0.031 A 
ATOM     42  C   UNL A   1      40.963  29.752  29.685  1.00  0.00     0.074 A 
ATOM     43  C   UNL A   1      40.439  27.593  28.600  1.00  0.00     0.049 A 
ATOM     44  N   UNL A   1      42.243  29.614  29.916  1.00  0.00    -0.248 NA
ATOM     45  C   UNL A   1      40.412  31.047  30.115  1.00  0.00     0.031 C 
ATOM     46  C   UNL A   1      39.622  26.594  27.909  1.00  0.00     0.029 A 
ATOM     47  N   UNL A   1      41.680  27.014  28.675  1.00  0.00    -0.354 N 
ATOM     48  C   UNL A   1      42.655  30.809  30.493  1.00  0.00     0.074 A 
ATOM     49  C   UNL A   1      41.499  31.677  30.535  1.00  0.00     0.031 C 
ATOM     50  C   UNL A   1      40.378  25.517  27.643  1.00  0.00     0.029 A 
ATOM     51  C   UNL A   1      41.738  25.761  28.112  1.00  0.00     0.049 A 
ATOM     52  H   UNL A   1      42.456  27.453  29.093  1.00  0.00     0.167 HD
ATOM     53  C   UNL A   1      43.880  31.145  30.965  1.00  0.00     0.037 A 
ATOM     54  C   UNL A   1      42.772  24.909  27.987  1.00  0.00     0.037 A 
ATOM     55  C   UNL A   1      45.019  30.267  30.953  1.00  0.00     0.049 A 
ATOM     56  C   UNL A   1      44.119  25.302  28.529  1.00  0.00     0.074 A 
ATOM     57  C   UNL A   1      46.286  30.490  31.465  1.00  0.00     0.029 A 
ATOM     58  N   UNL A   1      45.029  28.995  30.400  1.00  0.00    -0.354 N 
ATOM     59  N   UNL A   1      44.477  26.409  29.133  1.00  0.00    -0.248 NA
ATOM     60  C   UNL A   1      45.204  24.322  28.379  1.00  0.00     0.031 C 
ATOM     61  C   UNL A   1      47.073  29.367  31.191  1.00  0.00     0.029 A 
ATOM     62  C   UNL A   1      46.284  28.427  30.547  1.00  0.00     0.049 A 
ATOM     63  H   UNL A   1      44.258  28.560  29.969  1.00  0.00     0.167 HD
ATOM     64  C   UNL A   1      45.815  26.245  29.465  1.00  0.00     0.074 A 
ATOM     65  C   UNL A   1      46.203  24.929  29.003  1.00  0.00     0.031 C 
ATOM     66  C   UNL A   1      46.648  27.109  30.096  1.00  0.00     0.037 A 
BRANCH  53  67
ATOM     67  C   UNL A   1      44.046  32.522  31.539  1.00  0.00     0.057 A 
ATOM     68  C   UNL A   1      44.424  33.614  30.747  1.00  0.00     0.134 A 
ATOM     69  C   UNL A   1      43.795  32.766  32.896  1.00  0.00     0.134 A 
ATOM     70  F   UNL A   1      44.691  33.446  29.442  1.00  0.00    -0.206 F 
ATOM     71  C   UNL A   1      44.573  34.892  31.286  1.00  0.00     0.040 A 
ATOM     72  C   UNL A   1      43.915  34.045  33.442  1.00  0.00     0.040 A 
ATOM     73  F   UNL A   1      43.423  31.767  33.710  1.00  0.00    -0.206 F 
ATOM     74  C   UNL A   1      44.312  35.111  32.638  1.00  0.00     0.006 A 
ENDBRANCH  53  67
BRANCH  54  75
ATOM     75  C   UNL A   1      42.572  23.584  27.350  1.00  0.00     0.057 A 
ATOM     76  C   UNL A   1      42.221  22.466  28.114  1.00  0.00     0.134 A 
ATOM     77  C   UNL A   1      42.735  23.400  25.972  1.00  0.00     0.134 A 
ATOM     78  F   UNL A   1      42.068  22.576  29.441  1.00  0.00    -0.206 F 
ATOM     79  C   UNL A   1      42.060  21.205  27.535  1.00  0.00     0.040 A 
ATOM     80  C   UNL A   1      42.553  22.150  25.376  1.00  0.00     0.040 A 
ATOM     81  F   UNL A   1      43.064  24.435  25.184  1.00  0.00    -0.206 F 
ATOM     82  C   UNL A   1      42.222  21.047  26.160  1.00  0.00     0.006 A 
ENDBRANCH  54  75
BRANCH  66  83
ATOM     83  C   UNL A   1      48.046  26.636  30.370  1.00  0.00     0.057 A 
ATOM     84  C   UNL A   1      49.098  26.882  29.479  1.00  0.00     0.134 A 
ATOM     85  C   UNL A   1      48.347  25.959  31.557  1.00  0.00     0.134 A 
ATOM     86  F   UNL A   1      48.873  27.514  28.318  1.00  0.00    -0.206 F 
ATOM     87  C   UNL A   1      50.397  26.450  29.751  1.00  0.00     0.040 A 
ATOM     88  C   UNL A   1      49.646  25.544  31.853  1.00  0.00     0.040 A 
ATOM     89  F   UNL A   1      47.385  25.700  32.457  1.00  0.00    -0.206 F 
ATOM     90  C   UNL A   1      50.675  25.785  30.944  1.00  0.00     0.006 A 
ENDBRANCH  66  83
ENDBRANCH  40  41
ENDBRANCH  32  35
ENDBRANCH  30  31
ENDBRANCH  29  30
ENDBRANCH   1  29
TORSDOF 14
ENDMDL
