MODEL 1
REMARK VINA RESULT:     -12.3      0.000      0.000
REMARK SMILES Cc1ccnc(C(=O)c2[nH]c3cc(F)ccc3c2CC(=O)NCCCNC(=O)c2ccc(-c3c4nc(c(-c5c(F)cccc5F)c5ccc([nH]5)c(-c5c(F)cccc5F)c5nc(c(-c6c(F)cccc6F)c6ccc3[nH]6)C=C5)C=C4)cc2)c1
REMARK SMILES IDX 23 1 22 2 20 3 21 4 19 6 18 7 9 8 10 9 11 10 17 12 12 13
REMARK SMILES IDX 16 14 13 15 15 16 14 17 7 18 8 19 6 20 1 21 2 22 3 23 83 24
REMARK SMILES IDX 4 25 5 26 24 27 25 28 26 29 27 30 28 32 29 33 30 34 82 35
REMARK SMILES IDX 31 36 81 37 32 38 33 39 34 40 75 41 35 42 80 43 74 44 76 45
REMARK SMILES IDX 36 46 79 47 73 48 72 49 37 51 63 52 46 53 62 54 47 55 50 56
REMARK SMILES IDX 61 57 77 58 48 59 49 60 60 62 78 63 51 64 38 65 39 66 44 67
REMARK SMILES IDX 40 68 41 69 43 70 45 71 42 72 64 73 65 74 70 75 66 76 67 77
REMARK SMILES IDX 69 78 71 79 68 80 52 81 53 82 58 83 54 84 55 85 57 86 59 87
REMARK SMILES IDX 56 88
REMARK H PARENT 22 5 10 11 26 31 76 50 50 61
REMARK Flexibility Score: inf
ROOT
ATOM      1  C   UNL A   1      32.797  26.200  25.831  1.00  0.00     0.117 C 
ENDROOT
BRANCH   1   2
ATOM      2  N   UNL A   1      32.333  25.111  26.668  1.00  0.00    -0.356 N 
ATOM      3  C   UNL A   1      32.358  23.765  26.441  1.00  0.00     0.224 C 
ATOM      4  O   UNL A   1      32.005  23.010  27.350  1.00  0.00    -0.275 OA
ATOM      5  H   UNL A   1      31.942  25.382  27.529  1.00  0.00     0.163 HD
BRANCH   3   6
ATOM      6  C   UNL A   1      32.891  23.209  25.134  1.00  0.00     0.138 C 
BRANCH   6   7
ATOM      7  C   UNL A   1      34.032  22.244  25.280  1.00  0.00    -0.002 A 
ATOM      8  C   UNL A   1      33.981  20.854  25.263  1.00  0.00     0.093 A 
ATOM      9  N   UNL A   1      35.268  20.386  25.386  1.00  0.00    -0.351 N 
ATOM     10  C   UNL A   1      36.147  21.425  25.561  1.00  0.00     0.049 A 
ATOM     11  H   UNL A   1      35.525  19.437  25.355  1.00  0.00     0.167 HD
ATOM     12  C   UNL A   1      35.405  22.605  25.505  1.00  0.00     0.004 A 
ATOM     13  C   UNL A   1      37.534  21.407  25.746  1.00  0.00     0.066 A 
ATOM     14  C   UNL A   1      36.087  23.834  25.648  1.00  0.00     0.013 A 
ATOM     15  C   UNL A   1      38.174  22.637  25.881  1.00  0.00     0.125 A 
ATOM     16  C   UNL A   1      37.474  23.835  25.836  1.00  0.00     0.040 A 
ATOM     17  F   UNL A   1      39.501  22.662  26.060  1.00  0.00    -0.207 F 
BRANCH   8  18
ATOM     18  C   UNL A   1      32.855  19.958  25.067  1.00  0.00     0.227 C 
ATOM     19  O   UNL A   1      31.710  20.398  25.015  1.00  0.00    -0.285 OA
BRANCH  18  20
ATOM     20  C   UNL A   1      33.146  18.495  24.824  1.00  0.00     0.113 A 
ATOM     21  C   UNL A   1      32.275  15.036  26.128  1.00  0.00     0.044 C 
ATOM     22  C   UNL A   1      32.896  16.155  25.345  1.00  0.00    -0.047 A 
ATOM     23  C   UNL A   1      33.841  15.880  24.357  1.00  0.00     0.023 A 
ATOM     24  C   UNL A   1      32.528  17.486  25.567  1.00  0.00     0.036 A 
ATOM     25  C   UNL A   1      34.394  16.938  23.655  1.00  0.00     0.112 A 
ATOM     26  N   UNL A   1      34.081  18.231  23.875  1.00  0.00    -0.253 NA
ENDBRANCH  18  20
ENDBRANCH   8  18
ENDBRANCH   6   7
ENDBRANCH   3   6
ENDBRANCH   1   2
BRANCH   1  27
ATOM     27  C   UNL A   1      32.696  27.571  26.497  1.00  0.00     0.042 C 
BRANCH  27  28
ATOM     28  C   UNL A   1      34.033  28.201  26.879  1.00  0.00     0.118 C 
BRANCH  28  29
ATOM     29  N   UNL A   1      33.886  29.558  27.388  1.00  0.00    -0.352 N 
ATOM     30  C   UNL A   1      34.760  30.339  28.100  1.00  0.00     0.251 C 
ATOM     31  H   UNL A   1      33.020  29.981  27.188  1.00  0.00     0.163 HD
ATOM     32  O   UNL A   1      34.365  31.398  28.583  1.00  0.00    -0.269 OA
BRANCH  30  33
ATOM     33  C   UNL A   1      36.167  29.928  28.312  1.00  0.00     0.039 A 
ATOM     34  C   UNL A   1      37.070  30.078  27.253  1.00  0.00     0.014 A 
ATOM     35  C   UNL A   1      36.588  29.326  29.502  1.00  0.00     0.014 A 
ATOM     36  C   UNL A   1      38.401  29.677  27.401  1.00  0.00     0.010 A 
ATOM     37  C   UNL A   1      37.923  28.950  29.661  1.00  0.00     0.010 A 
ATOM     38  C   UNL A   1      38.840  29.124  28.612  1.00  0.00    -0.014 A 
BRANCH  38  39
ATOM     39  C   UNL A   1      40.252  28.712  28.797  1.00  0.00     0.031 A 
ATOM     40  C   UNL A   1      41.254  29.674  29.364  1.00  0.00     0.074 A 
ATOM     41  C   UNL A   1      40.647  27.482  28.420  1.00  0.00     0.049 A 
ATOM     42  N   UNL A   1      42.553  29.549  29.462  1.00  0.00    -0.248 NA
ATOM     43  C   UNL A   1      40.726  30.946  29.881  1.00  0.00     0.031 C 
ATOM     44  C   UNL A   1      39.779  26.446  27.859  1.00  0.00     0.029 A 
ATOM     45  N   UNL A   1      41.890  26.901  28.447  1.00  0.00    -0.354 N 
ATOM     46  C   UNL A   1      43.006  30.740  30.011  1.00  0.00     0.074 A 
ATOM     47  C   UNL A   1      41.840  31.567  30.249  1.00  0.00     0.031 C 
ATOM     48  C   UNL A   1      40.515  25.350  27.606  1.00  0.00     0.029 A 
ATOM     49  C   UNL A   1      41.907  25.619  27.960  1.00  0.00     0.049 A 
ATOM     50  H   UNL A   1      42.692  27.361  28.784  1.00  0.00     0.167 HD
ATOM     51  C   UNL A   1      44.277  31.117  30.282  1.00  0.00     0.037 A 
ATOM     52  C   UNL A   1      42.932  24.763  27.801  1.00  0.00     0.037 A 
ATOM     53  C   UNL A   1      45.440  30.294  30.086  1.00  0.00     0.049 A 
ATOM     54  C   UNL A   1      44.325  25.184  28.155  1.00  0.00     0.074 A 
ATOM     55  C   UNL A   1      46.769  30.603  30.320  1.00  0.00     0.029 A 
ATOM     56  N   UNL A   1      45.407  28.988  29.626  1.00  0.00    -0.354 N 
ATOM     57  N   UNL A   1      44.745  26.335  28.617  1.00  0.00    -0.248 NA
ATOM     58  C   UNL A   1      45.389  24.189  27.952  1.00  0.00     0.031 C 
ATOM     59  C   UNL A   1      47.542  29.478  30.008  1.00  0.00     0.029 A 
ATOM     60  C   UNL A   1      46.691  28.472  29.580  1.00  0.00     0.049 A 
ATOM     61  H   UNL A   1      44.592  28.499  29.369  1.00  0.00     0.167 HD
ATOM     62  C   UNL A   1      46.120  26.212  28.747  1.00  0.00     0.074 A 
ATOM     63  C   UNL A   1      46.466  24.868  28.331  1.00  0.00     0.031 C 
ATOM     64  C   UNL A   1      47.017  27.135  29.165  1.00  0.00     0.037 A 
BRANCH  51  65
ATOM     65  C   UNL A   1      44.474  32.502  30.805  1.00  0.00     0.057 A 
ATOM     66  C   UNL A   1      44.508  32.765  32.177  1.00  0.00     0.134 A 
ATOM     67  C   UNL A   1      44.645  33.577  29.925  1.00  0.00     0.134 A 
ATOM     68  F   UNL A   1      44.337  31.773  33.064  1.00  0.00    -0.206 F 
ATOM     69  C   UNL A   1      44.705  34.060  32.661  1.00  0.00     0.040 A 
ATOM     70  C   UNL A   1      44.845  34.874  30.397  1.00  0.00     0.040 A 
ATOM     71  F   UNL A   1      44.613  33.383  28.598  1.00  0.00    -0.206 F 
ATOM     72  C   UNL A   1      44.876  35.118  31.769  1.00  0.00     0.006 A 
ENDBRANCH  51  65
BRANCH  52  73
ATOM     73  C   UNL A   1      42.675  23.413  27.257  1.00  0.00     0.057 A 
ATOM     74  C   UNL A   1      42.278  22.367  28.095  1.00  0.00     0.134 A 
ATOM     75  C   UNL A   1      42.819  23.142  25.893  1.00  0.00     0.134 A 
ATOM     76  F   UNL A   1      42.139  22.573  29.413  1.00  0.00    -0.206 F 
ATOM     77  C   UNL A   1      42.032  21.089  27.592  1.00  0.00     0.040 A 
ATOM     78  C   UNL A   1      42.573  21.870  25.377  1.00  0.00     0.040 A 
ATOM     79  F   UNL A   1      43.204  24.111  25.049  1.00  0.00    -0.206 F 
ATOM     80  C   UNL A   1      42.178  20.839  26.228  1.00  0.00     0.006 A 
ENDBRANCH  52  73
BRANCH  64  81
ATOM     81  C   UNL A   1      48.453  26.722  29.182  1.00  0.00     0.057 A 
ATOM     82  C   UNL A   1      49.003  26.078  30.296  1.00  0.00     0.134 A 
ATOM     83  C   UNL A   1      49.284  26.951  28.079  1.00  0.00     0.134 A 
ATOM     84  F   UNL A   1      48.255  25.843  31.384  1.00  0.00    -0.206 F 
ATOM     85  C   UNL A   1      50.338  25.675  30.313  1.00  0.00     0.040 A 
ATOM     86  C   UNL A   1      50.621  26.551  28.085  1.00  0.00     0.040 A 
ATOM     87  F   UNL A   1      48.811  27.572  26.989  1.00  0.00    -0.206 F 
ATOM     88  C   UNL A   1      51.151  25.910  29.205  1.00  0.00     0.006 A 
ENDBRANCH  64  81
ENDBRANCH  38  39
ENDBRANCH  30  33
ENDBRANCH  28  29
ENDBRANCH  27  28
ENDBRANCH   1  27
TORSDOF 13
ENDMDL
MODEL 2
REMARK VINA RESULT:     -12.3      4.005      7.975
REMARK SMILES Cc1ccnc(C(=O)c2[nH]c3cc(F)ccc3c2CC(=O)NCCCNC(=O)c2ccc(-c3c4nc(c(-c5c(F)cccc5F)c5ccc([nH]5)c(-c5c(F)cccc5F)c5nc(c(-c6c(F)cccc6F)c6ccc3[nH]6)C=C5)C=C4)cc2)c1
REMARK SMILES IDX 23 1 22 2 20 3 21 4 19 6 18 7 9 8 10 9 11 10 17 12 12 13
REMARK SMILES IDX 16 14 13 15 15 16 14 17 7 18 8 19 6 20 1 21 2 22 3 23 83 24
REMARK SMILES IDX 4 25 5 26 24 27 25 28 26 29 27 30 28 32 29 33 30 34 82 35
REMARK SMILES IDX 31 36 81 37 32 38 33 39 34 40 75 41 35 42 80 43 74 44 76 45
REMARK SMILES IDX 36 46 79 47 73 48 72 49 37 51 63 52 46 53 62 54 47 55 50 56
REMARK SMILES IDX 61 57 77 58 48 59 49 60 60 62 78 63 51 64 38 65 39 66 44 67
REMARK SMILES IDX 40 68 41 69 43 70 45 71 42 72 64 73 65 74 70 75 66 76 67 77
REMARK SMILES IDX 69 78 71 79 68 80 52 81 53 82 58 83 54 84 55 85 57 86 59 87
REMARK SMILES IDX 56 88
REMARK H PARENT 22 5 10 11 26 31 76 50 50 61
REMARK Flexibility Score: inf
ROOT
ATOM      1  C   UNL A   1      32.630  27.054  26.135  1.00  0.00     0.117 C 
ENDROOT
BRANCH   1   2
ATOM      2  N   UNL A   1      31.807  25.963  26.619  1.00  0.00    -0.356 N 
ATOM      3  C   UNL A   1      31.990  24.615  26.503  1.00  0.00     0.224 C 
ATOM      4  O   UNL A   1      31.210  23.863  27.092  1.00  0.00    -0.275 OA
ATOM      5  H   UNL A   1      30.995  26.234  27.104  1.00  0.00     0.163 HD
BRANCH   3   6
ATOM      6  C   UNL A   1      33.176  24.056  25.737  1.00  0.00     0.138 C 
BRANCH   6   7
ATOM      7  C   UNL A   1      32.826  23.375  24.446  1.00  0.00    -0.002 A 
ATOM      8  C   UNL A   1      32.570  23.965  23.213  1.00  0.00     0.093 A 
ATOM      9  N   UNL A   1      32.338  22.958  22.307  1.00  0.00    -0.351 N 
ATOM     10  C   UNL A   1      32.358  21.733  22.927  1.00  0.00     0.049 A 
ATOM     11  H   UNL A   1      32.178  23.094  21.346  1.00  0.00     0.167 HD
ATOM     12  C   UNL A   1      32.656  21.958  24.271  1.00  0.00     0.004 A 
ATOM     13  C   UNL A   1      32.153  20.455  22.397  1.00  0.00     0.066 A 
ATOM     14  C   UNL A   1      32.748  20.843  25.133  1.00  0.00     0.013 A 
ATOM     15  C   UNL A   1      32.254  19.379  23.276  1.00  0.00     0.125 A 
ATOM     16  C   UNL A   1      32.544  19.557  24.621  1.00  0.00     0.040 A 
ATOM     17  F   UNL A   1      32.064  18.138  22.808  1.00  0.00    -0.207 F 
BRANCH   8  18
ATOM     18  C   UNL A   1      32.601  25.362  22.816  1.00  0.00     0.227 C 
ATOM     19  O   UNL A   1      33.599  25.836  22.280  1.00  0.00    -0.285 OA
BRANCH  18  20
ATOM     20  C   UNL A   1      31.337  26.175  22.983  1.00  0.00     0.113 A 
ATOM     21  C   UNL A   1      29.905  29.617  22.262  1.00  0.00     0.044 C 
ATOM     22  C   UNL A   1      30.062  28.207  22.748  1.00  0.00    -0.047 A 
ATOM     23  C   UNL A   1      29.027  27.585  23.444  1.00  0.00     0.023 A 
ATOM     24  C   UNL A   1      31.231  27.480  22.496  1.00  0.00     0.036 A 
ATOM     25  C   UNL A   1      29.209  26.282  23.880  1.00  0.00     0.112 A 
ATOM     26  N   UNL A   1      30.338  25.574  23.679  1.00  0.00    -0.253 NA
ENDBRANCH  18  20
ENDBRANCH   8  18
ENDBRANCH   6   7
ENDBRANCH   3   6
ENDBRANCH   1   2
BRANCH   1  27
ATOM     27  C   UNL A   1      31.871  28.372  25.984  1.00  0.00     0.042 C 
BRANCH  27  28
ATOM     28  C   UNL A   1      32.693  29.525  25.411  1.00  0.00     0.118 C 
BRANCH  28  29
ATOM     29  N   UNL A   1      32.221  30.825  25.866  1.00  0.00    -0.352 N 
ATOM     30  C   UNL A   1      32.653  31.614  26.902  1.00  0.00     0.251 C 
ATOM     31  H   UNL A   1      31.473  31.198  25.346  1.00  0.00     0.163 HD
ATOM     32  O   UNL A   1      31.997  32.603  27.220  1.00  0.00    -0.269 OA
BRANCH  30  33
ATOM     33  C   UNL A   1      33.888  31.293  27.654  1.00  0.00     0.039 A 
ATOM     34  C   UNL A   1      34.768  32.338  27.965  1.00  0.00     0.014 A 
ATOM     35  C   UNL A   1      34.229  29.978  27.984  1.00  0.00     0.014 A 
ATOM     36  C   UNL A   1      35.958  32.074  28.649  1.00  0.00     0.010 A 
ATOM     37  C   UNL A   1      35.405  29.717  28.691  1.00  0.00     0.010 A 
ATOM     38  C   UNL A   1      36.277  30.764  29.030  1.00  0.00    -0.014 A 
BRANCH  38  39
ATOM     39  C   UNL A   1      37.523  30.467  29.775  1.00  0.00     0.031 A 
ATOM     40  C   UNL A   1      38.606  29.642  29.143  1.00  0.00     0.074 A 
ATOM     41  C   UNL A   1      37.671  30.908  31.038  1.00  0.00     0.049 A 
ATOM     42  N   UNL A   1      39.695  29.157  29.683  1.00  0.00    -0.248 NA
ATOM     43  C   UNL A   1      38.438  29.314  27.719  1.00  0.00     0.031 C 
ATOM     44  C   UNL A   1      36.702  31.722  31.773  1.00  0.00     0.029 A 
ATOM     45  N   UNL A   1      38.698  30.720  31.929  1.00  0.00    -0.354 N 
ATOM     46  C   UNL A   1      40.321  28.431  28.682  1.00  0.00     0.074 A 
ATOM     47  C   UNL A   1      39.504  28.559  27.492  1.00  0.00     0.031 C 
ATOM     48  C   UNL A   1      37.187  31.975  33.001  1.00  0.00     0.029 A 
ATOM     49  C   UNL A   1      38.484  31.318  33.146  1.00  0.00     0.049 A 
ATOM     50  H   UNL A   1      39.510  30.208  31.716  1.00  0.00     0.167 HD
ATOM     51  C   UNL A   1      41.466  27.712  28.748  1.00  0.00     0.037 A 
ATOM     52  C   UNL A   1      39.240  31.321  34.258  1.00  0.00     0.037 A 
ATOM     53  C   UNL A   1      42.306  27.605  29.910  1.00  0.00     0.049 A 
ATOM     54  C   UNL A   1      40.530  30.559  34.292  1.00  0.00     0.074 A 
ATOM     55  C   UNL A   1      43.477  26.885  30.069  1.00  0.00     0.029 A 
ATOM     56  N   UNL A   1      42.071  28.257  31.109  1.00  0.00    -0.354 N 
ATOM     57  N   UNL A   1      41.079  29.828  33.355  1.00  0.00    -0.248 NA
ATOM     58  C   UNL A   1      41.298  30.614  35.546  1.00  0.00     0.031 C 
ATOM     59  C   UNL A   1      43.957  27.107  31.366  1.00  0.00     0.029 A 
ATOM     60  C   UNL A   1      43.081  27.966  32.010  1.00  0.00     0.049 A 
ATOM     61  H   UNL A   1      41.300  28.841  31.294  1.00  0.00     0.167 HD
ATOM     62  C   UNL A   1      42.247  29.322  33.906  1.00  0.00     0.074 A 
ATOM     63  C   UNL A   1      42.339  29.842  35.256  1.00  0.00     0.031 C 
ATOM     64  C   UNL A   1      43.157  28.492  33.346  1.00  0.00     0.037 A 
BRANCH  51  65
ATOM     65  C   UNL A   1      41.864  26.961  27.519  1.00  0.00     0.057 A 
ATOM     66  C   UNL A   1      42.586  27.576  26.492  1.00  0.00     0.134 A 
ATOM     67  C   UNL A   1      41.535  25.609  27.373  1.00  0.00     0.134 A 
ATOM     68  F   UNL A   1      42.918  28.872  26.576  1.00  0.00    -0.206 F 
ATOM     69  C   UNL A   1      42.967  26.867  25.352  1.00  0.00     0.040 A 
ATOM     70  C   UNL A   1      41.912  24.890  26.240  1.00  0.00     0.040 A 
ATOM     71  F   UNL A   1      40.836  24.972  28.325  1.00  0.00    -0.206 F 
ATOM     72  C   UNL A   1      42.631  25.519  25.225  1.00  0.00     0.006 A 
ENDBRANCH  51  65
BRANCH  52  73
ATOM     73  C   UNL A   1      38.780  32.064  35.449  1.00  0.00     0.057 A 
ATOM     74  C   UNL A   1      38.155  31.402  36.510  1.00  0.00     0.134 A 
ATOM     75  C   UNL A   1      38.956  33.447  35.552  1.00  0.00     0.134 A 
ATOM     76  F   UNL A   1      37.952  30.078  36.453  1.00  0.00    -0.206 F 
ATOM     77  C   UNL A   1      37.718  32.094  37.640  1.00  0.00     0.040 A 
ATOM     78  C   UNL A   1      38.525  34.151  36.677  1.00  0.00     0.040 A 
ATOM     79  F   UNL A   1      39.543  34.130  34.558  1.00  0.00    -0.206 F 
ATOM     80  C   UNL A   1      37.905  33.473  37.725  1.00  0.00     0.006 A 
ENDBRANCH  52  73
BRANCH  64  81
ATOM     81  C   UNL A   1      44.320  28.092  34.195  1.00  0.00     0.057 A 
ATOM     82  C   UNL A   1      45.490  28.860  34.221  1.00  0.00     0.134 A 
ATOM     83  C   UNL A   1      44.266  26.951  35.003  1.00  0.00     0.134 A 
ATOM     84  F   UNL A   1      45.600  29.958  33.459  1.00  0.00    -0.206 F 
ATOM     85  C   UNL A   1      46.573  28.502  35.023  1.00  0.00     0.040 A 
ATOM     86  C   UNL A   1      45.344  26.584  35.810  1.00  0.00     0.040 A 
ATOM     87  F   UNL A   1      43.173  26.174  35.010  1.00  0.00    -0.206 F 
ATOM     88  C   UNL A   1      46.501  27.362  35.822  1.00  0.00     0.006 A 
ENDBRANCH  64  81
ENDBRANCH  38  39
ENDBRANCH  30  33
ENDBRANCH  28  29
ENDBRANCH  27  28
ENDBRANCH   1  27
TORSDOF 13
ENDMDL
MODEL 3
REMARK VINA RESULT:     -12.1      2.069      4.092
REMARK SMILES Cc1ccnc(C(=O)c2[nH]c3cc(F)ccc3c2CC(=O)NCCCNC(=O)c2ccc(-c3c4nc(c(-c5c(F)cccc5F)c5ccc([nH]5)c(-c5c(F)cccc5F)c5nc(c(-c6c(F)cccc6F)c6ccc3[nH]6)C=C5)C=C4)cc2)c1
REMARK SMILES IDX 23 1 22 2 20 3 21 4 19 6 18 7 9 8 10 9 11 10 17 12 12 13
REMARK SMILES IDX 16 14 13 15 15 16 14 17 7 18 8 19 6 20 1 21 2 22 3 23 83 24
REMARK SMILES IDX 4 25 5 26 24 27 25 28 26 29 27 30 28 32 29 33 30 34 82 35
REMARK SMILES IDX 31 36 81 37 32 38 33 39 34 40 75 41 35 42 80 43 74 44 76 45
REMARK SMILES IDX 36 46 79 47 73 48 72 49 37 51 63 52 46 53 62 54 47 55 50 56
REMARK SMILES IDX 61 57 77 58 48 59 49 60 60 62 78 63 51 64 38 65 39 66 44 67
REMARK SMILES IDX 40 68 41 69 43 70 45 71 42 72 64 73 65 74 70 75 66 76 67 77
REMARK SMILES IDX 69 78 71 79 68 80 52 81 53 82 58 83 54 84 55 85 57 86 59 87
REMARK SMILES IDX 56 88
REMARK H PARENT 22 5 10 11 26 31 76 50 50 61
REMARK Flexibility Score: inf
ROOT
ATOM      1  C   UNL A   1      31.825  27.046  26.432  1.00  0.00     0.117 C 
ENDROOT
BRANCH   1   2
ATOM      2  N   UNL A   1      31.192  25.814  26.861  1.00  0.00    -0.356 N 
ATOM      3  C   UNL A   1      31.579  24.519  26.662  1.00  0.00     0.224 C 
ATOM      4  O   UNL A   1      30.938  23.623  27.216  1.00  0.00    -0.275 OA
ATOM      5  H   UNL A   1      30.358  25.927  27.371  1.00  0.00     0.163 HD
BRANCH   3   6
ATOM      6  C   UNL A   1      32.821  24.197  25.851  1.00  0.00     0.138 C 
BRANCH   6   7
ATOM      7  C   UNL A   1      32.552  23.570  24.513  1.00  0.00    -0.002 A 
ATOM      8  C   UNL A   1      32.329  24.213  23.300  1.00  0.00     0.093 A 
ATOM      9  N   UNL A   1      32.172  23.245  22.336  1.00  0.00    -0.351 N 
ATOM     10  C   UNL A   1      32.209  21.993  22.896  1.00  0.00     0.049 A 
ATOM     11  H   UNL A   1      32.050  23.425  21.377  1.00  0.00     0.167 HD
ATOM     12  C   UNL A   1      32.440  22.159  24.261  1.00  0.00     0.004 A 
ATOM     13  C   UNL A   1      32.073  20.737  22.295  1.00  0.00     0.066 A 
ATOM     14  C   UNL A   1      32.534  21.006  25.071  1.00  0.00     0.013 A 
ATOM     15  C   UNL A   1      32.173  19.621  23.124  1.00  0.00     0.125 A 
ATOM     16  C   UNL A   1      32.398  19.741  24.488  1.00  0.00     0.040 A 
ATOM     17  F   UNL A   1      32.048  18.400  22.587  1.00  0.00    -0.207 F 
BRANCH   8  18
ATOM     18  C   UNL A   1      32.328  25.628  22.974  1.00  0.00     0.227 C 
ATOM     19  O   UNL A   1      33.346  26.173  22.557  1.00  0.00    -0.285 OA
BRANCH  18  20
ATOM     20  C   UNL A   1      31.016  26.375  23.059  1.00  0.00     0.113 A 
ATOM     21  C   UNL A   1      29.462  29.748  22.266  1.00  0.00     0.044 C 
ATOM     22  C   UNL A   1      29.658  28.342  22.751  1.00  0.00    -0.047 A 
ATOM     23  C   UNL A   1      28.610  27.661  23.370  1.00  0.00     0.023 A 
ATOM     24  C   UNL A   1      30.877  27.678  22.576  1.00  0.00     0.036 A 
ATOM     25  C   UNL A   1      28.828  26.364  23.807  1.00  0.00     0.112 A 
ATOM     26  N   UNL A   1      30.003  25.717  23.679  1.00  0.00    -0.253 NA
ENDBRANCH  18  20
ENDBRANCH   8  18
ENDBRANCH   6   7
ENDBRANCH   3   6
ENDBRANCH   1   2
BRANCH   1  27
ATOM     27  C   UNL A   1      32.419  27.860  27.579  1.00  0.00     0.042 C 
BRANCH  27  28
ATOM     28  C   UNL A   1      33.707  28.607  27.240  1.00  0.00     0.118 C 
BRANCH  28  29
ATOM     29  N   UNL A   1      33.651  30.013  27.611  1.00  0.00    -0.352 N 
ATOM     30  C   UNL A   1      34.577  30.802  28.246  1.00  0.00     0.251 C 
ATOM     31  H   UNL A   1      32.814  30.471  27.367  1.00  0.00     0.163 HD
ATOM     32  O   UNL A   1      34.255  31.927  28.620  1.00  0.00    -0.269 OA
BRANCH  30  33
ATOM     33  C   UNL A   1      35.955  30.322  28.503  1.00  0.00     0.039 A 
ATOM     34  C   UNL A   1      36.897  30.425  27.472  1.00  0.00     0.014 A 
ATOM     35  C   UNL A   1      36.307  29.703  29.706  1.00  0.00     0.014 A 
ATOM     36  C   UNL A   1      38.201  29.958  27.663  1.00  0.00     0.010 A 
ATOM     37  C   UNL A   1      37.616  29.261  29.907  1.00  0.00     0.010 A 
ATOM     38  C   UNL A   1      38.573  29.387  28.888  1.00  0.00    -0.014 A 
BRANCH  38  39
ATOM     39  C   UNL A   1      39.956  28.906  29.117  1.00  0.00     0.031 A 
ATOM     40  C   UNL A   1      40.976  29.805  29.754  1.00  0.00     0.074 A 
ATOM     41  C   UNL A   1      40.311  27.670  28.720  1.00  0.00     0.049 A 
ATOM     42  N   UNL A   1      42.262  29.618  29.901  1.00  0.00    -0.248 NA
ATOM     43  C   UNL A   1      40.484  31.084  30.287  1.00  0.00     0.031 C 
ATOM     44  C   UNL A   1      39.422  26.691  28.094  1.00  0.00     0.029 A 
ATOM     45  N   UNL A   1      41.525  27.032  28.781  1.00  0.00    -0.354 N 
ATOM     46  C   UNL A   1      42.744  30.770  30.503  1.00  0.00     0.074 A 
ATOM     47  C   UNL A   1      41.607  31.643  30.717  1.00  0.00     0.031 C 
ATOM     48  C   UNL A   1      40.119  25.570  27.838  1.00  0.00     0.029 A 
ATOM     49  C   UNL A   1      41.505  25.765  28.256  1.00  0.00     0.049 A 
ATOM     50  H   UNL A   1      42.332  27.445  29.164  1.00  0.00     0.167 HD
ATOM     51  C   UNL A   1      44.018  31.081  30.837  1.00  0.00     0.037 A 
ATOM     52  C   UNL A   1      42.497  24.867  28.114  1.00  0.00     0.037 A 
ATOM     53  C   UNL A   1      45.151  30.211  30.663  1.00  0.00     0.049 A 
ATOM     54  C   UNL A   1      43.891  25.214  28.537  1.00  0.00     0.074 A 
ATOM     55  C   UNL A   1      46.481  30.453  30.961  1.00  0.00     0.029 A 
ATOM     56  N   UNL A   1      45.079  28.922  30.164  1.00  0.00    -0.354 N 
ATOM     57  N   UNL A   1      44.342  26.331  29.050  1.00  0.00    -0.248 NA
ATOM     58  C   UNL A   1      44.918  24.177  28.348  1.00  0.00     0.031 C 
ATOM     59  C   UNL A   1      47.216  29.302  30.646  1.00  0.00     0.029 A 
ATOM     60  C   UNL A   1      46.340  28.349  30.155  1.00  0.00     0.049 A 
ATOM     61  H   UNL A   1      44.255  28.478  29.860  1.00  0.00     0.167 HD
ATOM     62  C   UNL A   1      45.704  26.141  29.232  1.00  0.00     0.074 A 
ATOM     63  C   UNL A   1      46.006  24.795  28.791  1.00  0.00     0.031 C 
ATOM     64  C   UNL A   1      46.623  27.010  29.713  1.00  0.00     0.037 A 
BRANCH  51  65
ATOM     65  C   UNL A   1      44.255  32.441  31.408  1.00  0.00     0.057 A 
ATOM     66  C   UNL A   1      44.232  32.665  32.788  1.00  0.00     0.134 A 
ATOM     67  C   UNL A   1      44.523  33.529  30.569  1.00  0.00     0.134 A 
ATOM     68  F   UNL A   1      43.969  31.660  33.636  1.00  0.00    -0.206 F 
ATOM     69  C   UNL A   1      44.466  33.935  33.318  1.00  0.00     0.040 A 
ATOM     70  C   UNL A   1      44.760  34.801  31.087  1.00  0.00     0.040 A 
ATOM     71  F   UNL A   1      44.548  33.371  29.238  1.00  0.00    -0.206 F 
ATOM     72  C   UNL A   1      44.733  35.007  32.466  1.00  0.00     0.006 A 
ENDBRANCH  51  65
BRANCH  52  73
ATOM     73  C   UNL A   1      42.203  23.546  27.520  1.00  0.00     0.057 A 
ATOM     74  C   UNL A   1      41.927  22.442  28.331  1.00  0.00     0.134 A 
ATOM     75  C   UNL A   1      42.190  23.362  26.134  1.00  0.00     0.134 A 
ATOM     76  F   UNL A   1      41.941  22.565  29.666  1.00  0.00    -0.206 F 
ATOM     77  C   UNL A   1      41.647  21.191  27.782  1.00  0.00     0.040 A 
ATOM     78  C   UNL A   1      41.909  22.117  25.572  1.00  0.00     0.040 A 
ATOM     79  F   UNL A   1      42.455  24.389  25.313  1.00  0.00    -0.206 F 
ATOM     80  C   UNL A   1      41.637  21.027  26.397  1.00  0.00     0.006 A 
ENDBRANCH  52  73
BRANCH  64  81
ATOM     81  C   UNL A   1      48.037  26.532  29.777  1.00  0.00     0.057 A 
ATOM     82  C   UNL A   1      48.529  25.891  30.919  1.00  0.00     0.134 A 
ATOM     83  C   UNL A   1      48.904  26.694  28.690  1.00  0.00     0.134 A 
ATOM     84  F   UNL A   1      47.745  25.719  31.994  1.00  0.00    -0.206 F 
ATOM     85  C   UNL A   1      49.843  25.427  30.980  1.00  0.00     0.040 A 
ATOM     86  C   UNL A   1      50.220  26.233  28.739  1.00  0.00     0.040 A 
ATOM     87  F   UNL A   1      48.487  27.309  27.574  1.00  0.00    -0.206 F 
ATOM     88  C   UNL A   1      50.692  25.596  29.887  1.00  0.00     0.006 A 
ENDBRANCH  64  81
ENDBRANCH  38  39
ENDBRANCH  30  33
ENDBRANCH  28  29
ENDBRANCH  27  28
ENDBRANCH   1  27
TORSDOF 13
ENDMDL
