MODEL 1
REMARK VINA RESULT:     -11.9      0.000      0.000
REMARK SMILES O=C(/C=C/c1ccc(Br)cc1-n1ccnc1)NCCCNC(=O)c1ccc(-c2c3nc(c(-c4c(F)cccc4F)c4ccc([nH]4)c(-c4c(F)cccc4F)c4nc(c(-c5c(F)cccc5F)c5ccc2[nH]5)C=C4)C=C3)cc1
REMARK SMILES IDX 19 1 18 2 17 3 1 4 2 5 3 7 4 8 5 9 6 10 11 11 7 12 10 13
REMARK SMILES IDX 8 14 9 15 12 16 13 17 16 18 14 19 15 20 20 21 21 22 22 23
REMARK SMILES IDX 23 25 24 26 25 27 77 28 26 29 76 30 27 31 28 32 29 33 70 34
REMARK SMILES IDX 30 35 75 36 69 37 71 38 31 39 74 40 68 41 67 42 32 44 58 45
REMARK SMILES IDX 41 46 57 47 42 48 45 49 56 50 72 51 43 52 44 53 55 55 73 56
REMARK SMILES IDX 46 57 33 58 34 59 39 60 35 61 36 62 38 63 40 64 37 65 59 66
REMARK SMILES IDX 60 67 65 68 61 69 62 70 64 71 66 72 63 73 47 74 48 75 53 76
REMARK SMILES IDX 49 77 50 78 52 79 54 80 51 81
REMARK H PARENT 17 6 21 24 71 43 45 54
REMARK Flexibility Score: inf
ROOT
ATOM      1  C   UNL A   1      34.444  30.608  27.251  1.00  0.00     0.042 C 
ENDROOT
BRANCH   1   2
ATOM      2  C   UNL A   1      33.101  30.003  26.826  1.00  0.00     0.118 C 
BRANCH   2   3
ATOM      3  N   UNL A   1      33.151  28.577  26.519  1.00  0.00    -0.352 N 
ATOM      4  O   UNL A   1      31.283  28.026  27.728  1.00  0.00    -0.270 OA
ATOM      5  C   UNL A   1      32.194  27.704  26.973  1.00  0.00     0.244 C 
ATOM      6  H   UNL A   1      33.893  28.232  25.973  1.00  0.00     0.163 HD
BRANCH   5   7
ATOM      7  C   UNL A   1      32.260  26.291  26.504  1.00  0.00     0.072 C 
ATOM      8  C   UNL A   1      33.299  25.664  25.935  1.00  0.00     0.016 C 
BRANCH   8   9
ATOM      9  C   UNL A   1      33.287  24.223  25.605  1.00  0.00    -0.001 A 
ATOM     10  C   UNL A   1      33.465  23.268  26.614  1.00  0.00     0.011 A 
ATOM     11  C   UNL A   1      32.935  23.764  24.321  1.00  0.00     0.055 A 
ATOM     12  C   UNL A   1      33.292  21.901  26.351  1.00  0.00     0.016 A 
ATOM     13  C   UNL A   1      32.706  22.401  24.063  1.00  0.00     0.043 A 
ATOM     14  C   UNL A   1      32.905  21.476  25.082  1.00  0.00     0.020 A 
ATOM     15  Br  UNL A   1      32.669  19.633  24.734  1.00  0.00    -0.051 Br
BRANCH  11  16
ATOM     16  N   UNL A   1      32.814  24.668  23.250  1.00  0.00    -0.306 N 
ATOM     17  C   UNL A   1      31.666  25.230  22.743  1.00  0.00     0.113 A 
ATOM     18  C   UNL A   1      33.843  25.146  22.495  1.00  0.00     0.204 A 
ATOM     19  C   UNL A   1      32.068  26.024  21.701  1.00  0.00     0.131 A 
ATOM     20  N   UNL A   1      33.410  25.919  21.528  1.00  0.00    -0.245 NA
ENDBRANCH  11  16
ENDBRANCH   8   9
ENDBRANCH   5   7
ENDBRANCH   2   3
ENDBRANCH   1   2
BRANCH   1  21
ATOM     21  C   UNL A   1      35.355  29.623  27.967  1.00  0.00     0.118 C 
BRANCH  21  22
ATOM     22  N   UNL A   1      35.510  29.871  29.405  1.00  0.00    -0.352 N 
ATOM     23  C   UNL A   1      36.525  29.438  30.241  1.00  0.00     0.251 C 
ATOM     24  H   UNL A   1      34.804  30.412  29.828  1.00  0.00     0.163 HD
ATOM     25  O   UNL A   1      36.367  29.422  31.464  1.00  0.00    -0.269 OA
BRANCH  23  26
ATOM     26  C   UNL A   1      37.807  28.999  29.657  1.00  0.00     0.039 A 
ATOM     27  C   UNL A   1      38.368  29.604  28.527  1.00  0.00     0.014 A 
ATOM     28  C   UNL A   1      38.468  27.949  30.284  1.00  0.00     0.014 A 
ATOM     29  C   UNL A   1      39.633  29.193  28.100  1.00  0.00     0.010 A 
ATOM     30  C   UNL A   1      39.779  27.689  29.991  1.00  0.00     0.010 A 
ATOM     31  C   UNL A   1      40.343  28.245  28.858  1.00  0.00    -0.014 A 
BRANCH  31  32
ATOM     32  C   UNL A   1      41.723  27.879  28.565  1.00  0.00     0.031 A 
ATOM     33  C   UNL A   1      41.866  26.655  27.746  1.00  0.00     0.074 A 
ATOM     34  C   UNL A   1      42.787  28.660  28.859  1.00  0.00     0.049 A 
ATOM     35  N   UNL A   1      42.270  25.509  28.179  1.00  0.00    -0.248 NA
ATOM     36  C   UNL A   1      41.373  26.628  26.363  1.00  0.00     0.031 C 
ATOM     37  C   UNL A   1      42.823  29.987  29.483  1.00  0.00     0.029 A 
ATOM     38  N   UNL A   1      44.102  28.438  28.579  1.00  0.00    -0.354 N 
ATOM     39  C   UNL A   1      42.299  24.666  27.079  1.00  0.00     0.074 A 
ATOM     40  C   UNL A   1      41.567  25.344  26.041  1.00  0.00     0.031 C 
ATOM     41  C   UNL A   1      44.057  30.530  29.334  1.00  0.00     0.029 A 
ATOM     42  C   UNL A   1      44.932  29.549  28.726  1.00  0.00     0.049 A 
ATOM     43  H   UNL A   1      44.441  27.559  28.295  1.00  0.00     0.167 HD
ATOM     44  C   UNL A   1      43.136  23.591  27.065  1.00  0.00     0.037 A 
ATOM     45  C   UNL A   1      46.250  29.631  28.406  1.00  0.00     0.037 A 
ATOM     46  C   UNL A   1      43.667  23.337  28.387  1.00  0.00     0.049 A 
ATOM     47  C   UNL A   1      46.775  28.250  28.482  1.00  0.00     0.074 A 
ATOM     48  C   UNL A   1      43.111  23.044  29.619  1.00  0.00     0.029 A 
ATOM     49  N   UNL A   1      44.942  23.778  28.652  1.00  0.00    -0.354 N 
ATOM     50  N   UNL A   1      46.861  27.584  29.600  1.00  0.00    -0.248 NA
ATOM     51  C   UNL A   1      46.744  27.448  27.270  1.00  0.00     0.031 C 
ATOM     52  C   UNL A   1      43.887  23.786  30.559  1.00  0.00     0.029 A 
ATOM     53  C   UNL A   1      44.917  24.420  29.864  1.00  0.00     0.049 A 
ATOM     54  H   UNL A   1      45.730  23.657  28.075  1.00  0.00     0.167 HD
ATOM     55  C   UNL A   1      46.413  26.315  29.274  1.00  0.00     0.074 A 
ATOM     56  C   UNL A   1      46.451  26.261  27.810  1.00  0.00     0.031 C 
ATOM     57  C   UNL A   1      45.770  25.537  30.195  1.00  0.00     0.037 A 
BRANCH  44  58
ATOM     58  C   UNL A   1      43.785  23.015  25.835  1.00  0.00     0.057 A 
ATOM     59  C   UNL A   1      43.770  21.618  25.653  1.00  0.00     0.134 A 
ATOM     60  C   UNL A   1      44.670  23.718  24.995  1.00  0.00     0.134 A 
ATOM     61  F   UNL A   1      42.969  20.836  26.391  1.00  0.00    -0.206 F 
ATOM     62  C   UNL A   1      44.639  20.966  24.771  1.00  0.00     0.040 A 
ATOM     63  C   UNL A   1      45.506  23.080  24.075  1.00  0.00     0.040 A 
ATOM     64  F   UNL A   1      44.852  25.040  25.086  1.00  0.00    -0.206 F 
ATOM     65  C   UNL A   1      45.520  21.697  23.986  1.00  0.00     0.006 A 
ENDBRANCH  44  58
BRANCH  45  66
ATOM     66  C   UNL A   1      47.032  30.721  27.765  1.00  0.00     0.057 A 
ATOM     67  C   UNL A   1      46.460  31.577  26.815  1.00  0.00     0.134 A 
ATOM     68  C   UNL A   1      48.248  31.160  28.312  1.00  0.00     0.134 A 
ATOM     69  F   UNL A   1      45.265  31.292  26.279  1.00  0.00    -0.206 F 
ATOM     70  C   UNL A   1      47.056  32.796  26.444  1.00  0.00     0.040 A 
ATOM     71  C   UNL A   1      48.867  32.362  27.940  1.00  0.00     0.040 A 
ATOM     72  F   UNL A   1      48.817  30.498  29.318  1.00  0.00    -0.206 F 
ATOM     73  C   UNL A   1      48.261  33.195  27.012  1.00  0.00     0.006 A 
ENDBRANCH  45  66
BRANCH  57  74
ATOM     74  C   UNL A   1      45.764  25.997  31.631  1.00  0.00     0.057 A 
ATOM     75  C   UNL A   1      46.856  25.889  32.507  1.00  0.00     0.134 A 
ATOM     76  C   UNL A   1      44.659  26.712  32.099  1.00  0.00     0.134 A 
ATOM     77  F   UNL A   1      47.998  25.311  32.128  1.00  0.00    -0.206 F 
ATOM     78  C   UNL A   1      46.835  26.432  33.796  1.00  0.00     0.040 A 
ATOM     79  C   UNL A   1      44.635  27.287  33.374  1.00  0.00     0.040 A 
ATOM     80  F   UNL A   1      43.596  26.907  31.305  1.00  0.00    -0.206 F 
ATOM     81  C   UNL A   1      45.722  27.140  34.231  1.00  0.00     0.006 A 
ENDBRANCH  57  74
ENDBRANCH  31  32
ENDBRANCH  23  26
ENDBRANCH  21  22
ENDBRANCH   1  21
TORSDOF 12
ENDMDL
MODEL 2
REMARK VINA RESULT:     -11.9      2.432      6.527
REMARK SMILES O=C(/C=C/c1ccc(Br)cc1-n1ccnc1)NCCCNC(=O)c1ccc(-c2c3nc(c(-c4c(F)cccc4F)c4ccc([nH]4)c(-c4c(F)cccc4F)c4nc(c(-c5c(F)cccc5F)c5ccc2[nH]5)C=C4)C=C3)cc1
REMARK SMILES IDX 19 1 18 2 17 3 1 4 2 5 3 7 4 8 5 9 6 10 11 11 7 12 10 13
REMARK SMILES IDX 8 14 9 15 12 16 13 17 16 18 14 19 15 20 20 21 21 22 22 23
REMARK SMILES IDX 23 25 24 26 25 27 77 28 26 29 76 30 27 31 28 32 29 33 70 34
REMARK SMILES IDX 30 35 75 36 69 37 71 38 31 39 74 40 68 41 67 42 32 44 58 45
REMARK SMILES IDX 41 46 57 47 42 48 45 49 56 50 72 51 43 52 44 53 55 55 73 56
REMARK SMILES IDX 46 57 33 58 34 59 39 60 35 61 36 62 38 63 40 64 37 65 59 66
REMARK SMILES IDX 60 67 65 68 61 69 62 70 64 71 66 72 63 73 47 74 48 75 53 76
REMARK SMILES IDX 49 77 50 78 52 79 54 80 51 81
REMARK H PARENT 17 6 21 24 71 43 45 54
REMARK Flexibility Score: inf
ROOT
ATOM      1  C   UNL A   1      32.450  29.734  27.251  1.00  0.00     0.042 C 
ENDROOT
BRANCH   1   2
ATOM      2  C   UNL A   1      32.113  29.000  25.949  1.00  0.00     0.118 C 
BRANCH   2   3
ATOM      3  N   UNL A   1      32.655  27.648  25.860  1.00  0.00    -0.352 N 
ATOM      4  O   UNL A   1      33.935  28.046  24.000  1.00  0.00    -0.270 OA
ATOM      5  C   UNL A   1      33.569  27.295  24.898  1.00  0.00     0.244 C 
ATOM      6  H   UNL A   1      32.356  26.970  26.508  1.00  0.00     0.163 HD
BRANCH   5   7
ATOM      7  C   UNL A   1      34.160  25.929  24.965  1.00  0.00     0.072 C 
ATOM      8  C   UNL A   1      33.904  24.885  24.164  1.00  0.00     0.016 C 
BRANCH   8   9
ATOM      9  C   UNL A   1      34.632  23.601  24.257  1.00  0.00    -0.001 A 
ATOM     10  C   UNL A   1      35.873  23.448  23.626  1.00  0.00     0.011 A 
ATOM     11  C   UNL A   1      34.194  22.566  25.105  1.00  0.00     0.055 A 
ATOM     12  C   UNL A   1      36.653  22.302  23.839  1.00  0.00     0.016 A 
ATOM     13  C   UNL A   1      34.995  21.440  25.368  1.00  0.00     0.043 A 
ATOM     14  C   UNL A   1      36.215  21.310  24.714  1.00  0.00     0.020 A 
ATOM     15  Br  UNL A   1      37.272  19.769  25.001  1.00  0.00    -0.051 Br
BRANCH  11  16
ATOM     16  N   UNL A   1      32.926  22.629  25.710  1.00  0.00    -0.306 N 
ATOM     17  C   UNL A   1      31.703  22.355  25.143  1.00  0.00     0.113 A 
ATOM     18  C   UNL A   1      32.678  23.002  26.997  1.00  0.00     0.204 A 
ATOM     19  C   UNL A   1      30.776  22.578  26.127  1.00  0.00     0.131 A 
ATOM     20  N   UNL A   1      31.391  23.028  27.251  1.00  0.00    -0.245 NA
ENDBRANCH  11  16
ENDBRANCH   8   9
ENDBRANCH   5   7
ENDBRANCH   2   3
ENDBRANCH   1   2
BRANCH   1  21
ATOM     21  C   UNL A   1      33.755  30.512  27.190  1.00  0.00     0.118 C 
BRANCH  21  22
ATOM     22  N   UNL A   1      33.819  31.668  28.093  1.00  0.00    -0.352 N 
ATOM     23  C   UNL A   1      34.764  31.939  29.068  1.00  0.00     0.251 C 
ATOM     24  H   UNL A   1      33.100  32.333  27.992  1.00  0.00     0.163 HD
ATOM     25  O   UNL A   1      34.524  32.746  29.968  1.00  0.00    -0.269 OA
BRANCH  23  26
ATOM     26  C   UNL A   1      36.071  31.255  29.019  1.00  0.00     0.039 A 
ATOM     27  C   UNL A   1      37.285  31.943  29.111  1.00  0.00     0.014 A 
ATOM     28  C   UNL A   1      36.064  29.871  28.891  1.00  0.00     0.014 A 
ATOM     29  C   UNL A   1      38.474  31.209  29.159  1.00  0.00     0.010 A 
ATOM     30  C   UNL A   1      37.200  29.151  29.138  1.00  0.00     0.010 A 
ATOM     31  C   UNL A   1      38.417  29.805  29.195  1.00  0.00    -0.014 A 
BRANCH  31  32
ATOM     32  C   UNL A   1      39.598  28.976  29.397  1.00  0.00     0.031 A 
ATOM     33  C   UNL A   1      39.890  28.668  30.814  1.00  0.00     0.074 A 
ATOM     34  C   UNL A   1      40.286  28.389  28.391  1.00  0.00     0.049 A 
ATOM     35  N   UNL A   1      40.850  29.180  31.508  1.00  0.00    -0.248 NA
ATOM     36  C   UNL A   1      38.957  27.851  31.601  1.00  0.00     0.031 C 
ATOM     37  C   UNL A   1      40.028  28.416  26.947  1.00  0.00     0.029 A 
ATOM     38  N   UNL A   1      41.362  27.556  28.475  1.00  0.00    -0.354 N 
ATOM     39  C   UNL A   1      40.786  28.583  32.758  1.00  0.00     0.074 A 
ATOM     40  C   UNL A   1      39.507  27.926  32.819  1.00  0.00     0.031 C 
ATOM     41  C   UNL A   1      40.780  27.472  26.330  1.00  0.00     0.029 A 
ATOM     42  C   UNL A   1      41.666  26.866  27.302  1.00  0.00     0.049 A 
ATOM     43  H   UNL A   1      41.885  27.450  29.302  1.00  0.00     0.167 HD
ATOM     44  C   UNL A   1      41.906  28.494  33.529  1.00  0.00     0.037 A 
ATOM     45  C   UNL A   1      42.607  25.898  27.146  1.00  0.00     0.037 A 
ATOM     46  C   UNL A   1      42.958  29.339  33.005  1.00  0.00     0.049 A 
ATOM     47  C   UNL A   1      43.624  26.145  28.192  1.00  0.00     0.074 A 
ATOM     48  C   UNL A   1      43.087  30.693  32.758  1.00  0.00     0.029 A 
ATOM     49  N   UNL A   1      43.946  28.731  32.265  1.00  0.00    -0.354 N 
ATOM     50  N   UNL A   1      44.391  27.199  28.201  1.00  0.00    -0.248 NA
ATOM     51  C   UNL A   1      43.450  25.479  29.472  1.00  0.00     0.031 C 
ATOM     52  C   UNL A   1      43.799  30.776  31.524  1.00  0.00     0.029 A 
ATOM     53  C   UNL A   1      44.137  29.481  31.132  1.00  0.00     0.049 A 
ATOM     54  H   UNL A   1      44.428  27.908  32.505  1.00  0.00     0.167 HD
ATOM     55  C   UNL A   1      44.399  27.603  29.526  1.00  0.00     0.074 A 
ATOM     56  C   UNL A   1      43.888  26.452  30.277  1.00  0.00     0.031 C 
ATOM     57  C   UNL A   1      44.528  28.920  29.860  1.00  0.00     0.037 A 
BRANCH  44  58
ATOM     58  C   UNL A   1      42.202  27.383  34.501  1.00  0.00     0.057 A 
ATOM     59  C   UNL A   1      41.918  27.584  35.866  1.00  0.00     0.134 A 
ATOM     60  C   UNL A   1      43.015  26.269  34.217  1.00  0.00     0.134 A 
ATOM     61  F   UNL A   1      41.153  28.610  36.267  1.00  0.00    -0.206 F 
ATOM     62  C   UNL A   1      42.481  26.794  36.875  1.00  0.00     0.040 A 
ATOM     63  C   UNL A   1      43.541  25.443  35.214  1.00  0.00     0.040 A 
ATOM     64  F   UNL A   1      43.430  25.978  32.979  1.00  0.00    -0.206 F 
ATOM     65  C   UNL A   1      43.305  25.726  36.549  1.00  0.00     0.006 A 
ENDBRANCH  44  58
BRANCH  45  66
ATOM     66  C   UNL A   1      42.577  24.622  26.384  1.00  0.00     0.057 A 
ATOM     67  C   UNL A   1      43.527  24.334  25.394  1.00  0.00     0.134 A 
ATOM     68  C   UNL A   1      41.832  23.523  26.837  1.00  0.00     0.134 A 
ATOM     69  F   UNL A   1      44.342  25.295  24.938  1.00  0.00    -0.206 F 
ATOM     70  C   UNL A   1      43.726  23.034  24.898  1.00  0.00     0.040 A 
ATOM     71  C   UNL A   1      42.003  22.222  26.340  1.00  0.00     0.040 A 
ATOM     72  F   UNL A   1      40.997  23.648  27.866  1.00  0.00    -0.206 F 
ATOM     73  C   UNL A   1      42.967  21.970  25.376  1.00  0.00     0.006 A 
ENDBRANCH  45  66
BRANCH  57  74
ATOM     74  C   UNL A   1      44.893  29.895  28.770  1.00  0.00     0.057 A 
ATOM     75  C   UNL A   1      43.965  30.597  27.983  1.00  0.00     0.134 A 
ATOM     76  C   UNL A   1      46.236  30.249  28.611  1.00  0.00     0.134 A 
ATOM     77  F   UNL A   1      42.651  30.407  28.121  1.00  0.00    -0.206 F 
ATOM     78  C   UNL A   1      44.356  31.573  27.059  1.00  0.00     0.040 A 
ATOM     79  C   UNL A   1      46.639  31.244  27.715  1.00  0.00     0.040 A 
ATOM     80  F   UNL A   1      47.180  29.665  29.364  1.00  0.00    -0.206 F 
ATOM     81  C   UNL A   1      45.699  31.903  26.928  1.00  0.00     0.006 A 
ENDBRANCH  57  74
ENDBRANCH  31  32
ENDBRANCH  23  26
ENDBRANCH  21  22
ENDBRANCH   1  21
TORSDOF 12
ENDMDL
MODEL 3
REMARK VINA RESULT:     -11.8      3.564      7.489
REMARK SMILES O=C(/C=C/c1ccc(Br)cc1-n1ccnc1)NCCCNC(=O)c1ccc(-c2c3nc(c(-c4c(F)cccc4F)c4ccc([nH]4)c(-c4c(F)cccc4F)c4nc(c(-c5c(F)cccc5F)c5ccc2[nH]5)C=C4)C=C3)cc1
REMARK SMILES IDX 19 1 18 2 17 3 1 4 2 5 3 7 4 8 5 9 6 10 11 11 7 12 10 13
REMARK SMILES IDX 8 14 9 15 12 16 13 17 16 18 14 19 15 20 20 21 21 22 22 23
REMARK SMILES IDX 23 25 24 26 25 27 77 28 26 29 76 30 27 31 28 32 29 33 70 34
REMARK SMILES IDX 30 35 75 36 69 37 71 38 31 39 74 40 68 41 67 42 32 44 58 45
REMARK SMILES IDX 41 46 57 47 42 48 45 49 56 50 72 51 43 52 44 53 55 55 73 56
REMARK SMILES IDX 46 57 33 58 34 59 39 60 35 61 36 62 38 63 40 64 37 65 59 66
REMARK SMILES IDX 60 67 65 68 61 69 62 70 64 71 66 72 63 73 47 74 48 75 53 76
REMARK SMILES IDX 49 77 50 78 52 79 54 80 51 81
REMARK H PARENT 17 6 21 24 71 43 45 54
REMARK Flexibility Score: inf
ROOT
ATOM      1  C   UNL A   1      37.323  21.692  24.598  1.00  0.00     0.042 C 
ENDROOT
BRANCH   1   2
ATOM      2  C   UNL A   1      35.832  21.644  24.950  1.00  0.00     0.118 C 
BRANCH   2   3
ATOM      3  N   UNL A   1      35.168  22.944  24.945  1.00  0.00    -0.352 N 
ATOM      4  O   UNL A   1      34.367  22.791  27.088  1.00  0.00    -0.270 OA
ATOM      5  C   UNL A   1      34.517  23.430  26.052  1.00  0.00     0.244 C 
ATOM      6  H   UNL A   1      35.187  23.488  24.125  1.00  0.00     0.163 HD
BRANCH   5   7
ATOM      7  C   UNL A   1      33.979  24.819  25.992  1.00  0.00     0.072 C 
ATOM      8  C   UNL A   1      32.732  25.202  25.687  1.00  0.00     0.016 C 
BRANCH   8   9
ATOM      9  C   UNL A   1      32.280  26.608  25.763  1.00  0.00    -0.001 A 
ATOM     10  C   UNL A   1      32.012  27.196  27.007  1.00  0.00     0.011 A 
ATOM     11  C   UNL A   1      32.268  27.440  24.628  1.00  0.00     0.055 A 
ATOM     12  C   UNL A   1      31.745  28.568  27.112  1.00  0.00     0.016 A 
ATOM     13  C   UNL A   1      32.056  28.827  24.732  1.00  0.00     0.043 A 
ATOM     14  C   UNL A   1      31.778  29.377  25.978  1.00  0.00     0.020 A 
ATOM     15  Br  UNL A   1      31.422  31.228  26.126  1.00  0.00    -0.051 Br
BRANCH  11  16
ATOM     16  N   UNL A   1      32.458  26.896  23.345  1.00  0.00    -0.306 N 
ATOM     17  C   UNL A   1      31.511  26.358  22.504  1.00  0.00     0.113 A 
ATOM     18  C   UNL A   1      33.653  26.789  22.698  1.00  0.00     0.204 A 
ATOM     19  C   UNL A   1      32.192  25.953  21.386  1.00  0.00     0.131 A 
ATOM     20  N   UNL A   1      33.522  26.178  21.544  1.00  0.00    -0.245 NA
ENDBRANCH  11  16
ENDBRANCH   8   9
ENDBRANCH   5   7
ENDBRANCH   2   3
ENDBRANCH   1   2
BRANCH   1  21
ATOM     21  C   UNL A   1      38.140  22.569  25.534  1.00  0.00     0.118 C 
BRANCH  21  22
ATOM     22  N   UNL A   1      38.981  21.830  26.483  1.00  0.00    -0.352 N 
ATOM     23  C   UNL A   1      40.028  22.311  27.251  1.00  0.00     0.251 C 
ATOM     24  H   UNL A   1      38.776  20.872  26.585  1.00  0.00     0.163 HD
ATOM     25  O   UNL A   1      40.856  21.539  27.738  1.00  0.00    -0.269 OA
BRANCH  23  26
ATOM     26  C   UNL A   1      40.144  23.763  27.489  1.00  0.00     0.039 A 
ATOM     27  C   UNL A   1      39.093  24.653  27.244  1.00  0.00     0.014 A 
ATOM     28  C   UNL A   1      41.352  24.234  27.989  1.00  0.00     0.014 A 
ATOM     29  C   UNL A   1      39.253  25.997  27.593  1.00  0.00     0.010 A 
ATOM     30  C   UNL A   1      41.436  25.495  28.510  1.00  0.00     0.010 A 
ATOM     31  C   UNL A   1      40.427  26.404  28.250  1.00  0.00    -0.014 A 
BRANCH  31  32
ATOM     32  C   UNL A   1      40.605  27.750  28.779  1.00  0.00     0.031 A 
ATOM     33  C   UNL A   1      41.692  28.519  28.132  1.00  0.00     0.074 A 
ATOM     34  C   UNL A   1      39.760  28.330  29.662  1.00  0.00     0.049 A 
ATOM     35  N   UNL A   1      42.834  28.790  28.665  1.00  0.00    -0.248 NA
ATOM     36  C   UNL A   1      41.592  28.892  26.715  1.00  0.00     0.031 C 
ATOM     37  C   UNL A   1      38.528  27.798  30.256  1.00  0.00     0.029 A 
ATOM     38  N   UNL A   1      39.804  29.592  30.172  1.00  0.00    -0.354 N 
ATOM     39  C   UNL A   1      43.521  29.562  27.741  1.00  0.00     0.074 A 
ATOM     40  C   UNL A   1      42.796  29.435  26.503  1.00  0.00     0.031 C 
ATOM     41  C   UNL A   1      37.843  28.800  30.861  1.00  0.00     0.029 A 
ATOM     42  C   UNL A   1      38.639  30.008  30.816  1.00  0.00     0.049 A 
ATOM     43  H   UNL A   1      40.599  30.168  30.091  1.00  0.00     0.167 HD
ATOM     44  C   UNL A   1      44.491  30.423  28.157  1.00  0.00     0.037 A 
ATOM     45  C   UNL A   1      38.378  31.248  31.308  1.00  0.00     0.037 A 
ATOM     46  C   UNL A   1      44.855  30.160  29.532  1.00  0.00     0.049 A 
ATOM     47  C   UNL A   1      39.695  31.855  31.607  1.00  0.00     0.074 A 
ATOM     48  C   UNL A   1      45.362  29.068  30.213  1.00  0.00     0.029 A 
ATOM     49  N   UNL A   1      44.319  30.982  30.496  1.00  0.00    -0.354 N 
ATOM     50  N   UNL A   1      40.486  31.409  32.542  1.00  0.00    -0.248 NA
ATOM     51  C   UNL A   1      40.332  32.633  30.557  1.00  0.00     0.031 C 
ATOM     52  C   UNL A   1      44.668  29.058  31.461  1.00  0.00     0.029 A 
ATOM     53  C   UNL A   1      43.846  30.184  31.506  1.00  0.00     0.049 A 
ATOM     54  H   UNL A   1      44.282  31.965  30.467  1.00  0.00     0.167 HD
ATOM     55  C   UNL A   1      41.743  31.428  31.961  1.00  0.00     0.074 A 
ATOM     56  C   UNL A   1      41.603  32.283  30.779  1.00  0.00     0.031 C 
ATOM     57  C   UNL A   1      42.696  30.515  32.314  1.00  0.00     0.037 A 
BRANCH  44  58
ATOM     58  C   UNL A   1      44.832  31.730  27.490  1.00  0.00     0.057 A 
ATOM     59  C   UNL A   1      46.066  31.846  26.821  1.00  0.00     0.134 A 
ATOM     60  C   UNL A   1      44.165  32.947  27.729  1.00  0.00     0.134 A 
ATOM     61  F   UNL A   1      46.799  30.760  26.534  1.00  0.00    -0.206 F 
ATOM     62  C   UNL A   1      46.634  33.084  26.501  1.00  0.00     0.040 A 
ATOM     63  C   UNL A   1      44.700  34.186  27.368  1.00  0.00     0.040 A 
ATOM     64  F   UNL A   1      43.016  33.016  28.411  1.00  0.00    -0.206 F 
ATOM     65  C   UNL A   1      45.954  34.261  26.785  1.00  0.00     0.006 A 
ENDBRANCH  44  58
BRANCH  45  66
ATOM     66  C   UNL A   1      37.139  32.069  31.278  1.00  0.00     0.057 A 
ATOM     67  C   UNL A   1      36.574  32.505  30.073  1.00  0.00     0.134 A 
ATOM     68  C   UNL A   1      36.299  32.156  32.399  1.00  0.00     0.134 A 
ATOM     69  F   UNL A   1      37.262  32.402  28.926  1.00  0.00    -0.206 F 
ATOM     70  C   UNL A   1      35.256  32.986  29.989  1.00  0.00     0.040 A 
ATOM     71  C   UNL A   1      34.988  32.651  32.340  1.00  0.00     0.040 A 
ATOM     72  F   UNL A   1      36.677  31.648  33.571  1.00  0.00    -0.206 F 
ATOM     73  C   UNL A   1      34.455  33.055  31.125  1.00  0.00     0.006 A 
ENDBRANCH  45  66
BRANCH  57  74
ATOM     74  C   UNL A   1      42.428  29.638  33.511  1.00  0.00     0.057 A 
ATOM     75  C   UNL A   1      41.854  28.357  33.448  1.00  0.00     0.134 A 
ATOM     76  C   UNL A   1      42.906  30.044  34.759  1.00  0.00     0.134 A 
ATOM     77  F   UNL A   1      41.451  27.831  32.289  1.00  0.00    -0.206 F 
ATOM     78  C   UNL A   1      41.729  27.540  34.577  1.00  0.00     0.040 A 
ATOM     79  C   UNL A   1      42.816  29.226  35.889  1.00  0.00     0.040 A 
ATOM     80  F   UNL A   1      43.516  31.231  34.893  1.00  0.00    -0.206 F 
ATOM     81  C   UNL A   1      42.217  27.973  35.803  1.00  0.00     0.006 A 
ENDBRANCH  57  74
ENDBRANCH  31  32
ENDBRANCH  23  26
ENDBRANCH  21  22
ENDBRANCH   1  21
TORSDOF 12
ENDMDL
