MODEL 1
REMARK VINA RESULT:     -11.5      0.000      0.000
REMARK SMILES CC[C@@](C)([NH2+]CC(=O)N[C@@H](C)c1ccc(F)cc1)C(=O)NCCCNC(=O)c1ccc(-c2c3nc(c(-c4c(F)cccc4F)c4ccc([nH]4)c(-c4c(F)cccc4F)c4nc(c(-c5c(F)cccc5F)c5ccc2[nH]5)C=C4)C=C3)cc1
REMARK SMILES IDX 19 1 20 2 21 3 3 5 4 6 2 7 1 8 5 9 6 12 7 13 8 14 9 15 10 17
REMARK SMILES IDX 11 18 12 19 13 20 18 21 14 22 17 23 15 24 16 25 22 26 23 27
REMARK SMILES IDX 24 28 25 29 26 30 27 32 28 33 29 34 81 35 30 36 80 37 31 38
REMARK SMILES IDX 32 39 33 40 74 41 34 42 79 43 73 44 75 45 35 46 78 47 72 48
REMARK SMILES IDX 71 49 36 51 62 52 45 53 61 54 46 55 49 56 60 57 76 58 47 59
REMARK SMILES IDX 48 60 59 62 77 63 50 64 37 65 38 66 43 67 39 68 40 69 42 70
REMARK SMILES IDX 44 71 41 72 63 73 64 74 69 75 65 76 66 77 68 78 70 79 67 80
REMARK SMILES IDX 51 81 52 82 57 83 53 84 54 85 56 86 58 87 55 88
REMARK H PARENT 21 4 5 10 5 11 9 16 25 31 75 50 49 61
REMARK Flexibility Score: inf
ROOT
ATOM      1  C   UNL A   1      34.183  20.679  24.907  1.00  0.00     0.281 C 
ATOM      2  O   UNL A   1      33.761  19.911  24.037  1.00  0.00    -0.268 OA
ATOM      3  N   UNL A   1      35.397  20.335  25.480  1.00  0.00    -0.351 N 
ATOM      4  H   UNL A   1      35.409  19.672  26.209  1.00  0.00     0.163 HD
ENDROOT
BRANCH   1   5
ATOM      5  C   UNL A   1      33.300  21.900  25.470  1.00  0.00     0.172 C 
ATOM      6  C   UNL A   1      33.843  22.999  26.404  1.00  0.00     0.090 C 
BRANCH   5   7
ATOM      7  C   UNL A   1      32.989  22.714  24.147  1.00  0.00     0.075 C 
ATOM      8  C   UNL A   1      34.260  23.253  23.439  1.00  0.00     0.011 C 
ENDBRANCH   5   7
BRANCH   5   9
ATOM      9  N   UNL A   1      32.085  21.401  26.120  1.00  0.00    -0.326 N 
ATOM     10  H   UNL A   1      32.284  21.382  27.120  1.00  0.00     0.347 HD
ATOM     11  H   UNL A   1      31.925  20.523  25.627  1.00  0.00     0.347 HD
BRANCH   9  12
ATOM     12  C   UNL A   1      30.777  22.082  25.972  1.00  0.00     0.362 C 
BRANCH  12  13
ATOM     13  C   UNL A   1      30.231  23.335  26.732  1.00  0.00     0.275 C 
ATOM     14  O   UNL A   1      29.462  23.101  27.686  1.00  0.00    -0.268 OA
ATOM     15  N   UNL A   1      30.573  24.656  26.670  1.00  0.00    -0.345 N 
ATOM     16  H   UNL A   1      30.440  25.097  27.540  1.00  0.00     0.164 HD
BRANCH  15  17
ATOM     17  C   UNL A   1      31.088  25.608  25.669  1.00  0.00     0.109 C 
ATOM     18  C   UNL A   1      29.937  26.102  24.775  1.00  0.00     0.036 C 
BRANCH  17  19
ATOM     19  C   UNL A   1      31.874  26.804  26.196  1.00  0.00    -0.026 A 
ATOM     20  C   UNL A   1      31.179  27.810  26.908  1.00  0.00     0.009 A 
ATOM     21  C   UNL A   1      33.247  26.980  25.980  1.00  0.00     0.009 A 
ATOM     22  C   UNL A   1      31.839  28.927  27.423  1.00  0.00     0.039 A 
ATOM     23  C   UNL A   1      33.905  28.113  26.476  1.00  0.00     0.039 A 
ATOM     24  C   UNL A   1      33.199  29.067  27.200  1.00  0.00     0.123 A 
ATOM     25  F   UNL A   1      33.836  30.142  27.682  1.00  0.00    -0.207 F 
ENDBRANCH  17  19
ENDBRANCH  15  17
ENDBRANCH  12  13
ENDBRANCH   9  12
ENDBRANCH   5   9
ENDBRANCH   1   5
BRANCH   3  26
ATOM     26  C   UNL A   1      36.657  20.921  25.038  1.00  0.00     0.118 C 
BRANCH  26  27
ATOM     27  C   UNL A   1      37.810  19.935  24.915  1.00  0.00     0.042 C 
BRANCH  27  28
ATOM     28  C   UNL A   1      39.036  20.369  25.696  1.00  0.00     0.118 C 
BRANCH  28  29
ATOM     29  N   UNL A   1      40.029  19.304  25.842  1.00  0.00    -0.352 N 
ATOM     30  C   UNL A   1      41.376  19.370  26.115  1.00  0.00     0.251 C 
ATOM     31  H   UNL A   1      39.676  18.392  25.724  1.00  0.00     0.163 HD
ATOM     32  O   UNL A   1      42.067  18.355  26.041  1.00  0.00    -0.269 OA
BRANCH  30  33
ATOM     33  C   UNL A   1      41.998  20.667  26.460  1.00  0.00     0.039 A 
ATOM     34  C   UNL A   1      42.362  21.552  25.441  1.00  0.00     0.014 A 
ATOM     35  C   UNL A   1      42.180  21.028  27.795  1.00  0.00     0.014 A 
ATOM     36  C   UNL A   1      42.795  22.840  25.768  1.00  0.00     0.010 A 
ATOM     37  C   UNL A   1      42.491  22.341  28.116  1.00  0.00     0.010 A 
ATOM     38  C   UNL A   1      42.799  23.265  27.107  1.00  0.00    -0.014 A 
BRANCH  38  39
ATOM     39  C   UNL A   1      43.113  24.664  27.493  1.00  0.00     0.031 A 
ATOM     40  C   UNL A   1      44.547  25.107  27.593  1.00  0.00     0.074 A 
ATOM     41  C   UNL A   1      42.118  25.499  27.853  1.00  0.00     0.049 A 
ATOM     42  N   UNL A   1      45.034  26.233  28.047  1.00  0.00    -0.248 NA
ATOM     43  C   UNL A   1      45.573  24.142  27.162  1.00  0.00     0.031 C 
ATOM     44  C   UNL A   1      40.691  25.168  27.850  1.00  0.00     0.029 A 
ATOM     45  N   UNL A   1      42.154  26.795  28.305  1.00  0.00    -0.354 N 
ATOM     46  C   UNL A   1      46.415  26.100  27.977  1.00  0.00     0.074 A 
ATOM     47  C   UNL A   1      46.691  24.765  27.499  1.00  0.00     0.031 C 
ATOM     48  C   UNL A   1      39.988  26.242  28.244  1.00  0.00     0.029 A 
ATOM     49  C   UNL A   1      40.914  27.319  28.578  1.00  0.00     0.049 A 
ATOM     50  H   UNL A   1      42.991  27.301  28.422  1.00  0.00     0.167 HD
ATOM     51  C   UNL A   1      47.365  27.021  28.256  1.00  0.00     0.037 A 
ATOM     52  C   UNL A   1      40.561  28.530  29.053  1.00  0.00     0.037 A 
ATOM     53  C   UNL A   1      47.080  28.362  28.690  1.00  0.00     0.049 A 
ATOM     54  C   UNL A   1      41.635  29.535  29.361  1.00  0.00     0.074 A 
ATOM     55  C   UNL A   1      47.970  29.392  28.936  1.00  0.00     0.029 A 
ATOM     56  N   UNL A   1      45.810  28.858  28.937  1.00  0.00    -0.354 N 
ATOM     57  N   UNL A   1      42.935  29.414  29.238  1.00  0.00    -0.248 NA
ATOM     58  C   UNL A   1      41.200  30.841  29.874  1.00  0.00     0.031 C 
ATOM     59  C   UNL A   1      47.241  30.499  29.375  1.00  0.00     0.029 A 
ATOM     60  C   UNL A   1      45.894  30.175  29.353  1.00  0.00     0.049 A 
ATOM     61  H   UNL A   1      44.973  28.350  28.832  1.00  0.00     0.167 HD
ATOM     62  C   UNL A   1      43.470  30.632  29.634  1.00  0.00     0.074 A 
ATOM     63  C   UNL A   1      42.355  31.483  29.992  1.00  0.00     0.031 C 
ATOM     64  C   UNL A   1      44.770  31.011  29.694  1.00  0.00     0.037 A 
BRANCH  51  65
ATOM     65  C   UNL A   1      48.801  26.623  28.079  1.00  0.00     0.057 A 
ATOM     66  C   UNL A   1      49.543  26.117  29.154  1.00  0.00     0.134 A 
ATOM     67  C   UNL A   1      49.469  26.800  26.859  1.00  0.00     0.134 A 
ATOM     68  F   UNL A   1      48.968  25.927  30.351  1.00  0.00    -0.206 F 
ATOM     69  C   UNL A   1      50.900  25.814  29.025  1.00  0.00     0.040 A 
ATOM     70  C   UNL A   1      50.817  26.474  26.710  1.00  0.00     0.040 A 
ATOM     71  F   UNL A   1      48.813  27.268  25.786  1.00  0.00    -0.206 F 
ATOM     72  C   UNL A   1      51.540  25.990  27.799  1.00  0.00     0.006 A 
ENDBRANCH  51  65
BRANCH  52  73
ATOM     73  C   UNL A   1      39.124  28.862  29.229  1.00  0.00     0.057 A 
ATOM     74  C   UNL A   1      38.369  29.441  28.202  1.00  0.00     0.134 A 
ATOM     75  C   UNL A   1      38.479  28.637  30.452  1.00  0.00     0.134 A 
ATOM     76  F   UNL A   1      38.929  29.691  27.009  1.00  0.00    -0.206 F 
ATOM     77  C   UNL A   1      37.034  29.803  28.388  1.00  0.00     0.040 A 
ATOM     78  C   UNL A   1      37.138  28.971  30.646  1.00  0.00     0.040 A 
ATOM     79  F   UNL A   1      39.143  28.069  31.469  1.00  0.00    -0.206 F 
ATOM     80  C   UNL A   1      36.413  29.565  29.614  1.00  0.00     0.006 A 
ENDBRANCH  52  73
BRANCH  64  81
ATOM     81  C   UNL A   1      45.072  32.410  30.139  1.00  0.00     0.057 A 
ATOM     82  C   UNL A   1      45.248  32.700  31.499  1.00  0.00     0.134 A 
ATOM     83  C   UNL A   1      45.074  33.483  29.240  1.00  0.00     0.134 A 
ATOM     84  F   UNL A   1      45.241  31.716  32.412  1.00  0.00    -0.206 F 
ATOM     85  C   UNL A   1      45.390  34.012  31.951  1.00  0.00     0.040 A 
ATOM     86  C   UNL A   1      45.242  34.797  29.678  1.00  0.00     0.040 A 
ATOM     87  F   UNL A   1      44.920  33.269  27.925  1.00  0.00    -0.206 F 
ATOM     88  C   UNL A   1      45.387  35.064  31.039  1.00  0.00     0.006 A 
ENDBRANCH  64  81
ENDBRANCH  38  39
ENDBRANCH  30  33
ENDBRANCH  28  29
ENDBRANCH  27  28
ENDBRANCH  26  27
ENDBRANCH   3  26
TORSDOF 16
ENDMDL
MODEL 2
REMARK VINA RESULT:     -11.3      1.029      6.296
REMARK SMILES CC[C@@](C)([NH2+]CC(=O)N[C@@H](C)c1ccc(F)cc1)C(=O)NCCCNC(=O)c1ccc(-c2c3nc(c(-c4c(F)cccc4F)c4ccc([nH]4)c(-c4c(F)cccc4F)c4nc(c(-c5c(F)cccc5F)c5ccc2[nH]5)C=C4)C=C3)cc1
REMARK SMILES IDX 19 1 20 2 21 3 3 5 4 6 2 7 1 8 5 9 6 12 7 13 8 14 9 15 10 17
REMARK SMILES IDX 11 18 12 19 13 20 18 21 14 22 17 23 15 24 16 25 22 26 23 27
REMARK SMILES IDX 24 28 25 29 26 30 27 32 28 33 29 34 81 35 30 36 80 37 31 38
REMARK SMILES IDX 32 39 33 40 74 41 34 42 79 43 73 44 75 45 35 46 78 47 72 48
REMARK SMILES IDX 71 49 36 51 62 52 45 53 61 54 46 55 49 56 60 57 76 58 47 59
REMARK SMILES IDX 48 60 59 62 77 63 50 64 37 65 38 66 43 67 39 68 40 69 42 70
REMARK SMILES IDX 44 71 41 72 63 73 64 74 69 75 65 76 66 77 68 78 70 79 67 80
REMARK SMILES IDX 51 81 52 82 57 83 53 84 54 85 56 86 58 87 55 88
REMARK H PARENT 21 4 5 10 5 11 9 16 25 31 75 50 49 61
REMARK Flexibility Score: inf
ROOT
ATOM      1  C   UNL A   1      34.408  21.552  25.700  1.00  0.00     0.281 C 
ATOM      2  O   UNL A   1      34.569  21.383  26.913  1.00  0.00    -0.268 OA
ATOM      3  N   UNL A   1      35.299  22.419  25.088  1.00  0.00    -0.351 N 
ATOM      4  H   UNL A   1      35.131  23.388  25.138  1.00  0.00     0.163 HD
ENDROOT
BRANCH   1   5
ATOM      5  C   UNL A   1      33.139  20.951  24.915  1.00  0.00     0.172 C 
ATOM      6  C   UNL A   1      32.678  21.432  23.526  1.00  0.00     0.090 C 
BRANCH   5   7
ATOM      7  C   UNL A   1      33.615  19.471  24.612  1.00  0.00     0.075 C 
ATOM      8  C   UNL A   1      32.638  18.681  23.701  1.00  0.00     0.011 C 
ENDBRANCH   5   7
BRANCH   5   9
ATOM      9  N   UNL A   1      31.942  20.993  25.760  1.00  0.00    -0.326 N 
ATOM     10  H   UNL A   1      32.274  21.007  26.724  1.00  0.00     0.347 HD
ATOM     11  H   UNL A   1      31.417  20.185  25.426  1.00  0.00     0.347 HD
BRANCH   9  12
ATOM     12  C   UNL A   1      30.940  22.080  25.651  1.00  0.00     0.362 C 
BRANCH  12  13
ATOM     13  C   UNL A   1      30.733  23.320  26.582  1.00  0.00     0.275 C 
ATOM     14  O   UNL A   1      30.027  23.131  27.592  1.00  0.00    -0.268 OA
ATOM     15  N   UNL A   1      31.329  24.550  26.603  1.00  0.00    -0.345 N 
ATOM     16  H   UNL A   1      31.370  24.906  27.519  1.00  0.00     0.164 HD
BRANCH  15  17
ATOM     17  C   UNL A   1      31.928  25.492  25.641  1.00  0.00     0.109 C 
ATOM     18  C   UNL A   1      31.046  25.591  24.385  1.00  0.00     0.036 C 
BRANCH  17  19
ATOM     19  C   UNL A   1      32.243  26.894  26.155  1.00  0.00    -0.026 A 
ATOM     20  C   UNL A   1      33.517  27.445  25.881  1.00  0.00     0.009 A 
ATOM     21  C   UNL A   1      31.347  27.654  26.918  1.00  0.00     0.009 A 
ATOM     22  C   UNL A   1      33.866  28.724  26.316  1.00  0.00     0.039 A 
ATOM     23  C   UNL A   1      31.706  28.928  27.375  1.00  0.00     0.039 A 
ATOM     24  C   UNL A   1      32.954  29.454  27.061  1.00  0.00     0.123 A 
ATOM     25  F   UNL A   1      33.287  30.678  27.490  1.00  0.00    -0.207 F 
ENDBRANCH  17  19
ENDBRANCH  15  17
ENDBRANCH  12  13
ENDBRANCH   9  12
ENDBRANCH   5   9
ENDBRANCH   1   5
BRANCH   3  26
ATOM     26  C   UNL A   1      36.477  21.943  24.372  1.00  0.00     0.118 C 
BRANCH  26  27
ATOM     27  C   UNL A   1      37.168  20.746  25.008  1.00  0.00     0.042 C 
BRANCH  27  28
ATOM     28  C   UNL A   1      38.550  21.082  25.536  1.00  0.00     0.118 C 
BRANCH  28  29
ATOM     29  N   UNL A   1      39.451  19.928  25.557  1.00  0.00    -0.352 N 
ATOM     30  C   UNL A   1      40.773  19.834  25.927  1.00  0.00     0.251 C 
ATOM     31  H   UNL A   1      39.045  19.083  25.257  1.00  0.00     0.163 HD
ATOM     32  O   UNL A   1      41.395  18.794  25.720  1.00  0.00    -0.269 OA
BRANCH  30  33
ATOM     33  C   UNL A   1      41.455  20.997  26.537  1.00  0.00     0.039 A 
ATOM     34  C   UNL A   1      42.137  21.905  25.721  1.00  0.00     0.014 A 
ATOM     35  C   UNL A   1      41.380  21.216  27.912  1.00  0.00     0.014 A 
ATOM     36  C   UNL A   1      42.639  23.086  26.273  1.00  0.00     0.010 A 
ATOM     37  C   UNL A   1      41.769  22.441  28.436  1.00  0.00     0.010 A 
ATOM     38  C   UNL A   1      42.400  23.393  27.623  1.00  0.00    -0.014 A 
BRANCH  38  39
ATOM     39  C   UNL A   1      42.787  24.696  28.220  1.00  0.00     0.031 A 
ATOM     40  C   UNL A   1      41.737  25.744  28.471  1.00  0.00     0.074 A 
ATOM     41  C   UNL A   1      44.088  24.974  28.436  1.00  0.00     0.049 A 
ATOM     42  N   UNL A   1      41.885  26.987  28.847  1.00  0.00    -0.248 NA
ATOM     43  C   UNL A   1      40.337  25.354  28.227  1.00  0.00     0.031 C 
ATOM     44  C   UNL A   1      45.203  24.059  28.181  1.00  0.00     0.029 A 
ATOM     45  N   UNL A   1      44.696  26.111  28.907  1.00  0.00    -0.354 N 
ATOM     46  C   UNL A   1      40.606  27.529  28.864  1.00  0.00     0.074 A 
ATOM     47  C   UNL A   1      39.702  26.503  28.398  1.00  0.00     0.031 C 
ATOM     48  C   UNL A   1      46.353  24.657  28.532  1.00  0.00     0.029 A 
ATOM     49  C   UNL A   1      46.064  26.013  28.986  1.00  0.00     0.049 A 
ATOM     50  H   UNL A   1      44.198  26.920  29.164  1.00  0.00     0.167 HD
ATOM     51  C   UNL A   1      40.218  28.762  29.262  1.00  0.00     0.037 A 
ATOM     52  C   UNL A   1      46.985  26.918  29.372  1.00  0.00     0.037 A 
ATOM     53  C   UNL A   1      41.119  29.763  29.765  1.00  0.00     0.049 A 
ATOM     54  C   UNL A   1      46.530  28.284  29.805  1.00  0.00     0.074 A 
ATOM     55  C   UNL A   1      40.817  31.021  30.256  1.00  0.00     0.029 A 
ATOM     56  N   UNL A   1      42.495  29.617  29.845  1.00  0.00    -0.354 N 
ATOM     57  N   UNL A   1      45.312  28.764  29.867  1.00  0.00    -0.248 NA
ATOM     58  C   UNL A   1      47.572  29.234  30.220  1.00  0.00     0.031 C 
ATOM     59  C   UNL A   1      42.016  31.653  30.591  1.00  0.00     0.029 A 
ATOM     60  C   UNL A   1      43.059  30.772  30.359  1.00  0.00     0.049 A 
ATOM     61  H   UNL A   1      42.996  28.814  29.577  1.00  0.00     0.167 HD
ATOM     62  C   UNL A   1      45.438  30.060  30.350  1.00  0.00     0.074 A 
ATOM     63  C   UNL A   1      46.849  30.289  30.573  1.00  0.00     0.031 C 
ATOM     64  C   UNL A   1      44.467  30.976  30.586  1.00  0.00     0.037 A 
BRANCH  51  65
ATOM     65  C   UNL A   1      38.755  29.093  29.195  1.00  0.00     0.057 A 
ATOM     66  C   UNL A   1      38.179  29.558  28.007  1.00  0.00     0.134 A 
ATOM     67  C   UNL A   1      37.930  29.013  30.325  1.00  0.00     0.134 A 
ATOM     68  F   UNL A   1      38.912  29.664  26.888  1.00  0.00    -0.206 F 
ATOM     69  C   UNL A   1      36.838  29.943  27.948  1.00  0.00     0.040 A 
ATOM     70  C   UNL A   1      36.582  29.366  30.272  1.00  0.00     0.040 A 
ATOM     71  F   UNL A   1      38.417  28.562  31.492  1.00  0.00    -0.206 F 
ATOM     72  C   UNL A   1      36.035  29.845  29.083  1.00  0.00     0.006 A 
ENDBRANCH  51  65
BRANCH  52  73
ATOM     73  C   UNL A   1      48.422  26.542  29.398  1.00  0.00     0.057 A 
ATOM     74  C   UNL A   1      49.276  26.816  28.322  1.00  0.00     0.134 A 
ATOM     75  C   UNL A   1      48.967  25.863  30.494  1.00  0.00     0.134 A 
ATOM     76  F   UNL A   1      48.814  27.457  27.238  1.00  0.00    -0.206 F 
ATOM     77  C   UNL A   1      50.612  26.412  28.326  1.00  0.00     0.040 A 
ATOM     78  C   UNL A   1      50.307  25.474  30.522  1.00  0.00     0.040 A 
ATOM     79  F   UNL A   1      48.205  25.587  31.562  1.00  0.00    -0.206 F 
ATOM     80  C   UNL A   1      51.132  25.740  29.431  1.00  0.00     0.006 A 
ENDBRANCH  52  73
BRANCH  64  81
ATOM     81  C   UNL A   1      44.882  32.308  31.137  1.00  0.00     0.057 A 
ATOM     82  C   UNL A   1      44.905  32.528  32.520  1.00  0.00     0.134 A 
ATOM     83  C   UNL A   1      45.145  33.399  30.301  1.00  0.00     0.134 A 
ATOM     84  F   UNL A   1      44.648  31.525  33.374  1.00  0.00    -0.206 F 
ATOM     85  C   UNL A   1      45.151  33.794  33.052  1.00  0.00     0.040 A 
ATOM     86  C   UNL A   1      45.418  34.664  30.822  1.00  0.00     0.040 A 
ATOM     87  F   UNL A   1      45.147  33.250  28.968  1.00  0.00    -0.206 F 
ATOM     88  C   UNL A   1      45.408  34.866  32.202  1.00  0.00     0.006 A 
ENDBRANCH  64  81
ENDBRANCH  38  39
ENDBRANCH  30  33
ENDBRANCH  28  29
ENDBRANCH  27  28
ENDBRANCH  26  27
ENDBRANCH   3  26
TORSDOF 16
ENDMDL
MODEL 3
REMARK VINA RESULT:     -11.3      1.526      2.166
REMARK SMILES CC[C@@](C)([NH2+]CC(=O)N[C@@H](C)c1ccc(F)cc1)C(=O)NCCCNC(=O)c1ccc(-c2c3nc(c(-c4c(F)cccc4F)c4ccc([nH]4)c(-c4c(F)cccc4F)c4nc(c(-c5c(F)cccc5F)c5ccc2[nH]5)C=C4)C=C3)cc1
REMARK SMILES IDX 19 1 20 2 21 3 3 5 4 6 2 7 1 8 5 9 6 12 7 13 8 14 9 15 10 17
REMARK SMILES IDX 11 18 12 19 13 20 18 21 14 22 17 23 15 24 16 25 22 26 23 27
REMARK SMILES IDX 24 28 25 29 26 30 27 32 28 33 29 34 81 35 30 36 80 37 31 38
REMARK SMILES IDX 32 39 33 40 74 41 34 42 79 43 73 44 75 45 35 46 78 47 72 48
REMARK SMILES IDX 71 49 36 51 62 52 45 53 61 54 46 55 49 56 60 57 76 58 47 59
REMARK SMILES IDX 48 60 59 62 77 63 50 64 37 65 38 66 43 67 39 68 40 69 42 70
REMARK SMILES IDX 44 71 41 72 63 73 64 74 69 75 65 76 66 77 68 78 70 79 67 80
REMARK SMILES IDX 51 81 52 82 57 83 53 84 54 85 56 86 58 87 55 88
REMARK H PARENT 21 4 5 10 5 11 9 16 25 31 75 50 49 61
REMARK Flexibility Score: inf
ROOT
ATOM      1  C   UNL A   1      34.649  20.827  25.016  1.00  0.00     0.281 C 
ATOM      2  O   UNL A   1      34.030  19.832  24.626  1.00  0.00    -0.268 OA
ATOM      3  N   UNL A   1      35.893  20.585  25.574  1.00  0.00    -0.351 N 
ATOM      4  H   UNL A   1      35.946  20.313  26.520  1.00  0.00     0.163 HD
ENDROOT
BRANCH   1   5
ATOM      5  C   UNL A   1      33.982  22.291  25.040  1.00  0.00     0.172 C 
ATOM      6  C   UNL A   1      34.713  23.563  25.511  1.00  0.00     0.090 C 
BRANCH   5   7
ATOM      7  C   UNL A   1      33.775  22.580  23.497  1.00  0.00     0.075 C 
ATOM      8  C   UNL A   1      32.292  22.503  23.047  1.00  0.00     0.011 C 
ENDBRANCH   5   7
BRANCH   5   9
ATOM      9  N   UNL A   1      32.719  22.270  25.782  1.00  0.00    -0.326 N 
ATOM     10  H   UNL A   1      32.706  21.392  26.299  1.00  0.00     0.347 HD
ATOM     11  H   UNL A   1      32.035  22.422  25.041  1.00  0.00     0.347 HD
BRANCH   9  12
ATOM     12  C   UNL A   1      32.361  23.328  26.756  1.00  0.00     0.362 C 
BRANCH  12  13
ATOM     13  C   UNL A   1      31.125  24.288  26.752  1.00  0.00     0.275 C 
ATOM     14  O   UNL A   1      30.052  23.796  27.154  1.00  0.00    -0.268 OA
ATOM     15  N   UNL A   1      31.023  25.637  26.558  1.00  0.00    -0.345 N 
ATOM     16  H   UNL A   1      30.271  26.011  27.070  1.00  0.00     0.164 HD
BRANCH  15  17
ATOM     17  C   UNL A   1      31.723  26.689  25.800  1.00  0.00     0.109 C 
ATOM     18  C   UNL A   1      33.044  27.049  26.501  1.00  0.00     0.036 C 
BRANCH  17  19
ATOM     19  C   UNL A   1      31.988  26.414  24.323  1.00  0.00    -0.026 A 
ATOM     20  C   UNL A   1      33.325  26.438  23.860  1.00  0.00     0.009 A 
ATOM     21  C   UNL A   1      30.972  26.173  23.389  1.00  0.00     0.009 A 
ATOM     22  C   UNL A   1      33.638  26.187  22.523  1.00  0.00     0.039 A 
ATOM     23  C   UNL A   1      31.284  25.946  22.042  1.00  0.00     0.039 A 
ATOM     24  C   UNL A   1      32.611  25.944  21.625  1.00  0.00     0.123 A 
ATOM     25  F   UNL A   1      32.903  25.714  20.339  1.00  0.00    -0.207 F 
ENDBRANCH  17  19
ENDBRANCH  15  17
ENDBRANCH  12  13
ENDBRANCH   9  12
ENDBRANCH   5   9
ENDBRANCH   1   5
BRANCH   3  26
ATOM     26  C   UNL A   1      37.127  20.718  24.809  1.00  0.00     0.118 C 
BRANCH  26  27
ATOM     27  C   UNL A   1      38.116  19.575  24.990  1.00  0.00     0.042 C 
BRANCH  27  28
ATOM     28  C   UNL A   1      39.345  19.986  25.781  1.00  0.00     0.118 C 
BRANCH  28  29
ATOM     29  N   UNL A   1      40.338  18.917  25.891  1.00  0.00    -0.352 N 
ATOM     30  C   UNL A   1      41.697  18.979  26.099  1.00  0.00     0.251 C 
ATOM     31  H   UNL A   1      39.975  18.006  25.801  1.00  0.00     0.163 HD
ATOM     32  O   UNL A   1      42.379  17.960  26.004  1.00  0.00    -0.269 OA
BRANCH  30  33
ATOM     33  C   UNL A   1      42.341  20.276  26.400  1.00  0.00     0.039 A 
ATOM     34  C   UNL A   1      42.976  20.986  25.376  1.00  0.00     0.014 A 
ATOM     35  C   UNL A   1      42.277  20.814  27.685  1.00  0.00     0.014 A 
ATOM     36  C   UNL A   1      43.439  22.282  25.620  1.00  0.00     0.010 A 
ATOM     37  C   UNL A   1      42.625  22.141  27.893  1.00  0.00     0.010 A 
ATOM     38  C   UNL A   1      43.206  22.893  26.863  1.00  0.00    -0.014 A 
BRANCH  38  39
ATOM     39  C   UNL A   1      43.550  24.313  27.124  1.00  0.00     0.031 A 
ATOM     40  C   UNL A   1      44.983  24.764  27.036  1.00  0.00     0.074 A 
ATOM     41  C   UNL A   1      42.594  25.169  27.540  1.00  0.00     0.049 A 
ATOM     42  N   UNL A   1      45.508  25.915  27.363  1.00  0.00    -0.248 NA
ATOM     43  C   UNL A   1      45.962  23.774  26.555  1.00  0.00     0.031 C 
ATOM     44  C   UNL A   1      41.179  24.836  27.716  1.00  0.00     0.029 A 
ATOM     45  N   UNL A   1      42.671  26.490  27.904  1.00  0.00    -0.354 N 
ATOM     46  C   UNL A   1      46.874  25.780  27.148  1.00  0.00     0.074 A 
ATOM     47  C   UNL A   1      47.106  24.418  26.726  1.00  0.00     0.031 C 
ATOM     48  C   UNL A   1      40.516  25.933  28.119  1.00  0.00     0.029 A 
ATOM     49  C   UNL A   1      41.464  27.029  28.281  1.00  0.00     0.049 A 
ATOM     50  H   UNL A   1      43.511  27.003  27.896  1.00  0.00     0.167 HD
ATOM     51  C   UNL A   1      47.842  26.718  27.262  1.00  0.00     0.037 A 
ATOM     52  C   UNL A   1      41.156  28.267  28.716  1.00  0.00     0.037 A 
ATOM     53  C   UNL A   1      47.596  28.083  27.641  1.00  0.00     0.049 A 
ATOM     54  C   UNL A   1      42.250  29.290  28.840  1.00  0.00     0.074 A 
ATOM     55  C   UNL A   1      48.500  29.127  27.722  1.00  0.00     0.029 A 
ATOM     56  N   UNL A   1      46.357  28.592  27.996  1.00  0.00    -0.354 N 
ATOM     57  N   UNL A   1      43.529  29.163  28.581  1.00  0.00    -0.248 NA
ATOM     58  C   UNL A   1      41.864  30.626  29.316  1.00  0.00     0.031 C 
ATOM     59  C   UNL A   1      47.815  30.258  28.170  1.00  0.00     0.029 A 
ATOM     60  C   UNL A   1      46.477  29.933  28.318  1.00  0.00     0.049 A 
ATOM     61  H   UNL A   1      45.518  28.078  28.017  1.00  0.00     0.167 HD
ATOM     62  C   UNL A   1      44.095  30.404  28.838  1.00  0.00     0.074 A 
ATOM     63  C   UNL A   1      43.020  31.275  29.265  1.00  0.00     0.031 C 
ATOM     64  C   UNL A   1      45.391  30.787  28.729  1.00  0.00     0.037 A 
BRANCH  51  65
ATOM     65  C   UNL A   1      49.253  26.310  26.951  1.00  0.00     0.057 A 
ATOM     66  C   UNL A   1      50.118  25.887  27.968  1.00  0.00     0.134 A 
ATOM     67  C   UNL A   1      49.775  26.399  25.653  1.00  0.00     0.134 A 
ATOM     68  F   UNL A   1      49.685  25.785  29.234  1.00  0.00    -0.206 F 
ATOM     69  C   UNL A   1      51.454  25.578  27.708  1.00  0.00     0.040 A 
ATOM     70  C   UNL A   1      51.101  26.065  25.376  1.00  0.00     0.040 A 
ATOM     71  F   UNL A   1      48.996  26.784  24.632  1.00  0.00    -0.206 F 
ATOM     72  C   UNL A   1      51.948  25.665  26.407  1.00  0.00     0.006 A 
ENDBRANCH  51  65
BRANCH  52  73
ATOM     73  C   UNL A   1      39.745  28.608  29.030  1.00  0.00     0.057 A 
ATOM     74  C   UNL A   1      38.882  29.138  28.063  1.00  0.00     0.134 A 
ATOM     75  C   UNL A   1      39.237  28.443  30.325  1.00  0.00     0.134 A 
ATOM     76  F   UNL A   1      39.308  29.328  26.806  1.00  0.00    -0.206 F 
ATOM     77  C   UNL A   1      37.572  29.509  28.375  1.00  0.00     0.040 A 
ATOM     78  C   UNL A   1      37.923  28.787  30.646  1.00  0.00     0.040 A 
ATOM     79  F   UNL A   1      40.010  27.925  31.290  1.00  0.00    -0.206 F 
ATOM     80  C   UNL A   1      37.089  29.331  29.670  1.00  0.00     0.006 A 
ENDBRANCH  52  73
BRANCH  64  81
ATOM     81  C   UNL A   1      45.730  32.211  29.051  1.00  0.00     0.057 A 
ATOM     82  C   UNL A   1      45.703  33.191  28.049  1.00  0.00     0.134 A 
ATOM     83  C   UNL A   1      46.190  32.589  30.317  1.00  0.00     0.134 A 
ATOM     84  F   UNL A   1      45.285  32.887  26.810  1.00  0.00    -0.206 F 
ATOM     85  C   UNL A   1      46.147  34.491  28.290  1.00  0.00     0.040 A 
ATOM     86  C   UNL A   1      46.613  33.894  30.577  1.00  0.00     0.040 A 
ATOM     87  F   UNL A   1      46.231  31.700  31.320  1.00  0.00    -0.206 F 
ATOM     88  C   UNL A   1      46.604  34.845  29.556  1.00  0.00     0.006 A 
ENDBRANCH  64  81
ENDBRANCH  38  39
ENDBRANCH  30  33
ENDBRANCH  28  29
ENDBRANCH  27  28
ENDBRANCH  26  27
ENDBRANCH   3  26
TORSDOF 16
ENDMDL
