MODEL 1
REMARK VINA RESULT:     -11.2      0.000      0.000
REMARK SMILES CC(C)C[C@H](C(=O)NCCCNC(=O)c1ccc(-c2c3nc(c(-c4c(F)cccc4F)c4ccc([nH]4)c(-c4c(F)cccc4F)c4nc(c(-c5c(F)cccc5F)c5ccc2[nH]5)C=C4)C=C3)cc1)[C@@H]1CCO[C@]2(CCOC2)C1
REMARK SMILES IDX 10 1 9 2 8 3 6 4 7 5 5 7 4 8 2 9 1 10 3 11 69 12 70 13 78 14
REMARK SMILES IDX 71 15 73 16 72 17 74 18 77 19 75 20 76 21 11 22 12 23 13 24
REMARK SMILES IDX 14 26 15 27 16 28 68 29 17 30 67 31 18 32 19 33 20 34 61 35
REMARK SMILES IDX 21 36 66 37 60 38 62 39 22 40 65 41 59 42 58 43 23 45 49 46
REMARK SMILES IDX 32 47 48 48 33 49 36 50 47 51 63 52 34 53 35 54 46 56 64 57
REMARK SMILES IDX 37 58 24 59 25 60 30 61 26 62 27 63 29 64 31 65 28 66 50 67
REMARK SMILES IDX 51 68 56 69 52 70 53 71 55 72 57 73 54 74 38 75 39 76 44 77
REMARK SMILES IDX 40 78 41 79 43 80 45 81 42 82
REMARK H PARENT 8 6 12 25 62 44 36 55
REMARK Flexibility Score: inf
ROOT
ATOM      1  C   UNL A   1      32.303  27.993  27.393  1.00  0.00     0.042 C 
ENDROOT
BRANCH   1   2
ATOM      2  C   UNL A   1      32.034  26.905  26.348  1.00  0.00     0.117 C 
BRANCH   2   3
ATOM      3  N   UNL A   1      31.346  25.751  26.918  1.00  0.00    -0.356 N 
ATOM      4  C   UNL A   1      31.452  24.407  26.665  1.00  0.00     0.223 C 
ATOM      5  O   UNL A   1      30.635  23.668  27.216  1.00  0.00    -0.275 OA
ATOM      6  H   UNL A   1      30.686  25.979  27.612  1.00  0.00     0.163 HD
BRANCH   4   7
ATOM      7  C   UNL A   1      32.565  23.860  25.733  1.00  0.00     0.082 C 
BRANCH   7   8
ATOM      8  C   UNL A   1      33.616  23.053  26.591  1.00  0.00     0.016 C 
BRANCH   8   9
ATOM      9  C   UNL A   1      35.143  23.031  26.333  1.00  0.00    -0.017 C 
ATOM     10  C   UNL A   1      35.628  21.721  25.706  1.00  0.00     0.007 C 
ATOM     11  C   UNL A   1      35.528  24.113  25.309  1.00  0.00     0.007 C 
ENDBRANCH   8   9
ENDBRANCH   7   8
BRANCH   7  12
ATOM     12  C   UNL A   1      31.924  23.376  24.396  1.00  0.00     0.007 C 
ATOM     13  C   UNL A   1      32.541  22.243  23.608  1.00  0.00     0.033 C 
ATOM     14  C   UNL A   1      31.445  24.468  23.431  1.00  0.00     0.042 C 
ATOM     15  C   UNL A   1      33.307  22.639  22.356  1.00  0.00     0.161 C 
ATOM     16  C   UNL A   1      32.546  25.006  22.525  1.00  0.00     0.094 C 
ATOM     17  O   UNL A   1      33.401  24.007  21.985  1.00  0.00    -0.372 OA
ATOM     18  C   UNL A   1      33.353  26.105  23.219  1.00  0.00     0.066 C 
ATOM     19  C   UNL A   1      31.965  25.824  21.368  1.00  0.00     0.195 C 
ATOM     20  C   UNL A   1      32.672  27.412  22.862  1.00  0.00     0.163 C 
ATOM     21  O   UNL A   1      31.660  27.118  21.899  1.00  0.00    -0.378 OA
ENDBRANCH   7  12
ENDBRANCH   4   7
ENDBRANCH   2   3
ENDBRANCH   1   2
BRANCH   1  22
ATOM     22  C   UNL A   1      33.681  28.634  27.284  1.00  0.00     0.118 C 
BRANCH  22  23
ATOM     23  N   UNL A   1      33.670  30.034  27.673  1.00  0.00    -0.352 N 
ATOM     24  C   UNL A   1      34.633  30.767  28.318  1.00  0.00     0.251 C 
ATOM     25  H   UNL A   1      32.851  30.529  27.440  1.00  0.00     0.163 HD
ATOM     26  O   UNL A   1      34.354  31.891  28.749  1.00  0.00    -0.269 OA
BRANCH  24  27
ATOM     27  C   UNL A   1      35.995  30.225  28.526  1.00  0.00     0.039 A 
ATOM     28  C   UNL A   1      36.902  30.250  27.462  1.00  0.00     0.014 A 
ATOM     29  C   UNL A   1      36.377  29.666  29.749  1.00  0.00     0.014 A 
ATOM     30  C   UNL A   1      38.203  29.771  27.641  1.00  0.00     0.010 A 
ATOM     31  C   UNL A   1      37.697  29.265  29.951  1.00  0.00     0.010 A 
ATOM     32  C   UNL A   1      38.623  29.307  28.898  1.00  0.00    -0.014 A 
BRANCH  32  33
ATOM     33  C   UNL A   1      40.021  28.857  29.130  1.00  0.00     0.031 A 
ATOM     34  C   UNL A   1      41.025  29.789  29.753  1.00  0.00     0.074 A 
ATOM     35  C   UNL A   1      40.406  27.632  28.720  1.00  0.00     0.049 A 
ATOM     36  N   UNL A   1      42.304  29.609  29.962  1.00  0.00    -0.248 NA
ATOM     37  C   UNL A   1      40.531  31.110  30.175  1.00  0.00     0.031 C 
ATOM     38  C   UNL A   1      39.541  26.649  28.065  1.00  0.00     0.029 A 
ATOM     39  N   UNL A   1      41.628  27.009  28.781  1.00  0.00    -0.354 N 
ATOM     40  C   UNL A   1      42.769  30.794  30.518  1.00  0.00     0.074 A 
ATOM     41  C   UNL A   1      41.646  31.705  30.569  1.00  0.00     0.031 C 
ATOM     42  C   UNL A   1      40.254  25.541  27.802  1.00  0.00     0.029 A 
ATOM     43  C   UNL A   1      41.634  25.751  28.229  1.00  0.00     0.049 A 
ATOM     44  H   UNL A   1      42.425  27.426  29.182  1.00  0.00     0.167 HD
ATOM     45  C   UNL A   1      44.013  31.091  30.965  1.00  0.00     0.037 A 
ATOM     46  C   UNL A   1      42.641  24.870  28.070  1.00  0.00     0.037 A 
ATOM     47  C   UNL A   1      45.122  30.173  30.937  1.00  0.00     0.049 A 
ATOM     48  C   UNL A   1      44.018  25.230  28.559  1.00  0.00     0.074 A 
ATOM     49  C   UNL A   1      46.403  30.355  31.430  1.00  0.00     0.029 A 
ATOM     50  N   UNL A   1      45.084  28.903  30.381  1.00  0.00    -0.354 N 
ATOM     51  N   UNL A   1      44.423  26.327  29.152  1.00  0.00    -0.248 NA
ATOM     52  C   UNL A   1      45.075  24.230  28.360  1.00  0.00     0.031 C 
ATOM     53  C   UNL A   1      47.154  29.216  31.125  1.00  0.00     0.029 A 
ATOM     54  C   UNL A   1      46.328  28.303  30.490  1.00  0.00     0.049 A 
ATOM     55  H   UNL A   1      44.292  28.490  29.968  1.00  0.00     0.167 HD
ATOM     56  C   UNL A   1      45.772  26.136  29.422  1.00  0.00     0.074 A 
ATOM     57  C   UNL A   1      46.112  24.814  28.942  1.00  0.00     0.031 C 
ATOM     58  C   UNL A   1      46.650  26.982  30.016  1.00  0.00     0.037 A 
BRANCH  45  59
ATOM     59  C   UNL A   1      44.245  32.466  31.521  1.00  0.00     0.057 A 
ATOM     60  C   UNL A   1      44.651  33.536  30.712  1.00  0.00     0.134 A 
ATOM     61  C   UNL A   1      44.017  32.735  32.878  1.00  0.00     0.134 A 
ATOM     62  F   UNL A   1      44.898  33.346  29.407  1.00  0.00    -0.206 F 
ATOM     63  C   UNL A   1      44.848  34.814  31.236  1.00  0.00     0.040 A 
ATOM     64  C   UNL A   1      44.181  34.017  33.406  1.00  0.00     0.040 A 
ATOM     65  F   UNL A   1      43.618  31.760  33.708  1.00  0.00    -0.206 F 
ATOM     66  C   UNL A   1      44.604  35.060  32.586  1.00  0.00     0.006 A 
ENDBRANCH  45  59
BRANCH  46  67
ATOM     67  C   UNL A   1      42.388  23.555  27.425  1.00  0.00     0.057 A 
ATOM     68  C   UNL A   1      42.027  22.436  28.183  1.00  0.00     0.134 A 
ATOM     69  C   UNL A   1      42.518  23.382  26.042  1.00  0.00     0.134 A 
ATOM     70  F   UNL A   1      41.905  22.533  29.515  1.00  0.00    -0.206 F 
ATOM     71  C   UNL A   1      41.827  21.186  27.594  1.00  0.00     0.040 A 
ATOM     72  C   UNL A   1      42.294  22.144  25.435  1.00  0.00     0.040 A 
ATOM     73  F   UNL A   1      42.854  24.416  25.256  1.00  0.00    -0.206 F 
ATOM     74  C   UNL A   1      41.956  21.039  26.215  1.00  0.00     0.006 A 
ENDBRANCH  46  67
BRANCH  58  75
ATOM     75  C   UNL A   1      48.056  26.491  30.211  1.00  0.00     0.057 A 
ATOM     76  C   UNL A   1      49.062  26.727  29.266  1.00  0.00     0.134 A 
ATOM     77  C   UNL A   1      48.415  25.814  31.384  1.00  0.00     0.134 A 
ATOM     78  F   UNL A   1      48.780  27.358  28.115  1.00  0.00    -0.206 F 
ATOM     79  C   UNL A   1      50.371  26.290  29.471  1.00  0.00     0.040 A 
ATOM     80  C   UNL A   1      49.727  25.397  31.613  1.00  0.00     0.040 A 
ATOM     81  F   UNL A   1      47.502  25.563  32.334  1.00  0.00    -0.206 F 
ATOM     82  C   UNL A   1      50.708  25.631  30.652  1.00  0.00     0.006 A 
ENDBRANCH  58  75
ENDBRANCH  32  33
ENDBRANCH  24  27
ENDBRANCH  22  23
ENDBRANCH   1  22
TORSDOF 13
ENDMDL
MODEL 2
REMARK VINA RESULT:     -11.2      1.106      2.558
REMARK SMILES CC(C)C[C@H](C(=O)NCCCNC(=O)c1ccc(-c2c3nc(c(-c4c(F)cccc4F)c4ccc([nH]4)c(-c4c(F)cccc4F)c4nc(c(-c5c(F)cccc5F)c5ccc2[nH]5)C=C4)C=C3)cc1)[C@@H]1CCO[C@]2(CCOC2)C1
REMARK SMILES IDX 10 1 9 2 8 3 6 4 7 5 5 7 4 8 2 9 1 10 3 11 69 12 70 13 78 14
REMARK SMILES IDX 71 15 73 16 72 17 74 18 77 19 75 20 76 21 11 22 12 23 13 24
REMARK SMILES IDX 14 26 15 27 16 28 68 29 17 30 67 31 18 32 19 33 20 34 61 35
REMARK SMILES IDX 21 36 66 37 60 38 62 39 22 40 65 41 59 42 58 43 23 45 49 46
REMARK SMILES IDX 32 47 48 48 33 49 36 50 47 51 63 52 34 53 35 54 46 56 64 57
REMARK SMILES IDX 37 58 24 59 25 60 30 61 26 62 27 63 29 64 31 65 28 66 50 67
REMARK SMILES IDX 51 68 56 69 52 70 53 71 55 72 57 73 54 74 38 75 39 76 44 77
REMARK SMILES IDX 40 78 41 79 43 80 45 81 42 82
REMARK H PARENT 8 6 12 25 62 44 36 55
REMARK Flexibility Score: inf
ROOT
ATOM      1  C   UNL A   1      33.688  28.313  25.618  1.00  0.00     0.042 C 
ENDROOT
BRANCH   1   2
ATOM      2  C   UNL A   1      33.733  26.866  25.114  1.00  0.00     0.117 C 
BRANCH   2   3
ATOM      3  N   UNL A   1      33.826  26.791  23.659  1.00  0.00    -0.356 N 
ATOM      4  C   UNL A   1      33.418  25.834  22.766  1.00  0.00     0.223 C 
ATOM      5  O   UNL A   1      33.755  25.986  21.591  1.00  0.00    -0.275 OA
ATOM      6  H   UNL A   1      34.260  27.571  23.244  1.00  0.00     0.163 HD
BRANCH   4   7
ATOM      7  C   UNL A   1      32.560  24.628  23.230  1.00  0.00     0.082 C 
BRANCH   7   8
ATOM      8  C   UNL A   1      31.031  25.006  23.138  1.00  0.00     0.016 C 
BRANCH   8   9
ATOM      9  C   UNL A   1      30.177  25.544  24.313  1.00  0.00    -0.017 C 
ATOM     10  C   UNL A   1      30.730  25.152  25.686  1.00  0.00     0.007 C 
ATOM     11  C   UNL A   1      30.187  27.083  24.320  1.00  0.00     0.007 C 
ENDBRANCH   8   9
ENDBRANCH   7   8
BRANCH   7  12
ATOM     12  C   UNL A   1      33.201  23.308  22.700  1.00  0.00     0.007 C 
ATOM     13  C   UNL A   1      32.403  22.025  22.655  1.00  0.00     0.033 C 
ATOM     14  C   UNL A   1      34.631  23.005  23.165  1.00  0.00     0.042 C 
ATOM     15  C   UNL A   1      32.727  20.999  23.729  1.00  0.00     0.161 C 
ATOM     16  C   UNL A   1      34.696  22.307  24.518  1.00  0.00     0.094 C 
ATOM     17  O   UNL A   1      33.736  21.273  24.691  1.00  0.00    -0.372 OA
ATOM     18  C   UNL A   1      34.636  23.313  25.669  1.00  0.00     0.066 C 
ATOM     19  C   UNL A   1      36.088  21.724  24.777  1.00  0.00     0.195 C 
ATOM     20  C   UNL A   1      36.075  23.670  25.988  1.00  0.00     0.163 C 
ATOM     21  O   UNL A   1      36.910  22.813  25.209  1.00  0.00    -0.378 OA
ENDBRANCH   7  12
ENDBRANCH   4   7
ENDBRANCH   2   3
ENDBRANCH   1   2
BRANCH   1  22
ATOM     22  C   UNL A   1      33.779  28.447  27.133  1.00  0.00     0.118 C 
BRANCH  22  23
ATOM     23  N   UNL A   1      33.722  29.833  27.568  1.00  0.00    -0.352 N 
ATOM     24  C   UNL A   1      34.654  30.571  28.252  1.00  0.00     0.251 C 
ATOM     25  H   UNL A   1      32.893  30.312  27.338  1.00  0.00     0.163 HD
ATOM     26  O   UNL A   1      34.337  31.671  28.714  1.00  0.00    -0.269 OA
BRANCH  24  27
ATOM     27  C   UNL A   1      36.028  30.060  28.463  1.00  0.00     0.039 A 
ATOM     28  C   UNL A   1      36.958  30.172  27.425  1.00  0.00     0.014 A 
ATOM     29  C   UNL A   1      36.399  29.447  29.663  1.00  0.00     0.014 A 
ATOM     30  C   UNL A   1      38.269  29.724  27.610  1.00  0.00     0.010 A 
ATOM     31  C   UNL A   1      37.726  29.076  29.876  1.00  0.00     0.010 A 
ATOM     32  C   UNL A   1      38.675  29.205  28.850  1.00  0.00    -0.014 A 
BRANCH  32  33
ATOM     33  C   UNL A   1      40.080  28.786  29.092  1.00  0.00     0.031 A 
ATOM     34  C   UNL A   1      41.058  29.739  29.726  1.00  0.00     0.074 A 
ATOM     35  C   UNL A   1      40.497  27.572  28.681  1.00  0.00     0.049 A 
ATOM     36  N   UNL A   1      42.339  29.587  29.945  1.00  0.00    -0.248 NA
ATOM     37  C   UNL A   1      40.530  31.046  30.148  1.00  0.00     0.031 C 
ATOM     38  C   UNL A   1      39.660  26.571  28.015  1.00  0.00     0.029 A 
ATOM     39  N   UNL A   1      41.732  26.977  28.749  1.00  0.00    -0.354 N 
ATOM     40  C   UNL A   1      42.772  30.781  30.508  1.00  0.00     0.074 A 
ATOM     41  C   UNL A   1      41.629  31.666  30.554  1.00  0.00     0.031 C 
ATOM     42  C   UNL A   1      40.401  25.482  27.754  1.00  0.00     0.029 A 
ATOM     43  C   UNL A   1      41.772  25.721  28.193  1.00  0.00     0.049 A 
ATOM     44  H   UNL A   1      42.517  27.410  29.158  1.00  0.00     0.167 HD
ATOM     45  C   UNL A   1      44.006  31.105  30.966  1.00  0.00     0.037 A 
ATOM     46  C   UNL A   1      42.800  24.864  28.039  1.00  0.00     0.037 A 
ATOM     47  C   UNL A   1      45.135  30.213  30.945  1.00  0.00     0.049 A 
ATOM     48  C   UNL A   1      44.164  25.254  28.540  1.00  0.00     0.074 A 
ATOM     49  C   UNL A   1      46.407  30.422  31.449  1.00  0.00     0.029 A 
ATOM     50  N   UNL A   1      45.131  28.944  30.383  1.00  0.00    -0.354 N 
ATOM     51  N   UNL A   1      44.539  26.358  29.141  1.00  0.00    -0.248 NA
ATOM     52  C   UNL A   1      45.245  24.279  28.346  1.00  0.00     0.031 C 
ATOM     53  C   UNL A   1      47.188  29.302  31.145  1.00  0.00     0.029 A 
ATOM     54  C   UNL A   1      46.388  28.372  30.501  1.00  0.00     0.049 A 
ATOM     55  H   UNL A   1      44.352  28.515  29.963  1.00  0.00     0.167 HD
ATOM     56  C   UNL A   1      45.890  26.197  29.421  1.00  0.00     0.074 A 
ATOM     57  C   UNL A   1      46.264  24.885  28.939  1.00  0.00     0.031 C 
ATOM     58  C   UNL A   1      46.744  27.060  30.025  1.00  0.00     0.037 A 
BRANCH  45  59
ATOM     59  C   UNL A   1      44.201  32.483  31.529  1.00  0.00     0.057 A 
ATOM     60  C   UNL A   1      44.018  32.761  32.890  1.00  0.00     0.134 A 
ATOM     61  C   UNL A   1      44.622  33.537  30.707  1.00  0.00     0.134 A 
ATOM     62  F   UNL A   1      43.606  31.801  33.732  1.00  0.00    -0.206 F 
ATOM     63  C   UNL A   1      44.219  34.042  33.408  1.00  0.00     0.040 A 
ATOM     64  C   UNL A   1      44.856  34.814  31.219  1.00  0.00     0.040 A 
ATOM     65  F   UNL A   1      44.826  33.339  29.396  1.00  0.00    -0.206 F 
ATOM     66  C   UNL A   1      44.647  35.072  32.572  1.00  0.00     0.006 A 
ENDBRANCH  45  59
BRANCH  46  67
ATOM     67  C   UNL A   1      42.582  23.547  27.387  1.00  0.00     0.057 A 
ATOM     68  C   UNL A   1      42.206  22.424  28.134  1.00  0.00     0.134 A 
ATOM     69  C   UNL A   1      42.762  23.373  26.010  1.00  0.00     0.134 A 
ATOM     70  F   UNL A   1      42.037  22.522  29.461  1.00  0.00    -0.206 F 
ATOM     71  C   UNL A   1      42.039  21.172  27.540  1.00  0.00     0.040 A 
ATOM     72  C   UNL A   1      42.571  22.133  25.397  1.00  0.00     0.040 A 
ATOM     73  F   UNL A   1      43.115  24.410  25.235  1.00  0.00    -0.206 F 
ATOM     74  C   UNL A   1      42.218  21.025  26.167  1.00  0.00     0.006 A 
ENDBRANCH  46  67
BRANCH  58  75
ATOM     75  C   UNL A   1      48.158  26.601  30.229  1.00  0.00     0.057 A 
ATOM     76  C   UNL A   1      49.173  26.889  29.308  1.00  0.00     0.134 A 
ATOM     77  C   UNL A   1      48.517  25.902  31.389  1.00  0.00     0.134 A 
ATOM     78  F   UNL A   1      48.892  27.544  28.170  1.00  0.00    -0.206 F 
ATOM     79  C   UNL A   1      50.490  26.481  29.523  1.00  0.00     0.040 A 
ATOM     80  C   UNL A   1      49.836  25.513  31.629  1.00  0.00     0.040 A 
ATOM     81  F   UNL A   1      47.597  25.601  32.317  1.00  0.00    -0.206 F 
ATOM     82  C   UNL A   1      50.826  25.799  30.690  1.00  0.00     0.006 A 
ENDBRANCH  58  75
ENDBRANCH  32  33
ENDBRANCH  24  27
ENDBRANCH  22  23
ENDBRANCH   1  22
TORSDOF 13
ENDMDL
MODEL 3
REMARK VINA RESULT:     -11.1      1.856      2.595
REMARK SMILES CC(C)C[C@H](C(=O)NCCCNC(=O)c1ccc(-c2c3nc(c(-c4c(F)cccc4F)c4ccc([nH]4)c(-c4c(F)cccc4F)c4nc(c(-c5c(F)cccc5F)c5ccc2[nH]5)C=C4)C=C3)cc1)[C@@H]1CCO[C@]2(CCOC2)C1
REMARK SMILES IDX 10 1 9 2 8 3 6 4 7 5 5 7 4 8 2 9 1 10 3 11 69 12 70 13 78 14
REMARK SMILES IDX 71 15 73 16 72 17 74 18 77 19 75 20 76 21 11 22 12 23 13 24
REMARK SMILES IDX 14 26 15 27 16 28 68 29 17 30 67 31 18 32 19 33 20 34 61 35
REMARK SMILES IDX 21 36 66 37 60 38 62 39 22 40 65 41 59 42 58 43 23 45 49 46
REMARK SMILES IDX 32 47 48 48 33 49 36 50 47 51 63 52 34 53 35 54 46 56 64 57
REMARK SMILES IDX 37 58 24 59 25 60 30 61 26 62 27 63 29 64 31 65 28 66 50 67
REMARK SMILES IDX 51 68 56 69 52 70 53 71 55 72 57 73 54 74 38 75 39 76 44 77
REMARK SMILES IDX 40 78 41 79 43 80 45 81 42 82
REMARK H PARENT 8 6 12 25 62 44 36 55
REMARK Flexibility Score: inf
ROOT
ATOM      1  C   UNL A   1      33.270  27.709  26.853  1.00  0.00     0.042 C 
ENDROOT
BRANCH   1   2
ATOM      2  C   UNL A   1      31.998  27.265  26.121  1.00  0.00     0.117 C 
BRANCH   2   3
ATOM      3  N   UNL A   1      31.362  26.121  26.767  1.00  0.00    -0.356 N 
ATOM      4  C   UNL A   1      31.507  24.770  26.581  1.00  0.00     0.223 C 
ATOM      5  O   UNL A   1      30.727  24.035  27.190  1.00  0.00    -0.275 OA
ATOM      6  H   UNL A   1      30.709  26.364  27.463  1.00  0.00     0.163 HD
BRANCH   4   7
ATOM      7  C   UNL A   1      32.617  24.210  25.654  1.00  0.00     0.082 C 
BRANCH   7   8
ATOM      8  C   UNL A   1      33.716  23.491  26.528  1.00  0.00     0.016 C 
BRANCH   8   9
ATOM      9  C   UNL A   1      35.218  23.395  26.163  1.00  0.00    -0.017 C 
ATOM     10  C   UNL A   1      35.638  21.994  25.710  1.00  0.00     0.007 C 
ATOM     11  C   UNL A   1      35.534  24.299  24.958  1.00  0.00     0.007 C 
ENDBRANCH   8   9
ENDBRANCH   7   8
BRANCH   7  12
ATOM     12  C   UNL A   1      31.963  23.630  24.362  1.00  0.00     0.007 C 
ATOM     13  C   UNL A   1      32.620  22.500  23.604  1.00  0.00     0.033 C 
ATOM     14  C   UNL A   1      31.389  24.647  23.368  1.00  0.00     0.042 C 
ATOM     15  C   UNL A   1      33.320  22.881  22.310  1.00  0.00     0.161 C 
ATOM     16  C   UNL A   1      32.426  25.206  22.402  1.00  0.00     0.094 C 
ATOM     17  O   UNL A   1      33.321  24.235  21.876  1.00  0.00    -0.372 OA
ATOM     18  C   UNL A   1      33.189  26.380  23.017  1.00  0.00     0.066 C 
ATOM     19  C   UNL A   1      31.761  25.935  21.231  1.00  0.00     0.195 C 
ATOM     20  C   UNL A   1      32.420  27.628  22.628  1.00  0.00     0.163 C 
ATOM     21  O   UNL A   1      31.396  27.232  21.715  1.00  0.00    -0.378 OA
ENDBRANCH   7  12
ENDBRANCH   4   7
ENDBRANCH   2   3
ENDBRANCH   1   2
BRANCH   1  22
ATOM     22  C   UNL A   1      34.089  28.750  26.100  1.00  0.00     0.118 C 
BRANCH  22  23
ATOM     23  N   UNL A   1      33.820  30.102  26.560  1.00  0.00    -0.352 N 
ATOM     24  C   UNL A   1      34.454  30.835  27.530  1.00  0.00     0.251 C 
ATOM     25  H   UNL A   1      33.072  30.558  26.110  1.00  0.00     0.163 HD
ATOM     26  O   UNL A   1      33.946  31.890  27.923  1.00  0.00    -0.269 OA
BRANCH  24  27
ATOM     27  C   UNL A   1      35.728  30.373  28.127  1.00  0.00     0.039 A 
ATOM     28  C   UNL A   1      35.692  29.664  29.331  1.00  0.00     0.014 A 
ATOM     29  C   UNL A   1      36.958  30.658  27.527  1.00  0.00     0.014 A 
ATOM     30  C   UNL A   1      36.878  29.191  29.900  1.00  0.00     0.010 A 
ATOM     31  C   UNL A   1      38.131  30.117  28.051  1.00  0.00     0.010 A 
ATOM     32  C   UNL A   1      38.106  29.383  29.246  1.00  0.00    -0.014 A 
BRANCH  32  33
ATOM     33  C   UNL A   1      39.371  28.830  29.797  1.00  0.00     0.031 A 
ATOM     34  C   UNL A   1      40.011  29.458  31.006  1.00  0.00     0.074 A 
ATOM     35  C   UNL A   1      39.981  27.804  29.170  1.00  0.00     0.049 A 
ATOM     36  N   UNL A   1      41.150  29.171  31.582  1.00  0.00    -0.248 NA
ATOM     37  C   UNL A   1      39.287  30.574  31.635  1.00  0.00     0.031 C 
ATOM     38  C   UNL A   1      39.487  27.134  27.966  1.00  0.00     0.029 A 
ATOM     39  N   UNL A   1      41.157  27.154  29.451  1.00  0.00    -0.354 N 
ATOM     40  C   UNL A   1      41.287  30.079  32.625  1.00  0.00     0.074 A 
ATOM     41  C   UNL A   1      40.140  30.959  32.572  1.00  0.00     0.031 C 
ATOM     42  C   UNL A   1      40.342  26.157  27.623  1.00  0.00     0.029 A 
ATOM     43  C   UNL A   1      41.465  26.159  28.555  1.00  0.00     0.049 A 
ATOM     44  H   UNL A   1      41.727  27.380  30.222  1.00  0.00     0.167 HD
ATOM     45  C   UNL A   1      42.269  30.161  33.555  1.00  0.00     0.037 A 
ATOM     46  C   UNL A   1      42.540  25.349  28.483  1.00  0.00     0.037 A 
ATOM     47  C   UNL A   1      43.396  29.268  33.622  1.00  0.00     0.049 A 
ATOM     48  C   UNL A   1      43.624  25.471  29.518  1.00  0.00     0.074 A 
ATOM     49  C   UNL A   1      44.406  29.224  34.567  1.00  0.00     0.029 A 
ATOM     50  N   UNL A   1      43.666  28.265  32.702  1.00  0.00    -0.354 N 
ATOM     51  N   UNL A   1      43.701  26.285  30.543  1.00  0.00    -0.248 NA
ATOM     52  C   UNL A   1      44.770  24.560  29.388  1.00  0.00     0.031 C 
ATOM     53  C   UNL A   1      45.315  28.231  34.191  1.00  0.00     0.029 A 
ATOM     54  C   UNL A   1      44.843  27.618  33.041  1.00  0.00     0.049 A 
ATOM     55  H   UNL A   1      43.105  28.046  31.924  1.00  0.00     0.167 HD
ATOM     56  C   UNL A   1      44.885  25.965  31.195  1.00  0.00     0.074 A 
ATOM     57  C   UNL A   1      45.486  24.874  30.458  1.00  0.00     0.031 C 
ATOM     58  C   UNL A   1      45.426  26.526  32.304  1.00  0.00     0.037 A 
BRANCH  45  59
ATOM     59  C   UNL A   1      42.171  31.256  34.578  1.00  0.00     0.057 A 
ATOM     60  C   UNL A   1      42.753  32.514  34.376  1.00  0.00     0.134 A 
ATOM     61  C   UNL A   1      41.448  31.063  35.763  1.00  0.00     0.134 A 
ATOM     62  F   UNL A   1      43.468  32.764  33.269  1.00  0.00    -0.206 F 
ATOM     63  C   UNL A   1      42.642  33.531  35.326  1.00  0.00     0.040 A 
ATOM     64  C   UNL A   1      41.305  32.082  36.706  1.00  0.00     0.040 A 
ATOM     65  F   UNL A   1      40.858  29.886  36.017  1.00  0.00    -0.206 F 
ATOM     66  C   UNL A   1      41.909  33.319  36.492  1.00  0.00     0.006 A 
ENDBRANCH  45  59
BRANCH  46  67
ATOM     67  C   UNL A   1      42.643  24.342  27.394  1.00  0.00     0.057 A 
ATOM     68  C   UNL A   1      43.193  24.674  26.151  1.00  0.00     0.134 A 
ATOM     69  C   UNL A   1      42.178  23.032  27.564  1.00  0.00     0.134 A 
ATOM     70  F   UNL A   1      43.638  25.919  25.921  1.00  0.00    -0.206 F 
ATOM     71  C   UNL A   1      43.257  23.749  25.108  1.00  0.00     0.040 A 
ATOM     72  C   UNL A   1      42.261  22.088  26.538  1.00  0.00     0.040 A 
ATOM     73  F   UNL A   1      41.646  22.646  28.733  1.00  0.00    -0.206 F 
ATOM     74  C   UNL A   1      42.794  22.450  25.302  1.00  0.00     0.006 A 
ENDBRANCH  46  67
BRANCH  58  75
ATOM     75  C   UNL A   1      46.714  25.948  32.811  1.00  0.00     0.057 A 
ATOM     76  C   UNL A   1      46.743  24.894  33.733  1.00  0.00     0.134 A 
ATOM     77  C   UNL A   1      47.943  26.424  32.334  1.00  0.00     0.134 A 
ATOM     78  F   UNL A   1      45.601  24.402  34.239  1.00  0.00    -0.206 F 
ATOM     79  C   UNL A   1      47.947  24.346  34.176  1.00  0.00     0.040 A 
ATOM     80  C   UNL A   1      49.153  25.865  32.749  1.00  0.00     0.040 A 
ATOM     81  F   UNL A   1      47.987  27.426  31.444  1.00  0.00    -0.206 F 
ATOM     82  C   UNL A   1      49.157  24.826  33.677  1.00  0.00     0.006 A 
ENDBRANCH  58  75
ENDBRANCH  32  33
ENDBRANCH  24  27
ENDBRANCH  22  23
ENDBRANCH   1  22
TORSDOF 13
ENDMDL
