MODEL 1
REMARK VINA RESULT:     -10.8      0.000      0.000
REMARK SMILES CSc1ncccc1C(=O)N1CSC[C@H]1C(=O)NCCCNC(=O)c1ccc(-c2c3nc(c(-c4c(F)cccc4F)c4ccc([nH]4)c(-c4c(F)cccc4F)c4nc(c(-c5c(F)cccc5F)c5ccc2[nH]5)C=C4)C=C3)cc1
REMARK SMILES IDX 19 1 18 2 16 3 17 4 15 6 11 7 12 8 13 9 14 10 9 11 10 12
REMARK SMILES IDX 8 13 3 14 4 15 5 16 7 17 6 18 2 19 1 20 20 21 21 22 22 23
REMARK SMILES IDX 23 24 24 26 25 27 26 28 78 29 27 30 77 31 28 32 29 33 30 34
REMARK SMILES IDX 71 35 31 36 76 37 70 38 72 39 32 40 75 41 69 42 68 43 33 45
REMARK SMILES IDX 59 46 42 47 58 48 43 49 46 50 57 51 73 52 44 53 45 54 56 56
REMARK SMILES IDX 74 57 47 58 34 59 35 60 40 61 36 62 37 63 39 64 41 65 38 66
REMARK SMILES IDX 60 67 61 68 66 69 62 70 63 71 65 72 67 73 64 74 48 75 49 76
REMARK SMILES IDX 54 77 50 78 51 79 53 80 55 81 52 82
REMARK H PARENT 18 5 22 25 72 44 46 55
REMARK Flexibility Score: inf
ROOT
ATOM      1  C   UNL A   1      33.998  32.926  28.281  1.00  0.00     0.117 C 
ENDROOT
BRANCH   1   2
ATOM      2  N   UNL A   1      33.915  34.358  28.114  1.00  0.00    -0.354 N 
ATOM      3  C   UNL A   1      33.746  35.356  29.024  1.00  0.00     0.243 C 
ATOM      4  O   UNL A   1      34.007  36.498  28.626  1.00  0.00    -0.273 OA
ATOM      5  H   UNL A   1      33.995  34.665  27.182  1.00  0.00     0.163 HD
BRANCH   3   6
ATOM      6  C   UNL A   1      33.400  35.105  30.508  1.00  0.00     0.185 C 
ATOM      7  N   UNL A   1      34.515  34.884  31.444  1.00  0.00    -0.316 N 
ATOM      8  C   UNL A   1      34.745  35.955  32.387  1.00  0.00     0.190 C 
ATOM      9  S   UNL A   1      33.137  36.724  32.656  1.00  0.00    -0.138 SA
ATOM     10  C   UNL A   1      32.446  36.159  31.068  1.00  0.00     0.106 C 
BRANCH   7  11
ATOM     11  C   UNL A   1      35.079  33.609  31.431  1.00  0.00     0.257 C 
ATOM     12  O   UNL A   1      34.372  32.641  31.700  1.00  0.00    -0.269 OA
BRANCH  11  13
ATOM     13  C   UNL A   1      36.551  33.424  31.257  1.00  0.00     0.072 A 
ATOM     14  C   UNL A   1      37.412  33.053  32.300  1.00  0.00     0.108 A 
ATOM     15  N   UNL A   1      38.761  32.939  32.119  1.00  0.00    -0.249 NA
ATOM     16  C   UNL A   1      39.281  33.249  30.913  1.00  0.00     0.112 A 
ATOM     17  C   UNL A   1      37.147  33.792  30.037  1.00  0.00     0.018 A 
ATOM     18  C   UNL A   1      38.521  33.684  29.851  1.00  0.00     0.021 A 
BRANCH  14  19
ATOM     19  S   UNL A   1      36.902  32.827  33.999  1.00  0.00    -0.109 SA
ATOM     20  C   UNL A   1      37.801  31.322  34.416  1.00  0.00     0.092 C 
ENDBRANCH  14  19
ENDBRANCH  11  13
ENDBRANCH   7  11
ENDBRANCH   3   6
ENDBRANCH   1   2
BRANCH   1  21
ATOM     21  C   UNL A   1      35.248  32.337  27.650  1.00  0.00     0.042 C 
BRANCH  21  22
ATOM     22  C   UNL A   1      35.490  30.882  28.034  1.00  0.00     0.118 C 
BRANCH  22  23
ATOM     23  N   UNL A   1      35.414  30.672  29.476  1.00  0.00    -0.352 N 
ATOM     24  C   UNL A   1      36.305  30.085  30.334  1.00  0.00     0.251 C 
ATOM     25  H   UNL A   1      34.590  31.003  29.900  1.00  0.00     0.163 HD
ATOM     26  O   UNL A   1      35.945  29.800  31.480  1.00  0.00    -0.269 OA
BRANCH  24  27
ATOM     27  C   UNL A   1      37.685  29.785  29.905  1.00  0.00     0.039 A 
ATOM     28  C   UNL A   1      38.642  29.464  30.871  1.00  0.00     0.014 A 
ATOM     29  C   UNL A   1      38.047  29.854  28.557  1.00  0.00     0.014 A 
ATOM     30  C   UNL A   1      39.945  29.153  30.479  1.00  0.00     0.010 A 
ATOM     31  C   UNL A   1      39.321  29.460  28.161  1.00  0.00     0.010 A 
ATOM     32  C   UNL A   1      40.285  29.115  29.118  1.00  0.00    -0.014 A 
BRANCH  32  33
ATOM     33  C   UNL A   1      41.645  28.724  28.672  1.00  0.00     0.031 A 
ATOM     34  C   UNL A   1      41.925  27.304  28.259  1.00  0.00     0.074 A 
ATOM     35  C   UNL A   1      42.640  29.630  28.707  1.00  0.00     0.049 A 
ATOM     36  N   UNL A   1      43.060  26.754  27.913  1.00  0.00    -0.248 NA
ATOM     37  C   UNL A   1      40.784  26.375  28.263  1.00  0.00     0.031 C 
ATOM     38  C   UNL A   1      42.502  31.024  29.131  1.00  0.00     0.029 A 
ATOM     39  N   UNL A   1      43.968  29.511  28.388  1.00  0.00    -0.354 N 
ATOM     40  C   UNL A   1      42.774  25.415  27.678  1.00  0.00     0.074 A 
ATOM     41  C   UNL A   1      41.370  25.223  27.970  1.00  0.00     0.031 C 
ATOM     42  C   UNL A   1      43.690  31.639  29.018  1.00  0.00     0.029 A 
ATOM     43  C   UNL A   1      44.681  30.673  28.556  1.00  0.00     0.049 A 
ATOM     44  H   UNL A   1      44.373  28.672  28.068  1.00  0.00     0.167 HD
ATOM     45  C   UNL A   1      43.601  24.438  27.237  1.00  0.00     0.037 A 
ATOM     46  C   UNL A   1      45.989  30.929  28.364  1.00  0.00     0.037 A 
ATOM     47  C   UNL A   1      44.991  24.640  26.920  1.00  0.00     0.049 A 
ATOM     48  C   UNL A   1      46.888  29.824  27.881  1.00  0.00     0.074 A 
ATOM     49  C   UNL A   1      45.898  23.732  26.405  1.00  0.00     0.029 A 
ATOM     50  N   UNL A   1      45.674  25.835  27.094  1.00  0.00    -0.354 N 
ATOM     51  N   UNL A   1      46.589  28.579  27.597  1.00  0.00    -0.248 NA
ATOM     52  C   UNL A   1      48.304  30.162  27.689  1.00  0.00     0.031 C 
ATOM     53  C   UNL A   1      47.142  24.364  26.310  1.00  0.00     0.029 A 
ATOM     54  C   UNL A   1      46.998  25.680  26.717  1.00  0.00     0.049 A 
ATOM     55  H   UNL A   1      45.277  26.669  27.434  1.00  0.00     0.167 HD
ATOM     56  C   UNL A   1      47.771  27.995  27.163  1.00  0.00     0.074 A 
ATOM     57  C   UNL A   1      48.789  29.025  27.209  1.00  0.00     0.031 C 
ATOM     58  C   UNL A   1      47.994  26.720  26.761  1.00  0.00     0.037 A 
BRANCH  45  59
ATOM     59  C   UNL A   1      43.026  23.061  27.068  1.00  0.00     0.057 A 
ATOM     60  C   UNL A   1      42.744  22.237  28.166  1.00  0.00     0.134 A 
ATOM     61  C   UNL A   1      42.714  22.570  25.794  1.00  0.00     0.134 A 
ATOM     62  F   UNL A   1      43.029  22.643  29.412  1.00  0.00    -0.206 F 
ATOM     63  C   UNL A   1      42.195  20.964  28.001  1.00  0.00     0.040 A 
ATOM     64  C   UNL A   1      42.140  21.309  25.619  1.00  0.00     0.040 A 
ATOM     65  F   UNL A   1      42.953  23.308  24.700  1.00  0.00    -0.206 F 
ATOM     66  C   UNL A   1      41.884  20.500  26.723  1.00  0.00     0.006 A 
ENDBRANCH  45  59
BRANCH  46  67
ATOM     67  C   UNL A   1      46.524  32.293  28.600  1.00  0.00     0.057 A 
ATOM     68  C   UNL A   1      46.570  33.236  27.567  1.00  0.00     0.134 A 
ATOM     69  C   UNL A   1      47.009  32.686  29.854  1.00  0.00     0.134 A 
ATOM     70  F   UNL A   1      46.135  32.914  26.340  1.00  0.00    -0.206 F 
ATOM     71  C   UNL A   1      47.097  34.514  27.764  1.00  0.00     0.040 A 
ATOM     72  C   UNL A   1      47.515  33.969  30.072  1.00  0.00     0.040 A 
ATOM     73  F   UNL A   1      46.985  31.833  30.888  1.00  0.00    -0.206 F 
ATOM     74  C   UNL A   1      47.568  34.884  29.023  1.00  0.00     0.006 A 
ENDBRANCH  46  67
BRANCH  58  75
ATOM     75  C   UNL A   1      49.381  26.378  26.300  1.00  0.00     0.057 A 
ATOM     76  C   UNL A   1      49.838  26.705  25.018  1.00  0.00     0.134 A 
ATOM     77  C   UNL A   1      50.282  25.746  27.167  1.00  0.00     0.134 A 
ATOM     78  F   UNL A   1      49.020  27.299  24.135  1.00  0.00    -0.206 F 
ATOM     79  C   UNL A   1      51.136  26.397  24.606  1.00  0.00     0.040 A 
ATOM     80  C   UNL A   1      51.590  25.458  26.777  1.00  0.00     0.040 A 
ATOM     81  F   UNL A   1      49.910  25.413  28.413  1.00  0.00    -0.206 F 
ATOM     82  C   UNL A   1      52.018  25.778  25.490  1.00  0.00     0.006 A 
ENDBRANCH  58  75
ENDBRANCH  32  33
ENDBRANCH  24  27
ENDBRANCH  22  23
ENDBRANCH  21  22
ENDBRANCH   1  21
TORSDOF 13
ENDMDL
MODEL 2
REMARK VINA RESULT:     -10.6      5.011      9.075
REMARK SMILES CSc1ncccc1C(=O)N1CSC[C@H]1C(=O)NCCCNC(=O)c1ccc(-c2c3nc(c(-c4c(F)cccc4F)c4ccc([nH]4)c(-c4c(F)cccc4F)c4nc(c(-c5c(F)cccc5F)c5ccc2[nH]5)C=C4)C=C3)cc1
REMARK SMILES IDX 19 1 18 2 16 3 17 4 15 6 11 7 12 8 13 9 14 10 9 11 10 12
REMARK SMILES IDX 8 13 3 14 4 15 5 16 7 17 6 18 2 19 1 20 20 21 21 22 22 23
REMARK SMILES IDX 23 24 24 26 25 27 26 28 78 29 27 30 77 31 28 32 29 33 30 34
REMARK SMILES IDX 71 35 31 36 76 37 70 38 72 39 32 40 75 41 69 42 68 43 33 45
REMARK SMILES IDX 59 46 42 47 58 48 43 49 46 50 57 51 73 52 44 53 45 54 56 56
REMARK SMILES IDX 74 57 47 58 34 59 35 60 40 61 36 62 37 63 39 64 41 65 38 66
REMARK SMILES IDX 60 67 61 68 66 69 62 70 63 71 65 72 67 73 64 74 48 75 49 76
REMARK SMILES IDX 54 77 50 78 51 79 53 80 55 81 52 82
REMARK H PARENT 18 5 22 25 72 44 46 55
REMARK Flexibility Score: inf
ROOT
ATOM      1  C   UNL A   1      33.247  28.788  25.007  1.00  0.00     0.117 C 
ENDROOT
BRANCH   1   2
ATOM      2  N   UNL A   1      33.955  28.690  23.752  1.00  0.00    -0.354 N 
ATOM      3  C   UNL A   1      33.683  27.975  22.626  1.00  0.00     0.243 C 
ATOM      4  O   UNL A   1      34.303  28.314  21.610  1.00  0.00    -0.273 OA
ATOM      5  H   UNL A   1      34.774  29.234  23.702  1.00  0.00     0.163 HD
BRANCH   3   6
ATOM      6  C   UNL A   1      32.572  26.906  22.544  1.00  0.00     0.185 C 
ATOM      7  N   UNL A   1      32.690  25.728  23.418  1.00  0.00    -0.316 N 
ATOM      8  C   UNL A   1      31.727  25.663  24.494  1.00  0.00     0.190 C 
ATOM      9  S   UNL A   1      30.260  26.520  23.891  1.00  0.00    -0.138 SA
ATOM     10  C   UNL A   1      31.174  27.512  22.665  1.00  0.00     0.106 C 
BRANCH   7  11
ATOM     11  C   UNL A   1      33.576  24.739  22.993  1.00  0.00     0.257 C 
ATOM     12  O   UNL A   1      33.669  24.496  21.792  1.00  0.00    -0.269 OA
BRANCH  11  13
ATOM     13  C   UNL A   1      34.285  23.870  23.979  1.00  0.00     0.072 A 
ATOM     14  C   UNL A   1      33.928  22.537  24.232  1.00  0.00     0.108 A 
ATOM     15  N   UNL A   1      34.565  21.783  25.176  1.00  0.00    -0.249 NA
ATOM     16  C   UNL A   1      35.529  22.361  25.924  1.00  0.00     0.112 A 
ATOM     17  C   UNL A   1      35.254  24.442  24.823  1.00  0.00     0.018 A 
ATOM     18  C   UNL A   1      35.901  23.680  25.790  1.00  0.00     0.021 A 
BRANCH  14  19
ATOM     19  S   UNL A   1      32.533  21.705  23.483  1.00  0.00    -0.109 SA
ATOM     20  C   UNL A   1      32.255  20.385  24.677  1.00  0.00     0.092 C 
ENDBRANCH  14  19
ENDBRANCH  11  13
ENDBRANCH   7  11
ENDBRANCH   3   6
ENDBRANCH   1   2
BRANCH   1  21
ATOM     21  C   UNL A   1      33.882  27.949  26.102  1.00  0.00     0.042 C 
BRANCH  21  22
ATOM     22  C   UNL A   1      33.519  28.414  27.507  1.00  0.00     0.118 C 
BRANCH  22  23
ATOM     23  N   UNL A   1      33.551  29.867  27.633  1.00  0.00    -0.352 N 
ATOM     24  C   UNL A   1      34.530  30.694  28.115  1.00  0.00     0.251 C 
ATOM     25  H   UNL A   1      32.739  30.328  27.321  1.00  0.00     0.163 HD
ATOM     26  O   UNL A   1      34.264  31.876  28.350  1.00  0.00    -0.269 OA
BRANCH  24  27
ATOM     27  C   UNL A   1      35.894  30.188  28.365  1.00  0.00     0.039 A 
ATOM     28  C   UNL A   1      36.830  30.217  27.328  1.00  0.00     0.014 A 
ATOM     29  C   UNL A   1      36.242  29.649  29.607  1.00  0.00     0.014 A 
ATOM     30  C   UNL A   1      38.130  29.765  27.555  1.00  0.00     0.010 A 
ATOM     31  C   UNL A   1      37.560  29.280  29.857  1.00  0.00     0.010 A 
ATOM     32  C   UNL A   1      38.515  29.326  28.832  1.00  0.00    -0.014 A 
BRANCH  32  33
ATOM     33  C   UNL A   1      39.908  28.901  29.116  1.00  0.00     0.031 A 
ATOM     34  C   UNL A   1      40.858  29.843  29.805  1.00  0.00     0.074 A 
ATOM     35  C   UNL A   1      40.333  27.697  28.692  1.00  0.00     0.049 A 
ATOM     36  N   UNL A   1      42.129  29.685  30.071  1.00  0.00    -0.248 NA
ATOM     37  C   UNL A   1      40.314  31.145  30.223  1.00  0.00     0.031 C 
ATOM     38  C   UNL A   1      39.519  26.715  27.974  1.00  0.00     0.029 A 
ATOM     39  N   UNL A   1      41.562  27.096  28.795  1.00  0.00    -0.354 N 
ATOM     40  C   UNL A   1      42.540  30.870  30.669  1.00  0.00     0.074 A 
ATOM     41  C   UNL A   1      41.397  31.758  30.680  1.00  0.00     0.031 C 
ATOM     42  C   UNL A   1      40.261  25.623  27.727  1.00  0.00     0.029 A 
ATOM     43  C   UNL A   1      41.612  25.845  28.230  1.00  0.00     0.049 A 
ATOM     44  H   UNL A   1      42.335  27.520  29.233  1.00  0.00     0.167 HD
ATOM     45  C   UNL A   1      43.752  31.182  31.182  1.00  0.00     0.037 A 
ATOM     46  C   UNL A   1      42.636  24.977  28.125  1.00  0.00     0.037 A 
ATOM     47  C   UNL A   1      44.878  30.284  31.195  1.00  0.00     0.049 A 
ATOM     48  C   UNL A   1      43.975  25.351  28.697  1.00  0.00     0.074 A 
ATOM     49  C   UNL A   1      46.130  30.480  31.749  1.00  0.00     0.029 A 
ATOM     50  N   UNL A   1      44.886  29.021  30.622  1.00  0.00    -0.354 N 
ATOM     51  N   UNL A   1      44.330  26.448  29.321  1.00  0.00    -0.248 NA
ATOM     52  C   UNL A   1      45.054  24.364  28.554  1.00  0.00     0.031 C 
ATOM     53  C   UNL A   1      46.911  29.354  31.472  1.00  0.00     0.029 A 
ATOM     54  C   UNL A   1      46.130  28.436  30.790  1.00  0.00     0.049 A 
ATOM     55  H   UNL A   1      44.121  28.603  30.165  1.00  0.00     0.167 HD
ATOM     56  C   UNL A   1      45.662  26.271  29.672  1.00  0.00     0.074 A 
ATOM     57  C   UNL A   1      46.047  24.956  29.202  1.00  0.00     0.031 C 
ATOM     58  C   UNL A   1      46.492  27.121  30.325  1.00  0.00     0.037 A 
BRANCH  45  59
ATOM     59  C   UNL A   1      43.926  32.550  31.776  1.00  0.00     0.057 A 
ATOM     60  C   UNL A   1      43.658  32.810  33.127  1.00  0.00     0.134 A 
ATOM     61  C   UNL A   1      44.404  33.611  30.997  1.00  0.00     0.134 A 
ATOM     62  F   UNL A   1      43.186  31.841  33.925  1.00  0.00    -0.206 F 
ATOM     63  C   UNL A   1      43.836  34.082  33.675  1.00  0.00     0.040 A 
ATOM     64  C   UNL A   1      44.612  34.881  31.541  1.00  0.00     0.040 A 
ATOM     65  F   UNL A   1      44.687  33.431  29.698  1.00  0.00    -0.206 F 
ATOM     66  C   UNL A   1      44.323  35.120  32.882  1.00  0.00     0.006 A 
ENDBRANCH  45  59
BRANCH  46  67
ATOM     67  C   UNL A   1      42.430  23.657  27.477  1.00  0.00     0.057 A 
ATOM     68  C   UNL A   1      42.546  23.512  26.090  1.00  0.00     0.134 A 
ATOM     69  C   UNL A   1      42.104  22.516  28.219  1.00  0.00     0.134 A 
ATOM     70  F   UNL A   1      42.841  24.573  25.323  1.00  0.00    -0.206 F 
ATOM     71  C   UNL A   1      42.326  22.285  25.460  1.00  0.00     0.040 A 
ATOM     72  C   UNL A   1      41.906  21.277  27.607  1.00  0.00     0.040 A 
ATOM     73  F   UNL A   1      41.987  22.585  29.554  1.00  0.00    -0.206 F 
ATOM     74  C   UNL A   1      42.009  21.161  26.221  1.00  0.00     0.006 A 
ENDBRANCH  46  67
BRANCH  58  75
ATOM     75  C   UNL A   1      47.884  26.639  30.606  1.00  0.00     0.057 A 
ATOM     76  C   UNL A   1      48.207  25.948  31.781  1.00  0.00     0.134 A 
ATOM     77  C   UNL A   1      48.908  26.838  29.671  1.00  0.00     0.134 A 
ATOM     78  F   UNL A   1      47.275  25.737  32.723  1.00  0.00    -0.206 F 
ATOM     79  C   UNL A   1      49.503  25.490  32.025  1.00  0.00     0.040 A 
ATOM     80  C   UNL A   1      50.201  26.360  29.890  1.00  0.00     0.040 A 
ATOM     81  F   UNL A   1      48.664  27.484  28.521  1.00  0.00    -0.206 F 
ATOM     82  C   UNL A   1      50.502  25.689  31.074  1.00  0.00     0.006 A 
ENDBRANCH  58  75
ENDBRANCH  32  33
ENDBRANCH  24  27
ENDBRANCH  22  23
ENDBRANCH  21  22
ENDBRANCH   1  21
TORSDOF 13
ENDMDL
MODEL 3
REMARK VINA RESULT:     -10.5      5.581     12.780
REMARK SMILES CSc1ncccc1C(=O)N1CSC[C@H]1C(=O)NCCCNC(=O)c1ccc(-c2c3nc(c(-c4c(F)cccc4F)c4ccc([nH]4)c(-c4c(F)cccc4F)c4nc(c(-c5c(F)cccc5F)c5ccc2[nH]5)C=C4)C=C3)cc1
REMARK SMILES IDX 19 1 18 2 16 3 17 4 15 6 11 7 12 8 13 9 14 10 9 11 10 12
REMARK SMILES IDX 8 13 3 14 4 15 5 16 7 17 6 18 2 19 1 20 20 21 21 22 22 23
REMARK SMILES IDX 23 24 24 26 25 27 26 28 78 29 27 30 77 31 28 32 29 33 30 34
REMARK SMILES IDX 71 35 31 36 76 37 70 38 72 39 32 40 75 41 69 42 68 43 33 45
REMARK SMILES IDX 59 46 42 47 58 48 43 49 46 50 57 51 73 52 44 53 45 54 56 56
REMARK SMILES IDX 74 57 47 58 34 59 35 60 40 61 36 62 37 63 39 64 41 65 38 66
REMARK SMILES IDX 60 67 61 68 66 69 62 70 63 71 65 72 67 73 64 74 48 75 49 76
REMARK SMILES IDX 54 77 50 78 51 79 53 80 55 81 52 82
REMARK H PARENT 18 5 22 25 72 44 46 55
REMARK Flexibility Score: inf
ROOT
ATOM      1  C   UNL A   1      40.569  21.432  25.927  1.00  0.00     0.117 C 
ENDROOT
BRANCH   1   2
ATOM      2  N   UNL A   1      41.156  20.221  26.452  1.00  0.00    -0.354 N 
ATOM      3  C   UNL A   1      42.383  19.664  26.256  1.00  0.00     0.243 C 
ATOM      4  O   UNL A   1      42.710  18.784  27.062  1.00  0.00    -0.273 OA
ATOM      5  H   UNL A   1      40.569  19.711  27.056  1.00  0.00     0.163 HD
BRANCH   3   6
ATOM      6  C   UNL A   1      43.390  20.173  25.203  1.00  0.00     0.185 C 
ATOM      7  N   UNL A   1      44.258  21.302  25.574  1.00  0.00    -0.316 N 
ATOM      8  C   UNL A   1      45.653  20.971  25.751  1.00  0.00     0.190 C 
ATOM      9  S   UNL A   1      45.968  19.576  24.653  1.00  0.00    -0.138 SA
ATOM     10  C   UNL A   1      44.227  19.043  24.605  1.00  0.00     0.106 C 
BRANCH   7  11
ATOM     11  C   UNL A   1      43.670  22.566  25.522  1.00  0.00     0.257 C 
ATOM     12  O   UNL A   1      43.230  22.977  24.452  1.00  0.00    -0.269 OA
BRANCH  11  13
ATOM     13  C   UNL A   1      43.716  23.481  26.702  1.00  0.00     0.072 A 
ATOM     14  C   UNL A   1      44.437  24.684  26.720  1.00  0.00     0.108 A 
ATOM     15  N   UNL A   1      44.500  25.476  27.831  1.00  0.00    -0.249 NA
ATOM     16  C   UNL A   1      43.893  25.054  28.961  1.00  0.00     0.112 A 
ATOM     17  C   UNL A   1      43.151  23.059  27.919  1.00  0.00     0.018 A 
ATOM     18  C   UNL A   1      43.217  23.858  29.055  1.00  0.00     0.021 A 
BRANCH  14  19
ATOM     19  S   UNL A   1      45.469  25.263  25.379  1.00  0.00    -0.109 SA
ATOM     20  C   UNL A   1      45.054  27.017  25.375  1.00  0.00     0.092 C 
ENDBRANCH  14  19
ENDBRANCH  11  13
ENDBRANCH   7  11
ENDBRANCH   3   6
ENDBRANCH   1   2
BRANCH   1  21
ATOM     21  C   UNL A   1      39.443  21.960  26.800  1.00  0.00     0.042 C 
BRANCH  21  22
ATOM     22  C   UNL A   1      39.489  23.471  26.994  1.00  0.00     0.118 C 
BRANCH  22  23
ATOM     23  N   UNL A   1      40.377  24.124  26.038  1.00  0.00    -0.352 N 
ATOM     24  C   UNL A   1      40.885  25.395  26.025  1.00  0.00     0.251 C 
ATOM     25  H   UNL A   1      40.654  23.560  25.279  1.00  0.00     0.163 HD
ATOM     26  O   UNL A   1      41.430  25.819  25.001  1.00  0.00    -0.269 OA
BRANCH  24  27
ATOM     27  C   UNL A   1      40.784  26.263  27.214  1.00  0.00     0.039 A 
ATOM     28  C   UNL A   1      41.556  27.427  27.272  1.00  0.00     0.014 A 
ATOM     29  C   UNL A   1      39.960  25.916  28.287  1.00  0.00     0.014 A 
ATOM     30  C   UNL A   1      41.453  28.271  28.379  1.00  0.00     0.010 A 
ATOM     31  C   UNL A   1      39.793  26.800  29.348  1.00  0.00     0.010 A 
ATOM     32  C   UNL A   1      40.545  27.982  29.409  1.00  0.00    -0.014 A 
BRANCH  32  33
ATOM     33  C   UNL A   1      40.369  28.896  30.564  1.00  0.00     0.031 A 
ATOM     34  C   UNL A   1      39.318  29.972  30.522  1.00  0.00     0.074 A 
ATOM     35  C   UNL A   1      41.201  28.801  31.617  1.00  0.00     0.049 A 
ATOM     36  N   UNL A   1      39.063  30.911  31.396  1.00  0.00    -0.248 NA
ATOM     37  C   UNL A   1      38.460  30.014  29.327  1.00  0.00     0.031 C 
ATOM     38  C   UNL A   1      42.287  27.828  31.754  1.00  0.00     0.029 A 
ATOM     39  N   UNL A   1      41.270  29.538  32.772  1.00  0.00    -0.354 N 
ATOM     40  C   UNL A   1      38.032  31.666  30.850  1.00  0.00     0.074 A 
ATOM     41  C   UNL A   1      37.743  31.107  29.547  1.00  0.00     0.031 C 
ATOM     42  C   UNL A   1      42.895  28.010  32.938  1.00  0.00     0.029 A 
ATOM     43  C   UNL A   1      42.271  29.136  33.623  1.00  0.00     0.049 A 
ATOM     44  H   UNL A   1      40.660  30.284  32.973  1.00  0.00     0.167 HD
ATOM     45  C   UNL A   1      37.371  32.714  31.393  1.00  0.00     0.037 A 
ATOM     46  C   UNL A   1      42.646  29.626  34.820  1.00  0.00     0.037 A 
ATOM     47  C   UNL A   1      37.644  33.248  32.703  1.00  0.00     0.049 A 
ATOM     48  C   UNL A   1      41.900  30.797  35.398  1.00  0.00     0.074 A 
ATOM     49  C   UNL A   1      36.988  34.265  33.372  1.00  0.00     0.029 A 
ATOM     50  N   UNL A   1      38.659  32.806  33.539  1.00  0.00    -0.354 N 
ATOM     51  N   UNL A   1      40.882  31.456  34.900  1.00  0.00    -0.248 NA
ATOM     52  C   UNL A   1      42.353  31.287  36.706  1.00  0.00     0.031 C 
ATOM     53  C   UNL A   1      37.635  34.471  34.594  1.00  0.00     0.029 A 
ATOM     54  C   UNL A   1      38.661  33.548  34.709  1.00  0.00     0.049 A 
ATOM     55  H   UNL A   1      39.283  32.075  33.332  1.00  0.00     0.167 HD
ATOM     56  C   UNL A   1      40.553  32.417  35.847  1.00  0.00     0.074 A 
ATOM     57  C   UNL A   1      41.473  32.247  36.953  1.00  0.00     0.031 C 
ATOM     58  C   UNL A   1      39.577  33.357  35.804  1.00  0.00     0.037 A 
BRANCH  45  59
ATOM     59  C   UNL A   1      36.286  33.353  30.576  1.00  0.00     0.057 A 
ATOM     60  C   UNL A   1      36.573  34.177  29.479  1.00  0.00     0.134 A 
ATOM     61  C   UNL A   1      34.937  33.111  30.865  1.00  0.00     0.134 A 
ATOM     62  F   UNL A   1      37.844  34.459  29.156  1.00  0.00    -0.206 F 
ATOM     63  C   UNL A   1      35.558  34.757  28.715  1.00  0.00     0.040 A 
ATOM     64  C   UNL A   1      33.914  33.663  30.092  1.00  0.00     0.040 A 
ATOM     65  F   UNL A   1      34.590  32.328  31.898  1.00  0.00    -0.206 F 
ATOM     66  C   UNL A   1      34.223  34.493  29.017  1.00  0.00     0.006 A 
ENDBRANCH  45  59
BRANCH  46  67
ATOM     67  C   UNL A   1      43.764  28.996  35.565  1.00  0.00     0.057 A 
ATOM     68  C   UNL A   1      45.084  29.425  35.380  1.00  0.00     0.134 A 
ATOM     69  C   UNL A   1      43.548  27.949  36.469  1.00  0.00     0.134 A 
ATOM     70  F   UNL A   1      45.357  30.413  34.515  1.00  0.00    -0.206 F 
ATOM     71  C   UNL A   1      46.151  28.823  36.050  1.00  0.00     0.040 A 
ATOM     72  C   UNL A   1      44.602  27.355  37.166  1.00  0.00     0.040 A 
ATOM     73  F   UNL A   1      42.306  27.498  36.700  1.00  0.00    -0.206 F 
ATOM     74  C   UNL A   1      45.910  27.787  36.950  1.00  0.00     0.006 A 
ENDBRANCH  46  67
BRANCH  58  75
ATOM     75  C   UNL A   1      39.427  34.245  37.004  1.00  0.00     0.057 A 
ATOM     76  C   UNL A   1      39.946  35.545  37.034  1.00  0.00     0.134 A 
ATOM     77  C   UNL A   1      38.719  33.804  38.130  1.00  0.00     0.134 A 
ATOM     78  F   UNL A   1      40.646  36.022  35.994  1.00  0.00    -0.206 F 
ATOM     79  C   UNL A   1      39.786  36.368  38.150  1.00  0.00     0.040 A 
ATOM     80  C   UNL A   1      38.527  34.627  39.240  1.00  0.00     0.040 A 
ATOM     81  F   UNL A   1      38.188  32.573  38.161  1.00  0.00    -0.206 F 
ATOM     82  C   UNL A   1      39.068  35.912  39.254  1.00  0.00     0.006 A 
ENDBRANCH  58  75
ENDBRANCH  32  33
ENDBRANCH  24  27
ENDBRANCH  22  23
ENDBRANCH  21  22
ENDBRANCH   1  21
TORSDOF 13
ENDMDL
