MODEL 1
REMARK VINA RESULT:     -11.8      0.000      0.000
REMARK SMILES O=C(NCCCNC(=O)[C@H](CO)NC(=O)[C@H](CS)NC(=O)[C@H](Cc1ccccc1)NC(=O)c1ccc(F)cc1)c1ccc(-c2c3nc(c(-c4c(F)cccc4F)c4ccc([nH]4)c(-c4c(F)cccc4F)c4nc(c(-c5c(F)cccc5F)c5ccc2[nH]5)C=C4)C=C3)cc1
REMARK SMILES IDX 7 1 8 2 9 3 6 5 5 6 4 7 3 8 1 9 2 10 40 12 41 13 93 14 42 15
REMARK SMILES IDX 92 16 43 17 44 18 45 19 86 20 46 21 91 22 85 23 87 24 47 25
REMARK SMILES IDX 90 26 84 27 83 28 48 30 74 31 57 32 73 33 58 34 61 35 72 36
REMARK SMILES IDX 88 37 59 38 60 39 71 41 89 42 62 43 49 44 50 45 55 46 51 47
REMARK SMILES IDX 52 48 54 49 56 50 53 51 75 52 76 53 81 54 77 55 78 56 80 57
REMARK SMILES IDX 82 58 79 59 63 60 64 61 69 62 65 63 66 64 68 65 70 66 67 67
REMARK SMILES IDX 10 68 13 69 14 70 15 72 16 73 19 74 20 75 21 77 22 78 30 79
REMARK SMILES IDX 31 80 32 82 33 83 34 84 39 85 35 86 38 87 36 88 37 89 23 90
REMARK SMILES IDX 24 91 25 92 29 93 26 94 28 95 27 96 17 97 18 98 11 100
REMARK SMILES IDX 12 101
REMARK H PARENT 7 4 3 11 87 29 61 40 13 71 19 76 30 81 18 99 12 102
REMARK Flexibility Score: inf
ROOT
ATOM      1  N   UNL A   1      31.134  29.890  24.852  1.00  0.00    -0.354 N 
ATOM      2  C   UNL A   1      31.655  28.967  24.008  1.00  0.00     0.244 C 
ATOM      3  O   UNL A   1      31.204  28.994  22.857  1.00  0.00    -0.273 OA
ATOM      4  H   UNL A   1      30.420  30.433  24.446  1.00  0.00     0.163 HD
ENDROOT
BRANCH   1   5
ATOM      5  C   UNL A   1      31.412  30.242  26.232  1.00  0.00     0.117 C 
BRANCH   5   6
ATOM      6  C   UNL A   1      31.242  31.740  26.454  1.00  0.00     0.042 C 
BRANCH   6   7
ATOM      7  C   UNL A   1      32.578  32.463  26.589  1.00  0.00     0.118 C 
BRANCH   7   8
ATOM      8  N   UNL A   1      32.434  33.761  27.235  1.00  0.00    -0.352 N 
ATOM      9  O   UNL A   1      32.604  35.261  28.903  1.00  0.00    -0.269 OA
ATOM     10  C   UNL A   1      33.057  34.269  28.348  1.00  0.00     0.251 C 
ATOM     11  H   UNL A   1      31.789  34.369  26.806  1.00  0.00     0.163 HD
BRANCH  10  12
ATOM     12  C   UNL A   1      34.273  33.614  28.870  1.00  0.00     0.039 A 
ATOM     13  C   UNL A   1      34.184  32.378  29.508  1.00  0.00     0.014 A 
ATOM     14  C   UNL A   1      35.517  34.227  28.696  1.00  0.00     0.014 A 
ATOM     15  C   UNL A   1      35.301  31.840  30.127  1.00  0.00     0.010 A 
ATOM     16  C   UNL A   1      36.663  33.623  29.219  1.00  0.00     0.010 A 
ATOM     17  C   UNL A   1      36.558  32.444  29.974  1.00  0.00    -0.014 A 
BRANCH  17  18
ATOM     18  C   UNL A   1      37.743  31.789  30.583  1.00  0.00     0.031 A 
ATOM     19  C   UNL A   1      38.119  32.040  32.016  1.00  0.00     0.074 A 
ATOM     20  C   UNL A   1      38.446  30.911  29.839  1.00  0.00     0.049 A 
ATOM     21  N   UNL A   1      39.087  31.506  32.718  1.00  0.00    -0.248 NA
ATOM     22  C   UNL A   1      37.314  33.024  32.758  1.00  0.00     0.031 C 
ATOM     23  C   UNL A   1      38.177  30.595  28.433  1.00  0.00     0.029 A 
ATOM     24  N   UNL A   1      39.503  30.102  30.163  1.00  0.00    -0.354 N 
ATOM     25  C   UNL A   1      39.027  32.106  33.969  1.00  0.00     0.074 A 
ATOM     26  C   UNL A   1      37.942  33.063  33.925  1.00  0.00     0.031 C 
ATOM     27  C   UNL A   1      38.999  29.614  28.037  1.00  0.00     0.029 A 
ATOM     28  C   UNL A   1      39.900  29.284  29.134  1.00  0.00     0.049 A 
ATOM     29  H   UNL A   1      39.936  30.108  31.047  1.00  0.00     0.167 HD
ATOM     30  C   UNL A   1      39.800  31.873  35.056  1.00  0.00     0.037 A 
ATOM     31  C   UNL A   1      40.889  28.375  29.074  1.00  0.00     0.037 A 
ATOM     32  C   UNL A   1      40.866  30.902  35.097  1.00  0.00     0.049 A 
ATOM     33  C   UNL A   1      41.738  28.148  30.289  1.00  0.00     0.074 A 
ATOM     34  C   UNL A   1      41.685  30.565  36.160  1.00  0.00     0.029 A 
ATOM     35  N   UNL A   1      41.261  30.116  34.024  1.00  0.00    -0.354 N 
ATOM     36  N   UNL A   1      41.646  28.698  31.476  1.00  0.00    -0.248 NA
ATOM     37  C   UNL A   1      42.830  27.176  30.157  1.00  0.00     0.031 C 
ATOM     38  C   UNL A   1      42.608  29.612  35.716  1.00  0.00     0.029 A 
ATOM     39  C   UNL A   1      42.327  29.311  34.394  1.00  0.00     0.049 A 
ATOM     40  H   UNL A   1      40.846  30.130  33.131  1.00  0.00     0.167 HD
ATOM     41  C   UNL A   1      42.650  28.120  32.241  1.00  0.00     0.074 A 
ATOM     42  C   UNL A   1      43.325  27.164  31.386  1.00  0.00     0.031 C 
ATOM     43  C   UNL A   1      42.981  28.358  33.533  1.00  0.00     0.037 A 
BRANCH  30  44
ATOM     44  C   UNL A   1      39.544  32.700  36.285  1.00  0.00     0.057 A 
ATOM     45  C   UNL A   1      40.225  33.899  36.533  1.00  0.00     0.134 A 
ATOM     46  C   UNL A   1      38.575  32.306  37.217  1.00  0.00     0.134 A 
ATOM     47  F   UNL A   1      41.174  34.330  35.687  1.00  0.00    -0.206 F 
ATOM     48  C   UNL A   1      39.970  34.662  37.675  1.00  0.00     0.040 A 
ATOM     49  C   UNL A   1      38.292  33.074  38.348  1.00  0.00     0.040 A 
ATOM     50  F   UNL A   1      37.880  31.173  37.040  1.00  0.00    -0.206 F 
ATOM     51  C   UNL A   1      38.996  34.253  38.583  1.00  0.00     0.006 A 
ENDBRANCH  30  44
BRANCH  31  52
ATOM     52  C   UNL A   1      41.122  27.612  27.822  1.00  0.00     0.057 A 
ATOM     53  C   UNL A   1      41.931  28.125  26.801  1.00  0.00     0.134 A 
ATOM     54  C   UNL A   1      40.544  26.354  27.616  1.00  0.00     0.134 A 
ATOM     55  F   UNL A   1      42.501  29.331  26.933  1.00  0.00    -0.206 F 
ATOM     56  C   UNL A   1      42.141  27.422  25.613  1.00  0.00     0.040 A 
ATOM     57  C   UNL A   1      40.770  25.627  26.447  1.00  0.00     0.040 A 
ATOM     58  F   UNL A   1      39.768  25.802  28.561  1.00  0.00    -0.206 F 
ATOM     59  C   UNL A   1      41.564  26.166  25.437  1.00  0.00     0.006 A 
ENDBRANCH  31  52
BRANCH  43  60
ATOM     60  C   UNL A   1      44.093  27.532  34.111  1.00  0.00     0.057 A 
ATOM     61  C   UNL A   1      45.431  27.944  34.062  1.00  0.00     0.134 A 
ATOM     62  C   UNL A   1      43.815  26.310  34.737  1.00  0.00     0.134 A 
ATOM     63  F   UNL A   1      45.766  29.096  33.462  1.00  0.00    -0.206 F 
ATOM     64  C   UNL A   1      46.456  27.154  34.584  1.00  0.00     0.040 A 
ATOM     65  C   UNL A   1      44.827  25.526  35.290  1.00  0.00     0.040 A 
ATOM     66  F   UNL A   1      42.553  25.861  34.826  1.00  0.00    -0.206 F 
ATOM     67  C   UNL A   1      46.154  25.943  35.206  1.00  0.00     0.006 A 
ENDBRANCH  43  60
ENDBRANCH  17  18
ENDBRANCH  10  12
ENDBRANCH   7   8
ENDBRANCH   6   7
ENDBRANCH   5   6
ENDBRANCH   1   5
BRANCH   2  68
ATOM     68  C   UNL A   1      32.586  27.813  24.438  1.00  0.00     0.197 C 
BRANCH  68  69
ATOM     69  N   UNL A   1      32.615  26.673  23.525  1.00  0.00    -0.340 N 
ATOM     70  C   UNL A   1      31.889  25.528  23.472  1.00  0.00     0.244 C 
ATOM     71  H   UNL A   1      33.290  26.750  22.814  1.00  0.00     0.164 HD
ATOM     72  O   UNL A   1      31.897  24.957  22.376  1.00  0.00    -0.273 OA
BRANCH  70  73
ATOM     73  C   UNL A   1      31.300  24.852  24.728  1.00  0.00     0.181 C 
BRANCH  73  74
ATOM     74  N   UNL A   1      32.252  24.526  25.793  1.00  0.00    -0.342 N 
ATOM     75  C   UNL A   1      32.968  23.376  26.001  1.00  0.00     0.243 C 
ATOM     76  H   UNL A   1      32.399  25.237  26.457  1.00  0.00     0.164 HD
ATOM     77  O   UNL A   1      33.509  23.260  27.103  1.00  0.00    -0.273 OA
BRANCH  75  78
ATOM     78  C   UNL A   1      32.986  22.231  24.948  1.00  0.00     0.176 C 
BRANCH  78  79
ATOM     79  N   UNL A   1      33.785  22.632  23.781  1.00  0.00    -0.340 N 
ATOM     80  C   UNL A   1      35.107  22.886  23.539  1.00  0.00     0.251 C 
ATOM     81  H   UNL A   1      33.234  22.744  22.974  1.00  0.00     0.164 HD
ATOM     82  O   UNL A   1      35.374  23.301  22.409  1.00  0.00    -0.269 OA
BRANCH  80  83
ATOM     83  C   UNL A   1      36.236  22.667  24.496  1.00  0.00     0.040 A 
ATOM     84  C   UNL A   1      36.590  23.769  25.298  1.00  0.00     0.017 A 
ATOM     85  C   UNL A   1      37.035  21.520  24.574  1.00  0.00     0.017 A 
ATOM     86  C   UNL A   1      37.711  23.728  26.133  1.00  0.00     0.040 A 
ATOM     87  C   UNL A   1      38.162  21.478  25.403  1.00  0.00     0.040 A 
ATOM     88  C   UNL A   1      38.492  22.583  26.170  1.00  0.00     0.123 A 
ATOM     89  F   UNL A   1      39.585  22.546  26.942  1.00  0.00    -0.207 F 
ENDBRANCH  80  83
ENDBRANCH  78  79
BRANCH  78  90
ATOM     90  C   UNL A   1      33.568  20.943  25.574  1.00  0.00     0.070 C 
BRANCH  90  91
ATOM     91  C   UNL A   1      33.505  19.733  24.668  1.00  0.00    -0.045 A 
ATOM     92  C   UNL A   1      34.521  18.767  24.666  1.00  0.00     0.004 A 
ATOM     93  C   UNL A   1      32.409  19.555  23.811  1.00  0.00     0.004 A 
ATOM     94  C   UNL A   1      34.406  17.612  23.892  1.00  0.00     0.000 A 
ATOM     95  C   UNL A   1      32.307  18.413  23.016  1.00  0.00     0.000 A 
ATOM     96  C   UNL A   1      33.297  17.433  23.070  1.00  0.00     0.000 A 
ENDBRANCH  90  91
ENDBRANCH  78  90
ENDBRANCH  75  78
ENDBRANCH  73  74
BRANCH  73  97
ATOM     97  C   UNL A   1      30.113  25.639  25.328  1.00  0.00     0.101 C 
BRANCH  97  98
ATOM     98  S   UNL A   1      28.933  26.333  24.121  1.00  0.00    -0.177 SA
ATOM     99  H   UNL A   1      29.383  27.543  23.692  1.00  0.00     0.102 HD
ENDBRANCH  97  98
ENDBRANCH  73  97
ENDBRANCH  70  73
ENDBRANCH  68  69
BRANCH  68 100
ATOM    100  C   UNL A   1      34.009  28.376  24.634  1.00  0.00     0.191 C 
BRANCH 100 101
ATOM    101  O   UNL A   1      34.573  28.957  23.462  1.00  0.00    -0.394 OA
ATOM    102  H   UNL A   1      35.362  28.458  23.202  1.00  0.00     0.210 HD
ENDBRANCH 100 101
ENDBRANCH  68 100
ENDBRANCH   2  68
TORSDOF 22
ENDMDL
MODEL 2
REMARK VINA RESULT:     -11.5      2.060      3.481
REMARK SMILES O=C(NCCCNC(=O)[C@H](CO)NC(=O)[C@H](CS)NC(=O)[C@H](Cc1ccccc1)NC(=O)c1ccc(F)cc1)c1ccc(-c2c3nc(c(-c4c(F)cccc4F)c4ccc([nH]4)c(-c4c(F)cccc4F)c4nc(c(-c5c(F)cccc5F)c5ccc2[nH]5)C=C4)C=C3)cc1
REMARK SMILES IDX 7 1 8 2 9 3 6 5 5 6 4 7 3 8 1 9 2 10 40 12 41 13 93 14 42 15
REMARK SMILES IDX 92 16 43 17 44 18 45 19 86 20 46 21 91 22 85 23 87 24 47 25
REMARK SMILES IDX 90 26 84 27 83 28 48 30 74 31 57 32 73 33 58 34 61 35 72 36
REMARK SMILES IDX 88 37 59 38 60 39 71 41 89 42 62 43 49 44 50 45 55 46 51 47
REMARK SMILES IDX 52 48 54 49 56 50 53 51 75 52 76 53 81 54 77 55 78 56 80 57
REMARK SMILES IDX 82 58 79 59 63 60 64 61 69 62 65 63 66 64 68 65 70 66 67 67
REMARK SMILES IDX 10 68 13 69 14 70 15 72 16 73 19 74 20 75 21 77 22 78 30 79
REMARK SMILES IDX 31 80 32 82 33 83 34 84 39 85 35 86 38 87 36 88 37 89 23 90
REMARK SMILES IDX 24 91 25 92 29 93 26 94 28 95 27 96 17 97 18 98 11 100
REMARK SMILES IDX 12 101
REMARK H PARENT 7 4 3 11 87 29 61 40 13 71 19 76 30 81 18 99 12 102
REMARK Flexibility Score: inf
ROOT
ATOM      1  N   UNL A   1      29.740  31.458  24.803  1.00  0.00    -0.354 N 
ATOM      2  C   UNL A   1      29.180  31.044  23.640  1.00  0.00     0.244 C 
ATOM      3  O   UNL A   1      28.085  31.555  23.374  1.00  0.00    -0.273 OA
ATOM      4  H   UNL A   1      29.171  32.079  25.312  1.00  0.00     0.163 HD
ENDROOT
BRANCH   1   5
ATOM      5  C   UNL A   1      31.007  31.171  25.450  1.00  0.00     0.117 C 
BRANCH   5   6
ATOM      6  C   UNL A   1      31.126  31.931  26.766  1.00  0.00     0.042 C 
BRANCH   6   7
ATOM      7  C   UNL A   1      32.491  32.589  26.934  1.00  0.00     0.118 C 
BRANCH   7   8
ATOM      8  N   UNL A   1      32.394  33.889  27.584  1.00  0.00    -0.352 N 
ATOM      9  O   UNL A   1      32.732  35.411  29.207  1.00  0.00    -0.269 OA
ATOM     10  C   UNL A   1      33.139  34.426  28.606  1.00  0.00     0.251 C 
ATOM     11  H   UNL A   1      31.683  34.476  27.237  1.00  0.00     0.163 HD
BRANCH  10  12
ATOM     12  C   UNL A   1      34.429  33.809  28.973  1.00  0.00     0.039 A 
ATOM     13  C   UNL A   1      34.471  32.779  29.912  1.00  0.00     0.014 A 
ATOM     14  C   UNL A   1      35.605  34.244  28.354  1.00  0.00     0.014 A 
ATOM     15  C   UNL A   1      35.694  32.308  30.363  1.00  0.00     0.010 A 
ATOM     16  C   UNL A   1      36.829  33.683  28.726  1.00  0.00     0.010 A 
ATOM     17  C   UNL A   1      36.887  32.739  29.763  1.00  0.00    -0.014 A 
BRANCH  17  18
ATOM     18  C   UNL A   1      38.169  32.146  30.219  1.00  0.00     0.031 A 
ATOM     19  C   UNL A   1      38.942  32.748  31.359  1.00  0.00     0.074 A 
ATOM     20  C   UNL A   1      38.601  31.015  29.627  1.00  0.00     0.049 A 
ATOM     21  N   UNL A   1      40.047  32.323  31.918  1.00  0.00    -0.248 NA
ATOM     22  C   UNL A   1      38.416  33.992  31.943  1.00  0.00     0.031 C 
ATOM     23  C   UNL A   1      37.937  30.346  28.504  1.00  0.00     0.029 A 
ATOM     24  N   UNL A   1      39.675  30.210  29.902  1.00  0.00    -0.354 N 
ATOM     25  C   UNL A   1      40.363  33.258  32.897  1.00  0.00     0.074 A 
ATOM     26  C   UNL A   1      39.346  34.286  32.840  1.00  0.00     0.031 C 
ATOM     27  C   UNL A   1      38.577  29.201  28.232  1.00  0.00     0.029 A 
ATOM     28  C   UNL A   1      39.737  29.091  29.108  1.00  0.00     0.049 A 
ATOM     29  H   UNL A   1      40.339  30.415  30.599  1.00  0.00     0.167 HD
ATOM     30  C   UNL A   1      41.401  33.252  33.766  1.00  0.00     0.037 A 
ATOM     31  C   UNL A   1      40.634  28.089  29.079  1.00  0.00     0.037 A 
ATOM     32  C   UNL A   1      42.397  32.211  33.829  1.00  0.00     0.049 A 
ATOM     33  C   UNL A   1      41.781  28.117  30.046  1.00  0.00     0.074 A 
ATOM     34  C   UNL A   1      43.469  32.094  34.698  1.00  0.00     0.029 A 
ATOM     35  N   UNL A   1      42.445  31.110  32.986  1.00  0.00    -0.354 N 
ATOM     36  N   UNL A   1      42.046  28.989  30.988  1.00  0.00    -0.248 NA
ATOM     37  C   UNL A   1      42.753  27.023  29.944  1.00  0.00     0.031 C 
ATOM     38  C   UNL A   1      44.193  30.950  34.347  1.00  0.00     0.029 A 
ATOM     39  C   UNL A   1      43.541  30.321  33.299  1.00  0.00     0.049 A 
ATOM     40  H   UNL A   1      41.798  30.919  32.269  1.00  0.00     0.167 HD
ATOM     41  C   UNL A   1      43.201  28.536  31.609  1.00  0.00     0.074 A 
ATOM     42  C   UNL A   1      43.572  27.302  30.947  1.00  0.00     0.031 C 
ATOM     43  C   UNL A   1      43.891  29.091  32.635  1.00  0.00     0.037 A 
BRANCH  30  44
ATOM     44  C   UNL A   1      41.531  34.419  34.704  1.00  0.00     0.057 A 
ATOM     45  C   UNL A   1      42.144  35.620  34.321  1.00  0.00     0.134 A 
ATOM     46  C   UNL A   1      41.004  34.351  36.000  1.00  0.00     0.134 A 
ATOM     47  F   UNL A   1      42.680  35.749  33.098  1.00  0.00    -0.206 F 
ATOM     48  C   UNL A   1      42.250  36.699  35.200  1.00  0.00     0.040 A 
ATOM     49  C   UNL A   1      41.080  35.434  36.879  1.00  0.00     0.040 A 
ATOM     50  F   UNL A   1      40.398  33.235  36.432  1.00  0.00    -0.206 F 
ATOM     51  C   UNL A   1      41.711  36.610  36.482  1.00  0.00     0.006 A 
ENDBRANCH  30  44
BRANCH  31  52
ATOM     52  C   UNL A   1      40.477  26.979  28.106  1.00  0.00     0.057 A 
ATOM     53  C   UNL A   1      39.706  25.852  28.411  1.00  0.00     0.134 A 
ATOM     54  C   UNL A   1      41.091  27.019  26.849  1.00  0.00     0.134 A 
ATOM     55  F   UNL A   1      39.104  25.748  29.605  1.00  0.00    -0.206 F 
ATOM     56  C   UNL A   1      39.567  24.796  27.509  1.00  0.00     0.040 A 
ATOM     57  C   UNL A   1      40.936  25.985  25.925  1.00  0.00     0.040 A 
ATOM     58  F   UNL A   1      41.834  28.077  26.491  1.00  0.00    -0.206 F 
ATOM     59  C   UNL A   1      40.178  24.864  26.259  1.00  0.00     0.006 A 
ENDBRANCH  31  52
BRANCH  43  60
ATOM     60  C   UNL A   1      45.087  28.335  33.135  1.00  0.00     0.057 A 
ATOM     61  C   UNL A   1      44.987  27.351  34.127  1.00  0.00     0.134 A 
ATOM     62  C   UNL A   1      46.359  28.590  32.603  1.00  0.00     0.134 A 
ATOM     63  F   UNL A   1      43.802  27.070  34.688  1.00  0.00    -0.206 F 
ATOM     64  C   UNL A   1      46.112  26.673  34.597  1.00  0.00     0.040 A 
ATOM     65  C   UNL A   1      47.486  27.896  33.043  1.00  0.00     0.040 A 
ATOM     66  F   UNL A   1      46.524  29.514  31.644  1.00  0.00    -0.206 F 
ATOM     67  C   UNL A   1      47.366  26.941  34.050  1.00  0.00     0.006 A 
ENDBRANCH  43  60
ENDBRANCH  17  18
ENDBRANCH  10  12
ENDBRANCH   7   8
ENDBRANCH   6   7
ENDBRANCH   5   6
ENDBRANCH   1   5
BRANCH   2  68
ATOM     68  C   UNL A   1      29.710  29.880  22.776  1.00  0.00     0.197 C 
BRANCH  68  69
ATOM     69  N   UNL A   1      29.335  28.547  23.240  1.00  0.00    -0.340 N 
ATOM     70  C   UNL A   1      30.067  27.500  23.697  1.00  0.00     0.244 C 
ATOM     71  H   UNL A   1      28.367  28.376  23.217  1.00  0.00     0.164 HD
ATOM     72  O   UNL A   1      29.432  26.670  24.357  1.00  0.00    -0.273 OA
BRANCH  70  73
ATOM     73  C   UNL A   1      31.513  27.226  23.234  1.00  0.00     0.181 C 
BRANCH  73  74
ATOM     74  N   UNL A   1      31.671  26.741  21.860  1.00  0.00    -0.342 N 
ATOM     75  C   UNL A   1      32.308  25.619  21.398  1.00  0.00     0.243 C 
ATOM     76  H   UNL A   1      31.259  27.305  21.166  1.00  0.00     0.164 HD
ATOM     77  O   UNL A   1      32.513  25.567  20.184  1.00  0.00    -0.273 OA
BRANCH  75  78
ATOM     78  C   UNL A   1      32.849  24.536  22.374  1.00  0.00     0.176 C 
BRANCH  78  79
ATOM     79  N   UNL A   1      32.233  23.235  22.078  1.00  0.00    -0.340 N 
ATOM     80  C   UNL A   1      32.136  22.028  22.714  1.00  0.00     0.251 C 
ATOM     81  H   UNL A   1      31.777  23.231  21.206  1.00  0.00     0.164 HD
ATOM     82  O   UNL A   1      31.596  21.126  22.069  1.00  0.00    -0.269 OA
BRANCH  80  83
ATOM     83  C   UNL A   1      32.580  21.730  24.110  1.00  0.00     0.040 A 
ATOM     84  C   UNL A   1      31.965  22.483  25.129  1.00  0.00     0.017 A 
ATOM     85  C   UNL A   1      33.623  20.870  24.474  1.00  0.00     0.017 A 
ATOM     86  C   UNL A   1      32.390  22.388  26.458  1.00  0.00     0.040 A 
ATOM     87  C   UNL A   1      34.055  20.779  25.802  1.00  0.00     0.040 A 
ATOM     88  C   UNL A   1      33.439  21.543  26.780  1.00  0.00     0.123 A 
ATOM     89  F   UNL A   1      33.873  21.470  28.044  1.00  0.00    -0.207 F 
ENDBRANCH  80  83
ENDBRANCH  78  79
BRANCH  78  90
ATOM     90  C   UNL A   1      34.388  24.434  22.253  1.00  0.00     0.070 C 
BRANCH  90  91
ATOM     91  C   UNL A   1      35.096  24.191  23.568  1.00  0.00    -0.045 A 
ATOM     92  C   UNL A   1      34.679  24.818  24.750  1.00  0.00     0.004 A 
ATOM     93  C   UNL A   1      36.192  23.317  23.623  1.00  0.00     0.004 A 
ATOM     94  C   UNL A   1      35.284  24.516  25.970  1.00  0.00     0.000 A 
ATOM     95  C   UNL A   1      36.815  23.035  24.840  1.00  0.00     0.000 A 
ATOM     96  C   UNL A   1      36.349  23.621  26.015  1.00  0.00     0.000 A 
ENDBRANCH  90  91
ENDBRANCH  78  90
ENDBRANCH  75  78
ENDBRANCH  73  74
BRANCH  73  97
ATOM     97  C   UNL A   1      32.451  28.433  23.461  1.00  0.00     0.101 C 
BRANCH  97  98
ATOM     98  S   UNL A   1      33.480  28.364  24.966  1.00  0.00    -0.177 SA
ATOM     99  H   UNL A   1      34.787  28.539  24.629  1.00  0.00     0.102 HD
ENDBRANCH  97  98
ENDBRANCH  73  97
ENDBRANCH  70  73
ENDBRANCH  68  69
BRANCH  68 100
ATOM    100  C   UNL A   1      29.237  30.092  21.322  1.00  0.00     0.191 C 
BRANCH 100 101
ATOM    101  O   UNL A   1      27.836  29.918  21.134  1.00  0.00    -0.394 OA
ATOM    102  H   UNL A   1      27.656  29.744  20.197  1.00  0.00     0.210 HD
ENDBRANCH 100 101
ENDBRANCH  68 100
ENDBRANCH   2  68
TORSDOF 22
ENDMDL
MODEL 3
REMARK VINA RESULT:     -11.4      2.250      6.451
REMARK SMILES O=C(NCCCNC(=O)[C@H](CO)NC(=O)[C@H](CS)NC(=O)[C@H](Cc1ccccc1)NC(=O)c1ccc(F)cc1)c1ccc(-c2c3nc(c(-c4c(F)cccc4F)c4ccc([nH]4)c(-c4c(F)cccc4F)c4nc(c(-c5c(F)cccc5F)c5ccc2[nH]5)C=C4)C=C3)cc1
REMARK SMILES IDX 7 1 8 2 9 3 6 5 5 6 4 7 3 8 1 9 2 10 40 12 41 13 93 14 42 15
REMARK SMILES IDX 92 16 43 17 44 18 45 19 86 20 46 21 91 22 85 23 87 24 47 25
REMARK SMILES IDX 90 26 84 27 83 28 48 30 74 31 57 32 73 33 58 34 61 35 72 36
REMARK SMILES IDX 88 37 59 38 60 39 71 41 89 42 62 43 49 44 50 45 55 46 51 47
REMARK SMILES IDX 52 48 54 49 56 50 53 51 75 52 76 53 81 54 77 55 78 56 80 57
REMARK SMILES IDX 82 58 79 59 63 60 64 61 69 62 65 63 66 64 68 65 70 66 67 67
REMARK SMILES IDX 10 68 13 69 14 70 15 72 16 73 19 74 20 75 21 77 22 78 30 79
REMARK SMILES IDX 31 80 32 82 33 83 34 84 39 85 35 86 38 87 36 88 37 89 23 90
REMARK SMILES IDX 24 91 25 92 29 93 26 94 28 95 27 96 17 97 18 98 11 100
REMARK SMILES IDX 12 101
REMARK H PARENT 7 4 3 11 87 29 61 40 13 71 19 76 30 81 18 99 12 102
REMARK Flexibility Score: inf
ROOT
ATOM      1  N   UNL A   1      29.783  31.511  24.793  1.00  0.00    -0.354 N 
ATOM      2  C   UNL A   1      29.210  31.080  23.643  1.00  0.00     0.244 C 
ATOM      3  O   UNL A   1      28.122  31.601  23.372  1.00  0.00    -0.273 OA
ATOM      4  H   UNL A   1      29.227  32.153  25.291  1.00  0.00     0.163 HD
ENDROOT
BRANCH   1   5
ATOM      5  C   UNL A   1      31.049  31.220  25.439  1.00  0.00     0.117 C 
BRANCH   5   6
ATOM      6  C   UNL A   1      31.162  31.961  26.767  1.00  0.00     0.042 C 
BRANCH   6   7
ATOM      7  C   UNL A   1      32.530  32.605  26.958  1.00  0.00     0.118 C 
BRANCH   7   8
ATOM      8  N   UNL A   1      32.435  33.906  27.609  1.00  0.00    -0.352 N 
ATOM      9  O   UNL A   1      32.759  35.421  29.240  1.00  0.00    -0.269 OA
ATOM     10  C   UNL A   1      33.166  34.432  28.645  1.00  0.00     0.251 C 
ATOM     11  H   UNL A   1      31.738  34.500  27.248  1.00  0.00     0.163 HD
BRANCH  10  12
ATOM     12  C   UNL A   1      34.442  33.800  29.036  1.00  0.00     0.039 A 
ATOM     13  C   UNL A   1      34.449  32.739  29.941  1.00  0.00     0.014 A 
ATOM     14  C   UNL A   1      35.639  34.254  28.475  1.00  0.00     0.014 A 
ATOM     15  C   UNL A   1      35.655  32.250  30.418  1.00  0.00     0.010 A 
ATOM     16  C   UNL A   1      36.849  33.678  28.871  1.00  0.00     0.010 A 
ATOM     17  C   UNL A   1      36.869  32.699  29.876  1.00  0.00    -0.014 A 
BRANCH  17  18
ATOM     18  C   UNL A   1      38.133  32.087  30.357  1.00  0.00     0.031 A 
ATOM     19  C   UNL A   1      38.655  30.811  29.760  1.00  0.00     0.074 A 
ATOM     20  C   UNL A   1      38.841  32.735  31.304  1.00  0.00     0.049 A 
ATOM     21  N   UNL A   1      39.769  30.175  30.024  1.00  0.00    -0.248 NA
ATOM     22  C   UNL A   1      37.819  30.154  28.743  1.00  0.00     0.031 C 
ATOM     23  C   UNL A   1      38.427  33.978  31.962  1.00  0.00     0.029 A 
ATOM     24  N   UNL A   1      40.066  32.462  31.855  1.00  0.00    -0.354 N 
ATOM     25  C   UNL A   1      39.755  29.035  29.231  1.00  0.00     0.074 A 
ATOM     26  C   UNL A   1      38.510  29.051  28.493  1.00  0.00     0.031 C 
ATOM     27  C   UNL A   1      39.408  34.395  32.774  1.00  0.00     0.029 A 
ATOM     28  C   UNL A   1      40.485  33.414  32.752  1.00  0.00     0.049 A 
ATOM     29  H   UNL A   1      40.592  31.661  31.631  1.00  0.00     0.167 HD
ATOM     30  C   UNL A   1      40.697  28.068  29.124  1.00  0.00     0.037 A 
ATOM     31  C   UNL A   1      41.611  33.487  33.485  1.00  0.00     0.037 A 
ATOM     32  C   UNL A   1      41.944  28.071  29.848  1.00  0.00     0.049 A 
ATOM     33  C   UNL A   1      42.630  32.394  33.355  1.00  0.00     0.074 A 
ATOM     34  C   UNL A   1      42.982  27.157  29.783  1.00  0.00     0.029 A 
ATOM     35  N   UNL A   1      42.319  29.035  30.773  1.00  0.00    -0.354 N 
ATOM     36  N   UNL A   1      42.618  31.341  32.575  1.00  0.00    -0.248 NA
ATOM     37  C   UNL A   1      43.820  32.500  34.208  1.00  0.00     0.031 C 
ATOM     38  C   UNL A   1      43.961  27.541  30.705  1.00  0.00     0.029 A 
ATOM     39  C   UNL A   1      43.563  28.726  31.302  1.00  0.00     0.049 A 
ATOM     40  H   UNL A   1      41.781  29.822  31.018  1.00  0.00     0.167 HD
ATOM     41  C   UNL A   1      43.808  30.671  32.823  1.00  0.00     0.074 A 
ATOM     42  C   UNL A   1      44.524  31.450  33.813  1.00  0.00     0.031 C 
ATOM     43  C   UNL A   1      44.266  29.517  32.280  1.00  0.00     0.037 A 
BRANCH  30  44
ATOM     44  C   UNL A   1      40.407  26.910  28.211  1.00  0.00     0.057 A 
ATOM     45  C   UNL A   1      39.551  25.865  28.580  1.00  0.00     0.134 A 
ATOM     46  C   UNL A   1      40.969  26.859  26.928  1.00  0.00     0.134 A 
ATOM     47  F   UNL A   1      38.988  25.845  29.798  1.00  0.00    -0.206 F 
ATOM     48  C   UNL A   1      39.284  24.799  27.718  1.00  0.00     0.040 A 
ATOM     49  C   UNL A   1      40.688  25.812  26.047  1.00  0.00     0.040 A 
ATOM     50  F   UNL A   1      41.793  27.829  26.506  1.00  0.00    -0.206 F 
ATOM     51  C   UNL A   1      39.848  24.775  26.444  1.00  0.00     0.006 A 
ENDBRANCH  30  44
BRANCH  31  52
ATOM     52  C   UNL A   1      41.829  34.636  34.399  1.00  0.00     0.057 A 
ATOM     53  C   UNL A   1      42.440  35.812  33.951  1.00  0.00     0.134 A 
ATOM     54  C   UNL A   1      41.430  34.586  35.740  1.00  0.00     0.134 A 
ATOM     55  F   UNL A   1      42.858  35.915  32.681  1.00  0.00    -0.206 F 
ATOM     56  C   UNL A   1      42.665  36.890  34.809  1.00  0.00     0.040 A 
ATOM     57  C   UNL A   1      41.620  35.668  36.600  1.00  0.00     0.040 A 
ATOM     58  F   UNL A   1      40.827  33.491  36.228  1.00  0.00    -0.206 F 
ATOM     59  C   UNL A   1      42.248  36.822  36.136  1.00  0.00     0.006 A 
ENDBRANCH  31  52
BRANCH  43  60
ATOM     60  C   UNL A   1      45.628  29.059  32.711  1.00  0.00     0.057 A 
ATOM     61  C   UNL A   1      46.795  29.469  32.052  1.00  0.00     0.134 A 
ATOM     62  C   UNL A   1      45.774  28.204  33.811  1.00  0.00     0.134 A 
ATOM     63  F   UNL A   1      46.724  30.275  30.982  1.00  0.00    -0.206 F 
ATOM     64  C   UNL A   1      48.053  29.016  32.451  1.00  0.00     0.040 A 
ATOM     65  C   UNL A   1      47.028  27.770  34.238  1.00  0.00     0.040 A 
ATOM     66  F   UNL A   1      44.697  27.780  34.492  1.00  0.00    -0.206 F 
ATOM     67  C   UNL A   1      48.172  28.169  33.551  1.00  0.00     0.006 A 
ENDBRANCH  43  60
ENDBRANCH  17  18
ENDBRANCH  10  12
ENDBRANCH   7   8
ENDBRANCH   6   7
ENDBRANCH   5   6
ENDBRANCH   1   5
BRANCH   2  68
ATOM     68  C   UNL A   1      29.718  29.889  22.802  1.00  0.00     0.197 C 
BRANCH  68  69
ATOM     69  N   UNL A   1      29.325  28.573  23.298  1.00  0.00    -0.340 N 
ATOM     70  C   UNL A   1      30.044  27.518  23.757  1.00  0.00     0.244 C 
ATOM     71  H   UNL A   1      28.353  28.423  23.299  1.00  0.00     0.164 HD
ATOM     72  O   UNL A   1      29.407  26.713  24.445  1.00  0.00    -0.273 OA
BRANCH  70  73
ATOM     73  C   UNL A   1      31.474  27.204  23.267  1.00  0.00     0.181 C 
BRANCH  73  74
ATOM     74  N   UNL A   1      31.593  26.718  21.890  1.00  0.00    -0.342 N 
ATOM     75  C   UNL A   1      32.226  25.601  21.410  1.00  0.00     0.243 C 
ATOM     76  H   UNL A   1      31.154  27.277  21.209  1.00  0.00     0.164 HD
ATOM     77  O   UNL A   1      32.394  25.549  20.190  1.00  0.00    -0.273 OA
BRANCH  75  78
ATOM     78  C   UNL A   1      32.810  24.527  22.371  1.00  0.00     0.176 C 
BRANCH  78  79
ATOM     79  N   UNL A   1      32.232  23.210  22.066  1.00  0.00    -0.340 N 
ATOM     80  C   UNL A   1      32.145  22.005  22.707  1.00  0.00     0.251 C 
ATOM     81  H   UNL A   1      31.802  23.190  21.181  1.00  0.00     0.164 HD
ATOM     82  O   UNL A   1      31.645  21.086  22.053  1.00  0.00    -0.269 OA
BRANCH  80  83
ATOM     83  C   UNL A   1      32.555  21.726  24.118  1.00  0.00     0.040 A 
ATOM     84  C   UNL A   1      31.955  22.530  25.106  1.00  0.00     0.017 A 
ATOM     85  C   UNL A   1      33.555  20.834  24.521  1.00  0.00     0.017 A 
ATOM     86  C   UNL A   1      32.355  22.453  26.444  1.00  0.00     0.040 A 
ATOM     87  C   UNL A   1      33.963  20.761  25.858  1.00  0.00     0.040 A 
ATOM     88  C   UNL A   1      33.364  21.574  26.805  1.00  0.00     0.123 A 
ATOM     89  F   UNL A   1      33.776  21.517  28.078  1.00  0.00    -0.207 F 
ENDBRANCH  80  83
ENDBRANCH  78  79
BRANCH  78  90
ATOM     90  C   UNL A   1      34.349  24.475  22.236  1.00  0.00     0.070 C 
BRANCH  90  91
ATOM     91  C   UNL A   1      35.072  24.169  23.530  1.00  0.00    -0.045 A 
ATOM     92  C   UNL A   1      34.720  24.800  24.732  1.00  0.00     0.004 A 
ATOM     93  C   UNL A   1      36.115  23.230  23.546  1.00  0.00     0.004 A 
ATOM     94  C   UNL A   1      35.334  24.442  25.932  1.00  0.00     0.000 A 
ATOM     95  C   UNL A   1      36.748  22.892  24.743  1.00  0.00     0.000 A 
ATOM     96  C   UNL A   1      36.345  23.485  25.938  1.00  0.00     0.000 A 
ENDBRANCH  90  91
ENDBRANCH  78  90
ENDBRANCH  75  78
ENDBRANCH  73  74
BRANCH  73  97
ATOM     97  C   UNL A   1      32.449  28.384  23.479  1.00  0.00     0.101 C 
BRANCH  97  98
ATOM     98  S   UNL A   1      33.556  28.247  24.923  1.00  0.00    -0.177 SA
ATOM     99  H   UNL A   1      34.846  28.406  24.521  1.00  0.00     0.102 HD
ENDBRANCH  97  98
ENDBRANCH  73  97
ENDBRANCH  70  73
ENDBRANCH  68  69
BRANCH  68 100
ATOM    100  C   UNL A   1      29.241  30.075  21.347  1.00  0.00     0.191 C 
BRANCH 100 101
ATOM    101  O   UNL A   1      27.853  29.825  21.152  1.00  0.00    -0.394 OA
ATOM    102  H   UNL A   1      27.686  29.643  20.214  1.00  0.00     0.210 HD
ENDBRANCH 100 101
ENDBRANCH  68 100
ENDBRANCH   2  68
TORSDOF 22
ENDMDL
