MODEL 1
REMARK VINA RESULT:     -12.3      0.000      0.000
REMARK SMILES C[C@@H](C(=O)NCCCNC(=O)c1ccc(-c2c3nc(c(-c4c(F)cccc4F)c4ccc([nH]4)c(-c4c(F)cccc4F)c4nc(c(-c5c(F)cccc5F)c5ccc2[nH]5)C=C4)C=C3)cc1)c1ccc(C[C@@H]2CCC[C@@H]2O)cc1F
REMARK SMILES IDX 6 1 5 2 3 3 4 4 2 6 1 7 66 8 67 9 78 10 68 11 77 12 79 13
REMARK SMILES IDX 69 14 70 15 71 16 72 17 75 18 73 19 74 20 76 21 7 23 8 24
REMARK SMILES IDX 9 25 10 26 11 28 12 29 13 30 65 31 14 32 64 33 15 34 16 35
REMARK SMILES IDX 17 36 58 37 18 38 63 39 57 40 59 41 19 42 62 43 56 44 55 45
REMARK SMILES IDX 20 47 46 48 29 49 45 50 30 51 33 52 44 53 60 54 31 55 32 56
REMARK SMILES IDX 43 58 61 59 34 60 21 61 22 62 27 63 23 64 24 65 26 66 28 67
REMARK SMILES IDX 25 68 47 69 48 70 53 71 49 72 50 73 52 74 54 75 51 76 35 77
REMARK SMILES IDX 36 78 41 79 37 80 38 81 40 82 42 83 39 84
REMARK H PARENT 5 5 76 22 9 27 59 46 33 57
REMARK Flexibility Score: inf
ROOT
ATOM      1  C   UNL A   1      31.836  30.515  26.007  1.00  0.00     0.117 C 
ENDROOT
BRANCH   1   2
ATOM      2  N   UNL A   1      31.767  29.550  27.090  1.00  0.00    -0.356 N 
ATOM      3  C   UNL A   1      31.664  28.188  27.054  1.00  0.00     0.227 C 
ATOM      4  O   UNL A   1      31.291  27.646  28.098  1.00  0.00    -0.274 OA
ATOM      5  H   UNL A   1      31.799  29.938  27.994  1.00  0.00     0.163 HD
BRANCH   3   6
ATOM      6  C   UNL A   1      32.028  27.415  25.771  1.00  0.00     0.108 C 
ATOM      7  C   UNL A   1      30.797  27.389  24.858  1.00  0.00     0.023 C 
BRANCH   6   8
ATOM      8  C   UNL A   1      32.631  26.028  26.028  1.00  0.00    -0.000 A 
ATOM      9  C   UNL A   1      33.997  25.778  25.807  1.00  0.00     0.008 A 
ATOM     10  C   UNL A   1      31.852  24.930  26.421  1.00  0.00     0.127 A 
ATOM     11  C   UNL A   1      34.561  24.517  26.037  1.00  0.00     0.004 A 
ATOM     12  C   UNL A   1      32.401  23.662  26.615  1.00  0.00     0.043 A 
ATOM     13  F   UNL A   1      30.530  25.047  26.605  1.00  0.00    -0.207 F 
ATOM     14  C   UNL A   1      33.764  23.435  26.415  1.00  0.00    -0.045 A 
BRANCH  14  15
ATOM     15  C   UNL A   1      34.332  22.049  26.573  1.00  0.00     0.041 C 
BRANCH  15  16
ATOM     16  C   UNL A   1      34.382  21.140  25.325  1.00  0.00     0.022 C 
ATOM     17  C   UNL A   1      34.120  21.858  23.996  1.00  0.00     0.007 C 
ATOM     18  C   UNL A   1      33.401  19.963  25.266  1.00  0.00     0.117 C 
ATOM     19  C   UNL A   1      32.666  21.564  23.615  1.00  0.00     0.003 C 
ATOM     20  C   UNL A   1      32.150  20.532  24.612  1.00  0.00     0.032 C 
BRANCH  18  21
ATOM     21  O   UNL A   1      33.125  19.379  26.520  1.00  0.00    -0.393 OA
ATOM     22  H   UNL A   1      32.508  18.640  26.405  1.00  0.00     0.210 HD
ENDBRANCH  18  21
ENDBRANCH  15  16
ENDBRANCH  14  15
ENDBRANCH   6   8
ENDBRANCH   3   6
ENDBRANCH   1   2
BRANCH   1  23
ATOM     23  C   UNL A   1      31.507  31.925  26.503  1.00  0.00     0.042 C 
BRANCH  23  24
ATOM     24  C   UNL A   1      32.644  32.609  27.256  1.00  0.00     0.118 C 
BRANCH  24  25
ATOM     25  N   UNL A   1      32.366  34.008  27.538  1.00  0.00    -0.352 N 
ATOM     26  C   UNL A   1      32.955  34.855  28.445  1.00  0.00     0.251 C 
ATOM     27  H   UNL A   1      31.647  34.409  26.997  1.00  0.00     0.163 HD
ATOM     28  O   UNL A   1      32.448  35.951  28.674  1.00  0.00    -0.269 OA
BRANCH  26  29
ATOM     29  C   UNL A   1      34.175  34.444  29.172  1.00  0.00     0.039 A 
ATOM     30  C   UNL A   1      34.039  33.817  30.414  1.00  0.00     0.014 A 
ATOM     31  C   UNL A   1      35.449  34.673  28.642  1.00  0.00     0.014 A 
ATOM     32  C   UNL A   1      35.171  33.337  31.079  1.00  0.00     0.010 A 
ATOM     33  C   UNL A   1      36.570  34.136  29.271  1.00  0.00     0.010 A 
ATOM     34  C   UNL A   1      36.440  33.445  30.487  1.00  0.00    -0.014 A 
BRANCH  34  35
ATOM     35  C   UNL A   1      37.630  32.784  31.085  1.00  0.00     0.031 A 
ATOM     36  C   UNL A   1      38.264  31.598  30.417  1.00  0.00     0.074 A 
ATOM     37  C   UNL A   1      38.078  33.203  32.286  1.00  0.00     0.049 A 
ATOM     38  N   UNL A   1      39.233  30.829  30.847  1.00  0.00    -0.248 NA
ATOM     39  C   UNL A   1      37.731  31.208  29.101  1.00  0.00     0.031 C 
ATOM     40  C   UNL A   1      37.520  34.318  33.056  1.00  0.00     0.029 A 
ATOM     41  N   UNL A   1      39.090  32.727  33.084  1.00  0.00    -0.354 N 
ATOM     42  C   UNL A   1      39.412  29.858  29.870  1.00  0.00     0.074 A 
ATOM     43  C   UNL A   1      38.434  30.115  28.836  1.00  0.00     0.031 C 
ATOM     44  C   UNL A   1      38.196  34.440  34.210  1.00  0.00     0.029 A 
ATOM     45  C   UNL A   1      39.200  33.385  34.287  1.00  0.00     0.049 A 
ATOM     46  H   UNL A   1      39.680  31.985  32.820  1.00  0.00     0.167 HD
ATOM     47  C   UNL A   1      40.316  28.851  29.840  1.00  0.00     0.037 A 
ATOM     48  C   UNL A   1      39.995  33.147  35.348  1.00  0.00     0.037 A 
ATOM     49  C   UNL A   1      41.307  28.619  30.858  1.00  0.00     0.049 A 
ATOM     50  C   UNL A   1      40.968  31.998  35.293  1.00  0.00     0.074 A 
ATOM     51  C   UNL A   1      42.330  27.686  30.863  1.00  0.00     0.029 A 
ATOM     52  N   UNL A   1      41.392  29.312  32.055  1.00  0.00    -0.354 N 
ATOM     53  N   UNL A   1      41.194  31.154  34.316  1.00  0.00    -0.248 NA
ATOM     54  C   UNL A   1      41.791  31.767  36.489  1.00  0.00     0.031 C 
ATOM     55  C   UNL A   1      42.992  27.768  32.091  1.00  0.00     0.029 A 
ATOM     56  C   UNL A   1      42.417  28.792  32.828  1.00  0.00     0.049 A 
ATOM     57  H   UNL A   1      40.810  30.061  32.317  1.00  0.00     0.167 HD
ATOM     58  C   UNL A   1      42.196  30.308  34.772  1.00  0.00     0.074 A 
ATOM     59  C   UNL A   1      42.553  30.754  36.101  1.00  0.00     0.031 C 
ATOM     60  C   UNL A   1      42.766  29.249  34.147  1.00  0.00     0.037 A 
BRANCH  47  61
ATOM     61  C   UNL A   1      40.290  27.907  28.675  1.00  0.00     0.057 A 
ATOM     62  C   UNL A   1      41.007  28.161  27.499  1.00  0.00     0.134 A 
ATOM     63  C   UNL A   1      39.623  26.679  28.772  1.00  0.00     0.134 A 
ATOM     64  F   UNL A   1      41.663  29.320  27.340  1.00  0.00    -0.206 F 
ATOM     65  C   UNL A   1      41.058  27.230  26.461  1.00  0.00     0.040 A 
ATOM     66  C   UNL A   1      39.686  25.729  27.751  1.00  0.00     0.040 A 
ATOM     67  F   UNL A   1      38.925  26.369  29.876  1.00  0.00    -0.206 F 
ATOM     68  C   UNL A   1      40.405  26.004  26.591  1.00  0.00     0.006 A 
ENDBRANCH  47  61
BRANCH  48  69
ATOM     69  C   UNL A   1      39.892  33.983  36.573  1.00  0.00     0.057 A 
ATOM     70  C   UNL A   1      39.016  33.645  37.610  1.00  0.00     0.134 A 
ATOM     71  C   UNL A   1      40.630  35.166  36.713  1.00  0.00     0.134 A 
ATOM     72  F   UNL A   1      38.265  32.537  37.526  1.00  0.00    -0.206 F 
ATOM     73  C   UNL A   1      38.849  34.469  38.725  1.00  0.00     0.040 A 
ATOM     74  C   UNL A   1      40.498  35.982  37.837  1.00  0.00     0.040 A 
ATOM     75  F   UNL A   1      41.494  35.544  35.759  1.00  0.00    -0.206 F 
ATOM     76  C   UNL A   1      39.594  35.641  38.841  1.00  0.00     0.006 A 
ENDBRANCH  48  69
BRANCH  60  77
ATOM     77  C   UNL A   1      43.845  28.510  34.882  1.00  0.00     0.057 A 
ATOM     78  C   UNL A   1      45.182  28.928  34.839  1.00  0.00     0.134 A 
ATOM     79  C   UNL A   1      43.537  27.407  35.688  1.00  0.00     0.134 A 
ATOM     80  F   UNL A   1      45.545  29.968  34.075  1.00  0.00    -0.206 F 
ATOM     81  C   UNL A   1      46.176  28.264  35.559  1.00  0.00     0.040 A 
ATOM     82  C   UNL A   1      44.518  26.753  36.435  1.00  0.00     0.040 A 
ATOM     83  F   UNL A   1      42.275  26.961  35.780  1.00  0.00    -0.206 F 
ATOM     84  C   UNL A   1      45.843  27.179  36.369  1.00  0.00     0.006 A 
ENDBRANCH  60  77
ENDBRANCH  34  35
ENDBRANCH  26  29
ENDBRANCH  24  25
ENDBRANCH  23  24
ENDBRANCH   1  23
TORSDOF 14
ENDMDL
MODEL 2
REMARK VINA RESULT:     -12.2      5.422     10.549
REMARK SMILES C[C@@H](C(=O)NCCCNC(=O)c1ccc(-c2c3nc(c(-c4c(F)cccc4F)c4ccc([nH]4)c(-c4c(F)cccc4F)c4nc(c(-c5c(F)cccc5F)c5ccc2[nH]5)C=C4)C=C3)cc1)c1ccc(C[C@@H]2CCC[C@@H]2O)cc1F
REMARK SMILES IDX 6 1 5 2 3 3 4 4 2 6 1 7 66 8 67 9 78 10 68 11 77 12 79 13
REMARK SMILES IDX 69 14 70 15 71 16 72 17 75 18 73 19 74 20 76 21 7 23 8 24
REMARK SMILES IDX 9 25 10 26 11 28 12 29 13 30 65 31 14 32 64 33 15 34 16 35
REMARK SMILES IDX 17 36 58 37 18 38 63 39 57 40 59 41 19 42 62 43 56 44 55 45
REMARK SMILES IDX 20 47 46 48 29 49 45 50 30 51 33 52 44 53 60 54 31 55 32 56
REMARK SMILES IDX 43 58 61 59 34 60 21 61 22 62 27 63 23 64 24 65 26 66 28 67
REMARK SMILES IDX 25 68 47 69 48 70 53 71 49 72 50 73 52 74 54 75 51 76 35 77
REMARK SMILES IDX 36 78 41 79 37 80 38 81 40 82 42 83 39 84
REMARK H PARENT 5 5 76 22 9 27 59 46 33 57
REMARK Flexibility Score: inf
ROOT
ATOM      1  C   UNL A   1      36.789  20.834  25.136  1.00  0.00     0.117 C 
ENDROOT
BRANCH   1   2
ATOM      2  N   UNL A   1      37.011  21.843  24.116  1.00  0.00    -0.356 N 
ATOM      3  C   UNL A   1      36.126  22.665  23.479  1.00  0.00     0.227 C 
ATOM      4  O   UNL A   1      36.525  23.183  22.433  1.00  0.00    -0.274 OA
ATOM      5  H   UNL A   1      37.950  21.953  23.840  1.00  0.00     0.163 HD
BRANCH   3   6
ATOM      6  C   UNL A   1      34.730  22.920  24.083  1.00  0.00     0.108 C 
ATOM      7  C   UNL A   1      33.759  21.884  23.505  1.00  0.00     0.023 C 
BRANCH   6   8
ATOM      8  C   UNL A   1      34.241  24.367  23.936  1.00  0.00    -0.000 A 
ATOM      9  C   UNL A   1      33.670  24.822  22.735  1.00  0.00     0.008 A 
ATOM     10  C   UNL A   1      34.402  25.322  24.951  1.00  0.00     0.127 A 
ATOM     11  C   UNL A   1      33.220  26.140  22.587  1.00  0.00     0.004 A 
ATOM     12  C   UNL A   1      33.990  26.645  24.797  1.00  0.00     0.043 A 
ATOM     13  F   UNL A   1      34.985  25.005  26.115  1.00  0.00    -0.207 F 
ATOM     14  C   UNL A   1      33.402  27.076  23.606  1.00  0.00    -0.045 A 
BRANCH  14  15
ATOM     15  C   UNL A   1      33.015  28.522  23.433  1.00  0.00     0.041 C 
BRANCH  15  16
ATOM     16  C   UNL A   1      31.625  28.965  23.941  1.00  0.00     0.022 C 
ATOM     17  C   UNL A   1      30.887  27.921  24.787  1.00  0.00     0.007 C 
ATOM     18  C   UNL A   1      30.574  29.344  22.890  1.00  0.00     0.117 C 
ATOM     19  C   UNL A   1      29.858  27.256  23.868  1.00  0.00     0.003 C 
ATOM     20  C   UNL A   1      29.867  28.037  22.559  1.00  0.00     0.032 C 
BRANCH  18  21
ATOM     21  O   UNL A   1      31.106  29.965  21.741  1.00  0.00    -0.393 OA
ATOM     22  H   UNL A   1      32.061  29.802  21.696  1.00  0.00     0.210 HD
ENDBRANCH  18  21
ENDBRANCH  15  16
ENDBRANCH  14  15
ENDBRANCH   6   8
ENDBRANCH   3   6
ENDBRANCH   1   2
BRANCH   1  23
ATOM     23  C   UNL A   1      37.890  19.771  25.110  1.00  0.00     0.042 C 
BRANCH  23  24
ATOM     24  C   UNL A   1      39.191  20.196  25.786  1.00  0.00     0.118 C 
BRANCH  24  25
ATOM     25  N   UNL A   1      40.166  19.119  25.847  1.00  0.00    -0.352 N 
ATOM     26  C   UNL A   1      41.517  19.172  26.089  1.00  0.00     0.251 C 
ATOM     27  H   UNL A   1      39.804  18.217  25.692  1.00  0.00     0.163 HD
ATOM     28  O   UNL A   1      42.208  18.172  25.905  1.00  0.00    -0.269 OA
BRANCH  26  29
ATOM     29  C   UNL A   1      42.152  20.431  26.536  1.00  0.00     0.039 A 
ATOM     30  C   UNL A   1      42.795  21.233  25.590  1.00  0.00     0.014 A 
ATOM     31  C   UNL A   1      42.118  20.824  27.878  1.00  0.00     0.014 A 
ATOM     32  C   UNL A   1      43.322  22.470  25.969  1.00  0.00     0.010 A 
ATOM     33  C   UNL A   1      42.583  22.087  28.242  1.00  0.00     0.010 A 
ATOM     34  C   UNL A   1      43.172  22.931  27.287  1.00  0.00    -0.014 A 
BRANCH  34  35
ATOM     35  C   UNL A   1      43.559  24.314  27.672  1.00  0.00     0.031 A 
ATOM     36  C   UNL A   1      42.514  25.331  28.029  1.00  0.00     0.074 A 
ATOM     37  C   UNL A   1      44.857  24.673  27.606  1.00  0.00     0.049 A 
ATOM     38  N   UNL A   1      42.657  26.608  28.278  1.00  0.00    -0.248 NA
ATOM     39  C   UNL A   1      41.121  24.862  28.095  1.00  0.00     0.031 C 
ATOM     40  C   UNL A   1      45.963  23.787  27.232  1.00  0.00     0.029 A 
ATOM     41  N   UNL A   1      45.467  25.885  27.826  1.00  0.00    -0.354 N 
ATOM     42  C   UNL A   1      41.378  27.098  28.512  1.00  0.00     0.074 A 
ATOM     43  C   UNL A   1      40.465  25.988  28.346  1.00  0.00     0.031 C 
ATOM     44  C   UNL A   1      47.112  24.482  27.251  1.00  0.00     0.029 A 
ATOM     45  C   UNL A   1      46.822  25.872  27.587  1.00  0.00     0.049 A 
ATOM     46  H   UNL A   1      44.981  26.686  28.126  1.00  0.00     0.167 HD
ATOM     47  C   UNL A   1      41.005  28.357  28.841  1.00  0.00     0.037 A 
ATOM     48  C   UNL A   1      47.725  26.871  27.604  1.00  0.00     0.037 A 
ATOM     49  C   UNL A   1      41.922  29.450  29.034  1.00  0.00     0.049 A 
ATOM     50  C   UNL A   1      47.270  28.266  27.943  1.00  0.00     0.074 A 
ATOM     51  C   UNL A   1      41.644  30.736  29.468  1.00  0.00     0.029 A 
ATOM     52  N   UNL A   1      43.285  29.395  28.792  1.00  0.00    -0.354 N 
ATOM     53  N   UNL A   1      46.072  28.689  28.263  1.00  0.00    -0.248 NA
ATOM     54  C   UNL A   1      48.292  29.322  27.919  1.00  0.00     0.031 C 
ATOM     55  C   UNL A   1      42.828  31.477  29.424  1.00  0.00     0.029 A 
ATOM     56  C   UNL A   1      43.853  30.638  29.017  1.00  0.00     0.049 A 
ATOM     57  H   UNL A   1      43.776  28.593  28.502  1.00  0.00     0.167 HD
ATOM     58  C   UNL A   1      46.200  30.051  28.497  1.00  0.00     0.074 A 
ATOM     59  C   UNL A   1      47.597  30.381  28.307  1.00  0.00     0.031 C 
ATOM     60  C   UNL A   1      45.245  30.952  28.831  1.00  0.00     0.037 A 
BRANCH  47  61
ATOM     61  C   UNL A   1      39.543  28.643  29.015  1.00  0.00     0.057 A 
ATOM     62  C   UNL A   1      38.899  28.482  30.248  1.00  0.00     0.134 A 
ATOM     63  C   UNL A   1      38.797  29.186  27.961  1.00  0.00     0.134 A 
ATOM     64  F   UNL A   1      39.555  27.962  31.296  1.00  0.00    -0.206 F 
ATOM     65  C   UNL A   1      37.563  28.846  30.425  1.00  0.00     0.040 A 
ATOM     66  C   UNL A   1      37.468  29.577  28.132  1.00  0.00     0.040 A 
ATOM     67  F   UNL A   1      39.357  29.375  26.756  1.00  0.00    -0.206 F 
ATOM     68  C   UNL A   1      36.848  29.407  29.367  1.00  0.00     0.006 A 
ENDBRANCH  47  61
BRANCH  48  69
ATOM     69  C   UNL A   1      49.147  26.611  27.257  1.00  0.00     0.057 A 
ATOM     70  C   UNL A   1      49.622  26.795  25.954  1.00  0.00     0.134 A 
ATOM     71  C   UNL A   1      50.052  26.123  28.209  1.00  0.00     0.134 A 
ATOM     72  F   UNL A   1      48.799  27.238  24.993  1.00  0.00    -0.206 F 
ATOM     73  C   UNL A   1      50.933  26.471  25.600  1.00  0.00     0.040 A 
ATOM     74  C   UNL A   1      51.375  25.826  27.876  1.00  0.00     0.040 A 
ATOM     75  F   UNL A   1      49.665  25.930  29.479  1.00  0.00    -0.206 F 
ATOM     76  C   UNL A   1      51.815  25.987  26.564  1.00  0.00     0.006 A 
ENDBRANCH  48  69
BRANCH  60  77
ATOM     77  C   UNL A   1      45.676  32.375  29.032  1.00  0.00     0.057 A 
ATOM     78  C   UNL A   1      46.105  32.844  30.281  1.00  0.00     0.134 A 
ATOM     79  C   UNL A   1      45.718  33.270  27.956  1.00  0.00     0.134 A 
ATOM     80  F   UNL A   1      46.075  32.042  31.355  1.00  0.00    -0.206 F 
ATOM     81  C   UNL A   1      46.546  34.156  30.454  1.00  0.00     0.040 A 
ATOM     82  C   UNL A   1      46.184  34.576  28.110  1.00  0.00     0.040 A 
ATOM     83  F   UNL A   1      45.328  32.882  26.732  1.00  0.00    -0.206 F 
ATOM     84  C   UNL A   1      46.596  35.023  29.364  1.00  0.00     0.006 A 
ENDBRANCH  60  77
ENDBRANCH  34  35
ENDBRANCH  26  29
ENDBRANCH  24  25
ENDBRANCH  23  24
ENDBRANCH   1  23
TORSDOF 14
ENDMDL
MODEL 3
REMARK VINA RESULT:     -12.1      1.565      2.273
REMARK SMILES C[C@@H](C(=O)NCCCNC(=O)c1ccc(-c2c3nc(c(-c4c(F)cccc4F)c4ccc([nH]4)c(-c4c(F)cccc4F)c4nc(c(-c5c(F)cccc5F)c5ccc2[nH]5)C=C4)C=C3)cc1)c1ccc(C[C@@H]2CCC[C@@H]2O)cc1F
REMARK SMILES IDX 6 1 5 2 3 3 4 4 2 6 1 7 66 8 67 9 78 10 68 11 77 12 79 13
REMARK SMILES IDX 69 14 70 15 71 16 72 17 75 18 73 19 74 20 76 21 7 23 8 24
REMARK SMILES IDX 9 25 10 26 11 28 12 29 13 30 65 31 14 32 64 33 15 34 16 35
REMARK SMILES IDX 17 36 58 37 18 38 63 39 57 40 59 41 19 42 62 43 56 44 55 45
REMARK SMILES IDX 20 47 46 48 29 49 45 50 30 51 33 52 44 53 60 54 31 55 32 56
REMARK SMILES IDX 43 58 61 59 34 60 21 61 22 62 27 63 23 64 24 65 26 66 28 67
REMARK SMILES IDX 25 68 47 69 48 70 53 71 49 72 50 73 52 74 54 75 51 76 35 77
REMARK SMILES IDX 36 78 41 79 37 80 38 81 40 82 42 83 39 84
REMARK H PARENT 5 5 76 22 9 27 59 46 33 57
REMARK Flexibility Score: inf
ROOT
ATOM      1  C   UNL A   1      31.852  29.921  26.398  1.00  0.00     0.117 C 
ENDROOT
BRANCH   1   2
ATOM      2  N   UNL A   1      31.283  29.409  25.164  1.00  0.00    -0.356 N 
ATOM      3  C   UNL A   1      31.896  28.950  24.033  1.00  0.00     0.227 C 
ATOM      4  O   UNL A   1      31.191  28.890  23.022  1.00  0.00    -0.274 OA
ATOM      5  H   UNL A   1      30.299  29.389  25.139  1.00  0.00     0.163 HD
BRANCH   3   6
ATOM      6  C   UNL A   1      33.376  28.519  24.072  1.00  0.00     0.108 C 
ATOM      7  C   UNL A   1      34.032  28.932  22.749  1.00  0.00     0.023 C 
BRANCH   6   8
ATOM      8  C   UNL A   1      33.588  27.042  24.427  1.00  0.00    -0.000 A 
ATOM      9  C   UNL A   1      33.679  26.061  23.424  1.00  0.00     0.008 A 
ATOM     10  C   UNL A   1      33.627  26.585  25.753  1.00  0.00     0.127 A 
ATOM     11  C   UNL A   1      33.871  24.709  23.734  1.00  0.00     0.004 A 
ATOM     12  C   UNL A   1      33.781  25.235  26.067  1.00  0.00     0.043 A 
ATOM     13  F   UNL A   1      33.494  27.431  26.782  1.00  0.00    -0.207 F 
ATOM     14  C   UNL A   1      33.894  24.274  25.060  1.00  0.00    -0.045 A 
BRANCH  14  15
ATOM     15  C   UNL A   1      34.003  22.815  25.415  1.00  0.00     0.041 C 
BRANCH  15  16
ATOM     16  C   UNL A   1      35.304  22.328  26.091  1.00  0.00     0.022 C 
ATOM     17  C   UNL A   1      36.446  23.350  26.097  1.00  0.00     0.007 C 
ATOM     18  C   UNL A   1      35.978  21.078  25.513  1.00  0.00     0.117 C 
ATOM     19  C   UNL A   1      37.400  22.952  24.965  1.00  0.00     0.003 C 
ATOM     20  C   UNL A   1      36.916  21.606  24.437  1.00  0.00     0.032 C 
BRANCH  18  21
ATOM     21  O   UNL A   1      35.077  20.118  25.007  1.00  0.00    -0.393 OA
ATOM     22  H   UNL A   1      34.467  20.543  24.385  1.00  0.00     0.210 HD
ENDBRANCH  18  21
ENDBRANCH  15  16
ENDBRANCH  14  15
ENDBRANCH   6   8
ENDBRANCH   3   6
ENDBRANCH   1   2
BRANCH   1  23
ATOM     23  C   UNL A   1      31.668  31.437  26.503  1.00  0.00     0.042 C 
BRANCH  23  24
ATOM     24  C   UNL A   1      32.851  32.173  27.127  1.00  0.00     0.118 C 
BRANCH  24  25
ATOM     25  N   UNL A   1      32.519  33.534  27.518  1.00  0.00    -0.352 N 
ATOM     26  C   UNL A   1      33.122  34.353  28.440  1.00  0.00     0.251 C 
ATOM     27  H   UNL A   1      31.747  33.927  27.050  1.00  0.00     0.163 HD
ATOM     28  O   UNL A   1      32.575  35.403  28.772  1.00  0.00    -0.269 OA
BRANCH  26  29
ATOM     29  C   UNL A   1      34.407  33.967  29.062  1.00  0.00     0.039 A 
ATOM     30  C   UNL A   1      34.385  33.242  30.257  1.00  0.00     0.014 A 
ATOM     31  C   UNL A   1      35.630  34.313  28.478  1.00  0.00     0.014 A 
ATOM     32  C   UNL A   1      35.582  32.786  30.816  1.00  0.00     0.010 A 
ATOM     33  C   UNL A   1      36.817  33.801  28.998  1.00  0.00     0.010 A 
ATOM     34  C   UNL A   1      36.803  33.016  30.162  1.00  0.00    -0.014 A 
BRANCH  34  35
ATOM     35  C   UNL A   1      38.064  32.387  30.637  1.00  0.00     0.031 A 
ATOM     36  C   UNL A   1      38.578  31.125  30.004  1.00  0.00     0.074 A 
ATOM     37  C   UNL A   1      38.695  32.912  31.707  1.00  0.00     0.049 A 
ATOM     38  N   UNL A   1      39.593  30.379  30.359  1.00  0.00    -0.248 NA
ATOM     39  C   UNL A   1      37.846  30.621  28.831  1.00  0.00     0.031 C 
ATOM     40  C   UNL A   1      38.272  34.111  32.436  1.00  0.00     0.029 A 
ATOM     41  N   UNL A   1      39.813  32.492  32.387  1.00  0.00    -0.354 N 
ATOM     42  C   UNL A   1      39.611  29.312  29.470  1.00  0.00     0.074 A 
ATOM     43  C   UNL A   1      38.489  29.489  28.575  1.00  0.00     0.031 C 
ATOM     44  C   UNL A   1      39.117  34.329  33.455  1.00  0.00     0.029 A 
ATOM     45  C   UNL A   1      40.111  33.262  33.487  1.00  0.00     0.049 A 
ATOM     46  H   UNL A   1      40.348  31.712  32.114  1.00  0.00     0.167 HD
ATOM     47  C   UNL A   1      40.490  28.285  29.406  1.00  0.00     0.037 A 
ATOM     48  C   UNL A   1      41.058  33.110  34.433  1.00  0.00     0.037 A 
ATOM     49  C   UNL A   1      41.623  28.129  30.280  1.00  0.00     0.049 A 
ATOM     50  C   UNL A   1      41.999  31.938  34.349  1.00  0.00     0.074 A 
ATOM     51  C   UNL A   1      42.626  27.176  30.225  1.00  0.00     0.029 A 
ATOM     52  N   UNL A   1      41.897  28.935  31.374  1.00  0.00    -0.354 N 
ATOM     53  N   UNL A   1      42.065  30.996  33.440  1.00  0.00    -0.248 NA
ATOM     54  C   UNL A   1      42.993  31.805  35.424  1.00  0.00     0.031 C 
ATOM     55  C   UNL A   1      43.468  27.363  31.325  1.00  0.00     0.029 A 
ATOM     56  C   UNL A   1      43.023  28.468  32.032  1.00  0.00     0.049 A 
ATOM     57  H   UNL A   1      41.369  29.721  31.644  1.00  0.00     0.167 HD
ATOM     58  C   UNL A   1      43.117  30.174  33.822  1.00  0.00     0.074 A 
ATOM     59  C   UNL A   1      43.677  30.741  35.031  1.00  0.00     0.031 C 
ATOM     60  C   UNL A   1      43.574  29.045  33.230  1.00  0.00     0.037 A 
BRANCH  47  61
ATOM     61  C   UNL A   1      40.277  27.231  28.360  1.00  0.00     0.057 A 
ATOM     62  C   UNL A   1      40.902  27.292  27.108  1.00  0.00     0.134 A 
ATOM     63  C   UNL A   1      39.520  26.088  28.649  1.00  0.00     0.134 A 
ATOM     64  F   UNL A   1      41.637  28.361  26.766  1.00  0.00    -0.206 F 
ATOM     65  C   UNL A   1      40.778  26.257  26.180  1.00  0.00     0.040 A 
ATOM     66  C   UNL A   1      39.408  25.036  27.739  1.00  0.00     0.040 A 
ATOM     67  F   UNL A   1      38.902  25.962  29.834  1.00  0.00    -0.206 F 
ATOM     68  C   UNL A   1      40.038  25.119  26.500  1.00  0.00     0.006 A 
ENDBRANCH  47  61
BRANCH  48  69
ATOM     69  C   UNL A   1      41.151  34.065  35.569  1.00  0.00     0.057 A 
ATOM     70  C   UNL A   1      41.991  35.183  35.509  1.00  0.00     0.134 A 
ATOM     71  C   UNL A   1      40.442  33.856  36.759  1.00  0.00     0.134 A 
ATOM     72  F   UNL A   1      42.713  35.426  34.406  1.00  0.00    -0.206 F 
ATOM     73  C   UNL A   1      42.151  36.038  36.602  1.00  0.00     0.040 A 
ATOM     74  C   UNL A   1      40.568  34.721  37.848  1.00  0.00     0.040 A 
ATOM     75  F   UNL A   1      39.614  32.808  36.881  1.00  0.00    -0.206 F 
ATOM     76  C   UNL A   1      41.435  35.808  37.775  1.00  0.00     0.006 A 
ENDBRANCH  48  69
BRANCH  60  77
ATOM     77  C   UNL A   1      44.746  28.356  33.864  1.00  0.00     0.057 A 
ATOM     78  C   UNL A   1      44.576  27.329  34.802  1.00  0.00     0.134 A 
ATOM     79  C   UNL A   1      46.056  28.681  33.492  1.00  0.00     0.134 A 
ATOM     80  F   UNL A   1      43.348  26.980  35.212  1.00  0.00    -0.206 F 
ATOM     81  C   UNL A   1      45.668  26.662  35.358  1.00  0.00     0.040 A 
ATOM     82  C   UNL A   1      47.155  28.001  34.019  1.00  0.00     0.040 A 
ATOM     83  F   UNL A   1      46.288  29.649  32.592  1.00  0.00    -0.206 F 
ATOM     84  C   UNL A   1      46.962  26.991  34.958  1.00  0.00     0.006 A 
ENDBRANCH  60  77
ENDBRANCH  34  35
ENDBRANCH  26  29
ENDBRANCH  24  25
ENDBRANCH  23  24
ENDBRANCH   1  23
TORSDOF 14
ENDMDL
