MODEL 1
REMARK VINA RESULT:     -12.3      0.000      0.000
REMARK SMILES C[C@@H](C(=O)NCc1ccc(F)cc1)n1cc(C(=O)NCCCNC(=O)c2ccc(-c3c4nc(c(-c5c(F)cccc5F)c5ccc([nH]5)c(-c5c(F)cccc5F)c5nc(c(-c6c(F)cccc6F)c6ccc3[nH]6)C=C5)C=C4)cc2)cn1
REMARK SMILES IDX 20 1 19 2 17 3 18 4 16 6 14 7 15 8 81 9 80 10 2 11 1 12 3 13
REMARK SMILES IDX 4 14 5 15 6 17 7 18 8 19 13 20 9 21 12 22 10 23 11 24 21 25
REMARK SMILES IDX 22 26 23 27 24 28 25 30 26 31 27 32 79 33 28 34 78 35 29 36
REMARK SMILES IDX 30 37 31 38 72 39 32 40 77 41 71 42 73 43 33 44 76 45 70 46
REMARK SMILES IDX 69 47 34 49 60 50 43 51 59 52 44 53 47 54 58 55 74 56 45 57
REMARK SMILES IDX 46 58 57 60 75 61 48 62 35 63 36 64 41 65 37 66 38 67 40 68
REMARK SMILES IDX 42 69 39 70 61 71 62 72 67 73 63 74 64 75 66 76 68 77 65 78
REMARK SMILES IDX 49 79 50 80 55 81 51 82 52 83 54 84 56 85 53 86
REMARK H PARENT 19 5 5 16 23 29 73 48 47 59
REMARK Flexibility Score: inf
ROOT
ATOM      1  C   UNL A   1      36.285  20.463  25.031  1.00  0.00     0.118 C 
ENDROOT
BRANCH   1   2
ATOM      2  N   UNL A   1      35.170  19.522  25.010  1.00  0.00    -0.352 N 
ATOM      3  C   UNL A   1      33.845  19.698  24.663  1.00  0.00     0.254 C 
ATOM      4  O   UNL A   1      33.143  18.697  24.550  1.00  0.00    -0.269 OA
ATOM      5  H   UNL A   1      35.402  18.607  25.291  1.00  0.00     0.163 HD
BRANCH   3   6
ATOM      6  C   UNL A   1      33.324  21.027  24.399  1.00  0.00     0.077 A 
ATOM      7  N   UNL A   1      33.021  23.209  24.349  1.00  0.00    -0.260 N 
ATOM      8  C   UNL A   1      33.412  22.171  25.158  1.00  0.00     0.123 A 
ATOM      9  N   UNL A   1      32.285  22.768  23.316  1.00  0.00    -0.180 NA
ATOM     10  C   UNL A   1      32.536  21.450  23.300  1.00  0.00     0.149 A 
BRANCH   7  11
ATOM     11  C   UNL A   1      33.347  24.624  24.599  1.00  0.00     0.193 C 
ATOM     12  C   UNL A   1      34.783  24.724  25.137  1.00  0.00     0.044 C 
BRANCH  11  13
ATOM     13  C   UNL A   1      33.236  25.556  23.394  1.00  0.00     0.244 C 
ATOM     14  O   UNL A   1      33.991  25.538  22.421  1.00  0.00    -0.273 OA
ATOM     15  N   UNL A   1      32.289  26.550  23.401  1.00  0.00    -0.350 N 
ATOM     16  H   UNL A   1      32.182  27.014  22.539  1.00  0.00     0.163 HD
BRANCH  15  17
ATOM     17  C   UNL A   1      31.414  27.039  24.456  1.00  0.00     0.151 C 
BRANCH  17  18
ATOM     18  C   UNL A   1      32.058  28.200  25.188  1.00  0.00    -0.029 A 
ATOM     19  C   UNL A   1      33.291  28.027  25.841  1.00  0.00     0.008 A 
ATOM     20  C   UNL A   1      31.427  29.455  25.267  1.00  0.00     0.008 A 
ATOM     21  C   UNL A   1      33.853  29.065  26.588  1.00  0.00     0.039 A 
ATOM     22  C   UNL A   1      31.982  30.485  26.031  1.00  0.00     0.039 A 
ATOM     23  C   UNL A   1      33.186  30.279  26.689  1.00  0.00     0.123 A 
ATOM     24  F   UNL A   1      33.712  31.264  27.429  1.00  0.00    -0.207 F 
ENDBRANCH  17  18
ENDBRANCH  15  17
ENDBRANCH  11  13
ENDBRANCH   7  11
ENDBRANCH   3   6
ENDBRANCH   1   2
BRANCH   1  25
ATOM     25  C   UNL A   1      37.626  19.816  24.653  1.00  0.00     0.042 C 
BRANCH  25  26
ATOM     26  C   UNL A   1      38.755  20.238  25.574  1.00  0.00     0.118 C 
BRANCH  26  27
ATOM     27  N   UNL A   1      39.786  19.201  25.734  1.00  0.00    -0.352 N 
ATOM     28  C   UNL A   1      41.153  19.346  25.950  1.00  0.00     0.251 C 
ATOM     29  H   UNL A   1      39.463  18.272  25.682  1.00  0.00     0.163 HD
ATOM     30  O   UNL A   1      41.928  18.434  25.723  1.00  0.00    -0.269 OA
BRANCH  28  31
ATOM     31  C   UNL A   1      41.641  20.633  26.475  1.00  0.00     0.039 A 
ATOM     32  C   UNL A   1      42.316  21.584  25.703  1.00  0.00     0.014 A 
ATOM     33  C   UNL A   1      41.340  20.892  27.800  1.00  0.00     0.014 A 
ATOM     34  C   UNL A   1      42.626  22.812  26.289  1.00  0.00     0.010 A 
ATOM     35  C   UNL A   1      41.323  22.177  28.233  1.00  0.00     0.010 A 
ATOM     36  C   UNL A   1      42.117  23.090  27.563  1.00  0.00    -0.014 A 
BRANCH  36  37
ATOM     37  C   UNL A   1      42.324  24.338  28.276  1.00  0.00     0.031 A 
ATOM     38  C   UNL A   1      41.205  25.298  28.143  1.00  0.00     0.074 A 
ATOM     39  C   UNL A   1      43.278  24.437  29.233  1.00  0.00     0.049 A 
ATOM     40  N   UNL A   1      41.201  26.427  27.520  1.00  0.00    -0.248 NA
ATOM     41  C   UNL A   1      39.873  24.870  28.607  1.00  0.00     0.031 C 
ATOM     42  C   UNL A   1      44.203  23.401  29.726  1.00  0.00     0.029 A 
ATOM     43  N   UNL A   1      43.542  25.475  30.068  1.00  0.00    -0.354 N 
ATOM     44  C   UNL A   1      39.930  26.960  27.716  1.00  0.00     0.074 A 
ATOM     45  C   UNL A   1      39.108  25.869  28.164  1.00  0.00     0.031 C 
ATOM     46  C   UNL A   1      44.744  23.789  30.902  1.00  0.00     0.029 A 
ATOM     47  C   UNL A   1      44.350  25.159  31.159  1.00  0.00     0.049 A 
ATOM     48  H   UNL A   1      43.190  26.382  29.914  1.00  0.00     0.167 HD
ATOM     49  C   UNL A   1      39.733  28.307  27.763  1.00  0.00     0.037 A 
ATOM     50  C   UNL A   1      44.622  25.977  32.208  1.00  0.00     0.037 A 
ATOM     51  C   UNL A   1      40.900  29.005  27.275  1.00  0.00     0.049 A 
ATOM     52  C   UNL A   1      44.291  27.358  31.764  1.00  0.00     0.074 A 
ATOM     53  C   UNL A   1      41.587  29.029  26.077  1.00  0.00     0.029 A 
ATOM     54  N   UNL A   1      41.762  29.518  28.215  1.00  0.00    -0.354 N 
ATOM     55  N   UNL A   1      44.934  27.988  30.818  1.00  0.00    -0.248 NA
ATOM     56  C   UNL A   1      42.942  27.833  32.028  1.00  0.00     0.031 C 
ATOM     57  C   UNL A   1      42.962  29.087  26.447  1.00  0.00     0.029 A 
ATOM     58  C   UNL A   1      43.036  29.182  27.838  1.00  0.00     0.049 A 
ATOM     59  H   UNL A   1      41.509  30.034  29.015  1.00  0.00     0.167 HD
ATOM     60  C   UNL A   1      43.949  28.645  30.095  1.00  0.00     0.074 A 
ATOM     61  C   UNL A   1      42.748  28.562  30.925  1.00  0.00     0.031 C 
ATOM     62  C   UNL A   1      44.112  28.924  28.768  1.00  0.00     0.037 A 
BRANCH  49  63
ATOM     63  C   UNL A   1      38.685  29.009  28.596  1.00  0.00     0.057 A 
ATOM     64  C   UNL A   1      37.561  29.692  28.088  1.00  0.00     0.134 A 
ATOM     65  C   UNL A   1      38.641  28.748  29.980  1.00  0.00     0.134 A 
ATOM     66  F   UNL A   1      37.404  29.968  26.790  1.00  0.00    -0.206 F 
ATOM     67  C   UNL A   1      36.467  30.051  28.880  1.00  0.00     0.040 A 
ATOM     68  C   UNL A   1      37.527  29.056  30.771  1.00  0.00     0.040 A 
ATOM     69  F   UNL A   1      39.647  28.110  30.596  1.00  0.00    -0.206 F 
ATOM     70  C   UNL A   1      36.429  29.700  30.218  1.00  0.00     0.006 A 
ENDBRANCH  49  63
BRANCH  50  71
ATOM     71  C   UNL A   1      44.779  25.628  33.641  1.00  0.00     0.057 A 
ATOM     72  C   UNL A   1      46.008  25.186  34.161  1.00  0.00     0.134 A 
ATOM     73  C   UNL A   1      43.659  25.432  34.465  1.00  0.00     0.134 A 
ATOM     74  F   UNL A   1      47.133  25.262  33.436  1.00  0.00    -0.206 F 
ATOM     75  C   UNL A   1      46.114  24.558  35.408  1.00  0.00     0.040 A 
ATOM     76  C   UNL A   1      43.752  24.801  35.715  1.00  0.00     0.040 A 
ATOM     77  F   UNL A   1      42.437  25.786  34.044  1.00  0.00    -0.206 F 
ATOM     78  C   UNL A   1      44.980  24.348  36.184  1.00  0.00     0.006 A 
ENDBRANCH  50  71
BRANCH  62  79
ATOM     79  C   UNL A   1      45.469  28.719  28.147  1.00  0.00     0.057 A 
ATOM     80  C   UNL A   1      46.306  29.830  28.011  1.00  0.00     0.134 A 
ATOM     81  C   UNL A   1      45.857  27.547  27.479  1.00  0.00     0.134 A 
ATOM     82  F   UNL A   1      45.973  30.998  28.582  1.00  0.00    -0.206 F 
ATOM     83  C   UNL A   1      47.456  29.795  27.220  1.00  0.00     0.040 A 
ATOM     84  C   UNL A   1      47.024  27.489  26.707  1.00  0.00     0.040 A 
ATOM     85  F   UNL A   1      45.083  26.456  27.484  1.00  0.00    -0.206 F 
ATOM     86  C   UNL A   1      47.818  28.621  26.562  1.00  0.00     0.006 A 
ENDBRANCH  62  79
ENDBRANCH  36  37
ENDBRANCH  28  31
ENDBRANCH  26  27
ENDBRANCH  25  26
ENDBRANCH   1  25
TORSDOF 14
ENDMDL
MODEL 2
REMARK VINA RESULT:     -12.1      2.737      6.977
REMARK SMILES C[C@@H](C(=O)NCc1ccc(F)cc1)n1cc(C(=O)NCCCNC(=O)c2ccc(-c3c4nc(c(-c5c(F)cccc5F)c5ccc([nH]5)c(-c5c(F)cccc5F)c5nc(c(-c6c(F)cccc6F)c6ccc3[nH]6)C=C5)C=C4)cc2)cn1
REMARK SMILES IDX 20 1 19 2 17 3 18 4 16 6 14 7 15 8 81 9 80 10 2 11 1 12 3 13
REMARK SMILES IDX 4 14 5 15 6 17 7 18 8 19 13 20 9 21 12 22 10 23 11 24 21 25
REMARK SMILES IDX 22 26 23 27 24 28 25 30 26 31 27 32 79 33 28 34 78 35 29 36
REMARK SMILES IDX 30 37 31 38 72 39 32 40 77 41 71 42 73 43 33 44 76 45 70 46
REMARK SMILES IDX 69 47 34 49 60 50 43 51 59 52 44 53 47 54 58 55 74 56 45 57
REMARK SMILES IDX 46 58 57 60 75 61 48 62 35 63 36 64 41 65 37 66 38 67 40 68
REMARK SMILES IDX 42 69 39 70 61 71 62 72 67 73 63 74 64 75 66 76 68 77 65 78
REMARK SMILES IDX 49 79 50 80 55 81 51 82 52 83 54 84 56 85 53 86
REMARK H PARENT 19 5 5 16 23 29 73 48 47 59
REMARK Flexibility Score: inf
ROOT
ATOM      1  C   UNL A   1      39.964  20.348  26.412  1.00  0.00     0.118 C 
ENDROOT
BRANCH   1   2
ATOM      2  N   UNL A   1      40.147  21.795  26.367  1.00  0.00    -0.352 N 
ATOM      3  C   UNL A   1      39.250  22.812  26.110  1.00  0.00     0.254 C 
ATOM      4  O   UNL A   1      39.614  23.966  26.318  1.00  0.00    -0.269 OA
ATOM      5  H   UNL A   1      41.066  22.096  26.551  1.00  0.00     0.163 HD
BRANCH   3   6
ATOM      6  C   UNL A   1      37.906  22.509  25.651  1.00  0.00     0.077 A 
ATOM      7  N   UNL A   1      35.766  22.637  25.142  1.00  0.00    -0.260 N 
ATOM      8  C   UNL A   1      36.699  23.019  26.072  1.00  0.00     0.123 A 
ATOM      9  N   UNL A   1      36.193  21.579  24.433  1.00  0.00    -0.180 NA
ATOM     10  C   UNL A   1      37.511  21.554  24.682  1.00  0.00     0.149 A 
BRANCH   7  11
ATOM     11  C   UNL A   1      34.456  23.287  24.964  1.00  0.00     0.193 C 
ATOM     12  C   UNL A   1      34.568  24.766  25.368  1.00  0.00     0.044 C 
BRANCH  11  13
ATOM     13  C   UNL A   1      33.871  23.234  23.554  1.00  0.00     0.244 C 
ATOM     14  O   UNL A   1      34.092  24.063  22.671  1.00  0.00    -0.273 OA
ATOM     15  N   UNL A   1      32.969  22.248  23.241  1.00  0.00    -0.350 N 
ATOM     16  H   UNL A   1      32.748  22.191  22.282  1.00  0.00     0.163 HD
BRANCH  15  17
ATOM     17  C   UNL A   1      32.280  21.272  24.072  1.00  0.00     0.151 C 
BRANCH  17  18
ATOM     18  C   UNL A   1      32.817  19.878  23.814  1.00  0.00    -0.029 A 
ATOM     19  C   UNL A   1      32.253  19.079  22.805  1.00  0.00     0.008 A 
ATOM     20  C   UNL A   1      33.855  19.339  24.596  1.00  0.00     0.008 A 
ATOM     21  C   UNL A   1      32.683  17.763  22.614  1.00  0.00     0.039 A 
ATOM     22  C   UNL A   1      34.270  18.016  24.417  1.00  0.00     0.039 A 
ATOM     23  C   UNL A   1      33.677  17.239  23.432  1.00  0.00     0.123 A 
ATOM     24  F   UNL A   1      34.069  15.969  23.266  1.00  0.00    -0.207 F 
ENDBRANCH  17  18
ENDBRANCH  15  17
ENDBRANCH  11  13
ENDBRANCH   7  11
ENDBRANCH   3   6
ENDBRANCH   1   2
BRANCH   1  25
ATOM     25  C   UNL A   1      41.185  19.570  25.900  1.00  0.00     0.042 C 
BRANCH  25  26
ATOM     26  C   UNL A   1      42.449  19.896  26.674  1.00  0.00     0.118 C 
BRANCH  26  27
ATOM     27  N   UNL A   1      43.666  19.818  25.852  1.00  0.00    -0.352 N 
ATOM     28  C   UNL A   1      44.343  20.834  25.184  1.00  0.00     0.251 C 
ATOM     29  H   UNL A   1      44.057  18.919  25.761  1.00  0.00     0.163 HD
ATOM     30  O   UNL A   1      45.117  20.587  24.278  1.00  0.00    -0.269 OA
BRANCH  28  31
ATOM     31  C   UNL A   1      44.106  22.224  25.613  1.00  0.00     0.039 A 
ATOM     32  C   UNL A   1      43.181  23.080  25.006  1.00  0.00     0.014 A 
ATOM     33  C   UNL A   1      44.826  22.640  26.718  1.00  0.00     0.014 A 
ATOM     34  C   UNL A   1      42.970  24.336  25.576  1.00  0.00     0.010 A 
ATOM     35  C   UNL A   1      44.364  23.684  27.450  1.00  0.00     0.010 A 
ATOM     36  C   UNL A   1      43.575  24.620  26.807  1.00  0.00    -0.014 A 
BRANCH  36  37
ATOM     37  C   UNL A   1      43.412  25.866  27.534  1.00  0.00     0.031 A 
ATOM     38  C   UNL A   1      44.370  26.923  27.134  1.00  0.00     0.074 A 
ATOM     39  C   UNL A   1      42.279  26.115  28.233  1.00  0.00     0.049 A 
ATOM     40  N   UNL A   1      45.336  27.418  27.829  1.00  0.00    -0.248 NA
ATOM     41  C   UNL A   1      44.363  27.359  25.727  1.00  0.00     0.031 C 
ATOM     42  C   UNL A   1      41.077  25.274  28.374  1.00  0.00     0.029 A 
ATOM     43  N   UNL A   1      41.909  27.252  28.876  1.00  0.00    -0.354 N 
ATOM     44  C   UNL A   1      45.914  28.397  27.024  1.00  0.00     0.074 A 
ATOM     45  C   UNL A   1      45.444  28.141  25.690  1.00  0.00     0.031 C 
ATOM     46  C   UNL A   1      40.051  26.014  28.850  1.00  0.00     0.029 A 
ATOM     47  C   UNL A   1      40.557  27.322  29.212  1.00  0.00     0.049 A 
ATOM     48  H   UNL A   1      42.546  27.972  29.090  1.00  0.00     0.167 HD
ATOM     49  C   UNL A   1      46.501  29.498  27.571  1.00  0.00     0.037 A 
ATOM     50  C   UNL A   1      39.920  28.411  29.712  1.00  0.00     0.037 A 
ATOM     51  C   UNL A   1      46.703  29.310  28.989  1.00  0.00     0.049 A 
ATOM     52  C   UNL A   1      40.977  29.314  30.241  1.00  0.00     0.074 A 
ATOM     53  C   UNL A   1      47.410  28.407  29.758  1.00  0.00     0.029 A 
ATOM     54  N   UNL A   1      45.789  29.893  29.834  1.00  0.00    -0.354 N 
ATOM     55  N   UNL A   1      41.741  29.018  31.258  1.00  0.00    -0.248 NA
ATOM     56  C   UNL A   1      41.507  30.317  29.330  1.00  0.00     0.031 C 
ATOM     57  C   UNL A   1      46.566  28.143  30.876  1.00  0.00     0.029 A 
ATOM     58  C   UNL A   1      45.438  28.958  30.774  1.00  0.00     0.049 A 
ATOM     59  H   UNL A   1      45.448  30.814  29.775  1.00  0.00     0.167 HD
ATOM     60  C   UNL A   1      43.002  29.471  30.899  1.00  0.00     0.074 A 
ATOM     61  C   UNL A   1      42.783  30.319  29.727  1.00  0.00     0.031 C 
ATOM     62  C   UNL A   1      44.132  28.882  31.389  1.00  0.00     0.037 A 
BRANCH  49  63
ATOM     63  C   UNL A   1      46.535  30.873  26.944  1.00  0.00     0.057 A 
ATOM     64  C   UNL A   1      45.404  31.651  26.621  1.00  0.00     0.134 A 
ATOM     65  C   UNL A   1      47.757  31.573  26.926  1.00  0.00     0.134 A 
ATOM     66  F   UNL A   1      44.158  31.169  26.649  1.00  0.00    -0.206 F 
ATOM     67  C   UNL A   1      45.477  33.018  26.342  1.00  0.00     0.040 A 
ATOM     68  C   UNL A   1      47.834  32.953  26.699  1.00  0.00     0.040 A 
ATOM     69  F   UNL A   1      48.913  30.953  27.209  1.00  0.00    -0.206 F 
ATOM     70  C   UNL A   1      46.689  33.683  26.416  1.00  0.00     0.006 A 
ENDBRANCH  49  63
BRANCH  50  71
ATOM     71  C   UNL A   1      38.543  28.889  29.436  1.00  0.00     0.057 A 
ATOM     72  C   UNL A   1      38.198  29.469  28.202  1.00  0.00     0.134 A 
ATOM     73  C   UNL A   1      37.614  29.062  30.475  1.00  0.00     0.134 A 
ATOM     74  F   UNL A   1      39.037  29.423  27.158  1.00  0.00    -0.206 F 
ATOM     75  C   UNL A   1      37.020  30.204  28.020  1.00  0.00     0.040 A 
ATOM     76  C   UNL A   1      36.432  29.798  30.306  1.00  0.00     0.040 A 
ATOM     77  F   UNL A   1      37.868  28.577  31.698  1.00  0.00    -0.206 F 
ATOM     78  C   UNL A   1      36.139  30.386  29.080  1.00  0.00     0.006 A 
ENDBRANCH  50  71
BRANCH  62  79
ATOM     79  C   UNL A   1      43.999  27.878  32.504  1.00  0.00     0.057 A 
ATOM     80  C   UNL A   1      44.158  28.329  33.818  1.00  0.00     0.134 A 
ATOM     81  C   UNL A   1      43.969  26.489  32.310  1.00  0.00     0.134 A 
ATOM     82  F   UNL A   1      44.244  29.644  34.072  1.00  0.00    -0.206 F 
ATOM     83  C   UNL A   1      44.315  27.445  34.887  1.00  0.00     0.040 A 
ATOM     84  C   UNL A   1      44.096  25.591  33.377  1.00  0.00     0.040 A 
ATOM     85  F   UNL A   1      43.901  25.960  31.083  1.00  0.00    -0.206 F 
ATOM     86  C   UNL A   1      44.287  26.070  34.669  1.00  0.00     0.006 A 
ENDBRANCH  62  79
ENDBRANCH  36  37
ENDBRANCH  28  31
ENDBRANCH  26  27
ENDBRANCH  25  26
ENDBRANCH   1  25
TORSDOF 14
ENDMDL
MODEL 3
REMARK VINA RESULT:     -12.1      2.175      4.038
REMARK SMILES C[C@@H](C(=O)NCc1ccc(F)cc1)n1cc(C(=O)NCCCNC(=O)c2ccc(-c3c4nc(c(-c5c(F)cccc5F)c5ccc([nH]5)c(-c5c(F)cccc5F)c5nc(c(-c6c(F)cccc6F)c6ccc3[nH]6)C=C5)C=C4)cc2)cn1
REMARK SMILES IDX 20 1 19 2 17 3 18 4 16 6 14 7 15 8 81 9 80 10 2 11 1 12 3 13
REMARK SMILES IDX 4 14 5 15 6 17 7 18 8 19 13 20 9 21 12 22 10 23 11 24 21 25
REMARK SMILES IDX 22 26 23 27 24 28 25 30 26 31 27 32 79 33 28 34 78 35 29 36
REMARK SMILES IDX 30 37 31 38 72 39 32 40 77 41 71 42 73 43 33 44 76 45 70 46
REMARK SMILES IDX 69 47 34 49 60 50 43 51 59 52 44 53 47 54 58 55 74 56 45 57
REMARK SMILES IDX 46 58 57 60 75 61 48 62 35 63 36 64 41 65 37 66 38 67 40 68
REMARK SMILES IDX 42 69 39 70 61 71 62 72 67 73 63 74 64 75 66 76 68 77 65 78
REMARK SMILES IDX 49 79 50 80 55 81 51 82 52 83 54 84 56 85 53 86
REMARK H PARENT 19 5 5 16 23 29 73 48 47 59
REMARK Flexibility Score: inf
ROOT
ATOM      1  C   UNL A   1      36.477  20.622  24.989  1.00  0.00     0.118 C 
ENDROOT
BRANCH   1   2
ATOM      2  N   UNL A   1      36.967  21.994  25.074  1.00  0.00    -0.352 N 
ATOM      3  C   UNL A   1      36.467  23.093  25.745  1.00  0.00     0.254 C 
ATOM      4  O   UNL A   1      37.172  24.096  25.810  1.00  0.00    -0.269 OA
ATOM      5  H   UNL A   1      37.792  22.165  24.566  1.00  0.00     0.163 HD
BRANCH   3   6
ATOM      6  C   UNL A   1      35.167  23.033  26.388  1.00  0.00     0.077 A 
ATOM      7  N   UNL A   1      33.036  23.303  26.880  1.00  0.00    -0.260 N 
ATOM      8  C   UNL A   1      34.137  23.945  26.371  1.00  0.00     0.123 A 
ATOM      9  N   UNL A   1      33.394  22.236  27.614  1.00  0.00    -0.180 NA
ATOM     10  C   UNL A   1      34.667  22.026  27.251  1.00  0.00     0.149 A 
BRANCH   7  11
ATOM     11  C   UNL A   1      31.646  23.743  26.668  1.00  0.00     0.193 C 
ATOM     12  C   UNL A   1      31.619  24.821  25.573  1.00  0.00     0.044 C 
BRANCH  11  13
ATOM     13  C   UNL A   1      30.654  22.652  26.270  1.00  0.00     0.244 C 
ATOM     14  O   UNL A   1      29.607  22.403  26.870  1.00  0.00    -0.273 OA
ATOM     15  N   UNL A   1      30.958  21.821  25.221  1.00  0.00    -0.350 N 
ATOM     16  H   UNL A   1      30.213  21.243  24.933  1.00  0.00     0.163 HD
BRANCH  15  17
ATOM     17  C   UNL A   1      32.184  21.641  24.458  1.00  0.00     0.151 C 
BRANCH  17  18
ATOM     18  C   UNL A   1      32.498  20.168  24.292  1.00  0.00    -0.029 A 
ATOM     19  C   UNL A   1      32.326  19.544  23.043  1.00  0.00     0.008 A 
ATOM     20  C   UNL A   1      32.927  19.385  25.379  1.00  0.00     0.008 A 
ATOM     21  C   UNL A   1      32.531  18.170  22.899  1.00  0.00     0.039 A 
ATOM     22  C   UNL A   1      33.113  18.007  25.237  1.00  0.00     0.039 A 
ATOM     23  C   UNL A   1      32.909  17.412  24.000  1.00  0.00     0.123 A 
ATOM     24  F   UNL A   1      33.078  16.090  23.866  1.00  0.00    -0.207 F 
ENDBRANCH  17  18
ENDBRANCH  15  17
ENDBRANCH  11  13
ENDBRANCH   7  11
ENDBRANCH   3   6
ENDBRANCH   1   2
BRANCH   1  25
ATOM     25  C   UNL A   1      37.604  19.579  25.004  1.00  0.00     0.042 C 
BRANCH  25  26
ATOM     26  C   UNL A   1      38.906  20.137  25.547  1.00  0.00     0.118 C 
BRANCH  26  27
ATOM     27  N   UNL A   1      39.936  19.106  25.750  1.00  0.00    -0.352 N 
ATOM     28  C   UNL A   1      41.295  19.259  26.004  1.00  0.00     0.251 C 
ATOM     29  H   UNL A   1      39.617  18.176  25.699  1.00  0.00     0.163 HD
ATOM     30  O   UNL A   1      42.079  18.348  25.810  1.00  0.00    -0.269 OA
BRANCH  28  31
ATOM     31  C   UNL A   1      41.762  20.554  26.528  1.00  0.00     0.039 A 
ATOM     32  C   UNL A   1      42.418  21.517  25.754  1.00  0.00     0.014 A 
ATOM     33  C   UNL A   1      41.462  20.807  27.854  1.00  0.00     0.014 A 
ATOM     34  C   UNL A   1      42.709  22.750  26.339  1.00  0.00     0.010 A 
ATOM     35  C   UNL A   1      41.426  22.091  28.288  1.00  0.00     0.010 A 
ATOM     36  C   UNL A   1      42.200  23.018  27.616  1.00  0.00    -0.014 A 
BRANCH  36  37
ATOM     37  C   UNL A   1      42.389  24.268  28.330  1.00  0.00     0.031 A 
ATOM     38  C   UNL A   1      41.291  25.243  28.133  1.00  0.00     0.074 A 
ATOM     39  C   UNL A   1      43.296  24.362  29.332  1.00  0.00     0.049 A 
ATOM     40  N   UNL A   1      41.334  26.367  27.503  1.00  0.00    -0.248 NA
ATOM     41  C   UNL A   1      39.932  24.836  28.534  1.00  0.00     0.031 C 
ATOM     42  C   UNL A   1      44.180  23.318  29.878  1.00  0.00     0.029 A 
ATOM     43  N   UNL A   1      43.531  25.403  30.171  1.00  0.00    -0.354 N 
ATOM     44  C   UNL A   1      40.062  26.918  27.632  1.00  0.00     0.074 A 
ATOM     45  C   UNL A   1      39.204  25.842  28.046  1.00  0.00     0.031 C 
ATOM     46  C   UNL A   1      44.668  23.708  31.077  1.00  0.00     0.029 A 
ATOM     47  C   UNL A   1      44.280  25.085  31.304  1.00  0.00     0.049 A 
ATOM     48  H   UNL A   1      43.200  26.314  29.993  1.00  0.00     0.167 HD
ATOM     49  C   UNL A   1      39.882  28.268  27.659  1.00  0.00     0.037 A 
ATOM     50  C   UNL A   1      44.510  25.908  32.359  1.00  0.00     0.037 A 
ATOM     51  C   UNL A   1      41.081  28.946  27.224  1.00  0.00     0.049 A 
ATOM     52  C   UNL A   1      44.222  27.290  31.889  1.00  0.00     0.074 A 
ATOM     53  C   UNL A   1      41.827  28.952  26.062  1.00  0.00     0.029 A 
ATOM     54  N   UNL A   1      41.902  29.455  28.202  1.00  0.00    -0.354 N 
ATOM     55  N   UNL A   1      44.920  27.904  30.971  1.00  0.00    -0.248 NA
ATOM     56  C   UNL A   1      42.867  27.785  32.082  1.00  0.00     0.031 C 
ATOM     57  C   UNL A   1      43.183  28.994  26.500  1.00  0.00     0.029 A 
ATOM     58  C   UNL A   1      43.188  29.099  27.892  1.00  0.00     0.049 A 
ATOM     59  H   UNL A   1      41.617  29.981  28.985  1.00  0.00     0.167 HD
ATOM     60  C   UNL A   1      43.980  28.567  30.195  1.00  0.00     0.074 A 
ATOM     61  C   UNL A   1      42.738  28.508  30.965  1.00  0.00     0.031 C 
ATOM     62  C   UNL A   1      44.214  28.834  28.877  1.00  0.00     0.037 A 
BRANCH  49  63
ATOM     63  C   UNL A   1      38.804  28.991  28.433  1.00  0.00     0.057 A 
ATOM     64  C   UNL A   1      37.730  29.706  27.864  1.00  0.00     0.134 A 
ATOM     65  C   UNL A   1      38.669  28.721  29.810  1.00  0.00     0.134 A 
ATOM     66  F   UNL A   1      37.658  29.995  26.562  1.00  0.00    -0.206 F 
ATOM     67  C   UNL A   1      36.599  30.086  28.592  1.00  0.00     0.040 A 
ATOM     68  C   UNL A   1      37.517  29.051  30.535  1.00  0.00     0.040 A 
ATOM     69  F   UNL A   1      39.620  28.052  30.479  1.00  0.00    -0.206 F 
ATOM     70  C   UNL A   1      36.472  29.727  29.923  1.00  0.00     0.006 A 
ENDBRANCH  49  63
BRANCH  50  71
ATOM     71  C   UNL A   1      44.591  25.568  33.800  1.00  0.00     0.057 A 
ATOM     72  C   UNL A   1      45.801  25.169  34.397  1.00  0.00     0.134 A 
ATOM     73  C   UNL A   1      43.431  25.337  34.556  1.00  0.00     0.134 A 
ATOM     74  F   UNL A   1      46.964  25.282  33.741  1.00  0.00    -0.206 F 
ATOM     75  C   UNL A   1      45.851  24.549  35.651  1.00  0.00     0.040 A 
ATOM     76  C   UNL A   1      43.467  24.714  35.812  1.00  0.00     0.040 A 
ATOM     77  F   UNL A   1      42.225  25.649  34.059  1.00  0.00    -0.206 F 
ATOM     78  C   UNL A   1      44.679  24.303  36.357  1.00  0.00     0.006 A 
ENDBRANCH  50  71
BRANCH  62  79
ATOM     79  C   UNL A   1      45.596  28.606  28.326  1.00  0.00     0.057 A 
ATOM     80  C   UNL A   1      45.899  27.341  27.811  1.00  0.00     0.134 A 
ATOM     81  C   UNL A   1      46.671  29.488  28.511  1.00  0.00     0.134 A 
ATOM     82  F   UNL A   1      44.928  26.429  27.653  1.00  0.00    -0.206 F 
ATOM     83  C   UNL A   1      47.211  26.955  27.525  1.00  0.00     0.040 A 
ATOM     84  C   UNL A   1      47.988  29.125  28.201  1.00  0.00     0.040 A 
ATOM     85  F   UNL A   1      46.494  30.690  29.071  1.00  0.00    -0.206 F 
ATOM     86  C   UNL A   1      48.261  27.848  27.722  1.00  0.00     0.006 A 
ENDBRANCH  62  79
ENDBRANCH  36  37
ENDBRANCH  28  31
ENDBRANCH  26  27
ENDBRANCH  25  26
ENDBRANCH   1  25
TORSDOF 14
ENDMDL
