MODEL 1
REMARK VINA RESULT:     -12.0      0.000      0.000
REMARK SMILES C[C@H](NC(=O)c1ccc(C(C)(C)C)cc1)C(=O)N[C@@H](C(=O)NCCCNC(=O)c1ccc(-c2c3nc(c(-c4c(F)cccc4F)c4ccc([nH]4)c(-c4c(F)cccc4F)c4nc(c(-c5c(F)cccc5F)c5ccc2[nH]5)C=C4)C=C3)cc1)[C@H](C)O
REMARK SMILES IDX 20 1 21 2 22 3 19 5 18 6 16 7 17 8 2 10 1 11 3 12 4 13 5 15
REMARK SMILES IDX 6 16 7 17 15 18 8 19 14 20 9 21 10 22 11 23 12 24 13 25
REMARK SMILES IDX 83 26 84 27 85 28 23 30 24 31 25 32 26 33 27 34 28 36 29 37
REMARK SMILES IDX 30 38 82 39 31 40 81 41 32 42 33 43 34 44 75 45 35 46 80 47
REMARK SMILES IDX 74 48 76 49 36 50 79 51 73 52 72 53 37 55 63 56 46 57 62 58
REMARK SMILES IDX 47 59 50 60 61 61 77 62 48 63 49 64 60 66 78 67 51 68 38 69
REMARK SMILES IDX 39 70 44 71 40 72 41 73 43 74 45 75 42 76 64 77 65 78 70 79
REMARK SMILES IDX 66 80 67 81 69 82 71 83 68 84 52 85 53 86 58 87 54 88 55 89
REMARK SMILES IDX 57 90 59 91 56 92
REMARK H PARENT 22 4 18 9 3 14 85 29 26 35 76 54 50 65
REMARK Flexibility Score: inf
ROOT
ATOM      1  C   UNL A   1      31.620  28.372  27.161  1.00  0.00     0.245 C 
ATOM      2  O   UNL A   1      31.163  27.737  28.114  1.00  0.00    -0.273 OA
ATOM      3  N   UNL A   1      31.440  29.729  27.148  1.00  0.00    -0.354 N 
ATOM      4  H   UNL A   1      30.972  30.106  27.927  1.00  0.00     0.163 HD
ENDROOT
BRANCH   1   5
ATOM      5  C   UNL A   1      32.338  27.676  25.976  1.00  0.00     0.200 C 
BRANCH   5   6
ATOM      6  N   UNL A   1      31.394  27.664  24.844  1.00  0.00    -0.340 N 
ATOM      7  C   UNL A   1      31.577  27.597  23.496  1.00  0.00     0.243 C 
ATOM      8  O   UNL A   1      30.571  27.709  22.790  1.00  0.00    -0.273 OA
ATOM      9  H   UNL A   1      30.449  27.713  25.115  1.00  0.00     0.164 HD
BRANCH   7  10
ATOM     10  C   UNL A   1      32.979  27.522  22.856  1.00  0.00     0.168 C 
ATOM     11  C   UNL A   1      33.667  28.878  22.844  1.00  0.00     0.041 C 
BRANCH  10  12
ATOM     12  N   UNL A   1      32.812  26.841  21.570  1.00  0.00    -0.341 N 
ATOM     13  C   UNL A   1      32.927  25.533  21.188  1.00  0.00     0.251 C 
ATOM     14  H   UNL A   1      32.567  27.447  20.834  1.00  0.00     0.164 HD
ATOM     15  O   UNL A   1      32.921  25.238  20.002  1.00  0.00    -0.269 OA
BRANCH  13  16
ATOM     16  C   UNL A   1      33.070  24.495  22.215  1.00  0.00     0.039 A 
ATOM     17  C   UNL A   1      31.941  24.001  22.862  1.00  0.00     0.014 A 
ATOM     18  C   UNL A   1      34.338  24.004  22.518  1.00  0.00     0.014 A 
ATOM     19  C   UNL A   1      32.080  22.938  23.757  1.00  0.00     0.005 A 
ATOM     20  C   UNL A   1      34.467  22.942  23.411  1.00  0.00     0.005 A 
ATOM     21  C   UNL A   1      33.340  22.359  24.020  1.00  0.00    -0.043 A 
BRANCH  21  22
ATOM     22  C   UNL A   1      33.458  21.138  24.949  1.00  0.00    -0.013 C 
ATOM     23  C   UNL A   1      33.220  21.589  26.402  1.00  0.00     0.016 C 
ATOM     24  C   UNL A   1      32.411  20.066  24.565  1.00  0.00     0.016 C 
ATOM     25  C   UNL A   1      34.841  20.450  24.881  1.00  0.00     0.016 C 
ENDBRANCH  21  22
ENDBRANCH  13  16
ENDBRANCH  10  12
ENDBRANCH   7  10
ENDBRANCH   5   6
BRANCH   5  26
ATOM     26  C   UNL A   1      32.835  26.254  26.374  1.00  0.00     0.143 C 
ATOM     27  C   UNL A   1      34.075  25.764  25.635  1.00  0.00     0.041 C 
BRANCH  26  28
ATOM     28  O   UNL A   1      31.805  25.268  26.261  1.00  0.00    -0.391 OA
ATOM     29  H   UNL A   1      32.180  24.388  26.422  1.00  0.00     0.211 HD
ENDBRANCH  26  28
ENDBRANCH   5  26
ENDBRANCH   1   5
BRANCH   3  30
ATOM     30  C   UNL A   1      31.848  30.683  26.134  1.00  0.00     0.117 C 
BRANCH  30  31
ATOM     31  C   UNL A   1      31.554  32.120  26.556  1.00  0.00     0.042 C 
BRANCH  31  32
ATOM     32  C   UNL A   1      32.734  32.779  27.256  1.00  0.00     0.118 C 
BRANCH  32  33
ATOM     33  N   UNL A   1      32.443  34.154  27.644  1.00  0.00    -0.352 N 
ATOM     34  C   UNL A   1      33.023  34.936  28.610  1.00  0.00     0.251 C 
ATOM     35  H   UNL A   1      31.719  34.587  27.135  1.00  0.00     0.163 HD
ATOM     36  O   UNL A   1      32.543  36.032  28.882  1.00  0.00    -0.269 OA
BRANCH  34  37
ATOM     37  C   UNL A   1      34.208  34.451  29.350  1.00  0.00     0.039 A 
ATOM     38  C   UNL A   1      34.017  33.839  30.592  1.00  0.00     0.014 A 
ATOM     39  C   UNL A   1      35.496  34.599  28.830  1.00  0.00     0.014 A 
ATOM     40  C   UNL A   1      35.112  33.316  31.282  1.00  0.00     0.010 A 
ATOM     41  C   UNL A   1      36.575  34.011  29.480  1.00  0.00     0.010 A 
ATOM     42  C   UNL A   1      36.394  33.366  30.713  1.00  0.00    -0.014 A 
BRANCH  42  43
ATOM     43  C   UNL A   1      37.563  32.748  31.385  1.00  0.00     0.031 A 
ATOM     44  C   UNL A   1      38.243  31.558  30.772  1.00  0.00     0.074 A 
ATOM     45  C   UNL A   1      37.960  33.212  32.585  1.00  0.00     0.049 A 
ATOM     46  N   UNL A   1      39.217  30.826  31.247  1.00  0.00    -0.248 NA
ATOM     47  C   UNL A   1      37.737  31.112  29.465  1.00  0.00     0.031 C 
ATOM     48  C   UNL A   1      37.354  34.335  33.302  1.00  0.00     0.029 A 
ATOM     49  N   UNL A   1      38.965  32.788  33.416  1.00  0.00    -0.354 N 
ATOM     50  C   UNL A   1      39.423  29.820  30.312  1.00  0.00     0.074 A 
ATOM     51  C   UNL A   1      38.441  30.007  29.267  1.00  0.00     0.031 C 
ATOM     52  C   UNL A   1      38.022  34.533  34.451  1.00  0.00     0.029 A 
ATOM     53  C   UNL A   1      39.072  33.527  34.569  1.00  0.00     0.049 A 
ATOM     54  H   UNL A   1      39.553  32.026  33.208  1.00  0.00     0.167 HD
ATOM     55  C   UNL A   1      40.359  28.841  30.314  1.00  0.00     0.037 A 
ATOM     56  C   UNL A   1      39.922  33.405  35.605  1.00  0.00     0.037 A 
ATOM     57  C   UNL A   1      41.355  28.679  31.339  1.00  0.00     0.049 A 
ATOM     58  C   UNL A   1      40.946  32.306  35.590  1.00  0.00     0.074 A 
ATOM     59  C   UNL A   1      42.399  27.773  31.394  1.00  0.00     0.029 A 
ATOM     60  N   UNL A   1      41.431  29.446  32.493  1.00  0.00    -0.354 N 
ATOM     61  N   UNL A   1      41.172  31.401  34.671  1.00  0.00    -0.248 NA
ATOM     62  C   UNL A   1      41.830  32.212  36.761  1.00  0.00     0.031 C 
ATOM     63  C   UNL A   1      43.082  27.965  32.600  1.00  0.00     0.029 A 
ATOM     64  C   UNL A   1      42.486  29.016  33.279  1.00  0.00     0.049 A 
ATOM     65  H   UNL A   1      40.822  30.186  32.719  1.00  0.00     0.167 HD
ATOM     66  C   UNL A   1      42.238  30.644  35.136  1.00  0.00     0.074 A 
ATOM     67  C   UNL A   1      42.618  31.201  36.418  1.00  0.00     0.031 C 
ATOM     68  C   UNL A   1      42.848  29.584  34.553  1.00  0.00     0.037 A 
BRANCH  55  69
ATOM     69  C   UNL A   1      40.335  27.870  29.170  1.00  0.00     0.057 A 
ATOM     70  C   UNL A   1      39.535  26.719  29.192  1.00  0.00     0.134 A 
ATOM     71  C   UNL A   1      41.125  28.086  28.033  1.00  0.00     0.134 A 
ATOM     72  F   UNL A   1      38.766  26.446  30.256  1.00  0.00    -0.206 F 
ATOM     73  C   UNL A   1      39.552  25.798  28.143  1.00  0.00     0.040 A 
ATOM     74  C   UNL A   1      41.129  27.186  26.967  1.00  0.00     0.040 A 
ATOM     75  F   UNL A   1      41.910  29.170  27.944  1.00  0.00    -0.206 F 
ATOM     76  C   UNL A   1      40.349  26.032  27.025  1.00  0.00     0.006 A 
ENDBRANCH  55  69
BRANCH  56  77
ATOM     77  C   UNL A   1      39.866  34.379  36.721  1.00  0.00     0.057 A 
ATOM     78  C   UNL A   1      40.568  35.587  36.648  1.00  0.00     0.134 A 
ATOM     79  C   UNL A   1      39.100  34.144  37.870  1.00  0.00     0.134 A 
ATOM     80  F   UNL A   1      41.332  35.859  35.579  1.00  0.00    -0.206 F 
ATOM     81  C   UNL A   1      40.518  36.526  37.678  1.00  0.00     0.040 A 
ATOM     82  C   UNL A   1      39.026  35.083  38.900  1.00  0.00     0.040 A 
ATOM     83  F   UNL A   1      38.401  33.007  37.995  1.00  0.00    -0.206 F 
ATOM     84  C   UNL A   1      39.738  36.278  38.806  1.00  0.00     0.006 A 
ENDBRANCH  56  77
BRANCH  68  85
ATOM     85  C   UNL A   1      44.006  28.975  35.287  1.00  0.00     0.057 A 
ATOM     86  C   UNL A   1      45.324  29.383  35.050  1.00  0.00     0.134 A 
ATOM     87  C   UNL A   1      43.795  27.995  36.265  1.00  0.00     0.134 A 
ATOM     88  F   UNL A   1      45.592  30.306  34.115  1.00  0.00    -0.206 F 
ATOM     89  C   UNL A   1      46.395  28.827  35.751  1.00  0.00     0.040 A 
ATOM     90  C   UNL A   1      44.855  27.448  36.988  1.00  0.00     0.040 A 
ATOM     91  F   UNL A   1      42.555  27.565  36.542  1.00  0.00    -0.206 F 
ATOM     92  C   UNL A   1      46.160  27.860  36.729  1.00  0.00     0.006 A 
ENDBRANCH  68  85
ENDBRANCH  42  43
ENDBRANCH  34  37
ENDBRANCH  32  33
ENDBRANCH  31  32
ENDBRANCH  30  31
ENDBRANCH   3  30
TORSDOF 17
ENDMDL
MODEL 2
REMARK VINA RESULT:     -11.9      1.957      6.624
REMARK SMILES C[C@H](NC(=O)c1ccc(C(C)(C)C)cc1)C(=O)N[C@@H](C(=O)NCCCNC(=O)c1ccc(-c2c3nc(c(-c4c(F)cccc4F)c4ccc([nH]4)c(-c4c(F)cccc4F)c4nc(c(-c5c(F)cccc5F)c5ccc2[nH]5)C=C4)C=C3)cc1)[C@H](C)O
REMARK SMILES IDX 20 1 21 2 22 3 19 5 18 6 16 7 17 8 2 10 1 11 3 12 4 13 5 15
REMARK SMILES IDX 6 16 7 17 15 18 8 19 14 20 9 21 10 22 11 23 12 24 13 25
REMARK SMILES IDX 83 26 84 27 85 28 23 30 24 31 25 32 26 33 27 34 28 36 29 37
REMARK SMILES IDX 30 38 82 39 31 40 81 41 32 42 33 43 34 44 75 45 35 46 80 47
REMARK SMILES IDX 74 48 76 49 36 50 79 51 73 52 72 53 37 55 63 56 46 57 62 58
REMARK SMILES IDX 47 59 50 60 61 61 77 62 48 63 49 64 60 66 78 67 51 68 38 69
REMARK SMILES IDX 39 70 44 71 40 72 41 73 43 74 45 75 42 76 64 77 65 78 70 79
REMARK SMILES IDX 66 80 67 81 69 82 71 83 68 84 52 85 53 86 58 87 54 88 55 89
REMARK SMILES IDX 57 90 59 91 56 92
REMARK H PARENT 22 4 18 9 3 14 85 29 26 35 76 54 50 65
REMARK Flexibility Score: inf
ROOT
ATOM      1  C   UNL A   1      32.422  29.363  24.118  1.00  0.00     0.245 C 
ATOM      2  O   UNL A   1      33.459  29.179  23.477  1.00  0.00    -0.273 OA
ATOM      3  N   UNL A   1      32.504  30.088  25.276  1.00  0.00    -0.354 N 
ATOM      4  H   UNL A   1      33.397  30.437  25.501  1.00  0.00     0.163 HD
ENDROOT
BRANCH   1   5
ATOM      5  C   UNL A   1      31.063  28.760  23.678  1.00  0.00     0.200 C 
BRANCH   5   6
ATOM      6  N   UNL A   1      31.346  27.446  23.074  1.00  0.00    -0.340 N 
ATOM      7  C   UNL A   1      30.916  26.188  23.368  1.00  0.00     0.243 C 
ATOM      8  O   UNL A   1      31.420  25.262  22.727  1.00  0.00    -0.273 OA
ATOM      9  H   UNL A   1      31.965  27.487  22.309  1.00  0.00     0.164 HD
BRANCH   7  10
ATOM     10  C   UNL A   1      29.947  25.898  24.533  1.00  0.00     0.168 C 
ATOM     11  C   UNL A   1      28.496  26.085  24.120  1.00  0.00     0.041 C 
BRANCH  10  12
ATOM     12  N   UNL A   1      30.427  26.679  25.675  1.00  0.00    -0.341 N 
ATOM     13  C   UNL A   1      31.515  26.556  26.495  1.00  0.00     0.251 C 
ATOM     14  H   UNL A   1      29.852  27.446  25.897  1.00  0.00     0.164 HD
ATOM     15  O   UNL A   1      31.598  27.233  27.509  1.00  0.00    -0.269 OA
BRANCH  13  16
ATOM     16  C   UNL A   1      32.570  25.595  26.150  1.00  0.00     0.039 A 
ATOM     17  C   UNL A   1      32.385  24.242  26.416  1.00  0.00     0.014 A 
ATOM     18  C   UNL A   1      33.737  26.051  25.544  1.00  0.00     0.014 A 
ATOM     19  C   UNL A   1      33.348  23.327  25.985  1.00  0.00     0.005 A 
ATOM     20  C   UNL A   1      34.692  25.130  25.115  1.00  0.00     0.005 A 
ATOM     21  C   UNL A   1      34.502  23.747  25.289  1.00  0.00    -0.043 A 
BRANCH  21  22
ATOM     22  C   UNL A   1      35.509  22.714  24.754  1.00  0.00    -0.013 C 
ATOM     23  C   UNL A   1      36.749  22.703  25.667  1.00  0.00     0.016 C 
ATOM     24  C   UNL A   1      34.874  21.304  24.733  1.00  0.00     0.016 C 
ATOM     25  C   UNL A   1      35.979  23.009  23.311  1.00  0.00     0.016 C 
ENDBRANCH  21  22
ENDBRANCH  13  16
ENDBRANCH  10  12
ENDBRANCH   7  10
ENDBRANCH   5   6
BRANCH   5  26
ATOM     26  C   UNL A   1      30.303  29.725  22.719  1.00  0.00     0.143 C 
ATOM     27  C   UNL A   1      28.909  29.267  22.301  1.00  0.00     0.041 C 
BRANCH  26  28
ATOM     28  O   UNL A   1      31.062  30.035  21.547  1.00  0.00    -0.391 OA
ATOM     29  H   UNL A   1      31.872  30.504  21.802  1.00  0.00     0.211 HD
ENDBRANCH  26  28
ENDBRANCH   5  26
ENDBRANCH   1   5
BRANCH   3  30
ATOM     30  C   UNL A   1      31.446  30.410  26.215  1.00  0.00     0.117 C 
BRANCH  30  31
ATOM     31  C   UNL A   1      31.355  31.911  26.474  1.00  0.00     0.042 C 
BRANCH  31  32
ATOM     32  C   UNL A   1      32.625  32.478  27.094  1.00  0.00     0.118 C 
BRANCH  32  33
ATOM     33  N   UNL A   1      32.429  33.828  27.608  1.00  0.00    -0.352 N 
ATOM     34  C   UNL A   1      33.172  34.539  28.516  1.00  0.00     0.251 C 
ATOM     35  H   UNL A   1      31.643  34.302  27.248  1.00  0.00     0.163 HD
ATOM     36  O   UNL A   1      32.765  35.620  28.929  1.00  0.00    -0.269 OA
BRANCH  34  37
ATOM     37  C   UNL A   1      34.447  33.993  29.026  1.00  0.00     0.039 A 
ATOM     38  C   UNL A   1      34.426  33.213  30.187  1.00  0.00     0.014 A 
ATOM     39  C   UNL A   1      35.656  34.247  28.373  1.00  0.00     0.014 A 
ATOM     40  C   UNL A   1      35.607  32.634  30.654  1.00  0.00     0.010 A 
ATOM     41  C   UNL A   1      36.816  33.607  28.795  1.00  0.00     0.010 A 
ATOM     42  C   UNL A   1      36.804  32.797  29.940  1.00  0.00    -0.014 A 
BRANCH  42  43
ATOM     43  C   UNL A   1      38.056  32.129  30.367  1.00  0.00     0.031 A 
ATOM     44  C   UNL A   1      38.948  32.779  31.386  1.00  0.00     0.074 A 
ATOM     45  C   UNL A   1      38.427  30.976  29.780  1.00  0.00     0.049 A 
ATOM     46  N   UNL A   1      40.122  32.399  31.821  1.00  0.00    -0.248 NA
ATOM     47  C   UNL A   1      38.470  34.043  31.968  1.00  0.00     0.031 C 
ATOM     48  C   UNL A   1      37.668  30.268  28.748  1.00  0.00     0.029 A 
ATOM     49  N   UNL A   1      39.544  30.202  29.962  1.00  0.00    -0.354 N 
ATOM     50  C   UNL A   1      40.534  33.388  32.705  1.00  0.00     0.074 A 
ATOM     51  C   UNL A   1      39.506  34.406  32.709  1.00  0.00     0.031 C 
ATOM     52  C   UNL A   1      38.324  29.145  28.414  1.00  0.00     0.029 A 
ATOM     53  C   UNL A   1      39.567  29.076  29.174  1.00  0.00     0.049 A 
ATOM     54  H   UNL A   1      40.262  30.430  30.596  1.00  0.00     0.167 HD
ATOM     55  C   UNL A   1      41.656  33.432  33.462  1.00  0.00     0.037 A 
ATOM     56  C   UNL A   1      40.488  28.100  29.077  1.00  0.00     0.037 A 
ATOM     57  C   UNL A   1      42.658  32.400  33.481  1.00  0.00     0.049 A 
ATOM     58  C   UNL A   1      41.729  28.175  29.919  1.00  0.00     0.074 A 
ATOM     59  C   UNL A   1      43.790  32.308  34.272  1.00  0.00     0.029 A 
ATOM     60  N   UNL A   1      42.647  31.276  32.667  1.00  0.00    -0.354 N 
ATOM     61  N   UNL A   1      42.077  29.082  30.799  1.00  0.00    -0.248 NA
ATOM     62  C   UNL A   1      42.708  27.091  29.750  1.00  0.00     0.031 C 
ATOM     63  C   UNL A   1      44.485  31.150  33.908  1.00  0.00     0.029 A 
ATOM     64  C   UNL A   1      43.766  30.500  32.917  1.00  0.00     0.049 A 
ATOM     65  H   UNL A   1      41.948  31.063  32.008  1.00  0.00     0.167 HD
ATOM     66  C   UNL A   1      43.301  28.668  31.308  1.00  0.00     0.074 A 
ATOM     67  C   UNL A   1      43.631  27.425  30.642  1.00  0.00     0.031 C 
ATOM     68  C   UNL A   1      44.079  29.265  32.243  1.00  0.00     0.037 A 
BRANCH  55  69
ATOM     69  C   UNL A   1      41.851  34.644  34.324  1.00  0.00     0.057 A 
ATOM     70  C   UNL A   1      41.414  34.685  35.655  1.00  0.00     0.134 A 
ATOM     71  C   UNL A   1      42.480  35.788  33.816  1.00  0.00     0.134 A 
ATOM     72  F   UNL A   1      40.792  33.629  36.199  1.00  0.00    -0.206 F 
ATOM     73  C   UNL A   1      41.560  35.833  36.437  1.00  0.00     0.040 A 
ATOM     74  C   UNL A   1      42.656  36.932  34.597  1.00  0.00     0.040 A 
ATOM     75  F   UNL A   1      42.928  35.816  32.552  1.00  0.00    -0.206 F 
ATOM     76  C   UNL A   1      42.185  36.960  35.908  1.00  0.00     0.006 A 
ENDBRANCH  55  69
BRANCH  56  77
ATOM     77  C   UNL A   1      40.247  26.948  28.176  1.00  0.00     0.057 A 
ATOM     78  C   UNL A   1      39.450  25.876  28.591  1.00  0.00     0.134 A 
ATOM     79  C   UNL A   1      40.780  26.896  26.883  1.00  0.00     0.134 A 
ATOM     80  F   UNL A   1      38.927  25.863  29.826  1.00  0.00    -0.206 F 
ATOM     81  C   UNL A   1      39.195  24.787  27.756  1.00  0.00     0.040 A 
ATOM     82  C   UNL A   1      40.518  25.823  26.030  1.00  0.00     0.040 A 
ATOM     83  F   UNL A   1      41.547  27.897  26.426  1.00  0.00    -0.206 F 
ATOM     84  C   UNL A   1      39.724  24.763  26.468  1.00  0.00     0.006 A 
ENDBRANCH  56  77
BRANCH  68  85
ATOM     85  C   UNL A   1      45.350  28.565  32.619  1.00  0.00     0.057 A 
ATOM     86  C   UNL A   1      46.566  28.857  31.989  1.00  0.00     0.134 A 
ATOM     87  C   UNL A   1      45.364  27.615  33.648  1.00  0.00     0.134 A 
ATOM     88  F   UNL A   1      46.614  29.745  30.986  1.00  0.00    -0.206 F 
ATOM     89  C   UNL A   1      47.749  28.216  32.358  1.00  0.00     0.040 A 
ATOM     90  C   UNL A   1      46.545  26.984  34.042  1.00  0.00     0.040 A 
ATOM     91  F   UNL A   1      44.233  27.295  34.296  1.00  0.00    -0.206 F 
ATOM     92  C   UNL A   1      47.742  27.281  33.394  1.00  0.00     0.006 A 
ENDBRANCH  68  85
ENDBRANCH  42  43
ENDBRANCH  34  37
ENDBRANCH  32  33
ENDBRANCH  31  32
ENDBRANCH  30  31
ENDBRANCH   3  30
TORSDOF 17
ENDMDL
MODEL 3
REMARK VINA RESULT:     -11.8      1.141      2.439
REMARK SMILES C[C@H](NC(=O)c1ccc(C(C)(C)C)cc1)C(=O)N[C@@H](C(=O)NCCCNC(=O)c1ccc(-c2c3nc(c(-c4c(F)cccc4F)c4ccc([nH]4)c(-c4c(F)cccc4F)c4nc(c(-c5c(F)cccc5F)c5ccc2[nH]5)C=C4)C=C3)cc1)[C@H](C)O
REMARK SMILES IDX 20 1 21 2 22 3 19 5 18 6 16 7 17 8 2 10 1 11 3 12 4 13 5 15
REMARK SMILES IDX 6 16 7 17 15 18 8 19 14 20 9 21 10 22 11 23 12 24 13 25
REMARK SMILES IDX 83 26 84 27 85 28 23 30 24 31 25 32 26 33 27 34 28 36 29 37
REMARK SMILES IDX 30 38 82 39 31 40 81 41 32 42 33 43 34 44 75 45 35 46 80 47
REMARK SMILES IDX 74 48 76 49 36 50 79 51 73 52 72 53 37 55 63 56 46 57 62 58
REMARK SMILES IDX 47 59 50 60 61 61 77 62 48 63 49 64 60 66 78 67 51 68 38 69
REMARK SMILES IDX 39 70 44 71 40 72 41 73 43 74 45 75 42 76 64 77 65 78 70 79
REMARK SMILES IDX 66 80 67 81 69 82 71 83 68 84 52 85 53 86 58 87 54 88 55 89
REMARK SMILES IDX 57 90 59 91 56 92
REMARK H PARENT 22 4 18 9 3 14 85 29 26 35 76 54 50 65
REMARK Flexibility Score: inf
ROOT
ATOM      1  C   UNL A   1      31.715  28.321  25.777  1.00  0.00     0.245 C 
ATOM      2  O   UNL A   1      31.864  27.314  26.472  1.00  0.00    -0.273 OA
ATOM      3  N   UNL A   1      31.774  29.542  26.394  1.00  0.00    -0.354 N 
ATOM      4  H   UNL A   1      31.960  29.524  27.361  1.00  0.00     0.163 HD
ENDROOT
BRANCH   1   5
ATOM      5  C   UNL A   1      31.418  28.237  24.257  1.00  0.00     0.200 C 
BRANCH   5   6
ATOM      6  N   UNL A   1      30.072  27.656  24.109  1.00  0.00    -0.340 N 
ATOM      7  C   UNL A   1      29.620  26.372  24.113  1.00  0.00     0.243 C 
ATOM      8  O   UNL A   1      28.424  26.200  23.862  1.00  0.00    -0.273 OA
ATOM      9  H   UNL A   1      29.363  28.328  23.984  1.00  0.00     0.164 HD
BRANCH   7  10
ATOM     10  C   UNL A   1      30.565  25.165  24.286  1.00  0.00     0.168 C 
ATOM     11  C   UNL A   1      30.469  24.201  23.113  1.00  0.00     0.041 C 
BRANCH  10  12
ATOM     12  N   UNL A   1      30.308  24.625  25.623  1.00  0.00    -0.341 N 
ATOM     13  C   UNL A   1      31.018  23.791  26.442  1.00  0.00     0.251 C 
ATOM     14  H   UNL A   1      29.453  24.923  26.009  1.00  0.00     0.164 HD
ATOM     15  O   UNL A   1      30.498  23.331  27.448  1.00  0.00    -0.269 OA
BRANCH  13  16
ATOM     16  C   UNL A   1      32.401  23.445  26.091  1.00  0.00     0.039 A 
ATOM     17  C   UNL A   1      32.682  22.200  25.537  1.00  0.00     0.014 A 
ATOM     18  C   UNL A   1      33.413  24.378  26.301  1.00  0.00     0.014 A 
ATOM     19  C   UNL A   1      33.983  21.925  25.108  1.00  0.00     0.005 A 
ATOM     20  C   UNL A   1      34.707  24.096  25.868  1.00  0.00     0.005 A 
ATOM     21  C   UNL A   1      35.013  22.882  25.226  1.00  0.00    -0.043 A 
BRANCH  21  22
ATOM     22  C   UNL A   1      36.418  22.586  24.673  1.00  0.00    -0.013 C 
ATOM     23  C   UNL A   1      37.446  23.447  25.430  1.00  0.00     0.016 C 
ATOM     24  C   UNL A   1      36.766  21.091  24.857  1.00  0.00     0.016 C 
ATOM     25  C   UNL A   1      36.558  22.890  23.164  1.00  0.00     0.016 C 
ENDBRANCH  21  22
ENDBRANCH  13  16
ENDBRANCH  10  12
ENDBRANCH   7  10
ENDBRANCH   5   6
BRANCH   5  26
ATOM     26  C   UNL A   1      32.521  27.427  23.511  1.00  0.00     0.143 C 
ATOM     27  C   UNL A   1      33.956  27.841  23.819  1.00  0.00     0.041 C 
BRANCH  26  28
ATOM     28  O   UNL A   1      32.330  27.428  22.094  1.00  0.00    -0.391 OA
ATOM     29  H   UNL A   1      31.980  28.288  21.815  1.00  0.00     0.211 HD
ENDBRANCH  26  28
ENDBRANCH   5  26
ENDBRANCH   1   5
BRANCH   3  30
ATOM     30  C   UNL A   1      31.598  30.857  25.809  1.00  0.00     0.117 C 
BRANCH  30  31
ATOM     31  C   UNL A   1      31.369  31.926  26.875  1.00  0.00     0.042 C 
BRANCH  31  32
ATOM     32  C   UNL A   1      32.646  32.666  27.246  1.00  0.00     0.118 C 
BRANCH  32  33
ATOM     33  N   UNL A   1      32.391  34.058  27.596  1.00  0.00    -0.352 N 
ATOM     34  C   UNL A   1      33.012  34.860  28.520  1.00  0.00     0.251 C 
ATOM     35  H   UNL A   1      31.661  34.488  27.092  1.00  0.00     0.163 HD
ATOM     36  O   UNL A   1      32.559  35.973  28.768  1.00  0.00    -0.269 OA
BRANCH  34  37
ATOM     37  C   UNL A   1      34.207  34.378  29.244  1.00  0.00     0.039 A 
ATOM     38  C   UNL A   1      34.029  33.699  30.453  1.00  0.00     0.014 A 
ATOM     39  C   UNL A   1      35.492  34.591  28.741  1.00  0.00     0.014 A 
ATOM     40  C   UNL A   1      35.136  33.178  31.125  1.00  0.00     0.010 A 
ATOM     41  C   UNL A   1      36.586  34.006  29.370  1.00  0.00     0.010 A 
ATOM     42  C   UNL A   1      36.419  33.296  30.568  1.00  0.00    -0.014 A 
BRANCH  42  43
ATOM     43  C   UNL A   1      37.602  32.684  31.218  1.00  0.00     0.031 A 
ATOM     44  C   UNL A   1      38.274  31.494  30.593  1.00  0.00     0.074 A 
ATOM     45  C   UNL A   1      38.022  33.150  32.409  1.00  0.00     0.049 A 
ATOM     46  N   UNL A   1      39.261  30.767  31.050  1.00  0.00    -0.248 NA
ATOM     47  C   UNL A   1      37.744  31.044  29.297  1.00  0.00     0.031 C 
ATOM     48  C   UNL A   1      37.427  34.272  33.137  1.00  0.00     0.029 A 
ATOM     49  N   UNL A   1      39.044  32.731  33.221  1.00  0.00    -0.354 N 
ATOM     50  C   UNL A   1      39.451  29.760  30.112  1.00  0.00     0.074 A 
ATOM     51  C   UNL A   1      38.448  29.942  29.086  1.00  0.00     0.031 C 
ATOM     52  C   UNL A   1      38.116  34.474  34.271  1.00  0.00     0.029 A 
ATOM     53  C   UNL A   1      39.172  33.472  34.370  1.00  0.00     0.049 A 
ATOM     54  H   UNL A   1      39.631  31.971  33.002  1.00  0.00     0.167 HD
ATOM     55  C   UNL A   1      40.390  28.784  30.097  1.00  0.00     0.037 A 
ATOM     56  C   UNL A   1      40.043  33.355  35.389  1.00  0.00     0.037 A 
ATOM     57  C   UNL A   1      41.407  28.627  31.102  1.00  0.00     0.049 A 
ATOM     58  C   UNL A   1      41.070  32.259  35.355  1.00  0.00     0.074 A 
ATOM     59  C   UNL A   1      42.455  27.724  31.138  1.00  0.00     0.029 A 
ATOM     60  N   UNL A   1      41.503  29.396  32.253  1.00  0.00    -0.354 N 
ATOM     61  N   UNL A   1      41.281  31.353  34.433  1.00  0.00    -0.248 NA
ATOM     62  C   UNL A   1      41.977  32.170  36.509  1.00  0.00     0.031 C 
ATOM     63  C   UNL A   1      43.161  27.920  32.330  1.00  0.00     0.029 A 
ATOM     64  C   UNL A   1      42.575  28.970  33.019  1.00  0.00     0.049 A 
ATOM     65  H   UNL A   1      40.897  30.134  32.491  1.00  0.00     0.167 HD
ATOM     66  C   UNL A   1      42.358  30.600  34.879  1.00  0.00     0.074 A 
ATOM     67  C   UNL A   1      42.762  31.161  36.152  1.00  0.00     0.031 C 
ATOM     68  C   UNL A   1      42.960  29.541  34.285  1.00  0.00     0.037 A 
BRANCH  55  69
ATOM     69  C   UNL A   1      40.347  27.811  28.955  1.00  0.00     0.057 A 
ATOM     70  C   UNL A   1      41.081  28.017  27.779  1.00  0.00     0.134 A 
ATOM     71  C   UNL A   1      39.558  26.656  29.030  1.00  0.00     0.134 A 
ATOM     72  F   UNL A   1      41.845  29.110  27.637  1.00  0.00    -0.206 F 
ATOM     73  C   UNL A   1      41.000  27.130  26.703  1.00  0.00     0.040 A 
ATOM     74  C   UNL A   1      39.491  25.749  27.972  1.00  0.00     0.040 A 
ATOM     75  F   UNL A   1      38.835  26.395  30.129  1.00  0.00    -0.206 F 
ATOM     76  C   UNL A   1      40.206  25.991  26.800  1.00  0.00     0.006 A 
ENDBRANCH  55  69
BRANCH  56  77
ATOM     77  C   UNL A   1      40.006  34.330  36.505  1.00  0.00     0.057 A 
ATOM     78  C   UNL A   1      40.684  35.550  36.407  1.00  0.00     0.134 A 
ATOM     79  C   UNL A   1      39.281  34.085  37.678  1.00  0.00     0.134 A 
ATOM     80  F   UNL A   1      41.408  35.832  35.314  1.00  0.00    -0.206 F 
ATOM     81  C   UNL A   1      40.650  36.490  37.437  1.00  0.00     0.040 A 
ATOM     82  C   UNL A   1      39.223  35.024  38.708  1.00  0.00     0.040 A 
ATOM     83  F   UNL A   1      38.606  32.936  37.828  1.00  0.00    -0.206 F 
ATOM     84  C   UNL A   1      39.912  36.231  38.589  1.00  0.00     0.006 A 
ENDBRANCH  56  77
BRANCH  68  85
ATOM     85  C   UNL A   1      44.134  28.938  34.996  1.00  0.00     0.057 A 
ATOM     86  C   UNL A   1      43.984  27.875  35.895  1.00  0.00     0.134 A 
ATOM     87  C   UNL A   1      45.432  29.402  34.751  1.00  0.00     0.134 A 
ATOM     88  F   UNL A   1      42.765  27.397  36.184  1.00  0.00    -0.206 F 
ATOM     89  C   UNL A   1      45.084  27.305  36.538  1.00  0.00     0.040 A 
ATOM     90  C   UNL A   1      46.542  28.825  35.370  1.00  0.00     0.040 A 
ATOM     91  F   UNL A   1      45.644  30.414  33.896  1.00  0.00    -0.206 F 
ATOM     92  C   UNL A   1      46.369  27.776  36.270  1.00  0.00     0.006 A 
ENDBRANCH  68  85
ENDBRANCH  42  43
ENDBRANCH  34  37
ENDBRANCH  32  33
ENDBRANCH  31  32
ENDBRANCH  30  31
ENDBRANCH   3  30
TORSDOF 17
ENDMDL
