MODEL 1
REMARK VINA RESULT:     -12.5      0.000      0.000
REMARK SMILES Cc1cccc(CS(=O)(=O)c2ccc(C(=O)NCCCNC(=O)c3ccc(-c4c5nc(c(-c6c(F)cccc6F)c6ccc([nH]6)c(-c6c(F)cccc6F)c6nc(c(-c7c(F)cccc7F)c7ccc4[nH]7)C=C6)C=C5)cc3)cc2F)n1
REMARK SMILES IDX 18 1 17 2 15 3 16 4 14 6 11 7 12 8 79 9 13 10 78 11 80 12
REMARK SMILES IDX 8 13 9 14 10 15 7 16 6 17 1 18 2 19 3 20 81 21 4 22 5 23
REMARK SMILES IDX 19 24 20 25 21 26 22 27 23 29 24 30 25 31 77 32 26 33 76 34
REMARK SMILES IDX 27 35 28 36 29 37 70 38 30 39 75 40 69 41 71 42 31 43 74 44
REMARK SMILES IDX 68 45 67 46 32 48 58 49 41 50 57 51 42 52 45 53 56 54 72 55
REMARK SMILES IDX 43 56 44 57 55 59 73 60 46 61 33 62 34 63 39 64 35 65 36 66
REMARK SMILES IDX 38 67 40 68 37 69 59 70 60 71 65 72 61 73 62 74 64 75 66 76
REMARK SMILES IDX 63 77 47 78 48 79 53 80 49 81 50 82 52 83 54 84 51 85
REMARK H PARENT 17 5 21 28 71 47 45 58
REMARK Flexibility Score: inf
ROOT
ATOM      1  C   UNL A   1      31.771  30.553  26.715  1.00  0.00     0.118 C 
ENDROOT
BRANCH   1   2
ATOM      2  N   UNL A   1      32.455  30.284  25.463  1.00  0.00    -0.352 N 
ATOM      3  C   UNL A   1      32.687  29.120  24.780  1.00  0.00     0.251 C 
ATOM      4  O   UNL A   1      33.281  29.182  23.704  1.00  0.00    -0.269 OA
ATOM      5  H   UNL A   1      32.821  31.086  25.024  1.00  0.00     0.163 HD
BRANCH   3   6
ATOM      6  C   UNL A   1      32.199  27.799  25.250  1.00  0.00     0.042 A 
ATOM      7  C   UNL A   1      31.454  25.250  26.179  1.00  0.00     0.103 A 
ATOM      8  C   UNL A   1      32.792  25.652  26.224  1.00  0.00     0.024 A 
ATOM      9  C   UNL A   1      30.502  26.122  25.660  1.00  0.00     0.142 A 
ATOM     10  C   UNL A   1      33.155  26.931  25.791  1.00  0.00     0.015 A 
ATOM     11  C   UNL A   1      30.865  27.395  25.211  1.00  0.00     0.054 A 
ATOM     12  F   UNL A   1      29.213  25.784  25.549  1.00  0.00    -0.206 F 
BRANCH   7  13
ATOM     13  S   UNL A   1      31.005  23.603  26.668  1.00  0.00     0.186 S 
ATOM     14  O   UNL A   1      29.687  23.710  27.275  1.00  0.00    -0.223 OA
ATOM     15  O   UNL A   1      32.094  23.070  27.466  1.00  0.00    -0.223 OA
BRANCH  13  16
ATOM     16  C   UNL A   1      30.968  22.594  25.198  1.00  0.00     0.198 C 
BRANCH  16  17
ATOM     17  C   UNL A   1      32.170  21.710  25.082  1.00  0.00     0.056 A 
ATOM     18  C   UNL A   1      32.776  18.099  25.423  1.00  0.00     0.067 C 
ATOM     19  C   UNL A   1      33.057  19.553  25.209  1.00  0.00     0.038 A 
ATOM     20  C   UNL A   1      34.314  20.002  24.830  1.00  0.00     0.023 A 
ATOM     21  N   UNL A   1      32.007  20.395  25.351  1.00  0.00    -0.257 NA
ATOM     22  C   UNL A   1      34.493  21.363  24.601  1.00  0.00     0.004 A 
ATOM     23  C   UNL A   1      33.412  22.231  24.730  1.00  0.00     0.025 A 
ENDBRANCH  16  17
ENDBRANCH  13  16
ENDBRANCH   7  13
ENDBRANCH   3   6
ENDBRANCH   1   2
BRANCH   1  24
ATOM     24  C   UNL A   1      31.494  32.048  26.870  1.00  0.00     0.042 C 
BRANCH  24  25
ATOM     25  C   UNL A   1      32.762  32.898  26.863  1.00  0.00     0.118 C 
BRANCH  25  26
ATOM     26  N   UNL A   1      32.569  34.167  27.549  1.00  0.00    -0.352 N 
ATOM     27  C   UNL A   1      33.137  34.638  28.706  1.00  0.00     0.251 C 
ATOM     28  H   UNL A   1      31.933  34.782  27.116  1.00  0.00     0.163 HD
ATOM     29  O   UNL A   1      32.667  35.633  29.250  1.00  0.00    -0.269 OA
BRANCH  27  30
ATOM     30  C   UNL A   1      34.304  33.955  29.305  1.00  0.00     0.039 A 
ATOM     31  C   UNL A   1      34.085  32.968  30.270  1.00  0.00     0.014 A 
ATOM     32  C   UNL A   1      35.609  34.317  28.959  1.00  0.00     0.014 A 
ATOM     33  C   UNL A   1      35.170  32.311  30.851  1.00  0.00     0.010 A 
ATOM     34  C   UNL A   1      36.689  33.613  29.485  1.00  0.00     0.010 A 
ATOM     35  C   UNL A   1      36.481  32.608  30.441  1.00  0.00    -0.014 A 
BRANCH  35  36
ATOM     36  C   UNL A   1      37.645  31.879  31.002  1.00  0.00     0.031 A 
ATOM     37  C   UNL A   1      38.171  32.226  32.368  1.00  0.00     0.074 A 
ATOM     38  C   UNL A   1      38.264  30.943  30.256  1.00  0.00     0.049 A 
ATOM     39  N   UNL A   1      39.218  31.751  32.994  1.00  0.00    -0.248 NA
ATOM     40  C   UNL A   1      37.440  33.257  33.120  1.00  0.00     0.031 C 
ATOM     41  C   UNL A   1      37.868  30.544  28.905  1.00  0.00     0.029 A 
ATOM     42  N   UNL A   1      39.359  30.161  30.527  1.00  0.00    -0.354 N 
ATOM     43  C   UNL A   1      39.277  32.433  34.202  1.00  0.00     0.074 A 
ATOM     44  C   UNL A   1      38.191  33.390  34.203  1.00  0.00     0.031 C 
ATOM     45  C   UNL A   1      38.688  29.573  28.475  1.00  0.00     0.029 A 
ATOM     46  C   UNL A   1      39.692  29.309  29.502  1.00  0.00     0.049 A 
ATOM     47  H   UNL A   1      39.858  30.206  31.374  1.00  0.00     0.167 HD
ATOM     48  C   UNL A   1      40.143  32.259  35.229  1.00  0.00     0.037 A 
ATOM     49  C   UNL A   1      40.698  28.420  29.397  1.00  0.00     0.037 A 
ATOM     50  C   UNL A   1      41.201  31.284  35.234  1.00  0.00     0.049 A 
ATOM     51  C   UNL A   1      41.655  28.256  30.543  1.00  0.00     0.074 A 
ATOM     52  C   UNL A   1      42.096  30.994  36.249  1.00  0.00     0.029 A 
ATOM     53  N   UNL A   1      41.508  30.442  34.176  1.00  0.00    -0.354 N 
ATOM     54  N   UNL A   1      41.670  28.874  31.700  1.00  0.00    -0.248 NA
ATOM     55  C   UNL A   1      42.735  27.273  30.374  1.00  0.00     0.031 C 
ATOM     56  C   UNL A   1      42.974  30.009  35.788  1.00  0.00     0.029 A 
ATOM     57  C   UNL A   1      42.593  29.647  34.506  1.00  0.00     0.049 A 
ATOM     58  H   UNL A   1      41.026  30.413  33.318  1.00  0.00     0.167 HD
ATOM     59  C   UNL A   1      42.741  28.339  32.403  1.00  0.00     0.074 A 
ATOM     60  C   UNL A   1      43.346  27.338  31.549  1.00  0.00     0.031 C 
ATOM     61  C   UNL A   1      43.182  28.651  33.646  1.00  0.00     0.037 A 
BRANCH  48  62
ATOM     62  C   UNL A   1      39.978  33.128  36.441  1.00  0.00     0.057 A 
ATOM     63  C   UNL A   1      39.030  32.814  37.424  1.00  0.00     0.134 A 
ATOM     64  C   UNL A   1      40.708  34.313  36.603  1.00  0.00     0.134 A 
ATOM     65  F   UNL A   1      38.292  31.698  37.328  1.00  0.00    -0.206 F 
ATOM     66  C   UNL A   1      38.805  33.654  38.516  1.00  0.00     0.040 A 
ATOM     67  C   UNL A   1      40.511  35.146  37.705  1.00  0.00     0.040 A 
ATOM     68  F   UNL A   1      41.639  34.666  35.704  1.00  0.00    -0.206 F 
ATOM     69  C   UNL A   1      39.549  34.823  38.661  1.00  0.00     0.006 A 
ENDBRANCH  48  62
BRANCH  49  70
ATOM     70  C   UNL A   1      40.821  27.593  28.170  1.00  0.00     0.057 A 
ATOM     71  C   UNL A   1      41.593  28.010  27.078  1.00  0.00     0.134 A 
ATOM     72  C   UNL A   1      40.137  26.379  28.050  1.00  0.00     0.134 A 
ATOM     73  F   UNL A   1      42.267  29.169  27.127  1.00  0.00    -0.206 F 
ATOM     74  C   UNL A   1      41.663  27.258  25.904  1.00  0.00     0.040 A 
ATOM     75  C   UNL A   1      40.217  25.605  26.891  1.00  0.00     0.040 A 
ATOM     76  F   UNL A   1      39.395  25.920  29.068  1.00  0.00    -0.206 F 
ATOM     77  C   UNL A   1      40.976  26.050  25.809  1.00  0.00     0.006 A 
ENDBRANCH  49  70
BRANCH  61  78
ATOM     78  C   UNL A   1      44.362  27.893  34.178  1.00  0.00     0.057 A 
ATOM     79  C   UNL A   1      45.665  28.359  33.957  1.00  0.00     0.134 A 
ATOM     80  C   UNL A   1      44.215  26.663  34.828  1.00  0.00     0.134 A 
ATOM     81  F   UNL A   1      45.875  29.526  33.329  1.00  0.00    -0.206 F 
ATOM     82  C   UNL A   1      46.781  27.619  34.349  1.00  0.00     0.040 A 
ATOM     83  C   UNL A   1      45.323  25.925  35.249  1.00  0.00     0.040 A 
ATOM     84  F   UNL A   1      42.994  26.167  35.079  1.00  0.00    -0.206 F 
ATOM     85  C   UNL A   1      46.611  26.398  34.999  1.00  0.00     0.006 A 
ENDBRANCH  61  78
ENDBRANCH  35  36
ENDBRANCH  27  30
ENDBRANCH  25  26
ENDBRANCH  24  25
ENDBRANCH   1  24
TORSDOF 13
ENDMDL
MODEL 2
REMARK VINA RESULT:     -12.4      0.939      6.227
REMARK SMILES Cc1cccc(CS(=O)(=O)c2ccc(C(=O)NCCCNC(=O)c3ccc(-c4c5nc(c(-c6c(F)cccc6F)c6ccc([nH]6)c(-c6c(F)cccc6F)c6nc(c(-c7c(F)cccc7F)c7ccc4[nH]7)C=C6)C=C5)cc3)cc2F)n1
REMARK SMILES IDX 18 1 17 2 15 3 16 4 14 6 11 7 12 8 79 9 13 10 78 11 80 12
REMARK SMILES IDX 8 13 9 14 10 15 7 16 6 17 1 18 2 19 3 20 81 21 4 22 5 23
REMARK SMILES IDX 19 24 20 25 21 26 22 27 23 29 24 30 25 31 77 32 26 33 76 34
REMARK SMILES IDX 27 35 28 36 29 37 70 38 30 39 75 40 69 41 71 42 31 43 74 44
REMARK SMILES IDX 68 45 67 46 32 48 58 49 41 50 57 51 42 52 45 53 56 54 72 55
REMARK SMILES IDX 43 56 44 57 55 59 73 60 46 61 33 62 34 63 39 64 35 65 36 66
REMARK SMILES IDX 38 67 40 68 37 69 59 70 60 71 65 72 61 73 62 74 64 75 66 76
REMARK SMILES IDX 63 77 47 78 48 79 53 80 49 81 50 82 52 83 54 84 51 85
REMARK H PARENT 17 5 21 28 71 47 45 58
REMARK Flexibility Score: inf
ROOT
ATOM      1  C   UNL A   1      31.476  30.605  26.408  1.00  0.00     0.118 C 
ENDROOT
BRANCH   1   2
ATOM      2  N   UNL A   1      32.327  30.300  25.273  1.00  0.00    -0.352 N 
ATOM      3  C   UNL A   1      32.690  29.113  24.696  1.00  0.00     0.251 C 
ATOM      4  O   UNL A   1      33.417  29.144  23.703  1.00  0.00    -0.269 OA
ATOM      5  H   UNL A   1      32.716  31.093  24.838  1.00  0.00     0.163 HD
BRANCH   3   6
ATOM      6  C   UNL A   1      32.195  27.799  25.177  1.00  0.00     0.042 A 
ATOM      7  C   UNL A   1      31.433  25.273  26.153  1.00  0.00     0.103 A 
ATOM      8  C   UNL A   1      32.735  25.739  26.349  1.00  0.00     0.024 A 
ATOM      9  C   UNL A   1      30.526  26.069  25.461  1.00  0.00     0.142 A 
ATOM     10  C   UNL A   1      33.103  27.007  25.892  1.00  0.00     0.015 A 
ATOM     11  C   UNL A   1      30.896  27.331  24.987  1.00  0.00     0.054 A 
ATOM     12  F   UNL A   1      29.277  25.666  25.202  1.00  0.00    -0.206 F 
BRANCH   7  13
ATOM     13  S   UNL A   1      30.986  23.635  26.679  1.00  0.00     0.186 S 
ATOM     14  O   UNL A   1      29.683  23.759  27.313  1.00  0.00    -0.223 OA
ATOM     15  O   UNL A   1      32.090  23.109  27.459  1.00  0.00    -0.223 OA
BRANCH  13  16
ATOM     16  C   UNL A   1      30.910  22.604  25.226  1.00  0.00     0.198 C 
BRANCH  16  17
ATOM     17  C   UNL A   1      32.118  21.732  25.082  1.00  0.00     0.056 A 
ATOM     18  C   UNL A   1      32.777  18.134  25.464  1.00  0.00     0.067 C 
ATOM     19  C   UNL A   1      33.034  19.587  25.214  1.00  0.00     0.038 A 
ATOM     20  C   UNL A   1      34.271  20.042  24.783  1.00  0.00     0.023 A 
ATOM     21  N   UNL A   1      31.980  20.420  25.379  1.00  0.00    -0.257 NA
ATOM     22  C   UNL A   1      34.426  21.401  24.524  1.00  0.00     0.004 A 
ATOM     23  C   UNL A   1      33.340  22.260  24.676  1.00  0.00     0.025 A 
ENDBRANCH  16  17
ENDBRANCH  13  16
ENDBRANCH   7  13
ENDBRANCH   3   6
ENDBRANCH   1   2
BRANCH   1  24
ATOM     24  C   UNL A   1      31.389  32.115  26.630  1.00  0.00     0.042 C 
BRANCH  24  25
ATOM     25  C   UNL A   1      32.681  32.719  27.172  1.00  0.00     0.118 C 
BRANCH  25  26
ATOM     26  N   UNL A   1      32.511  34.111  27.558  1.00  0.00    -0.352 N 
ATOM     27  C   UNL A   1      33.099  34.822  28.574  1.00  0.00     0.251 C 
ATOM     28  H   UNL A   1      31.876  34.622  27.006  1.00  0.00     0.163 HD
ATOM     29  O   UNL A   1      32.647  35.919  28.886  1.00  0.00    -0.269 OA
BRANCH  27  30
ATOM     30  C   UNL A   1      34.268  34.275  29.298  1.00  0.00     0.039 A 
ATOM     31  C   UNL A   1      34.060  33.626  30.518  1.00  0.00     0.014 A 
ATOM     32  C   UNL A   1      35.565  34.444  28.807  1.00  0.00     0.014 A 
ATOM     33  C   UNL A   1      35.147  33.104  31.220  1.00  0.00     0.010 A 
ATOM     34  C   UNL A   1      36.641  33.862  29.471  1.00  0.00     0.010 A 
ATOM     35  C   UNL A   1      36.444  33.192  30.688  1.00  0.00    -0.014 A 
BRANCH  35  36
ATOM     36  C   UNL A   1      37.605  32.591  31.389  1.00  0.00     0.031 A 
ATOM     37  C   UNL A   1      38.302  31.391  30.811  1.00  0.00     0.074 A 
ATOM     38  C   UNL A   1      37.996  33.093  32.577  1.00  0.00     0.049 A 
ATOM     39  N   UNL A   1      39.285  30.686  31.311  1.00  0.00    -0.248 NA
ATOM     40  C   UNL A   1      37.818  30.904  29.509  1.00  0.00     0.031 C 
ATOM     41  C   UNL A   1      37.377  34.232  33.256  1.00  0.00     0.029 A 
ATOM     42  N   UNL A   1      39.003  32.706  33.426  1.00  0.00    -0.354 N 
ATOM     43  C   UNL A   1      39.526  29.669  30.396  1.00  0.00     0.074 A 
ATOM     44  C   UNL A   1      38.555  29.817  29.333  1.00  0.00     0.031 C 
ATOM     45  C   UNL A   1      38.034  34.471  34.401  1.00  0.00     0.029 A 
ATOM     46  C   UNL A   1      39.093  33.479  34.559  1.00  0.00     0.049 A 
ATOM     47  H   UNL A   1      39.603  31.949  33.241  1.00  0.00     0.167 HD
ATOM     48  C   UNL A   1      40.485  28.715  30.428  1.00  0.00     0.037 A 
ATOM     49  C   UNL A   1      39.931  33.394  35.609  1.00  0.00     0.037 A 
ATOM     50  C   UNL A   1      41.467  28.592  31.473  1.00  0.00     0.049 A 
ATOM     51  C   UNL A   1      40.977  32.316  35.629  1.00  0.00     0.074 A 
ATOM     52  C   UNL A   1      42.514  27.693  31.566  1.00  0.00     0.029 A 
ATOM     53  N   UNL A   1      41.523  29.392  32.604  1.00  0.00    -0.354 N 
ATOM     54  N   UNL A   1      41.224  31.391  34.733  1.00  0.00    -0.248 NA
ATOM     55  C   UNL A   1      41.863  32.269  36.801  1.00  0.00     0.031 C 
ATOM     56  C   UNL A   1      43.176  27.917  32.776  1.00  0.00     0.029 A 
ATOM     57  C   UNL A   1      42.574  28.992  33.412  1.00  0.00     0.049 A 
ATOM     58  H   UNL A   1      40.908  30.134  32.803  1.00  0.00     0.167 HD
ATOM     59  C   UNL A   1      42.305  30.668  35.220  1.00  0.00     0.074 A 
ATOM     60  C   UNL A   1      42.675  31.269  36.486  1.00  0.00     0.031 C 
ATOM     61  C   UNL A   1      42.933  29.603  34.667  1.00  0.00     0.037 A 
BRANCH  48  62
ATOM     62  C   UNL A   1      40.536  27.733  29.294  1.00  0.00     0.057 A 
ATOM     63  C   UNL A   1      41.427  27.913  28.229  1.00  0.00     0.134 A 
ATOM     64  C   UNL A   1      39.655  26.645  29.221  1.00  0.00     0.134 A 
ATOM     65  F   UNL A   1      42.294  28.938  28.231  1.00  0.00    -0.206 F 
ATOM     66  C   UNL A   1      41.432  27.057  27.126  1.00  0.00     0.040 A 
ATOM     67  C   UNL A   1      39.669  25.766  28.137  1.00  0.00     0.040 A 
ATOM     68  F   UNL A   1      38.784  26.409  30.214  1.00  0.00    -0.206 F 
ATOM     69  C   UNL A   1      40.552  25.977  27.080  1.00  0.00     0.006 A 
ENDBRANCH  48  62
BRANCH  49  70
ATOM     70  C   UNL A   1      39.830  34.385  36.710  1.00  0.00     0.057 A 
ATOM     71  C   UNL A   1      40.502  35.612  36.657  1.00  0.00     0.134 A 
ATOM     72  C   UNL A   1      39.082  34.108  37.860  1.00  0.00     0.134 A 
ATOM     73  F   UNL A   1      41.243  35.934  35.587  1.00  0.00    -0.206 F 
ATOM     74  C   UNL A   1      40.452  36.519  37.718  1.00  0.00     0.040 A 
ATOM     75  C   UNL A   1      39.002  35.016  38.917  1.00  0.00     0.040 A 
ATOM     76  F   UNL A   1      38.403  32.956  37.961  1.00  0.00    -0.206 F 
ATOM     77  C   UNL A   1      39.696  36.223  38.851  1.00  0.00     0.006 A 
ENDBRANCH  49  70
BRANCH  61  78
ATOM     78  C   UNL A   1      44.102  29.022  35.407  1.00  0.00     0.057 A 
ATOM     79  C   UNL A   1      45.407  29.445  35.122  1.00  0.00     0.134 A 
ATOM     80  C   UNL A   1      43.945  27.986  36.334  1.00  0.00     0.134 A 
ATOM     81  F   UNL A   1      45.627  30.426  34.234  1.00  0.00    -0.206 F 
ATOM     82  C   UNL A   1      46.516  28.846  35.721  1.00  0.00     0.040 A 
ATOM     83  C   UNL A   1      45.044  27.396  36.960  1.00  0.00     0.040 A 
ATOM     84  F   UNL A   1      42.721  27.542  36.658  1.00  0.00    -0.206 F 
ATOM     85  C   UNL A   1      46.335  27.818  36.644  1.00  0.00     0.006 A 
ENDBRANCH  61  78
ENDBRANCH  35  36
ENDBRANCH  27  30
ENDBRANCH  25  26
ENDBRANCH  24  25
ENDBRANCH   1  24
TORSDOF 13
ENDMDL
MODEL 3
REMARK VINA RESULT:     -12.4      1.186      6.160
REMARK SMILES Cc1cccc(CS(=O)(=O)c2ccc(C(=O)NCCCNC(=O)c3ccc(-c4c5nc(c(-c6c(F)cccc6F)c6ccc([nH]6)c(-c6c(F)cccc6F)c6nc(c(-c7c(F)cccc7F)c7ccc4[nH]7)C=C6)C=C5)cc3)cc2F)n1
REMARK SMILES IDX 18 1 17 2 15 3 16 4 14 6 11 7 12 8 79 9 13 10 78 11 80 12
REMARK SMILES IDX 8 13 9 14 10 15 7 16 6 17 1 18 2 19 3 20 81 21 4 22 5 23
REMARK SMILES IDX 19 24 20 25 21 26 22 27 23 29 24 30 25 31 77 32 26 33 76 34
REMARK SMILES IDX 27 35 28 36 29 37 70 38 30 39 75 40 69 41 71 42 31 43 74 44
REMARK SMILES IDX 68 45 67 46 32 48 58 49 41 50 57 51 42 52 45 53 56 54 72 55
REMARK SMILES IDX 43 56 44 57 55 59 73 60 46 61 33 62 34 63 39 64 35 65 36 66
REMARK SMILES IDX 38 67 40 68 37 69 59 70 60 71 65 72 61 73 62 74 64 75 66 76
REMARK SMILES IDX 63 77 47 78 48 79 53 80 49 81 50 82 52 83 54 84 51 85
REMARK H PARENT 17 5 21 28 71 47 45 58
REMARK Flexibility Score: inf
ROOT
ATOM      1  C   UNL A   1      31.504  30.511  26.423  1.00  0.00     0.118 C 
ENDROOT
BRANCH   1   2
ATOM      2  N   UNL A   1      32.370  30.200  25.299  1.00  0.00    -0.352 N 
ATOM      3  C   UNL A   1      32.740  29.011  24.732  1.00  0.00     0.251 C 
ATOM      4  O   UNL A   1      33.480  29.037  23.749  1.00  0.00    -0.269 OA
ATOM      5  H   UNL A   1      32.765  30.991  24.866  1.00  0.00     0.163 HD
BRANCH   3   6
ATOM      6  C   UNL A   1      32.238  27.699  25.213  1.00  0.00     0.042 A 
ATOM      7  C   UNL A   1      31.464  25.171  26.176  1.00  0.00     0.103 A 
ATOM      8  C   UNL A   1      32.788  25.599  26.306  1.00  0.00     0.024 A 
ATOM      9  C   UNL A   1      30.540  26.007  25.556  1.00  0.00     0.142 A 
ATOM     10  C   UNL A   1      33.163  26.867  25.856  1.00  0.00     0.015 A 
ATOM     11  C   UNL A   1      30.917  27.269  25.089  1.00  0.00     0.054 A 
ATOM     12  F   UNL A   1      29.269  25.643  25.361  1.00  0.00    -0.206 F 
BRANCH   7  13
ATOM     13  S   UNL A   1      31.003  23.534  26.691  1.00  0.00     0.186 S 
ATOM     14  O   UNL A   1      29.702  23.665  27.327  1.00  0.00    -0.223 OA
ATOM     15  O   UNL A   1      32.103  22.994  27.468  1.00  0.00    -0.223 OA
BRANCH  13  16
ATOM     16  C   UNL A   1      30.919  22.513  25.231  1.00  0.00     0.198 C 
BRANCH  16  17
ATOM     17  C   UNL A   1      32.118  21.630  25.083  1.00  0.00     0.056 A 
ATOM     18  C   UNL A   1      32.728  18.016  25.384  1.00  0.00     0.067 C 
ATOM     19  C   UNL A   1      33.006  19.472  25.174  1.00  0.00     0.038 A 
ATOM     20  C   UNL A   1      34.255  19.922  24.771  1.00  0.00     0.023 A 
ATOM     21  N   UNL A   1      31.960  20.313  25.345  1.00  0.00    -0.257 NA
ATOM     22  C   UNL A   1      34.429  21.285  24.549  1.00  0.00     0.004 A 
ATOM     23  C   UNL A   1      33.352  22.153  24.708  1.00  0.00     0.025 A 
ENDBRANCH  16  17
ENDBRANCH  13  16
ENDBRANCH   7  13
ENDBRANCH   3   6
ENDBRANCH   1   2
BRANCH   1  24
ATOM     24  C   UNL A   1      31.394  32.022  26.619  1.00  0.00     0.042 C 
BRANCH  24  25
ATOM     25  C   UNL A   1      32.709  32.671  27.043  1.00  0.00     0.118 C 
BRANCH  25  26
ATOM     26  N   UNL A   1      32.499  33.969  27.667  1.00  0.00    -0.352 N 
ATOM     27  C   UNL A   1      33.167  34.565  28.707  1.00  0.00     0.251 C 
ATOM     28  H   UNL A   1      31.764  34.502  27.283  1.00  0.00     0.163 HD
ATOM     29  O   UNL A   1      32.687  35.559  29.244  1.00  0.00    -0.269 OA
BRANCH  27  30
ATOM     30  C   UNL A   1      34.453  34.017  29.189  1.00  0.00     0.039 A 
ATOM     31  C   UNL A   1      34.448  33.159  30.291  1.00  0.00     0.014 A 
ATOM     32  C   UNL A   1      35.663  34.385  28.594  1.00  0.00     0.014 A 
ATOM     33  C   UNL A   1      35.650  32.631  30.766  1.00  0.00     0.010 A 
ATOM     34  C   UNL A   1      36.854  33.803  29.021  1.00  0.00     0.010 A 
ATOM     35  C   UNL A   1      36.860  32.927  30.116  1.00  0.00    -0.014 A 
BRANCH  35  36
ATOM     36  C   UNL A   1      38.141  32.328  30.567  1.00  0.00     0.031 A 
ATOM     37  C   UNL A   1      38.632  31.043  29.961  1.00  0.00     0.074 A 
ATOM     38  C   UNL A   1      38.832  32.914  31.564  1.00  0.00     0.049 A 
ATOM     39  N   UNL A   1      39.687  30.333  30.273  1.00  0.00    -0.248 NA
ATOM     40  C   UNL A   1      37.822  30.467  28.876  1.00  0.00     0.031 C 
ATOM     41  C   UNL A   1      38.438  34.143  32.254  1.00  0.00     0.029 A 
ATOM     42  N   UNL A   1      40.007  32.551  32.173  1.00  0.00    -0.354 N 
ATOM     43  C   UNL A   1      39.658  29.226  29.436  1.00  0.00     0.074 A 
ATOM     44  C   UNL A   1      38.457  29.329  28.636  1.00  0.00     0.031 C 
ATOM     45  C   UNL A   1      39.369  34.449  33.172  1.00  0.00     0.029 A 
ATOM     46  C   UNL A   1      40.402  33.418  33.164  1.00  0.00     0.049 A 
ATOM     47  H   UNL A   1      40.518  31.748  31.925  1.00  0.00     0.167 HD
ATOM     48  C   UNL A   1      40.565  28.226  29.327  1.00  0.00     0.037 A 
ATOM     49  C   UNL A   1      41.474  33.383  33.978  1.00  0.00     0.037 A 
ATOM     50  C   UNL A   1      41.773  28.145  30.105  1.00  0.00     0.049 A 
ATOM     51  C   UNL A   1      42.458  32.255  33.850  1.00  0.00     0.074 A 
ATOM     52  C   UNL A   1      42.782  27.201  30.029  1.00  0.00     0.029 A 
ATOM     53  N   UNL A   1      42.136  29.040  31.099  1.00  0.00    -0.354 N 
ATOM     54  N   UNL A   1      42.444  31.239  33.021  1.00  0.00    -0.248 NA
ATOM     55  C   UNL A   1      43.607  32.265  34.766  1.00  0.00     0.031 C 
ATOM     56  C   UNL A   1      43.733  27.498  31.009  1.00  0.00     0.029 A 
ATOM     57  C   UNL A   1      43.344  28.658  31.660  1.00  0.00     0.049 A 
ATOM     58  H   UNL A   1      41.614  29.831  31.367  1.00  0.00     0.167 HD
ATOM     59  C   UNL A   1      43.589  30.505  33.297  1.00  0.00     0.074 A 
ATOM     60  C   UNL A   1      44.283  31.197  34.364  1.00  0.00     0.031 C 
ATOM     61  C   UNL A   1      44.025  29.360  32.718  1.00  0.00     0.037 A 
BRANCH  48  62
ATOM     62  C   UNL A   1      40.299  27.143  28.323  1.00  0.00     0.057 A 
ATOM     63  C   UNL A   1      39.506  26.037  28.655  1.00  0.00     0.134 A 
ATOM     64  C   UNL A   1      40.884  27.158  27.050  1.00  0.00     0.134 A 
ATOM     65  F   UNL A   1      38.920  25.955  29.861  1.00  0.00    -0.206 F 
ATOM     66  C   UNL A   1      39.314  24.981  27.764  1.00  0.00     0.040 A 
ATOM     67  C   UNL A   1      40.677  26.121  26.140  1.00  0.00     0.040 A 
ATOM     68  F   UNL A   1      41.645  28.193  26.664  1.00  0.00    -0.206 F 
ATOM     69  C   UNL A   1      39.898  25.022  26.500  1.00  0.00     0.006 A 
ENDBRANCH  48  62
BRANCH  49  70
ATOM     70  C   UNL A   1      41.683  34.475  34.963  1.00  0.00     0.057 A 
ATOM     71  C   UNL A   1      42.365  35.649  34.623  1.00  0.00     0.134 A 
ATOM     72  C   UNL A   1      41.233  34.349  36.282  1.00  0.00     0.134 A 
ATOM     73  F   UNL A   1      42.830  35.827  33.377  1.00  0.00    -0.206 F 
ATOM     74  C   UNL A   1      42.610  36.651  35.565  1.00  0.00     0.040 A 
ATOM     75  C   UNL A   1      41.449  35.353  37.227  1.00  0.00     0.040 A 
ATOM     76  F   UNL A   1      40.559  33.254  36.662  1.00  0.00    -0.206 F 
ATOM     77  C   UNL A   1      42.148  36.505  36.871  1.00  0.00     0.006 A 
ENDBRANCH  49  70
BRANCH  61  78
ATOM     78  C   UNL A   1      45.323  28.785  33.203  1.00  0.00     0.057 A 
ATOM     79  C   UNL A   1      45.347  27.886  34.276  1.00  0.00     0.134 A 
ATOM     80  C   UNL A   1      46.551  29.186  32.666  1.00  0.00     0.134 A 
ATOM     81  F   UNL A   1      44.204  27.470  34.844  1.00  0.00    -0.206 F 
ATOM     82  C   UNL A   1      46.548  27.420  34.812  1.00  0.00     0.040 A 
ATOM     83  C   UNL A   1      47.760  28.707  33.175  1.00  0.00     0.040 A 
ATOM     84  F   UNL A   1      46.597  30.038  31.630  1.00  0.00    -0.206 F 
ATOM     85  C   UNL A   1      47.760  27.830  34.260  1.00  0.00     0.006 A 
ENDBRANCH  61  78
ENDBRANCH  35  36
ENDBRANCH  27  30
ENDBRANCH  25  26
ENDBRANCH  24  25
ENDBRANCH   1  24
TORSDOF 13
ENDMDL
