MODEL 1
REMARK VINA RESULT:     -12.4      0.000      0.000
REMARK SMILES Cc1cccc(-c2cccnc2C(=O)NCCCNC(=O)c2ccc(-c3c4nc(c(-c5c(F)cccc5F)c5ccc([nH]5)c(-c5c(F)cccc5F)c5nc(c(-c6c(F)cccc6F)c6ccc3[nH]6)C=C5)C=C4)cc2)c1
REMARK SMILES IDX 17 1 16 2 15 3 13 4 14 5 12 7 7 8 8 9 9 10 11 11 10 12 6 13
REMARK SMILES IDX 1 14 2 15 3 16 76 17 4 18 5 19 18 20 19 21 20 22 21 24 22 25
REMARK SMILES IDX 23 26 75 27 24 28 74 29 25 30 26 31 27 32 68 33 28 34 73 35
REMARK SMILES IDX 67 36 69 37 29 38 72 39 66 40 65 41 30 43 56 44 39 45 55 46
REMARK SMILES IDX 40 47 43 48 54 49 70 50 41 51 42 52 53 54 71 55 44 56 31 57
REMARK SMILES IDX 32 58 37 59 33 60 34 61 36 62 38 63 35 64 57 65 58 66 63 67
REMARK SMILES IDX 59 68 60 69 62 70 64 71 61 72 45 73 46 74 51 75 47 76 48 77
REMARK SMILES IDX 50 78 52 79 49 80
REMARK H PARENT 15 6 19 23 69 42 43 53
REMARK Flexibility Score: inf
ROOT
ATOM      1  C   UNL A   1      34.333  31.096  27.254  1.00  0.00     0.042 C 
ENDROOT
BRANCH   1   2
ATOM      2  C   UNL A   1      33.995  29.632  27.093  1.00  0.00     0.118 C 
BRANCH   2   3
ATOM      3  N   UNL A   1      32.814  29.136  27.733  1.00  0.00    -0.351 N 
ATOM      4  C   UNL A   1      31.860  28.308  27.165  1.00  0.00     0.270 C 
ATOM      5  O   UNL A   1      31.029  27.814  27.932  1.00  0.00    -0.267 OA
ATOM      6  H   UNL A   1      32.665  29.409  28.666  1.00  0.00     0.163 HD
BRANCH   4   7
ATOM      7  C   UNL A   1      31.721  28.074  25.668  1.00  0.00     0.135 A 
ATOM      8  C   UNL A   1      31.996  26.895  24.941  1.00  0.00     0.013 A 
ATOM      9  C   UNL A   1      31.745  26.942  23.553  1.00  0.00     0.013 A 
ATOM     10  C   UNL A   1      31.254  28.087  22.940  1.00  0.00     0.021 A 
ATOM     11  N   UNL A   1      31.237  29.205  25.060  1.00  0.00    -0.250 NA
ATOM     12  C   UNL A   1      31.016  29.187  23.732  1.00  0.00     0.112 A 
BRANCH   8  13
ATOM     13  C   UNL A   1      32.568  25.639  25.454  1.00  0.00    -0.016 A 
ATOM     14  C   UNL A   1      36.061  24.078  25.619  1.00  0.00     0.044 C 
ATOM     15  C   UNL A   1      34.571  24.236  25.742  1.00  0.00    -0.051 A 
ATOM     16  C   UNL A   1      33.828  23.370  26.546  1.00  0.00     0.003 A 
ATOM     17  C   UNL A   1      33.922  25.335  25.166  1.00  0.00     0.012 A 
ATOM     18  C   UNL A   1      32.476  23.619  26.796  1.00  0.00     0.001 A 
ATOM     19  C   UNL A   1      31.848  24.751  26.261  1.00  0.00     0.009 A 
ENDBRANCH   8  13
ENDBRANCH   4   7
ENDBRANCH   2   3
ENDBRANCH   1   2
BRANCH   1  20
ATOM     20  C   UNL A   1      34.466  31.539  28.711  1.00  0.00     0.118 C 
BRANCH  20  21
ATOM     21  N   UNL A   1      35.778  32.131  29.045  1.00  0.00    -0.352 N 
ATOM     22  C   UNL A   1      37.063  31.602  29.061  1.00  0.00     0.251 C 
ATOM     23  H   UNL A   1      35.733  33.080  29.306  1.00  0.00     0.163 HD
ATOM     24  O   UNL A   1      38.042  32.318  29.179  1.00  0.00    -0.269 OA
BRANCH  22  25
ATOM     25  C   UNL A   1      37.227  30.158  28.804  1.00  0.00     0.039 A 
ATOM     26  C   UNL A   1      37.237  29.333  29.934  1.00  0.00     0.014 A 
ATOM     27  C   UNL A   1      37.861  29.792  27.627  1.00  0.00     0.014 A 
ATOM     28  C   UNL A   1      38.208  28.348  30.012  1.00  0.00     0.010 A 
ATOM     29  C   UNL A   1      38.898  28.892  27.752  1.00  0.00     0.010 A 
ATOM     30  C   UNL A   1      39.148  28.272  28.989  1.00  0.00    -0.014 A 
BRANCH  30  31
ATOM     31  C   UNL A   1      40.522  27.811  29.215  1.00  0.00     0.031 A 
ATOM     32  C   UNL A   1      40.922  26.459  28.769  1.00  0.00     0.074 A 
ATOM     33  C   UNL A   1      41.461  28.671  29.688  1.00  0.00     0.049 A 
ATOM     34  N   UNL A   1      42.047  25.907  29.066  1.00  0.00    -0.248 NA
ATOM     35  C   UNL A   1      40.045  25.574  28.007  1.00  0.00     0.031 C 
ATOM     36  C   UNL A   1      42.917  28.529  29.610  1.00  0.00     0.029 A 
ATOM     37  N   UNL A   1      41.278  29.771  30.545  1.00  0.00    -0.354 N 
ATOM     38  C   UNL A   1      42.170  24.766  28.313  1.00  0.00     0.074 A 
ATOM     39  C   UNL A   1      40.858  24.542  27.768  1.00  0.00     0.031 C 
ATOM     40  C   UNL A   1      43.484  29.268  30.573  1.00  0.00     0.029 A 
ATOM     41  C   UNL A   1      42.412  29.796  31.393  1.00  0.00     0.049 A 
ATOM     42  H   UNL A   1      40.517  30.396  30.555  1.00  0.00     0.167 HD
ATOM     43  C   UNL A   1      43.411  24.232  28.150  1.00  0.00     0.037 A 
ATOM     44  C   UNL A   1      42.311  29.621  32.743  1.00  0.00     0.037 A 
ATOM     45  C   UNL A   1      44.325  24.755  29.170  1.00  0.00     0.049 A 
ATOM     46  C   UNL A   1      43.076  28.429  33.275  1.00  0.00     0.074 A 
ATOM     47  C   UNL A   1      45.385  25.644  29.156  1.00  0.00     0.029 A 
ATOM     48  N   UNL A   1      44.012  24.541  30.511  1.00  0.00    -0.354 N 
ATOM     49  N   UNL A   1      43.550  27.474  32.522  1.00  0.00    -0.248 NA
ATOM     50  C   UNL A   1      43.336  28.196  34.693  1.00  0.00     0.031 C 
ATOM     51  C   UNL A   1      45.645  26.034  30.500  1.00  0.00     0.029 A 
ATOM     52  C   UNL A   1      44.771  25.352  31.331  1.00  0.00     0.049 A 
ATOM     53  H   UNL A   1      43.340  23.898  30.832  1.00  0.00     0.167 HD
ATOM     54  C   UNL A   1      44.100  26.494  33.310  1.00  0.00     0.074 A 
ATOM     55  C   UNL A   1      43.975  27.013  34.659  1.00  0.00     0.031 C 
ATOM     56  C   UNL A   1      44.578  25.330  32.778  1.00  0.00     0.037 A 
BRANCH  43  57
ATOM     57  C   UNL A   1      43.853  23.391  26.965  1.00  0.00     0.057 A 
ATOM     58  C   UNL A   1      44.632  23.968  25.940  1.00  0.00     0.134 A 
ATOM     59  C   UNL A   1      43.446  22.068  26.687  1.00  0.00     0.134 A 
ATOM     60  F   UNL A   1      45.103  25.220  26.038  1.00  0.00    -0.206 F 
ATOM     61  C   UNL A   1      44.948  23.302  24.745  1.00  0.00     0.040 A 
ATOM     62  C   UNL A   1      43.788  21.378  25.514  1.00  0.00     0.040 A 
ATOM     63  F   UNL A   1      42.653  21.366  27.499  1.00  0.00    -0.206 F 
ATOM     64  C   UNL A   1      44.529  22.000  24.528  1.00  0.00     0.006 A 
ENDBRANCH  43  57
BRANCH  44  65
ATOM     65  C   UNL A   1      41.047  30.156  33.307  1.00  0.00     0.057 A 
ATOM     66  C   UNL A   1      40.952  31.542  33.529  1.00  0.00     0.134 A 
ATOM     67  C   UNL A   1      39.851  29.437  33.243  1.00  0.00     0.134 A 
ATOM     68  F   UNL A   1      42.065  32.288  33.608  1.00  0.00    -0.206 F 
ATOM     69  C   UNL A   1      39.722  32.202  33.556  1.00  0.00     0.040 A 
ATOM     70  C   UNL A   1      38.611  30.087  33.282  1.00  0.00     0.040 A 
ATOM     71  F   UNL A   1      39.860  28.117  33.008  1.00  0.00    -0.206 F 
ATOM     72  C   UNL A   1      38.546  31.477  33.394  1.00  0.00     0.006 A 
ENDBRANCH  44  65
BRANCH  56  73
ATOM     73  C   UNL A   1      44.952  24.079  33.548  1.00  0.00     0.057 A 
ATOM     74  C   UNL A   1      44.107  22.976  33.741  1.00  0.00     0.134 A 
ATOM     75  C   UNL A   1      46.278  23.894  34.003  1.00  0.00     0.134 A 
ATOM     76  F   UNL A   1      42.857  22.951  33.260  1.00  0.00    -0.206 F 
ATOM     77  C   UNL A   1      44.528  21.805  34.391  1.00  0.00     0.040 A 
ATOM     78  C   UNL A   1      46.725  22.709  34.599  1.00  0.00     0.040 A 
ATOM     79  F   UNL A   1      47.212  24.847  33.866  1.00  0.00    -0.206 F 
ATOM     80  C   UNL A   1      45.844  21.662  34.810  1.00  0.00     0.006 A 
ENDBRANCH  56  73
ENDBRANCH  30  31
ENDBRANCH  22  25
ENDBRANCH  20  21
ENDBRANCH   1  20
TORSDOF 11
ENDMDL
MODEL 2
REMARK VINA RESULT:     -12.2      1.302      2.637
REMARK SMILES Cc1cccc(-c2cccnc2C(=O)NCCCNC(=O)c2ccc(-c3c4nc(c(-c5c(F)cccc5F)c5ccc([nH]5)c(-c5c(F)cccc5F)c5nc(c(-c6c(F)cccc6F)c6ccc3[nH]6)C=C5)C=C4)cc2)c1
REMARK SMILES IDX 17 1 16 2 15 3 13 4 14 5 12 7 7 8 8 9 9 10 11 11 10 12 6 13
REMARK SMILES IDX 1 14 2 15 3 16 76 17 4 18 5 19 18 20 19 21 20 22 21 24 22 25
REMARK SMILES IDX 23 26 75 27 24 28 74 29 25 30 26 31 27 32 68 33 28 34 73 35
REMARK SMILES IDX 67 36 69 37 29 38 72 39 66 40 65 41 30 43 56 44 39 45 55 46
REMARK SMILES IDX 40 47 43 48 54 49 70 50 41 51 42 52 53 54 71 55 44 56 31 57
REMARK SMILES IDX 32 58 37 59 33 60 34 61 36 62 38 63 35 64 57 65 58 66 63 67
REMARK SMILES IDX 59 68 60 69 62 70 64 71 61 72 45 73 46 74 51 75 47 76 48 77
REMARK SMILES IDX 50 78 52 79 49 80
REMARK H PARENT 15 6 19 23 69 42 43 53
REMARK Flexibility Score: inf
ROOT
ATOM      1  C   UNL A   1      33.782  30.358  27.870  1.00  0.00     0.042 C 
ENDROOT
BRANCH   1   2
ATOM      2  C   UNL A   1      32.942  29.814  26.737  1.00  0.00     0.118 C 
BRANCH   2   3
ATOM      3  N   UNL A   1      31.864  28.928  27.058  1.00  0.00    -0.351 N 
ATOM      4  C   UNL A   1      31.479  27.810  26.337  1.00  0.00     0.270 C 
ATOM      5  O   UNL A   1      30.670  27.053  26.881  1.00  0.00    -0.267 OA
ATOM      6  H   UNL A   1      31.347  29.134  27.868  1.00  0.00     0.163 HD
BRANCH   4   7
ATOM      7  C   UNL A   1      31.906  27.536  24.903  1.00  0.00     0.135 A 
ATOM      8  C   UNL A   1      31.253  27.920  23.711  1.00  0.00     0.013 A 
ATOM      9  C   UNL A   1      31.890  27.561  22.504  1.00  0.00     0.013 A 
ATOM     10  C   UNL A   1      33.093  26.867  22.493  1.00  0.00     0.021 A 
ATOM     11  N   UNL A   1      33.093  26.849  24.890  1.00  0.00    -0.250 NA
ATOM     12  C   UNL A   1      33.653  26.537  23.706  1.00  0.00     0.112 A 
BRANCH   8  13
ATOM     13  C   UNL A   1      29.955  28.603  23.581  1.00  0.00    -0.016 A 
ATOM     14  C   UNL A   1      28.780  32.234  23.268  1.00  0.00     0.044 C 
ATOM     15  C   UNL A   1      28.741  30.738  23.409  1.00  0.00    -0.051 A 
ATOM     16  C   UNL A   1      27.566  30.029  23.147  1.00  0.00     0.003 A 
ATOM     17  C   UNL A   1      29.913  30.016  23.670  1.00  0.00     0.012 A 
ATOM     18  C   UNL A   1      27.574  28.632  23.111  1.00  0.00     0.001 A 
ATOM     19  C   UNL A   1      28.762  27.920  23.319  1.00  0.00     0.009 A 
ENDBRANCH   8  13
ENDBRANCH   4   7
ENDBRANCH   2   3
ENDBRANCH   1   2
BRANCH   1  20
ATOM     20  C   UNL A   1      34.296  31.777  27.626  1.00  0.00     0.118 C 
BRANCH  20  21
ATOM     21  N   UNL A   1      35.279  32.243  28.625  1.00  0.00    -0.352 N 
ATOM     22  C   UNL A   1      36.431  31.662  29.141  1.00  0.00     0.251 C 
ATOM     23  H   UNL A   1      35.081  33.134  28.996  1.00  0.00     0.163 HD
ATOM     24  O   UNL A   1      37.215  32.303  29.821  1.00  0.00    -0.269 OA
BRANCH  22  25
ATOM     25  C   UNL A   1      36.754  30.278  28.745  1.00  0.00     0.039 A 
ATOM     26  C   UNL A   1      36.730  29.326  29.770  1.00  0.00     0.014 A 
ATOM     27  C   UNL A   1      37.530  30.109  27.609  1.00  0.00     0.014 A 
ATOM     28  C   UNL A   1      37.777  28.421  29.842  1.00  0.00     0.010 A 
ATOM     29  C   UNL A   1      38.630  29.287  27.743  1.00  0.00     0.010 A 
ATOM     30  C   UNL A   1      38.815  28.545  28.924  1.00  0.00    -0.014 A 
BRANCH  30  31
ATOM     31  C   UNL A   1      40.197  28.174  29.243  1.00  0.00     0.031 A 
ATOM     32  C   UNL A   1      40.726  26.868  28.794  1.00  0.00     0.074 A 
ATOM     33  C   UNL A   1      41.034  29.080  29.811  1.00  0.00     0.049 A 
ATOM     34  N   UNL A   1      41.861  26.385  29.163  1.00  0.00    -0.248 NA
ATOM     35  C   UNL A   1      39.974  25.948  27.943  1.00  0.00     0.031 C 
ATOM     36  C   UNL A   1      42.498  29.042  29.842  1.00  0.00     0.029 A 
ATOM     37  N   UNL A   1      40.708  30.137  30.680  1.00  0.00    -0.354 N 
ATOM     38  C   UNL A   1      42.122  25.280  28.391  1.00  0.00     0.074 A 
ATOM     39  C   UNL A   1      40.874  24.984  27.740  1.00  0.00     0.031 C 
ATOM     40  C   UNL A   1      42.936  29.788  30.866  1.00  0.00     0.029 A 
ATOM     41  C   UNL A   1      41.770  30.214  31.614  1.00  0.00     0.049 A 
ATOM     42  H   UNL A   1      39.906  30.707  30.647  1.00  0.00     0.167 HD
ATOM     43  C   UNL A   1      43.406  24.839  28.311  1.00  0.00     0.037 A 
ATOM     44  C   UNL A   1      41.580  29.988  32.947  1.00  0.00     0.037 A 
ATOM     45  C   UNL A   1      44.201  25.390  29.413  1.00  0.00     0.049 A 
ATOM     46  C   UNL A   1      42.386  28.836  33.504  1.00  0.00     0.074 A 
ATOM     47  C   UNL A   1      45.193  26.351  29.504  1.00  0.00     0.029 A 
ATOM     48  N   UNL A   1      43.804  25.113  30.719  1.00  0.00    -0.354 N 
ATOM     49  N   UNL A   1      42.983  27.941  32.766  1.00  0.00    -0.248 NA
ATOM     50  C   UNL A   1      42.554  28.577  34.932  1.00  0.00     0.031 C 
ATOM     51  C   UNL A   1      45.322  26.715  30.874  1.00  0.00     0.029 A 
ATOM     52  C   UNL A   1      44.439  25.948  31.617  1.00  0.00     0.049 A 
ATOM     53  H   UNL A   1      43.157  24.415  30.970  1.00  0.00     0.167 HD
ATOM     54  C   UNL A   1      43.540  26.977  33.567  1.00  0.00     0.074 A 
ATOM     55  C   UNL A   1      43.277  27.443  34.916  1.00  0.00     0.031 C 
ATOM     56  C   UNL A   1      44.139  25.866  33.043  1.00  0.00     0.037 A 
BRANCH  43  57
ATOM     57  C   UNL A   1      43.996  24.069  27.142  1.00  0.00     0.057 A 
ATOM     58  C   UNL A   1      44.742  24.746  26.154  1.00  0.00     0.134 A 
ATOM     59  C   UNL A   1      43.763  22.710  26.841  1.00  0.00     0.134 A 
ATOM     60  F   UNL A   1      45.054  26.044  26.278  1.00  0.00    -0.206 F 
ATOM     61  C   UNL A   1      45.186  24.134  24.971  1.00  0.00     0.040 A 
ATOM     62  C   UNL A   1      44.235  22.078  25.680  1.00  0.00     0.040 A 
ATOM     63  F   UNL A   1      43.028  21.909  27.615  1.00  0.00    -0.206 F 
ATOM     64  C   UNL A   1      44.936  22.793  24.729  1.00  0.00     0.006 A 
ENDBRANCH  43  57
BRANCH  44  65
ATOM     65  C   UNL A   1      40.242  30.417  33.425  1.00  0.00     0.057 A 
ATOM     66  C   UNL A   1      40.040  31.781  33.702  1.00  0.00     0.134 A 
ATOM     67  C   UNL A   1      39.104  29.631  33.226  1.00  0.00     0.134 A 
ATOM     68  F   UNL A   1      41.093  32.588  33.910  1.00  0.00    -0.206 F 
ATOM     69  C   UNL A   1      38.772  32.364  33.654  1.00  0.00     0.040 A 
ATOM     70  C   UNL A   1      37.826  30.203  33.188  1.00  0.00     0.040 A 
ATOM     71  F   UNL A   1      39.218  28.328  32.931  1.00  0.00    -0.206 F 
ATOM     72  C   UNL A   1      37.662  31.578  33.358  1.00  0.00     0.006 A 
ENDBRANCH  44  65
BRANCH  56  73
ATOM     73  C   UNL A   1      44.542  24.621  33.806  1.00  0.00     0.057 A 
ATOM     74  C   UNL A   1      43.650  23.771  34.481  1.00  0.00     0.134 A 
ATOM     75  C   UNL A   1      45.875  24.152  33.751  1.00  0.00     0.134 A 
ATOM     76  F   UNL A   1      42.335  24.016  34.518  1.00  0.00    -0.206 F 
ATOM     77  C   UNL A   1      44.063  22.583  35.103  1.00  0.00     0.040 A 
ATOM     78  C   UNL A   1      46.285  22.939  34.318  1.00  0.00     0.040 A 
ATOM     79  F   UNL A   1      46.839  24.837  33.119  1.00  0.00    -0.206 F 
ATOM     80  C   UNL A   1      45.380  22.156  35.012  1.00  0.00     0.006 A 
ENDBRANCH  56  73
ENDBRANCH  30  31
ENDBRANCH  22  25
ENDBRANCH  20  21
ENDBRANCH   1  20
TORSDOF 11
ENDMDL
MODEL 3
REMARK VINA RESULT:     -12.2      4.288      9.482
REMARK SMILES Cc1cccc(-c2cccnc2C(=O)NCCCNC(=O)c2ccc(-c3c4nc(c(-c5c(F)cccc5F)c5ccc([nH]5)c(-c5c(F)cccc5F)c5nc(c(-c6c(F)cccc6F)c6ccc3[nH]6)C=C5)C=C4)cc2)c1
REMARK SMILES IDX 17 1 16 2 15 3 13 4 14 5 12 7 7 8 8 9 9 10 11 11 10 12 6 13
REMARK SMILES IDX 1 14 2 15 3 16 76 17 4 18 5 19 18 20 19 21 20 22 21 24 22 25
REMARK SMILES IDX 23 26 75 27 24 28 74 29 25 30 26 31 27 32 68 33 28 34 73 35
REMARK SMILES IDX 67 36 69 37 29 38 72 39 66 40 65 41 30 43 56 44 39 45 55 46
REMARK SMILES IDX 40 47 43 48 54 49 70 50 41 51 42 52 53 54 71 55 44 56 31 57
REMARK SMILES IDX 32 58 37 59 33 60 34 61 36 62 38 63 35 64 57 65 58 66 63 67
REMARK SMILES IDX 59 68 60 69 62 70 64 71 61 72 45 73 46 74 51 75 47 76 48 77
REMARK SMILES IDX 50 78 52 79 49 80
REMARK H PARENT 15 6 19 23 69 42 43 53
REMARK Flexibility Score: inf
ROOT
ATOM      1  C   UNL A   1      39.355  21.705  25.876  1.00  0.00     0.042 C 
ENDROOT
BRANCH   1   2
ATOM      2  C   UNL A   1      37.947  22.194  25.628  1.00  0.00     0.118 C 
BRANCH   2   3
ATOM      3  N   UNL A   1      37.501  22.316  24.273  1.00  0.00    -0.351 N 
ATOM      4  C   UNL A   1      36.256  22.757  23.855  1.00  0.00     0.270 C 
ATOM      5  O   UNL A   1      36.130  22.997  22.651  1.00  0.00    -0.267 OA
ATOM      6  H   UNL A   1      38.141  22.062  23.570  1.00  0.00     0.163 HD
BRANCH   4   7
ATOM      7  C   UNL A   1      35.039  22.848  24.764  1.00  0.00     0.135 A 
ATOM      8  C   UNL A   1      34.203  21.801  25.207  1.00  0.00     0.013 A 
ATOM      9  C   UNL A   1      33.154  22.164  26.079  1.00  0.00     0.013 A 
ATOM     10  C   UNL A   1      32.959  23.480  26.477  1.00  0.00     0.021 A 
ATOM     11  N   UNL A   1      34.844  24.148  25.157  1.00  0.00    -0.250 NA
ATOM     12  C   UNL A   1      33.827  24.431  25.992  1.00  0.00     0.112 A 
BRANCH   8  13
ATOM     13  C   UNL A   1      34.262  20.382  24.820  1.00  0.00    -0.016 A 
ATOM     14  C   UNL A   1      32.157  18.036  22.646  1.00  0.00     0.044 C 
ATOM     15  C   UNL A   1      33.220  18.520  23.592  1.00  0.00    -0.051 A 
ATOM     16  C   UNL A   1      34.347  17.738  23.855  1.00  0.00     0.003 A 
ATOM     17  C   UNL A   1      33.169  19.817  24.118  1.00  0.00     0.012 A 
ATOM     18  C   UNL A   1      35.413  18.257  24.595  1.00  0.00     0.001 A 
ATOM     19  C   UNL A   1      35.377  19.574  25.071  1.00  0.00     0.009 A 
ENDBRANCH   8  13
ENDBRANCH   4   7
ENDBRANCH   2   3
ENDBRANCH   1   2
BRANCH   1  20
ATOM     20  C   UNL A   1      39.927  22.139  27.225  1.00  0.00     0.118 C 
BRANCH  20  21
ATOM     21  N   UNL A   1      41.241  22.808  27.137  1.00  0.00    -0.352 N 
ATOM     22  C   UNL A   1      41.605  24.149  27.103  1.00  0.00     0.251 C 
ATOM     23  H   UNL A   1      42.004  22.187  27.094  1.00  0.00     0.163 HD
ATOM     24  O   UNL A   1      42.767  24.494  27.226  1.00  0.00    -0.269 OA
BRANCH  22  25
ATOM     25  C   UNL A   1      40.533  25.162  27.039  1.00  0.00     0.039 A 
ATOM     26  C   UNL A   1      40.763  26.242  26.180  1.00  0.00     0.014 A 
ATOM     27  C   UNL A   1      39.695  25.268  28.137  1.00  0.00     0.014 A 
ATOM     28  C   UNL A   1      40.481  27.516  26.647  1.00  0.00     0.010 A 
ATOM     29  C   UNL A   1      39.521  26.537  28.647  1.00  0.00     0.010 A 
ATOM     30  C   UNL A   1      40.037  27.650  27.959  1.00  0.00    -0.014 A 
BRANCH  30  31
ATOM     31  C   UNL A   1      40.330  28.834  28.772  1.00  0.00     0.031 A 
ATOM     32  C   UNL A   1      39.309  29.895  28.914  1.00  0.00     0.074 A 
ATOM     33  C   UNL A   1      41.465  28.888  29.516  1.00  0.00     0.049 A 
ATOM     34  N   UNL A   1      39.530  31.037  29.466  1.00  0.00    -0.248 NA
ATOM     35  C   UNL A   1      37.959  29.786  28.367  1.00  0.00     0.031 C 
ATOM     36  C   UNL A   1      41.742  29.766  30.655  1.00  0.00     0.029 A 
ATOM     37  N   UNL A   1      42.709  28.289  29.245  1.00  0.00    -0.354 N 
ATOM     38  C   UNL A   1      38.323  31.673  29.620  1.00  0.00     0.074 A 
ATOM     39  C   UNL A   1      37.402  30.913  28.818  1.00  0.00     0.031 C 
ATOM     40  C   UNL A   1      43.068  29.889  30.805  1.00  0.00     0.029 A 
ATOM     41  C   UNL A   1      43.689  29.213  29.683  1.00  0.00     0.049 A 
ATOM     42  H   UNL A   1      42.867  27.408  28.835  1.00  0.00     0.167 HD
ATOM     43  C   UNL A   1      38.241  32.692  30.517  1.00  0.00     0.037 A 
ATOM     44  C   UNL A   1      44.572  29.796  28.820  1.00  0.00     0.037 A 
ATOM     45  C   UNL A   1      39.582  33.189  30.842  1.00  0.00     0.049 A 
ATOM     46  C   UNL A   1      44.487  31.305  28.768  1.00  0.00     0.074 A 
ATOM     47  C   UNL A   1      40.403  33.104  31.952  1.00  0.00     0.029 A 
ATOM     48  N   UNL A   1      40.375  33.680  29.806  1.00  0.00    -0.354 N 
ATOM     49  N   UNL A   1      43.492  31.995  29.254  1.00  0.00    -0.248 NA
ATOM     50  C   UNL A   1      45.492  32.155  28.134  1.00  0.00     0.031 C 
ATOM     51  C   UNL A   1      41.720  33.461  31.548  1.00  0.00     0.029 A 
ATOM     52  C   UNL A   1      41.690  33.801  30.206  1.00  0.00     0.049 A 
ATOM     53  H   UNL A   1      40.042  33.910  28.909  1.00  0.00     0.167 HD
ATOM     54  C   UNL A   1      43.663  33.324  28.960  1.00  0.00     0.074 A 
ATOM     55  C   UNL A   1      44.950  33.376  28.291  1.00  0.00     0.031 C 
ATOM     56  C   UNL A   1      42.710  34.256  29.266  1.00  0.00     0.037 A 
BRANCH  43  57
ATOM     57  C   UNL A   1      36.979  33.117  31.247  1.00  0.00     0.057 A 
ATOM     58  C   UNL A   1      36.713  32.627  32.542  1.00  0.00     0.134 A 
ATOM     59  C   UNL A   1      35.922  33.879  30.704  1.00  0.00     0.134 A 
ATOM     60  F   UNL A   1      37.608  31.883  33.208  1.00  0.00    -0.206 F 
ATOM     61  C   UNL A   1      35.501  32.850  33.216  1.00  0.00     0.040 A 
ATOM     62  C   UNL A   1      34.722  34.141  31.383  1.00  0.00     0.040 A 
ATOM     63  F   UNL A   1      35.949  34.382  29.468  1.00  0.00    -0.206 F 
ATOM     64  C   UNL A   1      34.499  33.612  32.639  1.00  0.00     0.006 A 
ENDBRANCH  43  57
BRANCH  44  65
ATOM     65  C   UNL A   1      44.949  28.913  27.689  1.00  0.00     0.057 A 
ATOM     66  C   UNL A   1      45.938  27.936  27.908  1.00  0.00     0.134 A 
ATOM     67  C   UNL A   1      44.114  28.737  26.583  1.00  0.00     0.134 A 
ATOM     68  F   UNL A   1      46.777  28.051  28.949  1.00  0.00    -0.206 F 
ATOM     69  C   UNL A   1      46.008  26.773  27.140  1.00  0.00     0.040 A 
ATOM     70  C   UNL A   1      44.184  27.580  25.798  1.00  0.00     0.040 A 
ATOM     71  F   UNL A   1      43.131  29.613  26.325  1.00  0.00    -0.206 F 
ATOM     72  C   UNL A   1      45.102  26.575  26.102  1.00  0.00     0.006 A 
ENDBRANCH  44  65
BRANCH  56  73
ATOM     73  C   UNL A   1      42.658  35.683  28.760  1.00  0.00     0.057 A 
ATOM     74  C   UNL A   1      43.034  36.811  29.506  1.00  0.00     0.134 A 
ATOM     75  C   UNL A   1      42.353  35.947  27.404  1.00  0.00     0.134 A 
ATOM     76  F   UNL A   1      43.465  36.709  30.770  1.00  0.00    -0.206 F 
ATOM     77  C   UNL A   1      43.047  38.106  28.965  1.00  0.00     0.040 A 
ATOM     78  C   UNL A   1      42.420  37.226  26.839  1.00  0.00     0.040 A 
ATOM     79  F   UNL A   1      42.002  34.970  26.556  1.00  0.00    -0.206 F 
ATOM     80  C   UNL A   1      42.752  38.316  27.625  1.00  0.00     0.006 A 
ENDBRANCH  56  73
ENDBRANCH  30  31
ENDBRANCH  22  25
ENDBRANCH  20  21
ENDBRANCH   1  20
TORSDOF 11
ENDMDL
