MODEL 1
REMARK VINA RESULT:     -12.2      0.000      0.000
REMARK SMILES Cc1ccc(S(=O)(=O)N(c2ccccc2)[C@H](C)C(=O)NCCCNC(=O)c2ccc(-c3c4nc(c(-c5c(F)cccc5F)c5ccc([nH]5)c(-c5c(F)cccc5F)c5nc(c(-c6c(F)cccc6F)c6ccc3[nH]6)C=C5)C=C4)cc2)cc1
REMARK SMILES IDX 21 1 20 2 18 3 19 4 16 6 17 7 9 8 6 9 7 10 8 11 5 12 1 13
REMARK SMILES IDX 2 14 3 15 82 16 4 17 81 18 10 19 11 20 15 21 12 22 14 23
REMARK SMILES IDX 13 24 22 25 23 26 24 27 25 28 26 30 27 31 28 32 80 33 29 34
REMARK SMILES IDX 79 35 30 36 31 37 32 38 73 39 33 40 78 41 72 42 74 43 34 44
REMARK SMILES IDX 77 45 71 46 70 47 35 49 61 50 44 51 60 52 45 53 48 54 59 55
REMARK SMILES IDX 75 56 46 57 47 58 58 60 76 61 49 62 36 63 37 64 42 65 38 66
REMARK SMILES IDX 39 67 41 68 43 69 40 70 62 71 63 72 68 73 64 74 65 75 67 76
REMARK SMILES IDX 69 77 66 78 50 79 51 80 56 81 52 82 53 83 55 84 57 85 54 86
REMARK H PARENT 20 5 24 29 74 48 48 59
REMARK Flexibility Score: inf
ROOT
ATOM      1  C   UNL A   1      31.928  30.348  25.838  1.00  0.00     0.117 C 
ENDROOT
BRANCH   1   2
ATOM      2  N   UNL A   1      31.286  29.153  26.329  1.00  0.00    -0.354 N 
ATOM      3  C   UNL A   1      31.805  27.886  26.399  1.00  0.00     0.243 C 
ATOM      4  O   UNL A   1      31.247  27.113  27.187  1.00  0.00    -0.273 OA
ATOM      5  H   UNL A   1      30.363  29.260  26.654  1.00  0.00     0.163 HD
BRANCH   3   6
ATOM      6  C   UNL A   1      32.954  27.398  25.503  1.00  0.00     0.185 C 
ATOM      7  C   UNL A   1      34.316  27.648  26.161  1.00  0.00     0.043 C 
BRANCH   6   8
ATOM      8  N   UNL A   1      32.795  26.041  24.839  1.00  0.00    -0.254 N 
BRANCH   8   9
ATOM      9  S   UNL A   1      32.430  26.164  23.163  1.00  0.00     0.265 S 
ATOM     10  O   UNL A   1      31.994  24.843  22.746  1.00  0.00    -0.201 OA
ATOM     11  O   UNL A   1      33.563  26.793  22.517  1.00  0.00    -0.201 OA
BRANCH   9  12
ATOM     12  C   UNL A   1      31.027  27.234  22.904  1.00  0.00     0.088 A 
ATOM     13  C   UNL A   1      27.667  29.915  23.069  1.00  0.00     0.044 C 
ATOM     14  C   UNL A   1      28.824  28.963  22.969  1.00  0.00    -0.051 A 
ATOM     15  C   UNL A   1      28.688  27.638  23.392  1.00  0.00     0.005 A 
ATOM     16  C   UNL A   1      30.041  29.382  22.417  1.00  0.00     0.005 A 
ATOM     17  C   UNL A   1      29.790  26.784  23.381  1.00  0.00     0.022 A 
ATOM     18  C   UNL A   1      31.129  28.505  22.346  1.00  0.00     0.022 A 
ENDBRANCH   9  12
ENDBRANCH   8   9
BRANCH   8  19
ATOM     19  C   UNL A   1      33.589  24.938  25.281  1.00  0.00     0.053 A 
ATOM     20  C   UNL A   1      33.073  24.171  26.340  1.00  0.00     0.027 A 
ATOM     21  C   UNL A   1      34.855  24.648  24.770  1.00  0.00     0.027 A 
ATOM     22  C   UNL A   1      33.817  23.128  26.889  1.00  0.00     0.002 A 
ATOM     23  C   UNL A   1      35.603  23.607  25.332  1.00  0.00     0.002 A 
ATOM     24  C   UNL A   1      35.087  22.852  26.389  1.00  0.00     0.000 A 
ENDBRANCH   8  19
ENDBRANCH   6   8
ENDBRANCH   3   6
ENDBRANCH   1   2
BRANCH   1  25
ATOM     25  C   UNL A   1      32.395  31.333  26.885  1.00  0.00     0.042 C 
BRANCH  25  26
ATOM     26  C   UNL A   1      33.609  30.812  27.628  1.00  0.00     0.118 C 
BRANCH  26  27
ATOM     27  N   UNL A   1      34.532  31.831  28.137  1.00  0.00    -0.352 N 
ATOM     28  C   UNL A   1      35.826  31.682  28.631  1.00  0.00     0.251 C 
ATOM     29  H   UNL A   1      34.187  32.754  28.129  1.00  0.00     0.163 HD
ATOM     30  O   UNL A   1      36.462  32.656  28.990  1.00  0.00    -0.269 OA
BRANCH  28  31
ATOM     31  C   UNL A   1      36.481  30.344  28.559  1.00  0.00     0.039 A 
ATOM     32  C   UNL A   1      36.601  29.611  29.745  1.00  0.00     0.014 A 
ATOM     33  C   UNL A   1      37.248  30.005  27.456  1.00  0.00     0.014 A 
ATOM     34  C   UNL A   1      37.714  28.794  29.920  1.00  0.00     0.010 A 
ATOM     35  C   UNL A   1      38.438  29.355  27.685  1.00  0.00     0.010 A 
ATOM     36  C   UNL A   1      38.704  28.808  28.944  1.00  0.00    -0.014 A 
BRANCH  36  37
ATOM     37  C   UNL A   1      40.080  28.384  29.168  1.00  0.00     0.031 A 
ATOM     38  C   UNL A   1      40.487  27.014  28.786  1.00  0.00     0.074 A 
ATOM     39  C   UNL A   1      41.005  29.291  29.564  1.00  0.00     0.049 A 
ATOM     40  N   UNL A   1      41.613  26.485  29.112  1.00  0.00    -0.248 NA
ATOM     41  C   UNL A   1      39.619  26.089  28.054  1.00  0.00     0.031 C 
ATOM     42  C   UNL A   1      42.460  29.173  29.488  1.00  0.00     0.029 A 
ATOM     43  N   UNL A   1      40.798  30.448  30.337  1.00  0.00    -0.354 N 
ATOM     44  C   UNL A   1      41.752  25.328  28.387  1.00  0.00     0.074 A 
ATOM     45  C   UNL A   1      40.445  25.058  27.855  1.00  0.00     0.031 C 
ATOM     46  C   UNL A   1      43.014  29.989  30.397  1.00  0.00     0.029 A 
ATOM     47  C   UNL A   1      41.928  30.539  31.187  1.00  0.00     0.049 A 
ATOM     48  H   UNL A   1      40.030  31.063  30.296  1.00  0.00     0.167 HD
ATOM     49  C   UNL A   1      43.002  24.821  28.219  1.00  0.00     0.037 A 
ATOM     50  C   UNL A   1      41.812  30.409  32.540  1.00  0.00     0.037 A 
ATOM     51  C   UNL A   1      43.927  25.407  29.191  1.00  0.00     0.049 A 
ATOM     52  C   UNL A   1      42.601  29.255  33.119  1.00  0.00     0.074 A 
ATOM     53  C   UNL A   1      44.969  26.312  29.108  1.00  0.00     0.029 A 
ATOM     54  N   UNL A   1      43.641  25.261  30.548  1.00  0.00    -0.354 N 
ATOM     55  N   UNL A   1      43.078  28.267  32.410  1.00  0.00    -0.248 NA
ATOM     56  C   UNL A   1      42.898  29.108  34.541  1.00  0.00     0.031 C 
ATOM     57  C   UNL A   1      45.232  26.792  30.423  1.00  0.00     0.029 A 
ATOM     58  C   UNL A   1      44.385  26.140  31.305  1.00  0.00     0.049 A 
ATOM     59  H   UNL A   1      42.994  24.617  30.915  1.00  0.00     0.167 HD
ATOM     60  C   UNL A   1      43.690  27.358  33.235  1.00  0.00     0.074 A 
ATOM     61  C   UNL A   1      43.576  27.946  34.556  1.00  0.00     0.031 C 
ATOM     62  C   UNL A   1      44.216  26.190  32.755  1.00  0.00     0.037 A 
BRANCH  49  63
ATOM     63  C   UNL A   1      43.433  23.934  27.069  1.00  0.00     0.057 A 
ATOM     64  C   UNL A   1      43.974  24.507  25.900  1.00  0.00     0.134 A 
ATOM     65  C   UNL A   1      43.219  22.542  26.978  1.00  0.00     0.134 A 
ATOM     66  F   UNL A   1      44.214  25.823  25.815  1.00  0.00    -0.206 F 
ATOM     67  C   UNL A   1      44.269  23.761  24.747  1.00  0.00     0.040 A 
ATOM     68  C   UNL A   1      43.559  21.779  25.852  1.00  0.00     0.040 A 
ATOM     69  F   UNL A   1      42.613  21.840  27.940  1.00  0.00    -0.206 F 
ATOM     70  C   UNL A   1      44.073  22.389  24.723  1.00  0.00     0.006 A 
ENDBRANCH  49  63
BRANCH  50  71
ATOM     71  C   UNL A   1      40.526  30.936  33.065  1.00  0.00     0.057 A 
ATOM     72  C   UNL A   1      39.494  30.018  33.332  1.00  0.00     0.134 A 
ATOM     73  C   UNL A   1      40.438  32.188  33.679  1.00  0.00     0.134 A 
ATOM     74  F   UNL A   1      39.514  28.800  32.770  1.00  0.00    -0.206 F 
ATOM     75  C   UNL A   1      38.493  30.284  34.271  1.00  0.00     0.040 A 
ATOM     76  C   UNL A   1      39.429  32.470  34.610  1.00  0.00     0.040 A 
ATOM     77  F   UNL A   1      41.397  33.106  33.495  1.00  0.00    -0.206 F 
ATOM     78  C   UNL A   1      38.482  31.502  34.942  1.00  0.00     0.006 A 
ENDBRANCH  50  71
BRANCH  62  79
ATOM     79  C   UNL A   1      44.672  25.004  33.582  1.00  0.00     0.057 A 
ATOM     80  C   UNL A   1      46.000  24.561  33.684  1.00  0.00     0.134 A 
ATOM     81  C   UNL A   1      43.765  24.346  34.447  1.00  0.00     0.134 A 
ATOM     82  F   UNL A   1      46.997  25.162  33.023  1.00  0.00    -0.206 F 
ATOM     83  C   UNL A   1      46.384  23.509  34.530  1.00  0.00     0.040 A 
ATOM     84  C   UNL A   1      44.147  23.338  35.337  1.00  0.00     0.040 A 
ATOM     85  F   UNL A   1      42.465  24.674  34.488  1.00  0.00    -0.206 F 
ATOM     86  C   UNL A   1      45.460  22.902  35.370  1.00  0.00     0.006 A 
ENDBRANCH  62  79
ENDBRANCH  36  37
ENDBRANCH  28  31
ENDBRANCH  26  27
ENDBRANCH  25  26
ENDBRANCH   1  25
TORSDOF 14
ENDMDL
MODEL 2
REMARK VINA RESULT:     -12.1      3.953      9.190
REMARK SMILES Cc1ccc(S(=O)(=O)N(c2ccccc2)[C@H](C)C(=O)NCCCNC(=O)c2ccc(-c3c4nc(c(-c5c(F)cccc5F)c5ccc([nH]5)c(-c5c(F)cccc5F)c5nc(c(-c6c(F)cccc6F)c6ccc3[nH]6)C=C5)C=C4)cc2)cc1
REMARK SMILES IDX 21 1 20 2 18 3 19 4 16 6 17 7 9 8 6 9 7 10 8 11 5 12 1 13
REMARK SMILES IDX 2 14 3 15 82 16 4 17 81 18 10 19 11 20 15 21 12 22 14 23
REMARK SMILES IDX 13 24 22 25 23 26 24 27 25 28 26 30 27 31 28 32 80 33 29 34
REMARK SMILES IDX 79 35 30 36 31 37 32 38 73 39 33 40 78 41 72 42 74 43 34 44
REMARK SMILES IDX 77 45 71 46 70 47 35 49 61 50 44 51 60 52 45 53 48 54 59 55
REMARK SMILES IDX 75 56 46 57 47 58 58 60 76 61 49 62 36 63 37 64 42 65 38 66
REMARK SMILES IDX 39 67 41 68 43 69 40 70 62 71 63 72 68 73 64 74 65 75 67 76
REMARK SMILES IDX 69 77 66 78 50 79 51 80 56 81 52 82 53 83 55 84 57 85 54 86
REMARK H PARENT 20 5 24 29 74 48 48 59
REMARK Flexibility Score: inf
ROOT
ATOM      1  C   UNL A   1      37.395  21.090  25.311  1.00  0.00     0.117 C 
ENDROOT
BRANCH   1   2
ATOM      2  N   UNL A   1      37.069  21.648  24.021  1.00  0.00    -0.354 N 
ATOM      3  C   UNL A   1      36.266  22.726  23.748  1.00  0.00     0.243 C 
ATOM      4  O   UNL A   1      36.429  23.257  22.643  1.00  0.00    -0.273 OA
ATOM      5  H   UNL A   1      37.472  21.201  23.242  1.00  0.00     0.163 HD
BRANCH   3   6
ATOM      6  C   UNL A   1      35.164  23.214  24.699  1.00  0.00     0.185 C 
ATOM      7  C   UNL A   1      35.722  24.192  25.741  1.00  0.00     0.043 C 
BRANCH   6   8
ATOM      8  N   UNL A   1      33.835  23.616  24.082  1.00  0.00    -0.254 N 
BRANCH   8   9
ATOM      9  S   UNL A   1      32.552  22.566  24.535  1.00  0.00     0.265 S 
ATOM     10  O   UNL A   1      31.409  22.950  23.726  1.00  0.00    -0.201 OA
ATOM     11  O   UNL A   1      32.460  22.590  25.980  1.00  0.00    -0.201 OA
BRANCH   9  12
ATOM     12  C   UNL A   1      32.923  20.885  24.069  1.00  0.00     0.088 A 
ATOM     13  C   UNL A   1      33.434  16.638  23.614  1.00  0.00     0.044 C 
ATOM     14  C   UNL A   1      33.293  18.126  23.743  1.00  0.00    -0.051 A 
ATOM     15  C   UNL A   1      34.053  18.830  24.681  1.00  0.00     0.005 A 
ATOM     16  C   UNL A   1      32.425  18.832  22.901  1.00  0.00     0.005 A 
ATOM     17  C   UNL A   1      33.853  20.198  24.860  1.00  0.00     0.022 A 
ATOM     18  C   UNL A   1      32.272  20.216  23.035  1.00  0.00     0.022 A 
ENDBRANCH   9  12
ENDBRANCH   8   9
BRANCH   8  19
ATOM     19  C   UNL A   1      33.539  24.998  23.873  1.00  0.00     0.053 A 
ATOM     20  C   UNL A   1      33.687  25.487  22.564  1.00  0.00     0.027 A 
ATOM     21  C   UNL A   1      33.194  25.874  24.903  1.00  0.00     0.027 A 
ATOM     22  C   UNL A   1      33.498  26.840  22.286  1.00  0.00     0.002 A 
ATOM     23  C   UNL A   1      33.017  27.233  24.622  1.00  0.00     0.002 A 
ATOM     24  C   UNL A   1      33.172  27.715  23.319  1.00  0.00     0.000 A 
ENDBRANCH   8  19
ENDBRANCH   6   8
ENDBRANCH   3   6
ENDBRANCH   1   2
BRANCH   1  25
ATOM     25  C   UNL A   1      38.844  21.183  25.731  1.00  0.00     0.042 C 
BRANCH  25  26
ATOM     26  C   UNL A   1      39.205  22.591  26.157  1.00  0.00     0.118 C 
BRANCH  26  27
ATOM     27  N   UNL A   1      40.622  22.825  26.455  1.00  0.00    -0.352 N 
ATOM     28  C   UNL A   1      41.271  24.014  26.781  1.00  0.00     0.251 C 
ATOM     29  H   UNL A   1      41.198  22.026  26.418  1.00  0.00     0.163 HD
ATOM     30  O   UNL A   1      42.463  24.015  27.024  1.00  0.00    -0.269 OA
BRANCH  28  31
ATOM     31  C   UNL A   1      40.461  25.249  26.990  1.00  0.00     0.039 A 
ATOM     32  C   UNL A   1      40.759  26.366  26.201  1.00  0.00     0.014 A 
ATOM     33  C   UNL A   1      39.707  25.398  28.143  1.00  0.00     0.014 A 
ATOM     34  C   UNL A   1      40.602  27.636  26.749  1.00  0.00     0.010 A 
ATOM     35  C   UNL A   1      39.725  26.627  28.760  1.00  0.00     0.010 A 
ATOM     36  C   UNL A   1      40.241  27.739  28.087  1.00  0.00    -0.014 A 
BRANCH  36  37
ATOM     37  C   UNL A   1      40.464  28.923  28.907  1.00  0.00     0.031 A 
ATOM     38  C   UNL A   1      39.402  29.947  29.004  1.00  0.00     0.074 A 
ATOM     39  C   UNL A   1      41.563  28.993  29.696  1.00  0.00     0.049 A 
ATOM     40  N   UNL A   1      39.571  31.104  29.541  1.00  0.00    -0.248 NA
ATOM     41  C   UNL A   1      38.063  29.778  28.435  1.00  0.00     0.031 C 
ATOM     42  C   UNL A   1      41.787  29.881  30.836  1.00  0.00     0.029 A 
ATOM     43  N   UNL A   1      42.819  28.399  29.476  1.00  0.00    -0.354 N 
ATOM     44  C   UNL A   1      38.332  31.679  29.682  1.00  0.00     0.074 A 
ATOM     45  C   UNL A   1      37.454  30.886  28.867  1.00  0.00     0.031 C 
ATOM     46  C   UNL A   1      43.107  30.021  31.029  1.00  0.00     0.029 A 
ATOM     47  C   UNL A   1      43.768  29.351  29.925  1.00  0.00     0.049 A 
ATOM     48  H   UNL A   1      42.999  27.511  29.091  1.00  0.00     0.167 HD
ATOM     49  C   UNL A   1      38.189  32.680  30.590  1.00  0.00     0.037 A 
ATOM     50  C   UNL A   1      44.634  29.954  29.060  1.00  0.00     0.037 A 
ATOM     51  C   UNL A   1      39.496  33.221  30.967  1.00  0.00     0.049 A 
ATOM     52  C   UNL A   1      44.499  31.460  29.002  1.00  0.00     0.074 A 
ATOM     53  C   UNL A   1      40.276  33.155  32.108  1.00  0.00     0.029 A 
ATOM     54  N   UNL A   1      40.312  33.739  29.963  1.00  0.00    -0.354 N 
ATOM     55  N   UNL A   1      43.465  32.119  29.450  1.00  0.00    -0.248 NA
ATOM     56  C   UNL A   1      45.504  32.342  28.416  1.00  0.00     0.031 C 
ATOM     57  C   UNL A   1      41.600  33.535  31.749  1.00  0.00     0.029 A 
ATOM     58  C   UNL A   1      41.610  33.880  30.407  1.00  0.00     0.049 A 
ATOM     59  H   UNL A   1      40.003  33.972  29.058  1.00  0.00     0.167 HD
ATOM     60  C   UNL A   1      43.622  33.457  29.197  1.00  0.00     0.074 A 
ATOM     61  C   UNL A   1      44.930  33.548  28.575  1.00  0.00     0.031 C 
ATOM     62  C   UNL A   1      42.649  34.368  29.504  1.00  0.00     0.037 A 
BRANCH  49  63
ATOM     63  C   UNL A   1      36.889  33.053  31.274  1.00  0.00     0.057 A 
ATOM     64  C   UNL A   1      36.589  32.535  32.550  1.00  0.00     0.134 A 
ATOM     65  C   UNL A   1      35.835  33.790  30.692  1.00  0.00     0.134 A 
ATOM     66  F   UNL A   1      37.475  31.793  33.228  1.00  0.00    -0.206 F 
ATOM     67  C   UNL A   1      35.351  32.729  33.183  1.00  0.00     0.040 A 
ATOM     68  C   UNL A   1      34.614  34.034  31.337  1.00  0.00     0.040 A 
ATOM     69  F   UNL A   1      35.888  34.264  29.444  1.00  0.00    -0.206 F 
ATOM     70  C   UNL A   1      34.360  33.491  32.583  1.00  0.00     0.006 A 
ENDBRANCH  49  63
BRANCH  50  71
ATOM     71  C   UNL A   1      45.040  29.071  27.936  1.00  0.00     0.057 A 
ATOM     72  C   UNL A   1      46.027  28.099  28.180  1.00  0.00     0.134 A 
ATOM     73  C   UNL A   1      44.228  28.885  26.816  1.00  0.00     0.134 A 
ATOM     74  F   UNL A   1      46.846  28.220  29.236  1.00  0.00    -0.206 F 
ATOM     75  C   UNL A   1      46.113  26.927  27.423  1.00  0.00     0.040 A 
ATOM     76  C   UNL A   1      44.317  27.720  26.040  1.00  0.00     0.040 A 
ATOM     77  F   UNL A   1      43.247  29.753  26.532  1.00  0.00    -0.206 F 
ATOM     78  C   UNL A   1      45.229  26.719  26.370  1.00  0.00     0.006 A 
ENDBRANCH  50  71
BRANCH  62  79
ATOM     79  C   UNL A   1      42.591  35.811  29.042  1.00  0.00     0.057 A 
ATOM     80  C   UNL A   1      43.364  36.855  29.574  1.00  0.00     0.134 A 
ATOM     81  C   UNL A   1      41.831  36.165  27.901  1.00  0.00     0.134 A 
ATOM     82  F   UNL A   1      44.228  36.653  30.576  1.00  0.00    -0.206 F 
ATOM     83  C   UNL A   1      43.336  38.159  29.054  1.00  0.00     0.040 A 
ATOM     84  C   UNL A   1      41.841  37.445  27.339  1.00  0.00     0.040 A 
ATOM     85  F   UNL A   1      41.061  35.272  27.261  1.00  0.00    -0.206 F 
ATOM     86  C   UNL A   1      42.583  38.455  27.926  1.00  0.00     0.006 A 
ENDBRANCH  62  79
ENDBRANCH  36  37
ENDBRANCH  28  31
ENDBRANCH  26  27
ENDBRANCH  25  26
ENDBRANCH   1  25
TORSDOF 14
ENDMDL
MODEL 3
REMARK VINA RESULT:     -11.9      3.777      9.006
REMARK SMILES Cc1ccc(S(=O)(=O)N(c2ccccc2)[C@H](C)C(=O)NCCCNC(=O)c2ccc(-c3c4nc(c(-c5c(F)cccc5F)c5ccc([nH]5)c(-c5c(F)cccc5F)c5nc(c(-c6c(F)cccc6F)c6ccc3[nH]6)C=C5)C=C4)cc2)cc1
REMARK SMILES IDX 21 1 20 2 18 3 19 4 16 6 17 7 9 8 6 9 7 10 8 11 5 12 1 13
REMARK SMILES IDX 2 14 3 15 82 16 4 17 81 18 10 19 11 20 15 21 12 22 14 23
REMARK SMILES IDX 13 24 22 25 23 26 24 27 25 28 26 30 27 31 28 32 80 33 29 34
REMARK SMILES IDX 79 35 30 36 31 37 32 38 73 39 33 40 78 41 72 42 74 43 34 44
REMARK SMILES IDX 77 45 71 46 70 47 35 49 61 50 44 51 60 52 45 53 48 54 59 55
REMARK SMILES IDX 75 56 46 57 47 58 58 60 76 61 49 62 36 63 37 64 42 65 38 66
REMARK SMILES IDX 39 67 41 68 43 69 40 70 62 71 63 72 68 73 64 74 65 75 67 76
REMARK SMILES IDX 69 77 66 78 50 79 51 80 56 81 52 82 53 83 55 84 57 85 54 86
REMARK H PARENT 20 5 24 29 74 48 48 59
REMARK Flexibility Score: inf
ROOT
ATOM      1  C   UNL A   1      36.153  21.139  25.110  1.00  0.00     0.117 C 
ENDROOT
BRANCH   1   2
ATOM      2  N   UNL A   1      35.710  21.826  23.921  1.00  0.00    -0.354 N 
ATOM      3  C   UNL A   1      35.028  23.013  23.838  1.00  0.00     0.243 C 
ATOM      4  O   UNL A   1      35.090  23.600  22.751  1.00  0.00    -0.273 OA
ATOM      5  H   UNL A   1      35.925  21.391  23.064  1.00  0.00     0.163 HD
BRANCH   3   6
ATOM      6  C   UNL A   1      34.161  23.564  24.979  1.00  0.00     0.185 C 
ATOM      7  C   UNL A   1      34.579  24.990  25.357  1.00  0.00     0.043 C 
BRANCH   6   8
ATOM      8  N   UNL A   1      32.662  23.331  24.893  1.00  0.00    -0.254 N 
BRANCH   8   9
ATOM      9  S   UNL A   1      32.135  22.041  25.900  1.00  0.00     0.265 S 
ATOM     10  O   UNL A   1      30.694  22.182  26.017  1.00  0.00    -0.201 OA
ATOM     11  O   UNL A   1      32.965  22.049  27.086  1.00  0.00    -0.201 OA
BRANCH   9  12
ATOM     12  C   UNL A   1      32.397  20.471  25.095  1.00  0.00     0.088 A 
ATOM     13  C   UNL A   1      33.654  17.046  22.816  1.00  0.00     0.044 C 
ATOM     14  C   UNL A   1      33.172  18.222  23.615  1.00  0.00    -0.051 A 
ATOM     15  C   UNL A   1      32.528  19.289  22.984  1.00  0.00     0.005 A 
ATOM     16  C   UNL A   1      33.328  18.246  25.006  1.00  0.00     0.005 A 
ATOM     17  C   UNL A   1      32.164  20.418  23.716  1.00  0.00     0.022 A 
ATOM     18  C   UNL A   1      32.903  19.351  25.751  1.00  0.00     0.022 A 
ENDBRANCH   9  12
ENDBRANCH   8   9
BRANCH   8  19
ATOM     19  C   UNL A   1      31.782  24.439  24.695  1.00  0.00     0.053 A 
ATOM     20  C   UNL A   1      31.393  25.151  25.843  1.00  0.00     0.027 A 
ATOM     21  C   UNL A   1      31.248  24.785  23.453  1.00  0.00     0.027 A 
ATOM     22  C   UNL A   1      30.472  26.195  25.752  1.00  0.00     0.002 A 
ATOM     23  C   UNL A   1      30.316  25.825  23.368  1.00  0.00     0.002 A 
ATOM     24  C   UNL A   1      29.928  26.525  24.514  1.00  0.00     0.000 A 
ENDBRANCH   8  19
ENDBRANCH   6   8
ENDBRANCH   3   6
ENDBRANCH   1   2
BRANCH   1  25
ATOM     25  C   UNL A   1      37.647  20.973  25.268  1.00  0.00     0.042 C 
BRANCH  25  26
ATOM     26  C   UNL A   1      38.317  22.292  25.591  1.00  0.00     0.118 C 
BRANCH  26  27
ATOM     27  N   UNL A   1      39.635  22.201  26.226  1.00  0.00    -0.352 N 
ATOM     28  C   UNL A   1      40.413  23.208  26.795  1.00  0.00     0.251 C 
ATOM     29  H   UNL A   1      40.028  21.298  26.254  1.00  0.00     0.163 HD
ATOM     30  O   UNL A   1      41.485  22.940  27.306  1.00  0.00    -0.269 OA
BRANCH  28  31
ATOM     31  C   UNL A   1      39.845  24.581  26.918  1.00  0.00     0.039 A 
ATOM     32  C   UNL A   1      40.403  25.591  26.126  1.00  0.00     0.014 A 
ATOM     33  C   UNL A   1      39.062  24.913  28.013  1.00  0.00     0.014 A 
ATOM     34  C   UNL A   1      40.460  26.887  26.632  1.00  0.00     0.010 A 
ATOM     35  C   UNL A   1      39.278  26.137  28.601  1.00  0.00     0.010 A 
ATOM     36  C   UNL A   1      40.040  27.105  27.939  1.00  0.00    -0.014 A 
BRANCH  36  37
ATOM     37  C   UNL A   1      40.435  28.253  28.745  1.00  0.00     0.031 A 
ATOM     38  C   UNL A   1      39.468  29.349  28.967  1.00  0.00     0.074 A 
ATOM     39  C   UNL A   1      41.613  28.229  29.412  1.00  0.00     0.049 A 
ATOM     40  N   UNL A   1      39.776  30.480  29.497  1.00  0.00    -0.248 NA
ATOM     41  C   UNL A   1      38.067  29.288  28.544  1.00  0.00     0.031 C 
ATOM     42  C   UNL A   1      42.022  29.077  30.532  1.00  0.00     0.029 A 
ATOM     43  N   UNL A   1      42.792  27.552  29.051  1.00  0.00    -0.354 N 
ATOM     44  C   UNL A   1      38.605  31.139  29.777  1.00  0.00     0.074 A 
ATOM     45  C   UNL A   1      37.590  30.427  29.052  1.00  0.00     0.031 C 
ATOM     46  C   UNL A   1      43.361  29.118  30.584  1.00  0.00     0.029 A 
ATOM     47  C   UNL A   1      43.851  28.424  29.407  1.00  0.00     0.049 A 
ATOM     48  H   UNL A   1      42.866  26.661  28.638  1.00  0.00     0.167 HD
ATOM     49  C   UNL A   1      38.632  32.130  30.708  1.00  0.00     0.037 A 
ATOM     50  C   UNL A   1      44.662  28.981  28.462  1.00  0.00     0.037 A 
ATOM     51  C   UNL A   1      40.008  32.568  30.949  1.00  0.00     0.049 A 
ATOM     52  C   UNL A   1      44.632  30.494  28.437  1.00  0.00     0.074 A 
ATOM     53  C   UNL A   1      40.897  32.424  31.998  1.00  0.00     0.029 A 
ATOM     54  N   UNL A   1      40.749  33.046  29.869  1.00  0.00    -0.354 N 
ATOM     55  N   UNL A   1      43.702  31.216  29.002  1.00  0.00    -0.248 NA
ATOM     56  C   UNL A   1      45.632  31.313  27.758  1.00  0.00     0.031 C 
ATOM     57  C   UNL A   1      42.201  32.716  31.504  1.00  0.00     0.029 A 
ATOM     58  C   UNL A   1      42.093  33.086  30.173  1.00  0.00     0.049 A 
ATOM     59  H   UNL A   1      40.364  33.319  29.005  1.00  0.00     0.167 HD
ATOM     60  C   UNL A   1      43.930  32.544  28.750  1.00  0.00     0.074 A 
ATOM     61  C   UNL A   1      45.167  32.554  27.992  1.00  0.00     0.031 C 
ATOM     62  C   UNL A   1      43.063  33.516  29.170  1.00  0.00     0.037 A 
BRANCH  49  63
ATOM     63  C   UNL A   1      37.443  32.581  31.531  1.00  0.00     0.057 A 
ATOM     64  C   UNL A   1      36.540  33.527  31.007  1.00  0.00     0.134 A 
ATOM     65  C   UNL A   1      37.201  32.244  32.880  1.00  0.00     0.134 A 
ATOM     66  F   UNL A   1      36.648  33.972  29.747  1.00  0.00    -0.206 F 
ATOM     67  C   UNL A   1      35.496  34.089  31.760  1.00  0.00     0.040 A 
ATOM     68  C   UNL A   1      36.131  32.759  33.626  1.00  0.00     0.040 A 
ATOM     69  F   UNL A   1      38.014  31.450  33.583  1.00  0.00    -0.206 F 
ATOM     70  C   UNL A   1      35.280  33.697  33.072  1.00  0.00     0.006 A 
ENDBRANCH  49  63
BRANCH  50  71
ATOM     71  C   UNL A   1      44.881  28.094  27.290  1.00  0.00     0.057 A 
ATOM     72  C   UNL A   1      45.800  27.037  27.422  1.00  0.00     0.134 A 
ATOM     73  C   UNL A   1      43.952  28.003  26.252  1.00  0.00     0.134 A 
ATOM     74  F   UNL A   1      46.724  27.065  28.395  1.00  0.00    -0.206 F 
ATOM     75  C   UNL A   1      45.712  25.880  26.642  1.00  0.00     0.040 A 
ATOM     76  C   UNL A   1      43.866  26.853  25.454  1.00  0.00     0.040 A 
ATOM     77  F   UNL A   1      43.026  28.957  26.079  1.00  0.00    -0.206 F 
ATOM     78  C   UNL A   1      44.716  25.771  25.678  1.00  0.00     0.006 A 
ENDBRANCH  50  71
BRANCH  62  79
ATOM     79  C   UNL A   1      43.063  34.968  28.734  1.00  0.00     0.057 A 
ATOM     80  C   UNL A   1      43.247  36.063  29.593  1.00  0.00     0.134 A 
ATOM     81  C   UNL A   1      43.023  35.300  27.359  1.00  0.00     0.134 A 
ATOM     82  F   UNL A   1      43.426  35.905  30.910  1.00  0.00    -0.206 F 
ATOM     83  C   UNL A   1      43.322  37.386  29.128  1.00  0.00     0.040 A 
ATOM     84  C   UNL A   1      43.157  36.607  26.880  1.00  0.00     0.040 A 
ATOM     85  F   UNL A   1      42.880  34.363  26.410  1.00  0.00    -0.206 F 
ATOM     86  C   UNL A   1      43.291  37.661  27.768  1.00  0.00     0.006 A 
ENDBRANCH  62  79
ENDBRANCH  36  37
ENDBRANCH  28  31
ENDBRANCH  26  27
ENDBRANCH  25  26
ENDBRANCH   1  25
TORSDOF 14
ENDMDL
