MODEL 1
REMARK VINA RESULT:     -11.0      0.000      0.000
REMARK SMILES C[C@@H](C(=O)NCCCNC(=O)c1ccc(-c2c3nc(c(-c4c(F)cccc4F)c4ccc([nH]4)c(-c4c(F)cccc4F)c4nc(c(-c5c(F)cccc5F)c5ccc2[nH]5)C=C4)C=C3)cc1)c1ccc(C[C@H]2CCCC2=O)cc1F
REMARK SMILES IDX 6 1 5 2 3 3 4 4 2 6 1 7 66 8 67 9 78 10 68 11 77 12 79 13
REMARK SMILES IDX 69 14 70 15 71 16 72 17 75 18 73 19 74 20 76 21 7 22 8 23
REMARK SMILES IDX 9 24 10 25 11 27 12 28 13 29 65 30 14 31 64 32 15 33 16 34
REMARK SMILES IDX 17 35 58 36 18 37 63 38 57 39 59 40 19 41 62 42 56 43 55 44
REMARK SMILES IDX 20 46 46 47 29 48 45 49 30 50 33 51 44 52 60 53 31 54 32 55
REMARK SMILES IDX 43 57 61 58 34 59 21 60 22 61 27 62 23 63 24 64 26 65 28 66
REMARK SMILES IDX 25 67 47 68 48 69 53 70 49 71 50 72 52 73 54 74 51 75 35 76
REMARK SMILES IDX 36 77 41 78 37 79 38 80 40 81 42 82 39 83
REMARK H PARENT 5 5 9 26 59 45 33 56
REMARK Flexibility Score: inf
ROOT
ATOM      1  C   UNL A   1      33.620  35.047  28.825  1.00  0.00     0.117 C 
ENDROOT
BRANCH   1   2
ATOM      2  N   UNL A   1      33.620  36.272  29.602  1.00  0.00    -0.356 N 
ATOM      3  C   UNL A   1      33.060  36.554  30.815  1.00  0.00     0.227 C 
ATOM      4  O   UNL A   1      32.980  37.748  31.113  1.00  0.00    -0.274 OA
ATOM      5  H   UNL A   1      34.103  37.024  29.187  1.00  0.00     0.163 HD
BRANCH   3   6
ATOM      6  C   UNL A   1      32.602  35.413  31.748  1.00  0.00     0.108 C 
ATOM      7  C   UNL A   1      31.521  35.955  32.688  1.00  0.00     0.023 C 
BRANCH   6   8
ATOM      8  C   UNL A   1      33.767  34.715  32.464  1.00  0.00    -0.000 A 
ATOM      9  C   UNL A   1      34.059  33.368  32.187  1.00  0.00     0.008 A 
ATOM     10  C   UNL A   1      34.559  35.340  33.437  1.00  0.00     0.127 A 
ATOM     11  C   UNL A   1      35.130  32.709  32.800  1.00  0.00     0.004 A 
ATOM     12  C   UNL A   1      35.605  34.679  34.079  1.00  0.00     0.043 A 
ATOM     13  F   UNL A   1      34.338  36.610  33.807  1.00  0.00    -0.207 F 
ATOM     14  C   UNL A   1      35.905  33.352  33.769  1.00  0.00    -0.044 A 
BRANCH  14  15
ATOM     15  C   UNL A   1      37.034  32.640  34.472  1.00  0.00     0.047 C 
BRANCH  15  16
ATOM     16  C   UNL A   1      38.201  32.180  33.591  1.00  0.00     0.060 C 
ATOM     17  C   UNL A   1      39.260  33.234  33.251  1.00  0.00     0.012 C 
ATOM     18  C   UNL A   1      39.028  31.102  34.249  1.00  0.00     0.136 C 
ATOM     19  C   UNL A   1      40.404  33.031  34.238  1.00  0.00     0.009 C 
ATOM     20  C   UNL A   1      40.442  31.536  34.526  1.00  0.00     0.076 C 
ATOM     21  O   UNL A   1      38.596  29.988  34.526  1.00  0.00    -0.299 OA
ENDBRANCH  15  16
ENDBRANCH  14  15
ENDBRANCH   6   8
ENDBRANCH   3   6
ENDBRANCH   1   2
BRANCH   1  22
ATOM     22  C   UNL A   1      35.048  34.596  28.505  1.00  0.00     0.042 C 
BRANCH  22  23
ATOM     23  C   UNL A   1      35.388  33.192  28.995  1.00  0.00     0.118 C 
BRANCH  23  24
ATOM     24  N   UNL A   1      34.434  32.194  28.538  1.00  0.00    -0.352 N 
ATOM     25  C   UNL A   1      34.634  30.884  28.179  1.00  0.00     0.251 C 
ATOM     26  H   UNL A   1      33.502  32.506  28.476  1.00  0.00     0.163 HD
ATOM     27  O   UNL A   1      33.729  30.260  27.627  1.00  0.00    -0.269 OA
BRANCH  25  28
ATOM     28  C   UNL A   1      35.936  30.226  28.421  1.00  0.00     0.039 A 
ATOM     29  C   UNL A   1      36.861  30.163  27.376  1.00  0.00     0.014 A 
ATOM     30  C   UNL A   1      36.249  29.670  29.665  1.00  0.00     0.014 A 
ATOM     31  C   UNL A   1      38.132  29.628  27.604  1.00  0.00     0.010 A 
ATOM     32  C   UNL A   1      37.539  29.198  29.910  1.00  0.00     0.010 A 
ATOM     33  C   UNL A   1      38.499  29.192  28.887  1.00  0.00    -0.014 A 
BRANCH  33  34
ATOM     34  C   UNL A   1      39.899  28.801  29.196  1.00  0.00     0.031 A 
ATOM     35  C   UNL A   1      40.851  29.779  29.823  1.00  0.00     0.074 A 
ATOM     36  C   UNL A   1      40.334  27.580  28.822  1.00  0.00     0.049 A 
ATOM     37  N   UNL A   1      42.131  29.644  30.065  1.00  0.00    -0.248 NA
ATOM     38  C   UNL A   1      40.303  31.087  30.215  1.00  0.00     0.031 C 
ATOM     39  C   UNL A   1      39.519  26.555  28.165  1.00  0.00     0.029 A 
ATOM     40  N   UNL A   1      41.576  27.000  28.916  1.00  0.00    -0.354 N 
ATOM     41  C   UNL A   1      42.544  30.850  30.618  1.00  0.00     0.074 A 
ATOM     42  C   UNL A   1      41.386  31.717  30.652  1.00  0.00     0.031 C 
ATOM     43  C   UNL A   1      40.277  25.476  27.920  1.00  0.00     0.029 A 
ATOM     44  C   UNL A   1      41.644  25.746  28.354  1.00  0.00     0.049 A 
ATOM     45  H   UNL A   1      42.345  27.440  29.345  1.00  0.00     0.167 HD
ATOM     46  C   UNL A   1      43.774  31.194  31.065  1.00  0.00     0.037 A 
ATOM     47  C   UNL A   1      42.692  24.920  28.179  1.00  0.00     0.037 A 
ATOM     48  C   UNL A   1      44.916  30.317  31.056  1.00  0.00     0.049 A 
ATOM     49  C   UNL A   1      44.052  25.347  28.658  1.00  0.00     0.074 A 
ATOM     50  C   UNL A   1      46.178  30.546  31.578  1.00  0.00     0.029 A 
ATOM     51  N   UNL A   1      44.942  29.055  30.486  1.00  0.00    -0.354 N 
ATOM     52  N   UNL A   1      44.403  26.451  29.273  1.00  0.00    -0.248 NA
ATOM     53  C   UNL A   1      45.166  24.418  28.415  1.00  0.00     0.031 C 
ATOM     54  C   UNL A   1      46.986  29.449  31.267  1.00  0.00     0.029 A 
ATOM     55  C   UNL A   1      46.213  28.514  30.599  1.00  0.00     0.049 A 
ATOM     56  H   UNL A   1      44.173  28.609  30.063  1.00  0.00     0.167 HD
ATOM     57  C   UNL A   1      45.767  26.339  29.506  1.00  0.00     0.074 A 
ATOM     58  C   UNL A   1      46.178  25.050  28.991  1.00  0.00     0.031 C 
ATOM     59  C   UNL A   1      46.608  27.229  30.087  1.00  0.00     0.037 A 
BRANCH  46  60
ATOM     60  C   UNL A   1      43.972  32.580  31.606  1.00  0.00     0.057 A 
ATOM     61  C   UNL A   1      44.198  33.676  30.765  1.00  0.00     0.134 A 
ATOM     62  C   UNL A   1      43.824  32.834  32.976  1.00  0.00     0.134 A 
ATOM     63  F   UNL A   1      44.352  33.499  29.445  1.00  0.00    -0.206 F 
ATOM     64  C   UNL A   1      44.275  34.976  31.268  1.00  0.00     0.040 A 
ATOM     65  C   UNL A   1      43.878  34.132  33.488  1.00  0.00     0.040 A 
ATOM     66  F   UNL A   1      43.597  31.829  33.835  1.00  0.00    -0.206 F 
ATOM     67  C   UNL A   1      44.103  35.207  32.632  1.00  0.00     0.006 A 
ENDBRANCH  46  60
BRANCH  47  68
ATOM     68  C   UNL A   1      42.517  23.614  27.489  1.00  0.00     0.057 A 
ATOM     69  C   UNL A   1      42.258  22.442  28.208  1.00  0.00     0.134 A 
ATOM     70  C   UNL A   1      42.657  23.499  26.100  1.00  0.00     0.134 A 
ATOM     71  F   UNL A   1      42.134  22.483  29.543  1.00  0.00    -0.206 F 
ATOM     72  C   UNL A   1      42.180  21.198  27.578  1.00  0.00     0.040 A 
ATOM     73  C   UNL A   1      42.549  22.266  25.453  1.00  0.00     0.040 A 
ATOM     74  F   UNL A   1      42.901  24.584  25.349  1.00  0.00    -0.206 F 
ATOM     75  C   UNL A   1      42.324  21.109  26.195  1.00  0.00     0.006 A 
ENDBRANCH  47  68
BRANCH  59  76
ATOM     76  C   UNL A   1      48.051  26.836  30.211  1.00  0.00     0.057 A 
ATOM     77  C   UNL A   1      49.005  27.233  29.267  1.00  0.00     0.134 A 
ATOM     78  C   UNL A   1      48.499  26.096  31.313  1.00  0.00     0.134 A 
ATOM     79  F   UNL A   1      48.637  27.930  28.181  1.00  0.00    -0.206 F 
ATOM     80  C   UNL A   1      50.352  26.896  29.405  1.00  0.00     0.040 A 
ATOM     81  C   UNL A   1      49.847  25.776  31.477  1.00  0.00     0.040 A 
ATOM     82  F   UNL A   1      47.637  25.690  32.258  1.00  0.00    -0.206 F 
ATOM     83  C   UNL A   1      50.777  26.174  30.519  1.00  0.00     0.006 A 
ENDBRANCH  59  76
ENDBRANCH  33  34
ENDBRANCH  25  28
ENDBRANCH  23  24
ENDBRANCH  22  23
ENDBRANCH   1  22
TORSDOF 13
ENDMDL
MODEL 2
REMARK VINA RESULT:     -10.8      4.430      9.782
REMARK SMILES C[C@@H](C(=O)NCCCNC(=O)c1ccc(-c2c3nc(c(-c4c(F)cccc4F)c4ccc([nH]4)c(-c4c(F)cccc4F)c4nc(c(-c5c(F)cccc5F)c5ccc2[nH]5)C=C4)C=C3)cc1)c1ccc(C[C@H]2CCCC2=O)cc1F
REMARK SMILES IDX 6 1 5 2 3 3 4 4 2 6 1 7 66 8 67 9 78 10 68 11 77 12 79 13
REMARK SMILES IDX 69 14 70 15 71 16 72 17 75 18 73 19 74 20 76 21 7 22 8 23
REMARK SMILES IDX 9 24 10 25 11 27 12 28 13 29 65 30 14 31 64 32 15 33 16 34
REMARK SMILES IDX 17 35 58 36 18 37 63 38 57 39 59 40 19 41 62 42 56 43 55 44
REMARK SMILES IDX 20 46 46 47 29 48 45 49 30 50 33 51 44 52 60 53 31 54 32 55
REMARK SMILES IDX 43 57 61 58 34 59 21 60 22 61 27 62 23 63 24 64 26 65 28 66
REMARK SMILES IDX 25 67 47 68 48 69 53 70 49 71 50 72 52 73 54 74 51 75 35 76
REMARK SMILES IDX 36 77 41 78 37 79 38 80 40 81 42 82 39 83
REMARK H PARENT 5 5 9 26 59 45 33 56
REMARK Flexibility Score: inf
ROOT
ATOM      1  C   UNL A   1      31.803  30.566  26.014  1.00  0.00     0.117 C 
ENDROOT
BRANCH   1   2
ATOM      2  N   UNL A   1      31.699  29.562  27.057  1.00  0.00    -0.356 N 
ATOM      3  C   UNL A   1      31.590  28.203  26.973  1.00  0.00     0.227 C 
ATOM      4  O   UNL A   1      31.243  27.622  28.003  1.00  0.00    -0.274 OA
ATOM      5  H   UNL A   1      31.708  29.919  27.975  1.00  0.00     0.163 HD
BRANCH   3   6
ATOM      6  C   UNL A   1      31.929  27.473  25.657  1.00  0.00     0.108 C 
ATOM      7  C   UNL A   1      30.655  27.370  24.813  1.00  0.00     0.023 C 
BRANCH   6   8
ATOM      8  C   UNL A   1      32.647  26.134  25.878  1.00  0.00    -0.000 A 
ATOM      9  C   UNL A   1      34.027  26.025  25.633  1.00  0.00     0.008 A 
ATOM     10  C   UNL A   1      31.989  24.964  26.283  1.00  0.00     0.127 A 
ATOM     11  C   UNL A   1      34.718  24.828  25.851  1.00  0.00     0.004 A 
ATOM     12  C   UNL A   1      32.664  23.758  26.466  1.00  0.00     0.043 A 
ATOM     13  F   UNL A   1      30.666  24.948  26.502  1.00  0.00    -0.207 F 
ATOM     14  C   UNL A   1      34.040  23.674  26.252  1.00  0.00    -0.044 A 
BRANCH  14  15
ATOM     15  C   UNL A   1      34.765  22.364  26.446  1.00  0.00     0.047 C 
BRANCH  15  16
ATOM     16  C   UNL A   1      35.150  21.605  25.171  1.00  0.00     0.060 C 
ATOM     17  C   UNL A   1      34.359  21.948  23.904  1.00  0.00     0.012 C 
ATOM     18  C   UNL A   1      36.570  21.886  24.743  1.00  0.00     0.136 C 
ATOM     19  C   UNL A   1      35.204  22.950  23.126  1.00  0.00     0.009 C 
ATOM     20  C   UNL A   1      36.653  22.578  23.410  1.00  0.00     0.076 C 
ATOM     21  O   UNL A   1      37.554  21.579  25.408  1.00  0.00    -0.299 OA
ENDBRANCH  15  16
ENDBRANCH  14  15
ENDBRANCH   6   8
ENDBRANCH   3   6
ENDBRANCH   1   2
BRANCH   1  22
ATOM     22  C   UNL A   1      31.497  31.964  26.560  1.00  0.00     0.042 C 
BRANCH  22  23
ATOM     23  C   UNL A   1      32.676  32.640  27.251  1.00  0.00     0.118 C 
BRANCH  23  24
ATOM     24  N   UNL A   1      32.415  34.037  27.565  1.00  0.00    -0.352 N 
ATOM     25  C   UNL A   1      32.995  34.850  28.505  1.00  0.00     0.251 C 
ATOM     26  H   UNL A   1      31.715  34.462  27.020  1.00  0.00     0.163 HD
ATOM     27  O   UNL A   1      32.495  35.947  28.751  1.00  0.00    -0.269 OA
BRANCH  25  28
ATOM     28  C   UNL A   1      34.196  34.409  29.247  1.00  0.00     0.039 A 
ATOM     29  C   UNL A   1      34.028  33.754  30.469  1.00  0.00     0.014 A 
ATOM     30  C   UNL A   1      35.483  34.640  28.750  1.00  0.00     0.014 A 
ATOM     31  C   UNL A   1      35.141  33.246  31.146  1.00  0.00     0.010 A 
ATOM     32  C   UNL A   1      36.586  34.076  29.391  1.00  0.00     0.010 A 
ATOM     33  C   UNL A   1      36.423  33.355  30.585  1.00  0.00    -0.014 A 
BRANCH  33  34
ATOM     34  C   UNL A   1      37.589  32.660  31.188  1.00  0.00     0.031 A 
ATOM     35  C   UNL A   1      38.237  31.497  30.491  1.00  0.00     0.074 A 
ATOM     36  C   UNL A   1      38.006  33.028  32.417  1.00  0.00     0.049 A 
ATOM     37  N   UNL A   1      39.192  30.709  30.917  1.00  0.00    -0.248 NA
ATOM     38  C   UNL A   1      37.737  31.160  29.149  1.00  0.00     0.031 C 
ATOM     39  C   UNL A   1      37.431  34.114  33.215  1.00  0.00     0.029 A 
ATOM     40  N   UNL A   1      38.993  32.515  33.223  1.00  0.00    -0.354 N 
ATOM     41  C   UNL A   1      39.394  29.776  29.909  1.00  0.00     0.074 A 
ATOM     42  C   UNL A   1      38.445  30.077  28.858  1.00  0.00     0.031 C 
ATOM     43  C   UNL A   1      38.075  34.188  34.390  1.00  0.00     0.029 A 
ATOM     44  C   UNL A   1      39.074  33.126  34.453  1.00  0.00     0.049 A 
ATOM     45  H   UNL A   1      39.586  31.780  32.947  1.00  0.00     0.167 HD
ATOM     46  C   UNL A   1      40.298  28.770  29.861  1.00  0.00     0.037 A 
ATOM     47  C   UNL A   1      39.842  32.844  35.522  1.00  0.00     0.037 A 
ATOM     48  C   UNL A   1      41.261  28.493  30.895  1.00  0.00     0.049 A 
ATOM     49  C   UNL A   1      40.813  31.698  35.448  1.00  0.00     0.074 A 
ATOM     50  C   UNL A   1      42.280  27.556  30.891  1.00  0.00     0.029 A 
ATOM     51  N   UNL A   1      41.315  29.138  32.121  1.00  0.00    -0.354 N 
ATOM     52  N   UNL A   1      41.063  30.891  34.446  1.00  0.00    -0.248 NA
ATOM     53  C   UNL A   1      41.606  31.417  36.655  1.00  0.00     0.031 C 
ATOM     54  C   UNL A   1      42.910  27.588  32.139  1.00  0.00     0.029 A 
ATOM     55  C   UNL A   1      42.319  28.583  32.900  1.00  0.00     0.049 A 
ATOM     56  H   UNL A   1      40.728  29.879  32.397  1.00  0.00     0.167 HD
ATOM     57  C   UNL A   1      42.052  30.024  34.894  1.00  0.00     0.074 A 
ATOM     58  C   UNL A   1      42.376  30.419  36.248  1.00  0.00     0.031 C 
ATOM     59  C   UNL A   1      42.633  28.988  34.244  1.00  0.00     0.037 A 
BRANCH  46  60
ATOM     60  C   UNL A   1      40.304  27.876  28.656  1.00  0.00     0.057 A 
ATOM     61  C   UNL A   1      41.058  28.177  27.515  1.00  0.00     0.134 A 
ATOM     62  C   UNL A   1      39.635  26.644  28.683  1.00  0.00     0.134 A 
ATOM     63  F   UNL A   1      41.718  29.341  27.425  1.00  0.00    -0.206 F 
ATOM     64  C   UNL A   1      41.142  27.288  26.442  1.00  0.00     0.040 A 
ATOM     65  C   UNL A   1      39.730  25.738  27.626  1.00  0.00     0.040 A 
ATOM     66  F   UNL A   1      38.904  26.290  29.751  1.00  0.00    -0.206 F 
ATOM     67  C   UNL A   1      40.485  26.060  26.501  1.00  0.00     0.006 A 
ENDBRANCH  46  60
BRANCH  47  68
ATOM     68  C   UNL A   1      39.709  33.634  36.776  1.00  0.00     0.057 A 
ATOM     69  C   UNL A   1      38.833  33.239  37.793  1.00  0.00     0.134 A 
ATOM     70  C   UNL A   1      40.414  34.830  36.963  1.00  0.00     0.134 A 
ATOM     71  F   UNL A   1      38.114  32.114  37.665  1.00  0.00    -0.206 F 
ATOM     72  C   UNL A   1      38.636  34.019  38.934  1.00  0.00     0.040 A 
ATOM     73  C   UNL A   1      40.251  35.604  38.113  1.00  0.00     0.040 A 
ATOM     74  F   UNL A   1      41.274  35.264  36.030  1.00  0.00    -0.206 F 
ATOM     75  C   UNL A   1      39.348  35.206  39.096  1.00  0.00     0.006 A 
ENDBRANCH  47  68
BRANCH  59  76
ATOM     76  C   UNL A   1      43.689  28.216  34.981  1.00  0.00     0.057 A 
ATOM     77  C   UNL A   1      45.033  28.607  34.959  1.00  0.00     0.134 A 
ATOM     78  C   UNL A   1      43.350  27.103  35.760  1.00  0.00     0.134 A 
ATOM     79  F   UNL A   1      45.425  29.655  34.220  1.00  0.00    -0.206 F 
ATOM     80  C   UNL A   1      46.007  27.908  35.675  1.00  0.00     0.040 A 
ATOM     81  C   UNL A   1      44.310  26.413  36.501  1.00  0.00     0.040 A 
ATOM     82  F   UNL A   1      42.079  26.681  35.829  1.00  0.00    -0.206 F 
ATOM     83  C   UNL A   1      45.643  26.813  36.457  1.00  0.00     0.006 A 
ENDBRANCH  59  76
ENDBRANCH  33  34
ENDBRANCH  25  28
ENDBRANCH  23  24
ENDBRANCH  22  23
ENDBRANCH   1  22
TORSDOF 13
ENDMDL
MODEL 3
REMARK VINA RESULT:     -10.8      4.260      9.828
REMARK SMILES C[C@@H](C(=O)NCCCNC(=O)c1ccc(-c2c3nc(c(-c4c(F)cccc4F)c4ccc([nH]4)c(-c4c(F)cccc4F)c4nc(c(-c5c(F)cccc5F)c5ccc2[nH]5)C=C4)C=C3)cc1)c1ccc(C[C@H]2CCCC2=O)cc1F
REMARK SMILES IDX 6 1 5 2 3 3 4 4 2 6 1 7 66 8 67 9 78 10 68 11 77 12 79 13
REMARK SMILES IDX 69 14 70 15 71 16 72 17 75 18 73 19 74 20 76 21 7 22 8 23
REMARK SMILES IDX 9 24 10 25 11 27 12 28 13 29 65 30 14 31 64 32 15 33 16 34
REMARK SMILES IDX 17 35 58 36 18 37 63 38 57 39 59 40 19 41 62 42 56 43 55 44
REMARK SMILES IDX 20 46 46 47 29 48 45 49 30 50 33 51 44 52 60 53 31 54 32 55
REMARK SMILES IDX 43 57 61 58 34 59 21 60 22 61 27 62 23 63 24 64 26 65 28 66
REMARK SMILES IDX 25 67 47 68 48 69 53 70 49 71 50 72 52 73 54 74 51 75 35 76
REMARK SMILES IDX 36 77 41 78 37 79 38 80 40 81 42 82 39 83
REMARK H PARENT 5 5 9 26 59 45 33 56
REMARK Flexibility Score: inf
ROOT
ATOM      1  C   UNL A   1      31.967  29.931  26.306  1.00  0.00     0.117 C 
ENDROOT
BRANCH   1   2
ATOM      2  N   UNL A   1      31.340  29.461  25.085  1.00  0.00    -0.356 N 
ATOM      3  C   UNL A   1      31.893  28.995  23.926  1.00  0.00     0.227 C 
ATOM      4  O   UNL A   1      31.137  28.922  22.955  1.00  0.00    -0.274 OA
ATOM      5  H   UNL A   1      30.355  29.480  25.093  1.00  0.00     0.163 HD
BRANCH   3   6
ATOM      6  C   UNL A   1      33.372  28.558  23.887  1.00  0.00     0.108 C 
ATOM      7  C   UNL A   1      33.967  28.970  22.537  1.00  0.00     0.023 C 
BRANCH   6   8
ATOM      8  C   UNL A   1      33.573  27.077  24.237  1.00  0.00    -0.000 A 
ATOM      9  C   UNL A   1      33.394  26.089  23.253  1.00  0.00     0.008 A 
ATOM     10  C   UNL A   1      33.895  26.626  25.526  1.00  0.00     0.127 A 
ATOM     11  C   UNL A   1      33.597  24.733  23.530  1.00  0.00     0.004 A 
ATOM     12  C   UNL A   1      34.062  25.273  25.818  1.00  0.00     0.043 A 
ATOM     13  F   UNL A   1      34.045  27.482  26.546  1.00  0.00    -0.207 F 
ATOM     14  C   UNL A   1      33.915  24.307  24.823  1.00  0.00    -0.044 A 
BRANCH  14  15
ATOM     15  C   UNL A   1      34.091  22.844  25.147  1.00  0.00     0.047 C 
BRANCH  15  16
ATOM     16  C   UNL A   1      35.021  22.050  24.223  1.00  0.00     0.060 C 
ATOM     17  C   UNL A   1      36.402  22.658  23.955  1.00  0.00     0.012 C 
ATOM     18  C   UNL A   1      35.376  20.697  24.790  1.00  0.00     0.136 C 
ATOM     19  C   UNL A   1      37.369  21.972  24.913  1.00  0.00     0.009 C 
ATOM     20  C   UNL A   1      36.844  20.553  25.086  1.00  0.00     0.076 C 
ATOM     21  O   UNL A   1      34.557  19.805  24.986  1.00  0.00    -0.299 OA
ENDBRANCH  15  16
ENDBRANCH  14  15
ENDBRANCH   6   8
ENDBRANCH   3   6
ENDBRANCH   1   2
BRANCH   1  22
ATOM     22  C   UNL A   1      31.696  31.422  26.526  1.00  0.00     0.042 C 
BRANCH  22  23
ATOM     23  C   UNL A   1      32.819  32.165  27.245  1.00  0.00     0.118 C 
BRANCH  23  24
ATOM     24  N   UNL A   1      32.484  33.554  27.521  1.00  0.00    -0.352 N 
ATOM     25  C   UNL A   1      33.046  34.434  28.410  1.00  0.00     0.251 C 
ATOM     26  H   UNL A   1      31.739  33.916  26.988  1.00  0.00     0.163 HD
ATOM     27  O   UNL A   1      32.489  35.507  28.638  1.00  0.00    -0.269 OA
BRANCH  25  28
ATOM     28  C   UNL A   1      34.298  34.094  29.120  1.00  0.00     0.039 A 
ATOM     29  C   UNL A   1      34.215  33.459  30.361  1.00  0.00     0.014 A 
ATOM     30  C   UNL A   1      35.549  34.397  28.574  1.00  0.00     0.014 A 
ATOM     31  C   UNL A   1      35.381  33.045  31.011  1.00  0.00     0.010 A 
ATOM     32  C   UNL A   1      36.708  33.925  29.189  1.00  0.00     0.010 A 
ATOM     33  C   UNL A   1      36.634  33.225  30.403  1.00  0.00    -0.014 A 
BRANCH  33  34
ATOM     34  C   UNL A   1      37.864  32.625  30.982  1.00  0.00     0.031 A 
ATOM     35  C   UNL A   1      38.475  31.391  30.379  1.00  0.00     0.074 A 
ATOM     36  C   UNL A   1      38.377  33.149  32.114  1.00  0.00     0.049 A 
ATOM     37  N   UNL A   1      39.482  30.675  30.813  1.00  0.00    -0.248 NA
ATOM     38  C   UNL A   1      37.868  30.884  29.139  1.00  0.00     0.031 C 
ATOM     39  C   UNL A   1      37.849  34.319  32.820  1.00  0.00     0.029 A 
ATOM     40  N   UNL A   1      39.442  32.753  32.886  1.00  0.00    -0.354 N 
ATOM     41  C   UNL A   1      39.617  29.625  29.913  1.00  0.00     0.074 A 
ATOM     42  C   UNL A   1      38.574  29.781  28.922  1.00  0.00     0.031 C 
ATOM     43  C   UNL A   1      38.590  34.547  33.915  1.00  0.00     0.029 A 
ATOM     44  C   UNL A   1      39.615  33.513  34.019  1.00  0.00     0.049 A 
ATOM     45  H   UNL A   1      40.025  31.996  32.651  1.00  0.00     0.167 HD
ATOM     46  C   UNL A   1      40.536  28.632  29.909  1.00  0.00     0.037 A 
ATOM     47  C   UNL A   1      40.479  33.377  35.043  1.00  0.00     0.037 A 
ATOM     48  C   UNL A   1      41.591  28.499  30.881  1.00  0.00     0.049 A 
ATOM     49  C   UNL A   1      41.466  32.242  35.025  1.00  0.00     0.074 A 
ATOM     50  C   UNL A   1      42.627  27.580  30.902  1.00  0.00     0.029 A 
ATOM     51  N   UNL A   1      41.736  29.292  32.007  1.00  0.00    -0.354 N 
ATOM     52  N   UNL A   1      41.647  31.319  34.111  1.00  0.00    -0.248 NA
ATOM     53  C   UNL A   1      42.367  32.124  36.181  1.00  0.00     0.031 C 
ATOM     54  C   UNL A   1      43.362  27.776  32.075  1.00  0.00     0.029 A 
ATOM     55  C   UNL A   1      42.817  28.852  32.756  1.00  0.00     0.049 A 
ATOM     56  H   UNL A   1      41.159  30.054  32.241  1.00  0.00     0.167 HD
ATOM     57  C   UNL A   1      42.690  30.527  34.573  1.00  0.00     0.074 A 
ATOM     58  C   UNL A   1      43.121  31.092  35.834  1.00  0.00     0.031 C 
ATOM     59  C   UNL A   1      43.237  29.425  34.007  1.00  0.00     0.037 A 
BRANCH  46  60
ATOM     60  C   UNL A   1      40.459  27.594  28.829  1.00  0.00     0.057 A 
ATOM     61  C   UNL A   1      39.604  26.490  28.924  1.00  0.00     0.134 A 
ATOM     62  C   UNL A   1      41.167  27.764  27.631  1.00  0.00     0.134 A 
ATOM     63  F   UNL A   1      38.901  26.269  30.045  1.00  0.00    -0.206 F 
ATOM     64  C   UNL A   1      39.460  25.587  27.869  1.00  0.00     0.040 A 
ATOM     65  C   UNL A   1      41.015  26.880  26.561  1.00  0.00     0.040 A 
ATOM     66  F   UNL A   1      41.996  28.806  27.472  1.00  0.00    -0.206 F 
ATOM     67  C   UNL A   1      40.158  25.789  26.679  1.00  0.00     0.006 A 
ENDBRANCH  46  60
BRANCH  47  68
ATOM     68  C   UNL A   1      40.437  34.315  36.196  1.00  0.00     0.057 A 
ATOM     69  C   UNL A   1      39.643  34.051  37.318  1.00  0.00     0.134 A 
ATOM     70  C   UNL A   1      41.147  35.523  36.180  1.00  0.00     0.134 A 
ATOM     71  F   UNL A   1      38.923  32.922  37.384  1.00  0.00    -0.206 F 
ATOM     72  C   UNL A   1      39.529  34.968  38.366  1.00  0.00     0.040 A 
ATOM     73  C   UNL A   1      41.067  36.433  37.235  1.00  0.00     0.040 A 
ATOM     74  F   UNL A   1      41.931  35.836  35.138  1.00  0.00    -0.206 F 
ATOM     75  C   UNL A   1      40.244  36.163  38.326  1.00  0.00     0.006 A 
ENDBRANCH  47  68
BRANCH  59  76
ATOM     76  C   UNL A   1      44.370  28.764  34.737  1.00  0.00     0.057 A 
ATOM     77  C   UNL A   1      45.698  29.165  34.548  1.00  0.00     0.134 A 
ATOM     78  C   UNL A   1      44.126  27.753  35.675  1.00  0.00     0.134 A 
ATOM     79  F   UNL A   1      46.000  30.118  33.652  1.00  0.00    -0.206 F 
ATOM     80  C   UNL A   1      46.746  28.573  35.255  1.00  0.00     0.040 A 
ATOM     81  C   UNL A   1      45.162  27.173  36.407  1.00  0.00     0.040 A 
ATOM     82  F   UNL A   1      42.876  27.328  35.908  1.00  0.00    -0.206 F 
ATOM     83  C   UNL A   1      46.477  27.580  36.195  1.00  0.00     0.006 A 
ENDBRANCH  59  76
ENDBRANCH  33  34
ENDBRANCH  25  28
ENDBRANCH  23  24
ENDBRANCH  22  23
ENDBRANCH   1  22
TORSDOF 13
ENDMDL
