MODEL 1
REMARK VINA RESULT:     -11.1      0.000      0.000
REMARK SMILES CC(C)(C[N@H+]1C[C@@H]2C[NH2+]C[C@H]2C1(C)C)C(=O)NCCCNC(=O)c1ccc(-c2c3nc(c(-c4c(F)cccc4F)c4ccc([nH]4)c(-c4c(F)cccc4F)c4nc(c(-c5c(F)cccc5F)c5ccc2[nH]5)C=C4)C=C3)cc1
REMARK SMILES IDX 19 1 18 2 17 3 15 4 16 5 2 7 1 8 3 9 4 10 5 11 6 12 12 13
REMARK SMILES IDX 7 15 11 16 13 17 14 18 8 19 10 20 9 21 20 24 21 25 22 26
REMARK SMILES IDX 23 28 24 29 25 30 77 31 26 32 76 33 27 34 28 35 29 36 70 37
REMARK SMILES IDX 30 38 75 39 69 40 71 41 31 42 74 43 68 44 67 45 32 47 58 48
REMARK SMILES IDX 41 49 57 50 42 51 45 52 56 53 72 54 43 55 44 56 55 58 73 59
REMARK SMILES IDX 46 60 33 61 34 62 39 63 35 64 36 65 38 66 40 67 37 68 59 69
REMARK SMILES IDX 60 70 65 71 61 72 62 73 64 74 66 75 63 76 47 77 48 78 53 79
REMARK SMILES IDX 49 80 50 81 52 82 54 83 51 84
REMARK H PARENT 17 6 5 14 9 22 9 23 21 27 71 46 45 57
REMARK Flexibility Score: inf
ROOT
ATOM      1  C   UNL A   1      32.416  28.210  26.481  1.00  0.00     0.042 C 
ENDROOT
BRANCH   1   2
ATOM      2  C   UNL A   1      32.295  26.772  25.961  1.00  0.00     0.117 C 
BRANCH   2   3
ATOM      3  N   UNL A   1      31.090  26.063  26.350  1.00  0.00    -0.355 N 
ATOM      4  C   UNL A   1      30.670  24.775  26.308  1.00  0.00     0.231 C 
ATOM      5  O   UNL A   1      29.628  24.575  26.949  1.00  0.00    -0.274 OA
ATOM      6  H   UNL A   1      30.413  26.664  26.739  1.00  0.00     0.163 HD
BRANCH   4   7
ATOM      7  C   UNL A   1      31.367  23.622  25.557  1.00  0.00     0.092 C 
ATOM      8  C   UNL A   1      31.212  23.897  24.036  1.00  0.00     0.027 C 
ATOM      9  C   UNL A   1      30.608  22.287  25.761  1.00  0.00     0.027 C 
BRANCH   7  10
ATOM     10  C   UNL A   1      32.869  23.410  25.971  1.00  0.00     0.279 C 
BRANCH  10  11
ATOM     11  N   UNL A   1      34.051  23.633  25.131  1.00  0.00    -0.329 N 
ATOM     12  C   UNL A   1      35.156  24.488  25.590  1.00  0.00     0.272 C 
ATOM     13  C   UNL A   1      34.602  22.561  24.245  1.00  0.00     0.101 C 
ATOM     14  H   UNL A   1      33.428  24.201  24.556  1.00  0.00     0.348 HD
ATOM     15  C   UNL A   1      36.242  23.459  25.705  1.00  0.00     0.114 C 
ATOM     16  C   UNL A   1      36.115  22.785  24.359  1.00  0.00     0.119 C 
ATOM     17  C   UNL A   1      34.220  21.124  24.564  1.00  0.00     0.079 C 
ATOM     18  C   UNL A   1      34.131  22.864  22.810  1.00  0.00     0.079 C 
ATOM     19  C   UNL A   1      37.719  23.731  25.746  1.00  0.00     0.270 C 
ATOM     20  C   UNL A   1      37.193  21.738  24.498  1.00  0.00     0.271 C 
ATOM     21  N   UNL A   1      38.291  22.473  25.185  1.00  0.00    -0.345 N 
ATOM     22  H   UNL A   1      38.675  21.901  25.937  1.00  0.00     0.346 HD
ATOM     23  H   UNL A   1      39.042  22.685  24.528  1.00  0.00     0.346 HD
ENDBRANCH  10  11
ENDBRANCH   7  10
ENDBRANCH   4   7
ENDBRANCH   2   3
ENDBRANCH   1   2
BRANCH   1  24
ATOM     24  C   UNL A   1      33.678  28.583  27.258  1.00  0.00     0.118 C 
BRANCH  24  25
ATOM     25  N   UNL A   1      33.659  29.961  27.717  1.00  0.00    -0.352 N 
ATOM     26  C   UNL A   1      34.631  30.679  28.364  1.00  0.00     0.251 C 
ATOM     27  H   UNL A   1      32.826  30.452  27.535  1.00  0.00     0.163 HD
ATOM     28  O   UNL A   1      34.345  31.773  28.859  1.00  0.00    -0.269 OA
BRANCH  26  29
ATOM     29  C   UNL A   1      36.018  30.171  28.500  1.00  0.00     0.039 A 
ATOM     30  C   UNL A   1      36.427  29.674  29.742  1.00  0.00     0.014 A 
ATOM     31  C   UNL A   1      36.945  30.261  27.456  1.00  0.00     0.014 A 
ATOM     32  C   UNL A   1      37.745  29.242  29.930  1.00  0.00     0.010 A 
ATOM     33  C   UNL A   1      38.247  29.782  27.628  1.00  0.00     0.010 A 
ATOM     34  C   UNL A   1      38.666  29.283  28.872  1.00  0.00    -0.014 A 
BRANCH  34  35
ATOM     35  C   UNL A   1      40.074  28.848  29.071  1.00  0.00     0.031 A 
ATOM     36  C   UNL A   1      41.073  29.777  29.710  1.00  0.00     0.074 A 
ATOM     37  C   UNL A   1      40.473  27.630  28.659  1.00  0.00     0.049 A 
ATOM     38  N   UNL A   1      42.351  29.593  29.932  1.00  0.00    -0.248 NA
ATOM     39  C   UNL A   1      40.572  31.091  30.142  1.00  0.00     0.031 C 
ATOM     40  C   UNL A   1      39.620  26.638  28.003  1.00  0.00     0.029 A 
ATOM     41  N   UNL A   1      41.702  27.022  28.725  1.00  0.00    -0.354 N 
ATOM     42  C   UNL A   1      42.809  30.769  30.510  1.00  0.00     0.074 A 
ATOM     43  C   UNL A   1      41.682  31.674  30.576  1.00  0.00     0.031 C 
ATOM     44  C   UNL A   1      40.349  25.540  27.739  1.00  0.00     0.029 A 
ATOM     45  C   UNL A   1      41.723  25.760  28.184  1.00  0.00     0.049 A 
ATOM     46  H   UNL A   1      42.495  27.450  29.123  1.00  0.00     0.167 HD
ATOM     47  C   UNL A   1      44.052  31.066  30.963  1.00  0.00     0.037 A 
ATOM     48  C   UNL A   1      42.734  24.879  28.056  1.00  0.00     0.037 A 
ATOM     49  C   UNL A   1      45.172  30.164  30.936  1.00  0.00     0.049 A 
ATOM     50  C   UNL A   1      44.101  25.230  28.570  1.00  0.00     0.074 A 
ATOM     51  C   UNL A   1      46.451  30.362  31.428  1.00  0.00     0.029 A 
ATOM     52  N   UNL A   1      45.147  28.891  30.389  1.00  0.00    -0.354 N 
ATOM     53  N   UNL A   1      44.505  26.328  29.159  1.00  0.00    -0.248 NA
ATOM     54  C   UNL A   1      45.153  24.214  28.405  1.00  0.00     0.031 C 
ATOM     55  C   UNL A   1      47.209  29.217  31.153  1.00  0.00     0.029 A 
ATOM     56  C   UNL A   1      46.392  28.297  30.517  1.00  0.00     0.049 A 
ATOM     57  H   UNL A   1      44.361  28.470  29.971  1.00  0.00     0.167 HD
ATOM     58  C   UNL A   1      45.848  26.130  29.453  1.00  0.00     0.074 A 
ATOM     59  C   UNL A   1      46.190  24.802  28.987  1.00  0.00     0.031 C 
ATOM     60  C   UNL A   1      46.720  26.974  30.056  1.00  0.00     0.037 A 
BRANCH  47  61
ATOM     61  C   UNL A   1      44.266  32.436  31.535  1.00  0.00     0.057 A 
ATOM     62  C   UNL A   1      44.091  32.698  32.899  1.00  0.00     0.134 A 
ATOM     63  C   UNL A   1      44.689  33.493  30.720  1.00  0.00     0.134 A 
ATOM     64  F   UNL A   1      43.677  31.729  33.729  1.00  0.00    -0.206 F 
ATOM     65  C   UNL A   1      44.310  33.970  33.430  1.00  0.00     0.040 A 
ATOM     66  C   UNL A   1      44.931  34.764  31.243  1.00  0.00     0.040 A 
ATOM     67  F   UNL A   1      44.881  33.305  29.405  1.00  0.00    -0.206 F 
ATOM     68  C   UNL A   1      44.737  35.006  32.602  1.00  0.00     0.006 A 
ENDBRANCH  47  61
BRANCH  48  69
ATOM     69  C   UNL A   1      42.487  23.560  27.424  1.00  0.00     0.057 A 
ATOM     70  C   UNL A   1      42.133  22.448  28.196  1.00  0.00     0.134 A 
ATOM     71  C   UNL A   1      42.608  23.379  26.042  1.00  0.00     0.134 A 
ATOM     72  F   UNL A   1      42.025  22.559  29.527  1.00  0.00    -0.206 F 
ATOM     73  C   UNL A   1      41.918  21.198  27.616  1.00  0.00     0.040 A 
ATOM     74  C   UNL A   1      42.378  22.140  25.447  1.00  0.00     0.040 A 
ATOM     75  F   UNL A   1      42.943  24.410  25.252  1.00  0.00    -0.206 F 
ATOM     76  C   UNL A   1      42.035  21.042  26.236  1.00  0.00     0.006 A 
ENDBRANCH  48  69
BRANCH  60  77
ATOM     77  C   UNL A   1      48.117  26.480  30.270  1.00  0.00     0.057 A 
ATOM     78  C   UNL A   1      48.480  25.776  31.424  1.00  0.00     0.134 A 
ATOM     79  C   UNL A   1      49.103  26.679  29.295  1.00  0.00     0.134 A 
ATOM     80  F   UNL A   1      47.584  25.564  32.401  1.00  0.00    -0.206 F 
ATOM     81  C   UNL A   1      49.779  25.299  31.608  1.00  0.00     0.040 A 
ATOM     82  C   UNL A   1      50.400  26.192  29.459  1.00  0.00     0.040 A 
ATOM     83  F   UNL A   1      48.817  27.342  28.164  1.00  0.00    -0.206 F 
ATOM     84  C   UNL A   1      50.741  25.502  30.622  1.00  0.00     0.006 A 
ENDBRANCH  60  77
ENDBRANCH  34  35
ENDBRANCH  26  29
ENDBRANCH  24  25
ENDBRANCH   1  24
TORSDOF 12
ENDMDL
MODEL 2
REMARK VINA RESULT:     -11.1      1.505      2.441
REMARK SMILES CC(C)(C[N@H+]1C[C@@H]2C[NH2+]C[C@H]2C1(C)C)C(=O)NCCCNC(=O)c1ccc(-c2c3nc(c(-c4c(F)cccc4F)c4ccc([nH]4)c(-c4c(F)cccc4F)c4nc(c(-c5c(F)cccc5F)c5ccc2[nH]5)C=C4)C=C3)cc1
REMARK SMILES IDX 19 1 18 2 17 3 15 4 16 5 2 7 1 8 3 9 4 10 5 11 6 12 12 13
REMARK SMILES IDX 7 15 11 16 13 17 14 18 8 19 10 20 9 21 20 24 21 25 22 26
REMARK SMILES IDX 23 28 24 29 25 30 77 31 26 32 76 33 27 34 28 35 29 36 70 37
REMARK SMILES IDX 30 38 75 39 69 40 71 41 31 42 74 43 68 44 67 45 32 47 58 48
REMARK SMILES IDX 41 49 57 50 42 51 45 52 56 53 72 54 43 55 44 56 55 58 73 59
REMARK SMILES IDX 46 60 33 61 34 62 39 63 35 64 36 65 38 66 40 67 37 68 59 69
REMARK SMILES IDX 60 70 65 71 61 72 62 73 64 74 66 75 63 76 47 77 48 78 53 79
REMARK SMILES IDX 49 80 50 81 52 82 54 83 51 84
REMARK H PARENT 17 6 5 14 9 22 9 23 21 27 71 46 45 57
REMARK Flexibility Score: inf
ROOT
ATOM      1  C   UNL A   1      34.042  28.269  25.860  1.00  0.00     0.042 C 
ENDROOT
BRANCH   1   2
ATOM      2  C   UNL A   1      33.275  28.955  24.721  1.00  0.00     0.117 C 
BRANCH   2   3
ATOM      3  N   UNL A   1      33.817  28.755  23.390  1.00  0.00    -0.355 N 
ATOM      4  C   UNL A   1      33.646  27.841  22.404  1.00  0.00     0.231 C 
ATOM      5  O   UNL A   1      34.164  28.174  21.328  1.00  0.00    -0.274 OA
ATOM      6  H   UNL A   1      34.466  29.454  23.143  1.00  0.00     0.163 HD
BRANCH   4   7
ATOM      7  C   UNL A   1      32.897  26.499  22.536  1.00  0.00     0.092 C 
ATOM      8  C   UNL A   1      32.767  25.897  21.111  1.00  0.00     0.027 C 
ATOM      9  C   UNL A   1      31.426  26.724  22.969  1.00  0.00     0.027 C 
BRANCH   7  10
ATOM     10  C   UNL A   1      33.565  25.496  23.546  1.00  0.00     0.279 C 
BRANCH  10  11
ATOM     11  N   UNL A   1      33.195  24.093  23.764  1.00  0.00    -0.329 N 
ATOM     12  C   UNL A   1      34.055  22.999  23.287  1.00  0.00     0.272 C 
ATOM     13  C   UNL A   1      32.487  23.648  25.004  1.00  0.00     0.101 C 
ATOM     14  H   UNL A   1      32.477  24.263  23.059  1.00  0.00     0.348 HD
ATOM     15  C   UNL A   1      34.471  22.411  24.603  1.00  0.00     0.114 C 
ATOM     16  C   UNL A   1      33.124  22.280  25.274  1.00  0.00     0.119 C 
ATOM     17  C   UNL A   1      32.568  24.557  26.221  1.00  0.00     0.079 C 
ATOM     18  C   UNL A   1      30.999  23.475  24.647  1.00  0.00     0.079 C 
ATOM     19  C   UNL A   1      35.031  21.034  24.820  1.00  0.00     0.270 C 
ATOM     20  C   UNL A   1      33.560  21.713  26.604  1.00  0.00     0.271 C 
ATOM     21  N   UNL A   1      34.624  20.742  26.226  1.00  0.00    -0.345 N 
ATOM     22  H   UNL A   1      35.425  20.846  26.847  1.00  0.00     0.346 HD
ATOM     23  H   UNL A   1      34.277  19.786  26.304  1.00  0.00     0.346 HD
ENDBRANCH  10  11
ENDBRANCH   7  10
ENDBRANCH   4   7
ENDBRANCH   2   3
ENDBRANCH   1   2
BRANCH   1  24
ATOM     24  C   UNL A   1      33.551  28.500  27.288  1.00  0.00     0.118 C 
BRANCH  24  25
ATOM     25  N   UNL A   1      33.542  29.906  27.651  1.00  0.00    -0.352 N 
ATOM     26  C   UNL A   1      34.523  30.662  28.240  1.00  0.00     0.251 C 
ATOM     27  H   UNL A   1      32.711  30.388  27.442  1.00  0.00     0.163 HD
ATOM     28  O   UNL A   1      34.245  31.789  28.661  1.00  0.00    -0.269 OA
BRANCH  26  29
ATOM     29  C   UNL A   1      35.908  30.157  28.402  1.00  0.00     0.039 A 
ATOM     30  C   UNL A   1      36.300  29.669  29.653  1.00  0.00     0.014 A 
ATOM     31  C   UNL A   1      36.851  30.242  27.371  1.00  0.00     0.014 A 
ATOM     32  C   UNL A   1      37.615  29.241  29.864  1.00  0.00     0.010 A 
ATOM     33  C   UNL A   1      38.151  29.766  27.566  1.00  0.00     0.010 A 
ATOM     34  C   UNL A   1      38.551  29.276  28.820  1.00  0.00    -0.014 A 
BRANCH  34  35
ATOM     35  C   UNL A   1      39.958  28.845  29.043  1.00  0.00     0.031 A 
ATOM     36  C   UNL A   1      40.941  29.774  29.705  1.00  0.00     0.074 A 
ATOM     37  C   UNL A   1      40.368  27.630  28.633  1.00  0.00     0.049 A 
ATOM     38  N   UNL A   1      42.216  29.594  29.950  1.00  0.00    -0.248 NA
ATOM     39  C   UNL A   1      40.428  31.085  30.133  1.00  0.00     0.031 C 
ATOM     40  C   UNL A   1      39.531  26.639  27.957  1.00  0.00     0.029 A 
ATOM     41  N   UNL A   1      41.598  27.026  28.719  1.00  0.00    -0.354 N 
ATOM     42  C   UNL A   1      42.659  30.770  30.541  1.00  0.00     0.074 A 
ATOM     43  C   UNL A   1      41.527  31.670  30.590  1.00  0.00     0.031 C 
ATOM     44  C   UNL A   1      40.269  25.544  27.702  1.00  0.00     0.029 A 
ATOM     45  C   UNL A   1      41.633  25.766  28.174  1.00  0.00     0.049 A 
ATOM     46  H   UNL A   1      42.382  27.455  29.135  1.00  0.00     0.167 HD
ATOM     47  C   UNL A   1      43.891  31.069  31.019  1.00  0.00     0.037 A 
ATOM     48  C   UNL A   1      42.650  24.890  28.060  1.00  0.00     0.037 A 
ATOM     49  C   UNL A   1      45.015  30.170  31.009  1.00  0.00     0.049 A 
ATOM     50  C   UNL A   1      44.006  25.243  28.602  1.00  0.00     0.074 A 
ATOM     51  C   UNL A   1      46.285  30.370  31.525  1.00  0.00     0.029 A 
ATOM     52  N   UNL A   1      45.005  28.900  30.456  1.00  0.00    -0.354 N 
ATOM     53  N   UNL A   1      44.395  26.340  29.202  1.00  0.00    -0.248 NA
ATOM     54  C   UNL A   1      45.065  24.232  28.452  1.00  0.00     0.031 C 
ATOM     55  C   UNL A   1      47.051  29.229  31.260  1.00  0.00     0.029 A 
ATOM     56  C   UNL A   1      46.249  28.309  30.605  1.00  0.00     0.049 A 
ATOM     57  H   UNL A   1      44.228  28.478  30.021  1.00  0.00     0.167 HD
ATOM     58  C   UNL A   1      45.733  26.145  29.521  1.00  0.00     0.074 A 
ATOM     59  C   UNL A   1      46.088  24.821  29.056  1.00  0.00     0.031 C 
ATOM     60  C   UNL A   1      46.590  26.990  30.144  1.00  0.00     0.037 A 
BRANCH  47  61
ATOM     61  C   UNL A   1      44.090  32.437  31.601  1.00  0.00     0.057 A 
ATOM     62  C   UNL A   1      44.494  33.519  30.810  1.00  0.00     0.134 A 
ATOM     63  C   UNL A   1      43.837  32.681  32.955  1.00  0.00     0.134 A 
ATOM     64  F   UNL A   1      44.763  33.347  29.507  1.00  0.00    -0.206 F 
ATOM     65  C   UNL A   1      44.660  34.794  31.352  1.00  0.00     0.040 A 
ATOM     66  C   UNL A   1      43.980  33.956  33.505  1.00  0.00     0.040 A 
ATOM     67  F   UNL A   1      43.441  31.686  33.765  1.00  0.00    -0.206 F 
ATOM     68  C   UNL A   1      44.396  35.016  32.703  1.00  0.00     0.006 A 
ENDBRANCH  47  61
BRANCH  48  69
ATOM     69  C   UNL A   1      42.419  23.573  27.419  1.00  0.00     0.057 A 
ATOM     70  C   UNL A   1      42.560  23.412  26.036  1.00  0.00     0.134 A 
ATOM     71  C   UNL A   1      42.046  22.452  28.168  1.00  0.00     0.134 A 
ATOM     72  F   UNL A   1      42.894  24.457  25.266  1.00  0.00    -0.206 F 
ATOM     73  C   UNL A   1      42.326  22.184  25.419  1.00  0.00     0.040 A 
ATOM     74  C   UNL A   1      41.827  21.213  27.567  1.00  0.00     0.040 A 
ATOM     75  F   UNL A   1      41.897  22.546  29.498  1.00  0.00    -0.206 F 
ATOM     76  C   UNL A   1      41.963  21.078  26.185  1.00  0.00     0.006 A 
ENDBRANCH  48  69
BRANCH  60  77
ATOM     77  C   UNL A   1      47.985  26.499  30.382  1.00  0.00     0.057 A 
ATOM     78  C   UNL A   1      48.341  25.835  31.562  1.00  0.00     0.134 A 
ATOM     79  C   UNL A   1      48.976  26.660  29.405  1.00  0.00     0.134 A 
ATOM     80  F   UNL A   1      47.440  25.662  32.541  1.00  0.00    -0.206 F 
ATOM     81  C   UNL A   1      49.637  25.362  31.769  1.00  0.00     0.040 A 
ATOM     82  C   UNL A   1      50.271  26.176  29.593  1.00  0.00     0.040 A 
ATOM     83  F   UNL A   1      48.697  27.283  28.249  1.00  0.00    -0.206 F 
ATOM     84  C   UNL A   1      50.604  25.527  30.780  1.00  0.00     0.006 A 
ENDBRANCH  60  77
ENDBRANCH  34  35
ENDBRANCH  26  29
ENDBRANCH  24  25
ENDBRANCH   1  24
TORSDOF 12
ENDMDL
MODEL 3
REMARK VINA RESULT:     -11.1      2.443      7.235
REMARK SMILES CC(C)(C[N@H+]1C[C@@H]2C[NH2+]C[C@H]2C1(C)C)C(=O)NCCCNC(=O)c1ccc(-c2c3nc(c(-c4c(F)cccc4F)c4ccc([nH]4)c(-c4c(F)cccc4F)c4nc(c(-c5c(F)cccc5F)c5ccc2[nH]5)C=C4)C=C3)cc1
REMARK SMILES IDX 19 1 18 2 17 3 15 4 16 5 2 7 1 8 3 9 4 10 5 11 6 12 12 13
REMARK SMILES IDX 7 15 11 16 13 17 14 18 8 19 10 20 9 21 20 24 21 25 22 26
REMARK SMILES IDX 23 28 24 29 25 30 77 31 26 32 76 33 27 34 28 35 29 36 70 37
REMARK SMILES IDX 30 38 75 39 69 40 71 41 31 42 74 43 68 44 67 45 32 47 58 48
REMARK SMILES IDX 41 49 57 50 42 51 45 52 56 53 72 54 43 55 44 56 55 58 73 59
REMARK SMILES IDX 46 60 33 61 34 62 39 63 35 64 36 65 38 66 40 67 37 68 59 69
REMARK SMILES IDX 60 70 65 71 61 72 62 73 64 74 66 75 63 76 47 77 48 78 53 79
REMARK SMILES IDX 49 80 50 81 52 82 54 83 51 84
REMARK H PARENT 17 6 5 14 9 22 9 23 21 27 71 46 45 57
REMARK Flexibility Score: inf
ROOT
ATOM      1  C   UNL A   1      37.395  19.761  24.997  1.00  0.00     0.042 C 
ENDROOT
BRANCH   1   2
ATOM      2  C   UNL A   1      36.156  20.666  25.015  1.00  0.00     0.117 C 
BRANCH   2   3
ATOM      3  N   UNL A   1      34.888  19.989  25.212  1.00  0.00    -0.355 N 
ATOM      4  C   UNL A   1      33.625  20.373  25.523  1.00  0.00     0.231 C 
ATOM      5  O   UNL A   1      32.787  19.471  25.384  1.00  0.00    -0.274 OA
ATOM      6  H   UNL A   1      34.962  19.015  25.090  1.00  0.00     0.163 HD
BRANCH   4   7
ATOM      7  C   UNL A   1      33.202  21.774  26.011  1.00  0.00     0.092 C 
ATOM      8  C   UNL A   1      33.709  21.932  27.469  1.00  0.00     0.027 C 
ATOM      9  C   UNL A   1      31.662  21.872  26.151  1.00  0.00     0.027 C 
BRANCH   7  10
ATOM     10  C   UNL A   1      33.692  22.944  25.082  1.00  0.00     0.279 C 
BRANCH  10  11
ATOM     11  N   UNL A   1      32.890  24.073  24.595  1.00  0.00    -0.329 N 
ATOM     12  C   UNL A   1      33.170  25.448  25.035  1.00  0.00     0.272 C 
ATOM     13  C   UNL A   1      32.348  24.111  23.201  1.00  0.00     0.101 C 
ATOM     14  H   UNL A   1      32.152  23.693  25.188  1.00  0.00     0.348 HD
ATOM     15  C   UNL A   1      33.611  26.047  23.732  1.00  0.00     0.114 C 
ATOM     16  C   UNL A   1      32.484  25.594  22.835  1.00  0.00     0.119 C 
ATOM     17  C   UNL A   1      33.010  23.213  22.167  1.00  0.00     0.079 C 
ATOM     18  C   UNL A   1      30.860  23.721  23.276  1.00  0.00     0.079 C 
ATOM     19  C   UNL A   1      33.662  27.512  23.403  1.00  0.00     0.270 C 
ATOM     20  C   UNL A   1      32.952  26.180  21.525  1.00  0.00     0.271 C 
ATOM     21  N   UNL A   1      33.483  27.514  21.922  1.00  0.00    -0.345 N 
ATOM     22  H   UNL A   1      34.379  27.681  21.465  1.00  0.00     0.346 HD
ATOM     23  H   UNL A   1      32.836  28.251  21.642  1.00  0.00     0.346 HD
ENDBRANCH  10  11
ENDBRANCH   7  10
ENDBRANCH   4   7
ENDBRANCH   2   3
ENDBRANCH   1   2
BRANCH   1  24
ATOM     24  C   UNL A   1      38.741  20.391  25.350  1.00  0.00     0.118 C 
BRANCH  24  25
ATOM     25  N   UNL A   1      39.766  19.396  25.615  1.00  0.00    -0.352 N 
ATOM     26  C   UNL A   1      41.052  19.564  26.059  1.00  0.00     0.251 C 
ATOM     27  H   UNL A   1      39.497  18.464  25.453  1.00  0.00     0.163 HD
ATOM     28  O   UNL A   1      41.834  18.609  26.018  1.00  0.00    -0.269 OA
BRANCH  26  29
ATOM     29  C   UNL A   1      41.537  20.868  26.574  1.00  0.00     0.039 A 
ATOM     30  C   UNL A   1      41.383  21.147  27.936  1.00  0.00     0.014 A 
ATOM     31  C   UNL A   1      42.053  21.852  25.724  1.00  0.00     0.014 A 
ATOM     32  C   UNL A   1      41.771  22.389  28.450  1.00  0.00     0.010 A 
ATOM     33  C   UNL A   1      42.489  23.074  26.246  1.00  0.00     0.010 A 
ATOM     34  C   UNL A   1      42.336  23.362  27.611  1.00  0.00    -0.014 A 
BRANCH  34  35
ATOM     35  C   UNL A   1      42.728  24.694  28.146  1.00  0.00     0.031 A 
ATOM     36  C   UNL A   1      41.688  25.759  28.370  1.00  0.00     0.074 A 
ATOM     37  C   UNL A   1      44.021  24.965  28.411  1.00  0.00     0.049 A 
ATOM     38  N   UNL A   1      41.840  26.991  28.791  1.00  0.00    -0.248 NA
ATOM     39  C   UNL A   1      40.294  25.397  28.066  1.00  0.00     0.031 C 
ATOM     40  C   UNL A   1      45.136  24.038  28.217  1.00  0.00     0.029 A 
ATOM     41  N   UNL A   1      44.614  26.105  28.892  1.00  0.00    -0.354 N 
ATOM     42  C   UNL A   1      40.571  27.554  28.785  1.00  0.00     0.074 A 
ATOM     43  C   UNL A   1      39.663  26.542  28.288  1.00  0.00     0.031 C 
ATOM     44  C   UNL A   1      46.277  24.642  28.590  1.00  0.00     0.029 A 
ATOM     45  C   UNL A   1      45.977  26.004  29.024  1.00  0.00     0.049 A 
ATOM     46  H   UNL A   1      44.110  26.920  29.122  1.00  0.00     0.167 HD
ATOM     47  C   UNL A   1      40.190  28.794  29.174  1.00  0.00     0.037 A 
ATOM     48  C   UNL A   1      46.886  26.907  29.442  1.00  0.00     0.037 A 
ATOM     49  C   UNL A   1      41.076  29.797  29.703  1.00  0.00     0.049 A 
ATOM     50  C   UNL A   1      46.437  28.275  29.873  1.00  0.00     0.074 A 
ATOM     51  C   UNL A   1      40.765  31.060  30.178  1.00  0.00     0.029 A 
ATOM     52  N   UNL A   1      42.448  29.649  29.830  1.00  0.00    -0.354 N 
ATOM     53  N   UNL A   1      45.227  28.774  29.907  1.00  0.00    -0.248 NA
ATOM     54  C   UNL A   1      47.484  29.204  30.327  1.00  0.00     0.031 C 
ATOM     55  C   UNL A   1      41.954  31.688  30.566  1.00  0.00     0.029 A 
ATOM     56  C   UNL A   1      43.000  30.803  30.361  1.00  0.00     0.049 A 
ATOM     57  H   UNL A   1      42.956  28.843  29.579  1.00  0.00     0.167 HD
ATOM     58  C   UNL A   1      45.362  30.064  30.405  1.00  0.00     0.074 A 
ATOM     59  C   UNL A   1      46.771  30.268  30.669  1.00  0.00     0.031 C 
ATOM     60  C   UNL A   1      44.402  30.995  30.625  1.00  0.00     0.037 A 
BRANCH  47  61
ATOM     61  C   UNL A   1      38.736  29.140  29.044  1.00  0.00     0.057 A 
ATOM     62  C   UNL A   1      37.865  29.075  30.139  1.00  0.00     0.134 A 
ATOM     63  C   UNL A   1      38.212  29.579  27.823  1.00  0.00     0.134 A 
ATOM     64  F   UNL A   1      38.304  28.651  31.333  1.00  0.00    -0.206 F 
ATOM     65  C   UNL A   1      36.517  29.415  30.017  1.00  0.00     0.040 A 
ATOM     66  C   UNL A   1      36.870  29.941  27.694  1.00  0.00     0.040 A 
ATOM     67  F   UNL A   1      38.997  29.669  26.738  1.00  0.00    -0.206 F 
ATOM     68  C   UNL A   1      36.018  29.856  28.793  1.00  0.00     0.006 A 
ENDBRANCH  47  61
BRANCH  48  69
ATOM     69  C   UNL A   1      48.321  26.539  29.492  1.00  0.00     0.057 A 
ATOM     70  C   UNL A   1      48.857  25.884  30.607  1.00  0.00     0.134 A 
ATOM     71  C   UNL A   1      49.189  26.840  28.437  1.00  0.00     0.134 A 
ATOM     72  F   UNL A   1      48.077  25.590  31.656  1.00  0.00    -0.206 F 
ATOM     73  C   UNL A   1      50.209  25.551  30.674  1.00  0.00     0.040 A 
ATOM     74  C   UNL A   1      50.539  26.497  28.483  1.00  0.00     0.040 A 
ATOM     75  F   UNL A   1      48.731  27.466  27.342  1.00  0.00    -0.206 F 
ATOM     76  C   UNL A   1      51.055  25.853  29.608  1.00  0.00     0.006 A 
ENDBRANCH  48  69
BRANCH  60  77
ATOM     77  C   UNL A   1      44.838  32.307  31.199  1.00  0.00     0.057 A 
ATOM     78  C   UNL A   1      45.186  33.389  30.381  1.00  0.00     0.134 A 
ATOM     79  C   UNL A   1      44.876  32.504  32.585  1.00  0.00     0.134 A 
ATOM     80  F   UNL A   1      45.181  33.259  29.045  1.00  0.00    -0.206 F 
ATOM     81  C   UNL A   1      45.571  34.617  30.922  1.00  0.00     0.040 A 
ATOM     82  C   UNL A   1      45.242  33.732  33.137  1.00  0.00     0.040 A 
ATOM     83  F   UNL A   1      44.549  31.508  33.423  1.00  0.00    -0.206 F 
ATOM     84  C   UNL A   1      45.595  34.792  32.303  1.00  0.00     0.006 A 
ENDBRANCH  60  77
ENDBRANCH  34  35
ENDBRANCH  26  29
ENDBRANCH  24  25
ENDBRANCH   1  24
TORSDOF 12
ENDMDL
