MODEL 1
REMARK VINA RESULT:     -12.8      0.000      0.000
REMARK SMILES CC1(C)Cc2c(-c3ccccc3)c(-c3ccc(Cl)cc3)c(CC(=O)NCCCNC(=O)c3ccc(-c4c5nc(c(-c6c(F)cccc6F)c6ccc([nH]6)c(-c6c(F)cccc6F)c6nc(c(-c7c(F)cccc7F)c7ccc4[nH]7)C=C6)C=C5)cc3)n2C1
REMARK SMILES IDX 27 1 26 2 25 3 23 4 24 5 22 7 21 8 1 9 2 10 3 11 4 12 87 13
REMARK SMILES IDX 5 14 86 15 6 16 13 17 7 18 8 19 12 20 9 21 11 22 10 23 14 24
REMARK SMILES IDX 15 25 20 26 16 27 19 28 17 29 18 30 28 31 29 32 30 33 31 35
REMARK SMILES IDX 32 36 33 37 85 38 34 39 84 40 35 41 36 42 37 43 78 44 38 45
REMARK SMILES IDX 83 46 77 47 79 48 39 49 82 50 76 51 75 52 40 54 66 55 49 56
REMARK SMILES IDX 65 57 50 58 53 59 64 60 80 61 51 62 52 63 63 65 81 66 54 67
REMARK SMILES IDX 41 68 42 69 47 70 43 71 44 72 46 73 48 74 45 75 67 76 68 77
REMARK SMILES IDX 73 78 69 79 70 80 72 81 74 82 71 83 55 84 56 85 61 86 57 87
REMARK SMILES IDX 58 88 60 89 62 90 59 91
REMARK H PARENT 25 6 29 34 79 53 53 64
REMARK Flexibility Score: inf
ROOT
ATOM      1  C   UNL A   1      33.234  30.939  27.198  1.00  0.00     0.042 C 
ENDROOT
BRANCH   1   2
ATOM      2  C   UNL A   1      32.991  29.547  26.622  1.00  0.00     0.117 C 
BRANCH   2   3
ATOM      3  N   UNL A   1      33.547  29.348  25.303  1.00  0.00    -0.356 N 
ATOM      4  C   UNL A   1      34.015  28.189  24.747  1.00  0.00     0.225 C 
ATOM      5  O   UNL A   1      34.242  28.190  23.535  1.00  0.00    -0.275 OA
ATOM      6  H   UNL A   1      33.595  30.148  24.730  1.00  0.00     0.163 HD
BRANCH   4   7
ATOM      7  C   UNL A   1      34.191  26.934  25.596  1.00  0.00     0.154 C 
BRANCH   7   8
ATOM      8  C   UNL A   1      33.400  25.762  25.089  1.00  0.00     0.036 A 
ATOM      9  C   UNL A   1      28.787  26.922  23.584  1.00  0.00     0.013 C 
ATOM     10  C   UNL A   1      29.751  26.114  24.453  1.00  0.00    -0.012 C 
ATOM     11  C   UNL A   1      29.034  25.774  25.772  1.00  0.00     0.013 C 
ATOM     12  C   UNL A   1      30.209  24.790  23.767  1.00  0.00     0.063 C 
ATOM     13  C   UNL A   1      31.079  26.901  24.680  1.00  0.00     0.129 C 
ATOM     14  C   UNL A   1      31.622  24.676  24.207  1.00  0.00     0.027 A 
ATOM     15  N   UNL A   1      32.093  25.856  24.704  1.00  0.00    -0.346 N 
ATOM     16  C   UNL A   1      32.620  23.744  24.300  1.00  0.00     0.011 A 
ATOM     17  C   UNL A   1      33.766  24.432  24.835  1.00  0.00     0.011 A 
BRANCH  16  18
ATOM     18  C   UNL A   1      32.472  22.354  23.915  1.00  0.00    -0.016 A 
ATOM     19  C   UNL A   1      32.194  22.007  22.591  1.00  0.00     0.009 A 
ATOM     20  C   UNL A   1      32.639  21.349  24.874  1.00  0.00     0.009 A 
ATOM     21  C   UNL A   1      32.085  20.664  22.229  1.00  0.00     0.001 A 
ATOM     22  C   UNL A   1      32.528  20.007  24.511  1.00  0.00     0.001 A 
ATOM     23  C   UNL A   1      32.250  19.665  23.189  1.00  0.00     0.000 A 
ENDBRANCH  16  18
BRANCH  17  24
ATOM     24  C   UNL A   1      35.101  23.872  25.017  1.00  0.00    -0.016 A 
ATOM     25  C   UNL A   1      35.757  23.295  23.922  1.00  0.00     0.010 A 
ATOM     26  C   UNL A   1      35.692  23.795  26.282  1.00  0.00     0.010 A 
ATOM     27  C   UNL A   1      36.993  22.662  24.087  1.00  0.00     0.021 A 
ATOM     28  C   UNL A   1      36.937  23.180  26.446  1.00  0.00     0.021 A 
ATOM     29  C   UNL A   1      37.580  22.612  25.349  1.00  0.00     0.041 A 
ATOM     30  Cl  UNL A   1      39.095  21.823  25.558  1.00  0.00    -0.084 Cl
ENDBRANCH  17  24
ENDBRANCH   7   8
ENDBRANCH   4   7
ENDBRANCH   2   3
ENDBRANCH   1   2
BRANCH   1  31
ATOM     31  C   UNL A   1      34.612  31.105  27.789  1.00  0.00     0.118 C 
BRANCH  31  32
ATOM     32  N   UNL A   1      34.583  31.794  29.087  1.00  0.00    -0.352 N 
ATOM     33  C   UNL A   1      35.426  31.618  30.175  1.00  0.00     0.251 C 
ATOM     34  H   UNL A   1      33.874  32.468  29.199  1.00  0.00     0.163 HD
ATOM     35  O   UNL A   1      35.117  31.999  31.289  1.00  0.00    -0.269 OA
BRANCH  33  36
ATOM     36  C   UNL A   1      36.718  30.957  29.929  1.00  0.00     0.039 A 
ATOM     37  C   UNL A   1      37.891  31.655  29.643  1.00  0.00     0.014 A 
ATOM     38  C   UNL A   1      36.729  29.581  30.099  1.00  0.00     0.014 A 
ATOM     39  C   UNL A   1      39.084  30.937  29.600  1.00  0.00     0.010 A 
ATOM     40  C   UNL A   1      37.906  28.966  30.383  1.00  0.00     0.010 A 
ATOM     41  C   UNL A   1      39.073  29.588  29.991  1.00  0.00    -0.014 A 
BRANCH  41  42
ATOM     42  C   UNL A   1      40.276  28.779  30.080  1.00  0.00     0.031 A 
ATOM     43  C   UNL A   1      40.795  28.667  31.460  1.00  0.00     0.074 A 
ATOM     44  C   UNL A   1      40.707  28.010  29.052  1.00  0.00     0.049 A 
ATOM     45  N   UNL A   1      41.807  29.284  31.966  1.00  0.00    -0.248 NA
ATOM     46  C   UNL A   1      39.980  27.949  32.457  1.00  0.00     0.031 C 
ATOM     47  C   UNL A   1      40.039  27.756  27.762  1.00  0.00     0.029 A 
ATOM     48  N   UNL A   1      41.801  27.202  28.977  1.00  0.00    -0.354 N 
ATOM     49  C   UNL A   1      41.925  28.794  33.262  1.00  0.00     0.074 A 
ATOM     50  C   UNL A   1      40.656  28.201  33.581  1.00  0.00     0.031 C 
ATOM     51  C   UNL A   1      40.606  26.696  27.148  1.00  0.00     0.029 A 
ATOM     52  C   UNL A   1      41.796  26.330  27.887  1.00  0.00     0.049 A 
ATOM     53  H   UNL A   1      42.533  27.231  29.634  1.00  0.00     0.167 HD
ATOM     54  C   UNL A   1      43.160  28.608  33.806  1.00  0.00     0.037 A 
ATOM     55  C   UNL A   1      42.723  25.382  27.612  1.00  0.00     0.037 A 
ATOM     56  C   UNL A   1      44.163  29.225  32.972  1.00  0.00     0.049 A 
ATOM     57  C   UNL A   1      43.954  25.758  28.342  1.00  0.00     0.074 A 
ATOM     58  C   UNL A   1      44.604  30.503  32.710  1.00  0.00     0.029 A 
ATOM     59  N   UNL A   1      44.559  28.430  31.927  1.00  0.00    -0.354 N 
ATOM     60  N   UNL A   1      44.645  26.832  28.074  1.00  0.00    -0.248 NA
ATOM     61  C   UNL A   1      44.219  25.151  29.641  1.00  0.00     0.031 C 
ATOM     62  C   UNL A   1      45.146  30.473  31.388  1.00  0.00     0.029 A 
ATOM     63  C   UNL A   1      45.078  29.170  30.899  1.00  0.00     0.049 A 
ATOM     64  H   UNL A   1      44.479  27.450  31.918  1.00  0.00     0.167 HD
ATOM     65  C   UNL A   1      45.094  27.267  29.306  1.00  0.00     0.074 A 
ATOM     66  C   UNL A   1      44.956  26.118  30.195  1.00  0.00     0.031 C 
ATOM     67  C   UNL A   1      45.214  28.599  29.576  1.00  0.00     0.037 A 
BRANCH  54  68
ATOM     68  C   UNL A   1      43.545  27.482  34.745  1.00  0.00     0.057 A 
ATOM     69  C   UNL A   1      43.480  26.157  34.271  1.00  0.00     0.134 A 
ATOM     70  C   UNL A   1      43.678  27.603  36.144  1.00  0.00     0.134 A 
ATOM     71  F   UNL A   1      43.342  25.900  32.961  1.00  0.00    -0.206 F 
ATOM     72  C   UNL A   1      43.476  25.047  35.128  1.00  0.00     0.040 A 
ATOM     73  C   UNL A   1      43.723  26.501  37.003  1.00  0.00     0.040 A 
ATOM     74  F   UNL A   1      43.668  28.783  36.772  1.00  0.00    -0.206 F 
ATOM     75  C   UNL A   1      43.592  25.217  36.500  1.00  0.00     0.006 A 
ENDBRANCH  54  68
BRANCH  55  76
ATOM     76  C   UNL A   1      42.546  24.048  26.999  1.00  0.00     0.057 A 
ATOM     77  C   UNL A   1      43.015  23.771  25.707  1.00  0.00     0.134 A 
ATOM     78  C   UNL A   1      42.193  22.938  27.784  1.00  0.00     0.134 A 
ATOM     79  F   UNL A   1      43.405  24.766  24.898  1.00  0.00    -0.206 F 
ATOM     80  C   UNL A   1      43.164  22.459  25.236  1.00  0.00     0.040 A 
ATOM     81  C   UNL A   1      42.338  21.623  27.327  1.00  0.00     0.040 A 
ATOM     82  F   UNL A   1      41.790  23.095  29.054  1.00  0.00    -0.206 F 
ATOM     83  C   UNL A   1      42.841  21.379  26.054  1.00  0.00     0.006 A 
ENDBRANCH  55  76
BRANCH  67  84
ATOM     84  C   UNL A   1      45.344  29.537  28.415  1.00  0.00     0.057 A 
ATOM     85  C   UNL A   1      44.293  30.272  27.850  1.00  0.00     0.134 A 
ATOM     86  C   UNL A   1      46.625  29.766  27.901  1.00  0.00     0.134 A 
ATOM     87  F   UNL A   1      43.044  30.170  28.320  1.00  0.00    -0.206 F 
ATOM     88  C   UNL A   1      44.506  31.171  26.800  1.00  0.00     0.040 A 
ATOM     89  C   UNL A   1      46.857  30.684  26.876  1.00  0.00     0.040 A 
ATOM     90  F   UNL A   1      47.684  29.125  28.420  1.00  0.00    -0.206 F 
ATOM     91  C   UNL A   1      45.794  31.384  26.315  1.00  0.00     0.006 A 
ENDBRANCH  67  84
ENDBRANCH  41  42
ENDBRANCH  33  36
ENDBRANCH  31  32
ENDBRANCH   1  31
TORSDOF 13
ENDMDL
MODEL 2
REMARK VINA RESULT:     -12.7      1.734      5.898
REMARK SMILES CC1(C)Cc2c(-c3ccccc3)c(-c3ccc(Cl)cc3)c(CC(=O)NCCCNC(=O)c3ccc(-c4c5nc(c(-c6c(F)cccc6F)c6ccc([nH]6)c(-c6c(F)cccc6F)c6nc(c(-c7c(F)cccc7F)c7ccc4[nH]7)C=C6)C=C5)cc3)n2C1
REMARK SMILES IDX 27 1 26 2 25 3 23 4 24 5 22 7 21 8 1 9 2 10 3 11 4 12 87 13
REMARK SMILES IDX 5 14 86 15 6 16 13 17 7 18 8 19 12 20 9 21 11 22 10 23 14 24
REMARK SMILES IDX 15 25 20 26 16 27 19 28 17 29 18 30 28 31 29 32 30 33 31 35
REMARK SMILES IDX 32 36 33 37 85 38 34 39 84 40 35 41 36 42 37 43 78 44 38 45
REMARK SMILES IDX 83 46 77 47 79 48 39 49 82 50 76 51 75 52 40 54 66 55 49 56
REMARK SMILES IDX 65 57 50 58 53 59 64 60 80 61 51 62 52 63 63 65 81 66 54 67
REMARK SMILES IDX 41 68 42 69 47 70 43 71 44 72 46 73 48 74 45 75 67 76 68 77
REMARK SMILES IDX 73 78 69 79 70 80 72 81 74 82 71 83 55 84 56 85 61 86 57 87
REMARK SMILES IDX 58 88 60 89 62 90 59 91
REMARK H PARENT 25 6 29 34 79 53 53 64
REMARK Flexibility Score: inf
ROOT
ATOM      1  C   UNL A   1      34.134  28.942  27.414  1.00  0.00     0.042 C 
ENDROOT
BRANCH   1   2
ATOM      2  C   UNL A   1      33.276  29.575  26.323  1.00  0.00     0.117 C 
BRANCH   2   3
ATOM      3  N   UNL A   1      33.720  29.284  24.979  1.00  0.00    -0.356 N 
ATOM      4  C   UNL A   1      34.094  28.078  24.454  1.00  0.00     0.225 C 
ATOM      5  O   UNL A   1      34.226  28.007  23.229  1.00  0.00    -0.275 OA
ATOM      6  H   UNL A   1      33.757  30.051  24.362  1.00  0.00     0.163 HD
BRANCH   4   7
ATOM      7  C   UNL A   1      34.283  26.861  25.353  1.00  0.00     0.154 C 
BRANCH   7   8
ATOM      8  C   UNL A   1      33.467  25.675  24.921  1.00  0.00     0.036 A 
ATOM      9  C   UNL A   1      28.824  26.811  23.495  1.00  0.00     0.013 C 
ATOM     10  C   UNL A   1      29.805  26.033  24.372  1.00  0.00    -0.012 C 
ATOM     11  C   UNL A   1      29.123  25.759  25.725  1.00  0.00     0.013 C 
ATOM     12  C   UNL A   1      30.233  24.675  23.734  1.00  0.00     0.063 C 
ATOM     13  C   UNL A   1      31.145  26.817  24.527  1.00  0.00     0.129 C 
ATOM     14  C   UNL A   1      31.656  24.568  24.139  1.00  0.00     0.027 A 
ATOM     15  N   UNL A   1      32.151  25.764  24.569  1.00  0.00    -0.346 N 
ATOM     16  C   UNL A   1      32.649  23.631  24.246  1.00  0.00     0.011 A 
ATOM     17  C   UNL A   1      33.815  24.332  24.718  1.00  0.00     0.011 A 
BRANCH  16  18
ATOM     18  C   UNL A   1      32.479  22.227  23.929  1.00  0.00    -0.016 A 
ATOM     19  C   UNL A   1      32.238  21.817  22.615  1.00  0.00     0.009 A 
ATOM     20  C   UNL A   1      32.587  21.270  24.944  1.00  0.00     0.009 A 
ATOM     21  C   UNL A   1      32.107  20.460  22.319  1.00  0.00     0.001 A 
ATOM     22  C   UNL A   1      32.454  19.914  24.647  1.00  0.00     0.001 A 
ATOM     23  C   UNL A   1      32.213  19.510  23.334  1.00  0.00     0.000 A 
ENDBRANCH  16  18
BRANCH  17  24
ATOM     24  C   UNL A   1      35.150  23.768  24.888  1.00  0.00    -0.016 A 
ATOM     25  C   UNL A   1      35.728  23.046  23.835  1.00  0.00     0.010 A 
ATOM     26  C   UNL A   1      35.817  23.833  26.116  1.00  0.00     0.010 A 
ATOM     27  C   UNL A   1      36.962  22.409  24.004  1.00  0.00     0.021 A 
ATOM     28  C   UNL A   1      37.060  23.215  26.280  1.00  0.00     0.021 A 
ATOM     29  C   UNL A   1      37.625  22.501  25.225  1.00  0.00     0.041 A 
ATOM     30  Cl  UNL A   1      39.138  21.710  25.439  1.00  0.00    -0.084 Cl
ENDBRANCH  17  24
ENDBRANCH   7   8
ENDBRANCH   4   7
ENDBRANCH   2   3
ENDBRANCH   1   2
BRANCH   1  31
ATOM     31  C   UNL A   1      35.368  29.745  27.740  1.00  0.00     0.118 C 
BRANCH  31  32
ATOM     32  N   UNL A   1      35.478  30.043  29.176  1.00  0.00    -0.352 N 
ATOM     33  C   UNL A   1      36.451  29.622  30.071  1.00  0.00     0.251 C 
ATOM     34  H   UNL A   1      34.770  30.614  29.551  1.00  0.00     0.163 HD
ATOM     35  O   UNL A   1      36.269  29.658  31.274  1.00  0.00    -0.269 OA
BRANCH  33  36
ATOM     36  C   UNL A   1      37.722  29.135  29.509  1.00  0.00     0.039 A 
ATOM     37  C   UNL A   1      38.357  29.736  28.422  1.00  0.00     0.014 A 
ATOM     38  C   UNL A   1      38.317  28.087  30.193  1.00  0.00     0.014 A 
ATOM     39  C   UNL A   1      39.635  29.297  28.088  1.00  0.00     0.010 A 
ATOM     40  C   UNL A   1      39.658  27.907  30.076  1.00  0.00     0.010 A 
ATOM     41  C   UNL A   1      40.280  28.386  28.942  1.00  0.00    -0.014 A 
BRANCH  41  42
ATOM     42  C   UNL A   1      41.648  27.945  28.741  1.00  0.00     0.031 A 
ATOM     43  C   UNL A   1      41.744  26.708  27.936  1.00  0.00     0.074 A 
ATOM     44  C   UNL A   1      42.711  28.731  29.038  1.00  0.00     0.049 A 
ATOM     45  N   UNL A   1      41.981  25.516  28.364  1.00  0.00    -0.248 NA
ATOM     46  C   UNL A   1      41.326  26.760  26.523  1.00  0.00     0.031 C 
ATOM     47  C   UNL A   1      42.708  30.136  29.486  1.00  0.00     0.029 A 
ATOM     48  N   UNL A   1      44.042  28.469  28.909  1.00  0.00    -0.354 N 
ATOM     49  C   UNL A   1      42.034  24.721  27.223  1.00  0.00     0.074 A 
ATOM     50  C   UNL A   1      41.379  25.468  26.186  1.00  0.00     0.031 C 
ATOM     51  C   UNL A   1      43.944  30.664  29.360  1.00  0.00     0.029 A 
ATOM     52  C   UNL A   1      44.861  29.592  29.030  1.00  0.00     0.049 A 
ATOM     53  H   UNL A   1      44.396  27.566  28.744  1.00  0.00     0.167 HD
ATOM     54  C   UNL A   1      42.924  23.691  27.157  1.00  0.00     0.037 A 
ATOM     55  C   UNL A   1      46.206  29.626  28.880  1.00  0.00     0.037 A 
ATOM     56  C   UNL A   1      43.501  23.455  28.458  1.00  0.00     0.049 A 
ATOM     57  C   UNL A   1      46.696  28.243  29.071  1.00  0.00     0.074 A 
ATOM     58  C   UNL A   1      43.105  22.877  29.643  1.00  0.00     0.029 A 
ATOM     59  N   UNL A   1      44.558  24.283  28.737  1.00  0.00    -0.354 N 
ATOM     60  N   UNL A   1      46.612  27.604  30.206  1.00  0.00    -0.248 NA
ATOM     61  C   UNL A   1      46.931  27.408  27.899  1.00  0.00     0.031 C 
ATOM     62  C   UNL A   1      43.868  23.513  30.670  1.00  0.00     0.029 A 
ATOM     63  C   UNL A   1      44.752  24.417  30.085  1.00  0.00     0.049 A 
ATOM     64  H   UNL A   1      45.109  24.726  28.053  1.00  0.00     0.167 HD
ATOM     65  C   UNL A   1      46.355  26.296  29.845  1.00  0.00     0.074 A 
ATOM     66  C   UNL A   1      46.734  26.201  28.439  1.00  0.00     0.031 C 
ATOM     67  C   UNL A   1      45.549  25.505  30.611  1.00  0.00     0.037 A 
BRANCH  54  68
ATOM     68  C   UNL A   1      43.663  23.249  25.910  1.00  0.00     0.057 A 
ATOM     69  C   UNL A   1      43.643  21.883  25.563  1.00  0.00     0.134 A 
ATOM     70  C   UNL A   1      44.621  24.019  25.219  1.00  0.00     0.134 A 
ATOM     71  F   UNL A   1      42.786  21.035  26.154  1.00  0.00    -0.206 F 
ATOM     72  C   UNL A   1      44.551  21.320  24.656  1.00  0.00     0.040 A 
ATOM     73  C   UNL A   1      45.500  23.476  24.277  1.00  0.00     0.040 A 
ATOM     74  F   UNL A   1      44.837  25.311  25.484  1.00  0.00    -0.206 F 
ATOM     75  C   UNL A   1      45.488  22.116  24.013  1.00  0.00     0.006 A 
ENDBRANCH  54  68
BRANCH  55  76
ATOM     76  C   UNL A   1      47.061  30.694  28.319  1.00  0.00     0.057 A 
ATOM     77  C   UNL A   1      46.822  31.227  27.044  1.00  0.00     0.134 A 
ATOM     78  C   UNL A   1      47.931  31.425  29.145  1.00  0.00     0.134 A 
ATOM     79  F   UNL A   1      45.980  30.613  26.200  1.00  0.00    -0.206 F 
ATOM     80  C   UNL A   1      47.385  32.441  26.628  1.00  0.00     0.040 A 
ATOM     81  C   UNL A   1      48.499  32.640  28.743  1.00  0.00     0.040 A 
ATOM     82  F   UNL A   1      48.177  31.031  30.404  1.00  0.00    -0.206 F 
ATOM     83  C   UNL A   1      48.213  33.160  27.486  1.00  0.00     0.006 A 
ENDBRANCH  55  76
BRANCH  67  84
ATOM     84  C   UNL A   1      45.366  25.881  32.050  1.00  0.00     0.057 A 
ATOM     85  C   UNL A   1      46.312  25.673  33.063  1.00  0.00     0.134 A 
ATOM     86  C   UNL A   1      44.200  26.568  32.402  1.00  0.00     0.134 A 
ATOM     87  F   UNL A   1      47.488  25.087  32.806  1.00  0.00    -0.206 F 
ATOM     88  C   UNL A   1      46.089  26.105  34.375  1.00  0.00     0.040 A 
ATOM     89  C   UNL A   1      43.979  27.031  33.700  1.00  0.00     0.040 A 
ATOM     90  F   UNL A   1      43.268  26.834  31.474  1.00  0.00    -0.206 F 
ATOM     91  C   UNL A   1      44.922  26.792  34.694  1.00  0.00     0.006 A 
ENDBRANCH  67  84
ENDBRANCH  41  42
ENDBRANCH  33  36
ENDBRANCH  31  32
ENDBRANCH   1  31
TORSDOF 13
ENDMDL
MODEL 3
REMARK VINA RESULT:     -12.6      2.671      6.387
REMARK SMILES CC1(C)Cc2c(-c3ccccc3)c(-c3ccc(Cl)cc3)c(CC(=O)NCCCNC(=O)c3ccc(-c4c5nc(c(-c6c(F)cccc6F)c6ccc([nH]6)c(-c6c(F)cccc6F)c6nc(c(-c7c(F)cccc7F)c7ccc4[nH]7)C=C6)C=C5)cc3)n2C1
REMARK SMILES IDX 27 1 26 2 25 3 23 4 24 5 22 7 21 8 1 9 2 10 3 11 4 12 87 13
REMARK SMILES IDX 5 14 86 15 6 16 13 17 7 18 8 19 12 20 9 21 11 22 10 23 14 24
REMARK SMILES IDX 15 25 20 26 16 27 19 28 17 29 18 30 28 31 29 32 30 33 31 35
REMARK SMILES IDX 32 36 33 37 85 38 34 39 84 40 35 41 36 42 37 43 78 44 38 45
REMARK SMILES IDX 83 46 77 47 79 48 39 49 82 50 76 51 75 52 40 54 66 55 49 56
REMARK SMILES IDX 65 57 50 58 53 59 64 60 80 61 51 62 52 63 63 65 81 66 54 67
REMARK SMILES IDX 41 68 42 69 47 70 43 71 44 72 46 73 48 74 45 75 67 76 68 77
REMARK SMILES IDX 73 78 69 79 70 80 72 81 74 82 71 83 55 84 56 85 61 86 57 87
REMARK SMILES IDX 58 88 60 89 62 90 59 91
REMARK H PARENT 25 6 29 34 79 53 53 64
REMARK Flexibility Score: inf
ROOT
ATOM      1  C   UNL A   1      32.073  31.054  26.347  1.00  0.00     0.042 C 
ENDROOT
BRANCH   1   2
ATOM      2  C   UNL A   1      32.555  29.618  26.166  1.00  0.00     0.117 C 
BRANCH   2   3
ATOM      3  N   UNL A   1      33.315  29.397  24.957  1.00  0.00    -0.356 N 
ATOM      4  C   UNL A   1      33.931  28.249  24.542  1.00  0.00     0.225 C 
ATOM      5  O   UNL A   1      34.337  28.210  23.378  1.00  0.00    -0.275 OA
ATOM      6  H   UNL A   1      33.399  30.172  24.355  1.00  0.00     0.163 HD
BRANCH   4   7
ATOM      7  C   UNL A   1      34.053  27.049  25.475  1.00  0.00     0.154 C 
BRANCH   7   8
ATOM      8  C   UNL A   1      33.279  25.851  25.002  1.00  0.00     0.036 A 
ATOM      9  C   UNL A   1      28.627  26.890  23.528  1.00  0.00     0.013 C 
ATOM     10  C   UNL A   1      29.617  26.119  24.403  1.00  0.00    -0.012 C 
ATOM     11  C   UNL A   1      28.922  25.794  25.737  1.00  0.00     0.013 C 
ATOM     12  C   UNL A   1      30.092  24.790  23.739  1.00  0.00     0.063 C 
ATOM     13  C   UNL A   1      30.931  26.937  24.598  1.00  0.00     0.129 C 
ATOM     14  C   UNL A   1      31.512  24.713  24.165  1.00  0.00     0.027 A 
ATOM     15  N   UNL A   1      31.966  25.912  24.631  1.00  0.00    -0.346 N 
ATOM     16  C   UNL A   1      32.530  23.802  24.265  1.00  0.00     0.011 A 
ATOM     17  C   UNL A   1      33.668  24.524  24.772  1.00  0.00     0.011 A 
BRANCH  16  18
ATOM     18  C   UNL A   1      32.405  22.402  23.912  1.00  0.00    -0.016 A 
ATOM     19  C   UNL A   1      32.182  22.018  22.587  1.00  0.00     0.009 A 
ATOM     20  C   UNL A   1      32.538  21.423  24.903  1.00  0.00     0.009 A 
ATOM     21  C   UNL A   1      32.094  20.665  22.257  1.00  0.00     0.001 A 
ATOM     22  C   UNL A   1      32.448  20.071  24.572  1.00  0.00     0.001 A 
ATOM     23  C   UNL A   1      32.226  19.694  23.249  1.00  0.00     0.000 A 
ENDBRANCH  16  18
BRANCH  17  24
ATOM     24  C   UNL A   1      35.016  23.994  24.950  1.00  0.00    -0.016 A 
ATOM     25  C   UNL A   1      35.673  23.412  23.858  1.00  0.00     0.010 A 
ATOM     26  C   UNL A   1      35.620  23.949  26.211  1.00  0.00     0.010 A 
ATOM     27  C   UNL A   1      36.923  22.806  24.021  1.00  0.00     0.021 A 
ATOM     28  C   UNL A   1      36.879  23.362  26.372  1.00  0.00     0.021 A 
ATOM     29  C   UNL A   1      37.522  22.789  25.278  1.00  0.00     0.041 A 
ATOM     30  Cl  UNL A   1      39.055  22.034  25.485  1.00  0.00    -0.084 Cl
ENDBRANCH  17  24
ENDBRANCH   7   8
ENDBRANCH   4   7
ENDBRANCH   2   3
ENDBRANCH   1   2
BRANCH   1  31
ATOM     31  C   UNL A   1      32.612  31.709  27.594  1.00  0.00     0.118 C 
BRANCH  31  32
ATOM     32  N   UNL A   1      32.368  33.159  27.614  1.00  0.00    -0.352 N 
ATOM     33  C   UNL A   1      33.046  34.137  28.327  1.00  0.00     0.251 C 
ATOM     34  H   UNL A   1      31.628  33.477  27.048  1.00  0.00     0.163 HD
ATOM     35  O   UNL A   1      32.562  35.238  28.516  1.00  0.00    -0.269 OA
BRANCH  33  36
ATOM     36  C   UNL A   1      34.381  33.795  28.842  1.00  0.00     0.039 A 
ATOM     37  C   UNL A   1      34.609  33.362  30.149  1.00  0.00     0.014 A 
ATOM     38  C   UNL A   1      35.410  33.830  27.914  1.00  0.00     0.014 A 
ATOM     39  C   UNL A   1      35.884  32.904  30.472  1.00  0.00     0.010 A 
ATOM     40  C   UNL A   1      36.522  33.085  28.139  1.00  0.00     0.010 A 
ATOM     41  C   UNL A   1      36.829  32.757  29.443  1.00  0.00    -0.014 A 
BRANCH  41  42
ATOM     42  C   UNL A   1      38.149  32.192  29.656  1.00  0.00     0.031 A 
ATOM     43  C   UNL A   1      38.230  30.761  29.290  1.00  0.00     0.074 A 
ATOM     44  C   UNL A   1      39.232  32.964  29.908  1.00  0.00     0.049 A 
ATOM     45  N   UNL A   1      38.249  29.751  30.091  1.00  0.00    -0.248 NA
ATOM     46  C   UNL A   1      38.064  30.391  27.873  1.00  0.00     0.031 C 
ATOM     47  C   UNL A   1      39.322  34.436  29.907  1.00  0.00     0.029 A 
ATOM     48  N   UNL A   1      40.526  32.595  30.125  1.00  0.00    -0.354 N 
ATOM     49  C   UNL A   1      38.398  28.637  29.273  1.00  0.00     0.074 A 
ATOM     50  C   UNL A   1      38.019  29.058  27.953  1.00  0.00     0.031 C 
ATOM     51  C   UNL A   1      40.616  34.821  29.875  1.00  0.00     0.029 A 
ATOM     52  C   UNL A   1      41.441  33.646  30.065  1.00  0.00     0.049 A 
ATOM     53  H   UNL A   1      40.792  31.665  30.310  1.00  0.00     0.167 HD
ATOM     54  C   UNL A   1      39.157  27.586  29.692  1.00  0.00     0.037 A 
ATOM     55  C   UNL A   1      42.787  33.549  30.178  1.00  0.00     0.037 A 
ATOM     56  C   UNL A   1      39.476  27.736  31.091  1.00  0.00     0.049 A 
ATOM     57  C   UNL A   1      43.069  32.269  30.864  1.00  0.00     0.074 A 
ATOM     58  C   UNL A   1      38.821  27.586  32.293  1.00  0.00     0.029 A 
ATOM     59  N   UNL A   1      40.562  28.544  31.312  1.00  0.00    -0.354 N 
ATOM     60  N   UNL A   1      42.721  32.026  32.099  1.00  0.00    -0.248 NA
ATOM     61  C   UNL A   1      43.397  31.095  30.065  1.00  0.00     0.031 C 
ATOM     62  C   UNL A   1      39.472  28.465  33.213  1.00  0.00     0.029 A 
ATOM     63  C   UNL A   1      40.542  29.083  32.570  1.00  0.00     0.049 A 
ATOM     64  H   UNL A   1      41.268  28.714  30.649  1.00  0.00     0.167 HD
ATOM     65  C   UNL A   1      42.375  30.689  32.101  1.00  0.00     0.074 A 
ATOM     66  C   UNL A   1      42.970  30.134  30.890  1.00  0.00     0.031 C 
ATOM     67  C   UNL A   1      41.363  30.230  32.893  1.00  0.00     0.037 A 
BRANCH  54  68
ATOM     68  C   UNL A   1      40.036  26.729  28.803  1.00  0.00     0.057 A 
ATOM     69  C   UNL A   1      41.095  27.344  28.106  1.00  0.00     0.134 A 
ATOM     70  C   UNL A   1      39.721  25.425  28.367  1.00  0.00     0.134 A 
ATOM     71  F   UNL A   1      41.489  28.590  28.413  1.00  0.00    -0.206 F 
ATOM     72  C   UNL A   1      41.738  26.738  27.018  1.00  0.00     0.040 A 
ATOM     73  C   UNL A   1      40.389  24.792  27.313  1.00  0.00     0.040 A 
ATOM     74  F   UNL A   1      38.692  24.727  28.857  1.00  0.00    -0.206 F 
ATOM     75  C   UNL A   1      41.381  25.459  26.614  1.00  0.00     0.006 A 
ENDBRANCH  54  68
BRANCH  55  76
ATOM     76  C   UNL A   1      43.843  34.332  29.504  1.00  0.00     0.057 A 
ATOM     77  C   UNL A   1      44.102  34.182  28.134  1.00  0.00     0.134 A 
ATOM     78  C   UNL A   1      44.406  35.461  30.123  1.00  0.00     0.134 A 
ATOM     79  F   UNL A   1      43.579  33.152  27.454  1.00  0.00    -0.206 F 
ATOM     80  C   UNL A   1      44.844  35.125  27.409  1.00  0.00     0.040 A 
ATOM     81  C   UNL A   1      45.148  36.411  29.411  1.00  0.00     0.040 A 
ATOM     82  F   UNL A   1      44.168  35.725  31.416  1.00  0.00    -0.206 F 
ATOM     83  C   UNL A   1      45.355  36.254  28.045  1.00  0.00     0.006 A 
ENDBRANCH  55  76
BRANCH  67  84
ATOM     84  C   UNL A   1      40.989  31.050  34.090  1.00  0.00     0.057 A 
ATOM     85  C   UNL A   1      39.931  31.969  34.139  1.00  0.00     0.134 A 
ATOM     86  C   UNL A   1      41.690  30.828  35.280  1.00  0.00     0.134 A 
ATOM     87  F   UNL A   1      39.160  32.197  33.069  1.00  0.00    -0.206 F 
ATOM     88  C   UNL A   1      39.609  32.656  35.314  1.00  0.00     0.040 A 
ATOM     89  C   UNL A   1      41.359  31.483  36.466  1.00  0.00     0.040 A 
ATOM     90  F   UNL A   1      42.691  29.934  35.316  1.00  0.00    -0.206 F 
ATOM     91  C   UNL A   1      40.320  32.408  36.484  1.00  0.00     0.006 A 
ENDBRANCH  67  84
ENDBRANCH  41  42
ENDBRANCH  33  36
ENDBRANCH  31  32
ENDBRANCH   1  31
TORSDOF 13
ENDMDL
