MODEL 1
REMARK VINA RESULT:     -13.0      0.000      0.000
REMARK SMILES CC1CC[NH+]([C@H](c2ccc(F)cc2)c2ccc([C@@H](C)C(=O)NCCCNC(=O)c3ccc(-c4c5nc(c(-c6c(F)cccc6F)c6ccc([nH]6)c(-c6c(F)cccc6F)c6nc(c(-c7c(F)cccc7F)c7ccc4[nH]7)C=C6)C=C5)cc3)cc2-c2ccc(C(F)(F)F)cc2)CC1
REMARK SMILES IDX 23 1 22 2 20 3 21 4 18 6 19 7 17 8 14 9 15 10 84 11 16 12
REMARK SMILES IDX 83 13 6 14 5 15 1 16 2 17 3 18 96 19 4 20 95 21 7 23 8 24
REMARK SMILES IDX 13 25 9 26 12 27 10 28 11 29 85 30 86 31 94 32 87 33 93 34
REMARK SMILES IDX 88 35 89 36 90 37 91 38 92 39 24 40 25 41 26 42 27 43 28 45
REMARK SMILES IDX 29 46 30 47 82 48 31 49 81 50 32 51 33 52 34 53 75 54 35 55
REMARK SMILES IDX 80 56 74 57 76 58 36 59 79 60 73 61 72 62 37 64 63 65 46 66
REMARK SMILES IDX 62 67 47 68 50 69 61 70 77 71 48 72 49 73 60 75 78 76 51 77
REMARK SMILES IDX 38 78 39 79 44 80 40 81 41 82 43 83 45 84 42 85 64 86 65 87
REMARK SMILES IDX 70 88 66 89 67 90 69 91 71 92 68 93 52 94 53 95 58 96 54 97
REMARK SMILES IDX 55 98 57 99 59 100 56 101
REMARK H PARENT 22 5 5 22 26 44 76 63 50 74
REMARK Flexibility Score: inf
ROOT
ATOM      1  C   UNL A   1      42.111  21.630  26.870  1.00  0.00     0.117 C 
ENDROOT
BRANCH   1   2
ATOM      2  N   UNL A   1      41.105  20.745  26.310  1.00  0.00    -0.356 N 
ATOM      3  C   UNL A   1      39.833  20.945  25.862  1.00  0.00     0.227 C 
ATOM      4  O   UNL A   1      39.234  19.927  25.489  1.00  0.00    -0.274 OA
ATOM      5  H   UNL A   1      41.402  19.810  26.238  1.00  0.00     0.163 HD
BRANCH   3   6
ATOM      6  C   UNL A   1      39.119  22.310  25.803  1.00  0.00     0.105 C 
ATOM      7  C   UNL A   1      39.558  23.307  26.873  1.00  0.00     0.023 C 
BRANCH   6   8
ATOM      8  C   UNL A   1      37.617  22.187  25.616  1.00  0.00    -0.035 A 
ATOM      9  C   UNL A   1      34.872  21.771  24.900  1.00  0.00     0.022 A 
ATOM     10  C   UNL A   1      35.607  20.853  25.669  1.00  0.00     0.011 A 
ATOM     11  C   UNL A   1      35.503  23.019  24.639  1.00  0.00    -0.009 A 
ATOM     12  C   UNL A   1      36.915  21.091  26.081  1.00  0.00     0.005 A 
ATOM     13  C   UNL A   1      36.884  23.168  24.933  1.00  0.00     0.013 A 
BRANCH   9  14
ATOM     14  C   UNL A   1      33.422  21.442  24.428  1.00  0.00     0.247 C 
BRANCH  14  15
ATOM     15  N   UNL A   1      32.293  22.223  25.033  1.00  0.00    -0.325 N 
ATOM     16  C   UNL A   1      30.344  25.990  26.197  1.00  0.00     0.008 C 
ATOM     17  C   UNL A   1      31.239  24.862  25.705  1.00  0.00    -0.003 C 
ATOM     18  C   UNL A   1      30.579  24.062  24.586  1.00  0.00     0.065 C 
ATOM     19  C   UNL A   1      31.571  23.875  26.819  1.00  0.00     0.065 C 
ATOM     20  C   UNL A   1      31.500  22.962  24.047  1.00  0.00     0.263 C 
ATOM     21  C   UNL A   1      32.590  22.849  26.324  1.00  0.00     0.263 C 
ATOM     22  H   UNL A   1      31.607  21.541  25.358  1.00  0.00     0.348 HD
ENDBRANCH  14  15
BRANCH  14  23
ATOM     23  C   UNL A   1      33.084  19.937  24.441  1.00  0.00     0.014 A 
ATOM     24  C   UNL A   1      32.949  19.189  23.254  1.00  0.00     0.013 A 
ATOM     25  C   UNL A   1      32.902  19.277  25.672  1.00  0.00     0.013 A 
ATOM     26  C   UNL A   1      32.640  17.829  23.299  1.00  0.00     0.040 A 
ATOM     27  C   UNL A   1      32.568  17.921  25.713  1.00  0.00     0.040 A 
ATOM     28  C   UNL A   1      32.444  17.211  24.528  1.00  0.00     0.123 A 
ATOM     29  F   UNL A   1      32.131  15.908  24.568  1.00  0.00    -0.207 F 
ENDBRANCH  14  23
ENDBRANCH   9  14
BRANCH  11  30
ATOM     30  C   UNL A   1      34.778  24.208  24.149  1.00  0.00    -0.018 A 
ATOM     31  C   UNL A   1      34.291  24.289  22.837  1.00  0.00     0.009 A 
ATOM     32  C   UNL A   1      34.607  25.323  24.988  1.00  0.00     0.009 A 
ATOM     33  C   UNL A   1      33.622  25.434  22.390  1.00  0.00     0.014 A 
ATOM     34  C   UNL A   1      33.931  26.464  24.548  1.00  0.00     0.014 A 
ATOM     35  C   UNL A   1      33.423  26.528  23.245  1.00  0.00     0.056 A 
BRANCH  35  36
ATOM     36  C   UNL A   1      32.701  27.758  22.755  1.00  0.00     0.416 C 
ATOM     37  F   UNL A   1      32.237  28.529  23.777  1.00  0.00    -0.166 F 
ATOM     38  F   UNL A   1      33.493  28.570  22.002  1.00  0.00    -0.166 F 
ATOM     39  F   UNL A   1      31.615  27.476  21.980  1.00  0.00    -0.166 F 
ENDBRANCH  35  36
ENDBRANCH  11  30
ENDBRANCH   6   8
ENDBRANCH   3   6
ENDBRANCH   1   2
BRANCH   1  40
ATOM     40  C   UNL A   1      43.247  21.921  25.887  1.00  0.00     0.042 C 
BRANCH  40  41
ATOM     41  C   UNL A   1      43.030  23.133  24.993  1.00  0.00     0.118 C 
BRANCH  41  42
ATOM     42  N   UNL A   1      44.267  23.842  24.713  1.00  0.00    -0.352 N 
ATOM     43  C   UNL A   1      44.747  25.044  25.172  1.00  0.00     0.251 C 
ATOM     44  H   UNL A   1      44.868  23.379  24.084  1.00  0.00     0.163 HD
ATOM     45  O   UNL A   1      45.744  25.520  24.634  1.00  0.00    -0.269 OA
BRANCH  43  46
ATOM     46  C   UNL A   1      44.099  25.786  26.284  1.00  0.00     0.039 A 
ATOM     47  C   UNL A   1      44.383  27.151  26.423  1.00  0.00     0.014 A 
ATOM     48  C   UNL A   1      43.295  25.158  27.239  1.00  0.00     0.014 A 
ATOM     49  C   UNL A   1      43.841  27.883  27.486  1.00  0.00     0.010 A 
ATOM     50  C   UNL A   1      42.686  25.904  28.248  1.00  0.00     0.010 A 
ATOM     51  C   UNL A   1      42.969  27.270  28.397  1.00  0.00    -0.014 A 
BRANCH  51  52
ATOM     52  C   UNL A   1      42.372  28.026  29.529  1.00  0.00     0.031 A 
ATOM     53  C   UNL A   1      43.001  27.970  30.893  1.00  0.00     0.074 A 
ATOM     54  C   UNL A   1      41.235  28.724  29.350  1.00  0.00     0.049 A 
ATOM     55  N   UNL A   1      42.588  28.503  32.015  1.00  0.00    -0.248 NA
ATOM     56  C   UNL A   1      44.247  27.198  31.017  1.00  0.00     0.031 C 
ATOM     57  C   UNL A   1      40.519  28.844  28.083  1.00  0.00     0.029 A 
ATOM     58  N   UNL A   1      40.473  29.450  30.230  1.00  0.00    -0.354 N 
ATOM     59  C   UNL A   1      43.521  28.133  32.973  1.00  0.00     0.074 A 
ATOM     60  C   UNL A   1      44.484  27.274  32.319  1.00  0.00     0.031 C 
ATOM     61  C   UNL A   1      39.428  29.602  28.259  1.00  0.00     0.029 A 
ATOM     62  C   UNL A   1      39.352  30.002  29.660  1.00  0.00     0.049 A 
ATOM     63  H   UNL A   1      40.709  29.565  31.179  1.00  0.00     0.167 HD
ATOM     64  C   UNL A   1      43.591  28.503  34.274  1.00  0.00     0.037 A 
ATOM     65  C   UNL A   1      38.371  30.748  30.200  1.00  0.00     0.037 A 
ATOM     66  C   UNL A   1      42.644  29.373  34.921  1.00  0.00     0.049 A 
ATOM     67  C   UNL A   1      38.444  31.118  31.652  1.00  0.00     0.074 A 
ATOM     68  C   UNL A   1      42.652  29.839  36.223  1.00  0.00     0.029 A 
ATOM     69  N   UNL A   1      41.519  29.907  34.311  1.00  0.00    -0.354 N 
ATOM     70  N   UNL A   1      39.356  30.795  32.536  1.00  0.00    -0.248 NA
ATOM     71  C   UNL A   1      37.366  31.967  32.177  1.00  0.00     0.031 C 
ATOM     72  C   UNL A   1      41.513  30.629  36.411  1.00  0.00     0.029 A 
ATOM     73  C   UNL A   1      40.818  30.689  35.215  1.00  0.00     0.049 A 
ATOM     74  H   UNL A   1      41.256  29.754  33.374  1.00  0.00     0.167 HD
ATOM     75  C   UNL A   1      38.981  31.423  33.715  1.00  0.00     0.074 A 
ATOM     76  C   UNL A   1      37.758  32.148  33.432  1.00  0.00     0.031 C 
ATOM     77  C   UNL A   1      39.603  31.407  34.919  1.00  0.00     0.037 A 
BRANCH  64  78
ATOM     78  C   UNL A   1      44.748  27.981  35.075  1.00  0.00     0.057 A 
ATOM     79  C   UNL A   1      44.648  26.781  35.788  1.00  0.00     0.134 A 
ATOM     80  C   UNL A   1      45.959  28.682  35.156  1.00  0.00     0.134 A 
ATOM     81  F   UNL A   1      43.516  26.061  35.759  1.00  0.00    -0.206 F 
ATOM     82  C   UNL A   1      45.712  26.296  36.553  1.00  0.00     0.040 A 
ATOM     83  C   UNL A   1      47.038  28.195  35.895  1.00  0.00     0.040 A 
ATOM     84  F   UNL A   1      46.124  29.832  34.485  1.00  0.00    -0.206 F 
ATOM     85  C   UNL A   1      46.913  27.001  36.602  1.00  0.00     0.006 A 
ENDBRANCH  64  78
BRANCH  65  86
ATOM     86  C   UNL A   1      37.271  31.234  29.332  1.00  0.00     0.057 A 
ATOM     87  C   UNL A   1      37.278  32.527  28.796  1.00  0.00     0.134 A 
ATOM     88  C   UNL A   1      36.152  30.433  29.078  1.00  0.00     0.134 A 
ATOM     89  F   UNL A   1      38.318  33.345  29.015  1.00  0.00    -0.206 F 
ATOM     90  C   UNL A   1      36.201  33.015  28.054  1.00  0.00     0.040 A 
ATOM     91  C   UNL A   1      35.076  30.902  28.323  1.00  0.00     0.040 A 
ATOM     92  F   UNL A   1      36.095  29.183  29.558  1.00  0.00    -0.206 F 
ATOM     93  C   UNL A   1      35.095  32.200  27.817  1.00  0.00     0.006 A 
ENDBRANCH  65  86
BRANCH  77  94
ATOM     94  C   UNL A   1      38.991  32.217  36.021  1.00  0.00     0.057 A 
ATOM     95  C   UNL A   1      39.324  33.569  36.179  1.00  0.00     0.134 A 
ATOM     96  C   UNL A   1      38.128  31.647  36.964  1.00  0.00     0.134 A 
ATOM     97  F   UNL A   1      40.152  34.172  35.313  1.00  0.00    -0.206 F 
ATOM     98  C   UNL A   1      38.828  34.323  37.244  1.00  0.00     0.040 A 
ATOM     99  C   UNL A   1      37.608  32.396  38.021  1.00  0.00     0.040 A 
ATOM    100  F   UNL A   1      37.762  30.360  36.861  1.00  0.00    -0.206 F 
ATOM    101  C   UNL A   1      37.966  33.736  38.167  1.00  0.00     0.006 A 
ENDBRANCH  77  94
ENDBRANCH  51  52
ENDBRANCH  43  46
ENDBRANCH  41  42
ENDBRANCH  40  41
ENDBRANCH   1  40
TORSDOF 16
ENDMDL
MODEL 2
REMARK VINA RESULT:     -12.6      0.425      5.793
REMARK SMILES CC1CC[NH+]([C@H](c2ccc(F)cc2)c2ccc([C@@H](C)C(=O)NCCCNC(=O)c3ccc(-c4c5nc(c(-c6c(F)cccc6F)c6ccc([nH]6)c(-c6c(F)cccc6F)c6nc(c(-c7c(F)cccc7F)c7ccc4[nH]7)C=C6)C=C5)cc3)cc2-c2ccc(C(F)(F)F)cc2)CC1
REMARK SMILES IDX 23 1 22 2 20 3 21 4 18 6 19 7 17 8 14 9 15 10 84 11 16 12
REMARK SMILES IDX 83 13 6 14 5 15 1 16 2 17 3 18 96 19 4 20 95 21 7 23 8 24
REMARK SMILES IDX 13 25 9 26 12 27 10 28 11 29 85 30 86 31 94 32 87 33 93 34
REMARK SMILES IDX 88 35 89 36 90 37 91 38 92 39 24 40 25 41 26 42 27 43 28 45
REMARK SMILES IDX 29 46 30 47 82 48 31 49 81 50 32 51 33 52 34 53 75 54 35 55
REMARK SMILES IDX 80 56 74 57 76 58 36 59 79 60 73 61 72 62 37 64 63 65 46 66
REMARK SMILES IDX 62 67 47 68 50 69 61 70 77 71 48 72 49 73 60 75 78 76 51 77
REMARK SMILES IDX 38 78 39 79 44 80 40 81 41 82 43 83 45 84 42 85 64 86 65 87
REMARK SMILES IDX 70 88 66 89 67 90 69 91 71 92 68 93 52 94 53 95 58 96 54 97
REMARK SMILES IDX 55 98 57 99 59 100 56 101
REMARK H PARENT 22 5 5 22 26 44 76 63 50 74
REMARK Flexibility Score: inf
ROOT
ATOM      1  C   UNL A   1      41.892  21.918  27.355  1.00  0.00     0.117 C 
ENDROOT
BRANCH   1   2
ATOM      2  N   UNL A   1      40.968  21.035  26.667  1.00  0.00    -0.356 N 
ATOM      3  C   UNL A   1      39.760  21.233  26.069  1.00  0.00     0.227 C 
ATOM      4  O   UNL A   1      39.217  20.216  25.615  1.00  0.00    -0.274 OA
ATOM      5  H   UNL A   1      41.277  20.102  26.624  1.00  0.00     0.163 HD
BRANCH   3   6
ATOM      6  C   UNL A   1      39.050  22.595  25.934  1.00  0.00     0.105 C 
ATOM      7  C   UNL A   1      39.467  23.636  26.971  1.00  0.00     0.023 C 
BRANCH   6   8
ATOM      8  C   UNL A   1      37.554  22.467  25.716  1.00  0.00    -0.035 A 
ATOM      9  C   UNL A   1      34.825  22.054  24.937  1.00  0.00     0.022 A 
ATOM     10  C   UNL A   1      35.555  21.114  25.685  1.00  0.00     0.011 A 
ATOM     11  C   UNL A   1      35.449  23.316  24.735  1.00  0.00    -0.009 A 
ATOM     12  C   UNL A   1      36.854  21.347  26.128  1.00  0.00     0.005 A 
ATOM     13  C   UNL A   1      36.823  23.465  25.058  1.00  0.00     0.013 A 
BRANCH   9  14
ATOM     14  C   UNL A   1      33.386  21.730  24.428  1.00  0.00     0.247 C 
BRANCH  14  15
ATOM     15  N   UNL A   1      32.241  22.491  25.029  1.00  0.00    -0.325 N 
ATOM     16  C   UNL A   1      30.271  26.217  26.285  1.00  0.00     0.008 C 
ATOM     17  C   UNL A   1      31.177  25.106  25.775  1.00  0.00    -0.003 C 
ATOM     18  C   UNL A   1      30.549  24.356  24.604  1.00  0.00     0.065 C 
ATOM     19  C   UNL A   1      31.470  24.073  26.858  1.00  0.00     0.065 C 
ATOM     20  C   UNL A   1      31.483  23.274  24.050  1.00  0.00     0.263 C 
ATOM     21  C   UNL A   1      32.500  23.062  26.354  1.00  0.00     0.263 C 
ATOM     22  H   UNL A   1      31.543  21.800  25.304  1.00  0.00     0.348 HD
ENDBRANCH  14  15
BRANCH  14  23
ATOM     23  C   UNL A   1      33.056  20.224  24.398  1.00  0.00     0.014 A 
ATOM     24  C   UNL A   1      32.800  19.537  23.194  1.00  0.00     0.013 A 
ATOM     25  C   UNL A   1      33.003  19.500  25.605  1.00  0.00     0.013 A 
ATOM     26  C   UNL A   1      32.501  18.173  23.200  1.00  0.00     0.040 A 
ATOM     27  C   UNL A   1      32.679  18.141  25.610  1.00  0.00     0.040 A 
ATOM     28  C   UNL A   1      32.435  17.492  24.409  1.00  0.00     0.123 A 
ATOM     29  F   UNL A   1      32.131  16.186  24.414  1.00  0.00    -0.207 F 
ENDBRANCH  14  23
ENDBRANCH   9  14
BRANCH  11  30
ATOM     30  C   UNL A   1      34.721  24.516  24.277  1.00  0.00    -0.018 A 
ATOM     31  C   UNL A   1      34.290  24.660  22.951  1.00  0.00     0.009 A 
ATOM     32  C   UNL A   1      34.490  25.581  25.166  1.00  0.00     0.009 A 
ATOM     33  C   UNL A   1      33.618  25.814  22.536  1.00  0.00     0.014 A 
ATOM     34  C   UNL A   1      33.811  26.731  24.758  1.00  0.00     0.014 A 
ATOM     35  C   UNL A   1      33.359  26.857  23.439  1.00  0.00     0.056 A 
BRANCH  35  36
ATOM     36  C   UNL A   1      32.634  28.098  22.984  1.00  0.00     0.416 C 
ATOM     37  F   UNL A   1      32.663  29.089  23.918  1.00  0.00    -0.166 F 
ATOM     38  F   UNL A   1      33.164  28.635  21.851  1.00  0.00    -0.166 F 
ATOM     39  F   UNL A   1      31.315  27.885  22.711  1.00  0.00    -0.166 F 
ENDBRANCH  35  36
ENDBRANCH  11  30
ENDBRANCH   6   8
ENDBRANCH   3   6
ENDBRANCH   1   2
BRANCH   1  40
ATOM     40  C   UNL A   1      43.119  22.258  26.507  1.00  0.00     0.042 C 
BRANCH  40  41
ATOM     41  C   UNL A   1      42.855  23.200  25.342  1.00  0.00     0.118 C 
BRANCH  41  42
ATOM     42  N   UNL A   1      44.035  23.964  24.971  1.00  0.00    -0.352 N 
ATOM     43  C   UNL A   1      44.481  25.198  25.376  1.00  0.00     0.251 C 
ATOM     44  H   UNL A   1      44.617  23.519  24.312  1.00  0.00     0.163 HD
ATOM     45  O   UNL A   1      45.417  25.711  24.767  1.00  0.00    -0.269 OA
BRANCH  43  46
ATOM     46  C   UNL A   1      43.867  25.929  26.514  1.00  0.00     0.039 A 
ATOM     47  C   UNL A   1      44.262  27.255  26.738  1.00  0.00     0.014 A 
ATOM     48  C   UNL A   1      42.987  25.321  27.413  1.00  0.00     0.014 A 
ATOM     49  C   UNL A   1      43.755  27.971  27.829  1.00  0.00     0.010 A 
ATOM     50  C   UNL A   1      42.416  26.060  28.450  1.00  0.00     0.010 A 
ATOM     51  C   UNL A   1      42.809  27.386  28.683  1.00  0.00    -0.014 A 
BRANCH  51  52
ATOM     52  C   UNL A   1      42.247  28.126  29.843  1.00  0.00     0.031 A 
ATOM     53  C   UNL A   1      40.984  28.926  29.691  1.00  0.00     0.074 A 
ATOM     54  C   UNL A   1      42.896  28.126  31.023  1.00  0.00     0.049 A 
ATOM     55  N   UNL A   1      40.381  29.692  30.565  1.00  0.00    -0.248 NA
ATOM     56  C   UNL A   1      40.321  28.876  28.378  1.00  0.00     0.031 C 
ATOM     57  C   UNL A   1      44.135  27.404  31.295  1.00  0.00     0.029 A 
ATOM     58  N   UNL A   1      42.614  28.758  32.207  1.00  0.00    -0.354 N 
ATOM     59  C   UNL A   1      39.272  30.209  29.911  1.00  0.00     0.074 A 
ATOM     60  C   UNL A   1      39.321  29.729  28.547  1.00  0.00     0.031 C 
ATOM     61  C   UNL A   1      44.509  27.624  32.563  1.00  0.00     0.029 A 
ATOM     62  C   UNL A   1      43.546  28.525  33.189  1.00  0.00     0.049 A 
ATOM     63  H   UNL A   1      41.820  29.323  32.341  1.00  0.00     0.167 HD
ATOM     64  C   UNL A   1      38.282  30.986  30.410  1.00  0.00     0.037 A 
ATOM     65  C   UNL A   1      43.623  28.982  34.452  1.00  0.00     0.037 A 
ATOM     66  C   UNL A   1      38.222  31.449  31.771  1.00  0.00     0.049 A 
ATOM     67  C   UNL A   1      42.536  29.873  34.977  1.00  0.00     0.074 A 
ATOM     68  C   UNL A   1      37.239  32.206  32.383  1.00  0.00     0.029 A 
ATOM     69  N   UNL A   1      39.188  31.196  32.734  1.00  0.00    -0.354 N 
ATOM     70  N   UNL A   1      41.471  30.320  34.359  1.00  0.00    -0.248 NA
ATOM     71  C   UNL A   1      42.651  30.308  36.376  1.00  0.00     0.031 C 
ATOM     72  C   UNL A   1      37.627  32.440  33.706  1.00  0.00     0.029 A 
ATOM     73  C   UNL A   1      38.831  31.794  33.931  1.00  0.00     0.049 A 
ATOM     74  H   UNL A   1      40.008  30.670  32.588  1.00  0.00     0.167 HD
ATOM     75  C   UNL A   1      40.771  31.065  35.297  1.00  0.00     0.074 A 
ATOM     76  C   UNL A   1      41.534  31.008  36.528  1.00  0.00     0.031 C 
ATOM     77  C   UNL A   1      39.598  31.727  35.151  1.00  0.00     0.037 A 
BRANCH  64  78
ATOM     78  C   UNL A   1      37.170  31.365  29.475  1.00  0.00     0.057 A 
ATOM     79  C   UNL A   1      37.142  32.622  28.860  1.00  0.00     0.134 A 
ATOM     80  C   UNL A   1      36.112  30.487  29.201  1.00  0.00     0.134 A 
ATOM     81  F   UNL A   1      38.121  33.513  29.082  1.00  0.00    -0.206 F 
ATOM     82  C   UNL A   1      36.102  32.992  28.004  1.00  0.00     0.040 A 
ATOM     83  C   UNL A   1      35.081  30.836  28.327  1.00  0.00     0.040 A 
ATOM     84  F   UNL A   1      36.086  29.263  29.748  1.00  0.00    -0.206 F 
ATOM     85  C   UNL A   1      35.072  32.095  27.730  1.00  0.00     0.006 A 
ENDBRANCH  64  78
BRANCH  65  86
ATOM     86  C   UNL A   1      44.749  28.546  35.312  1.00  0.00     0.057 A 
ATOM     87  C   UNL A   1      44.661  27.398  36.108  1.00  0.00     0.134 A 
ATOM     88  C   UNL A   1      45.915  29.312  35.407  1.00  0.00     0.134 A 
ATOM     89  F   UNL A   1      43.563  26.629  36.070  1.00  0.00    -0.206 F 
ATOM     90  C   UNL A   1      45.686  27.038  36.985  1.00  0.00     0.040 A 
ATOM     91  C   UNL A   1      46.956  28.955  36.267  1.00  0.00     0.040 A 
ATOM     92  F   UNL A   1      46.059  30.417  34.661  1.00  0.00    -0.206 F 
ATOM     93  C   UNL A   1      46.838  27.819  37.066  1.00  0.00     0.006 A 
ENDBRANCH  65  86
BRANCH  77  94
ATOM     94  C   UNL A   1      39.045  32.424  36.356  1.00  0.00     0.057 A 
ATOM     95  C   UNL A   1      38.115  31.781  37.185  1.00  0.00     0.134 A 
ATOM     96  C   UNL A   1      39.378  33.749  36.660  1.00  0.00     0.134 A 
ATOM     97  F   UNL A   1      37.749  30.513  36.942  1.00  0.00    -0.206 F 
ATOM     98  C   UNL A   1      37.528  32.437  38.267  1.00  0.00     0.040 A 
ATOM     99  C   UNL A   1      38.813  34.409  37.753  1.00  0.00     0.040 A 
ATOM    100  F   UNL A   1      40.271  34.414  35.911  1.00  0.00    -0.206 F 
ATOM    101  C   UNL A   1      37.878  33.755  38.554  1.00  0.00     0.006 A 
ENDBRANCH  77  94
ENDBRANCH  51  52
ENDBRANCH  43  46
ENDBRANCH  41  42
ENDBRANCH  40  41
ENDBRANCH   1  40
TORSDOF 16
ENDMDL
MODEL 3
REMARK VINA RESULT:     -12.5      6.170     10.284
REMARK SMILES CC1CC[NH+]([C@H](c2ccc(F)cc2)c2ccc([C@@H](C)C(=O)NCCCNC(=O)c3ccc(-c4c5nc(c(-c6c(F)cccc6F)c6ccc([nH]6)c(-c6c(F)cccc6F)c6nc(c(-c7c(F)cccc7F)c7ccc4[nH]7)C=C6)C=C5)cc3)cc2-c2ccc(C(F)(F)F)cc2)CC1
REMARK SMILES IDX 23 1 22 2 20 3 21 4 18 6 19 7 17 8 14 9 15 10 84 11 16 12
REMARK SMILES IDX 83 13 6 14 5 15 1 16 2 17 3 18 96 19 4 20 95 21 7 23 8 24
REMARK SMILES IDX 13 25 9 26 12 27 10 28 11 29 85 30 86 31 94 32 87 33 93 34
REMARK SMILES IDX 88 35 89 36 90 37 91 38 92 39 24 40 25 41 26 42 27 43 28 45
REMARK SMILES IDX 29 46 30 47 82 48 31 49 81 50 32 51 33 52 34 53 75 54 35 55
REMARK SMILES IDX 80 56 74 57 76 58 36 59 79 60 73 61 72 62 37 64 63 65 46 66
REMARK SMILES IDX 62 67 47 68 50 69 61 70 77 71 48 72 49 73 60 75 78 76 51 77
REMARK SMILES IDX 38 78 39 79 44 80 40 81 41 82 43 83 45 84 42 85 64 86 65 87
REMARK SMILES IDX 70 88 66 89 67 90 69 91 71 92 68 93 52 94 53 95 58 96 54 97
REMARK SMILES IDX 55 98 57 99 59 100 56 101
REMARK H PARENT 22 5 5 22 26 44 76 63 50 74
REMARK Flexibility Score: inf
ROOT
ATOM      1  C   UNL A   1      50.807  28.528  30.265  1.00  0.00     0.117 C 
ENDROOT
BRANCH   1   2
ATOM      2  N   UNL A   1      50.724  27.118  29.931  1.00  0.00    -0.356 N 
ATOM      3  C   UNL A   1      49.771  26.166  30.136  1.00  0.00     0.227 C 
ATOM      4  O   UNL A   1      50.065  25.025  29.751  1.00  0.00    -0.274 OA
ATOM      5  H   UNL A   1      51.518  26.779  29.458  1.00  0.00     0.163 HD
BRANCH   3   6
ATOM      6  C   UNL A   1      48.401  26.412  30.801  1.00  0.00     0.105 C 
ATOM      7  C   UNL A   1      48.136  25.567  32.046  1.00  0.00     0.023 C 
BRANCH   6   8
ATOM      8  C   UNL A   1      47.257  26.466  29.804  1.00  0.00    -0.035 A 
ATOM      9  C   UNL A   1      45.380  26.460  27.636  1.00  0.00     0.022 A 
ATOM     10  C   UNL A   1      45.617  25.334  28.443  1.00  0.00     0.011 A 
ATOM     11  C   UNL A   1      45.988  27.674  28.060  1.00  0.00    -0.009 A 
ATOM     12  C   UNL A   1      46.471  25.359  29.542  1.00  0.00     0.005 A 
ATOM     13  C   UNL A   1      46.971  27.633  29.083  1.00  0.00     0.013 A 
BRANCH   9  14
ATOM     14  C   UNL A   1      44.446  26.371  26.390  1.00  0.00     0.247 C 
BRANCH  14  15
ATOM     15  N   UNL A   1      42.991  26.683  26.580  1.00  0.00    -0.325 N 
ATOM     16  C   UNL A   1      39.707  29.214  28.047  1.00  0.00     0.008 C 
ATOM     17  C   UNL A   1      41.017  28.541  27.666  1.00  0.00    -0.003 C 
ATOM     18  C   UNL A   1      41.177  28.428  26.152  1.00  0.00     0.065 C 
ATOM     19  C   UNL A   1      41.112  27.127  28.228  1.00  0.00     0.065 C 
ATOM     20  C   UNL A   1      42.522  27.805  25.763  1.00  0.00     0.263 C 
ATOM     21  C   UNL A   1      42.499  26.546  27.954  1.00  0.00     0.263 C 
ATOM     22  H   UNL A   1      42.470  25.911  26.163  1.00  0.00     0.348 HD
ENDBRANCH  14  15
BRANCH  14  23
ATOM     23  C   UNL A   1      44.601  25.068  25.581  1.00  0.00     0.014 A 
ATOM     24  C   UNL A   1      45.836  24.672  25.027  1.00  0.00     0.013 A 
ATOM     25  C   UNL A   1      43.482  24.237  25.381  1.00  0.00     0.013 A 
ATOM     26  C   UNL A   1      45.944  23.487  24.297  1.00  0.00     0.040 A 
ATOM     27  C   UNL A   1      43.587  23.064  24.628  1.00  0.00     0.040 A 
ATOM     28  C   UNL A   1      44.816  22.700  24.098  1.00  0.00     0.123 A 
ATOM     29  F   UNL A   1      44.918  21.571  23.383  1.00  0.00    -0.207 F 
ENDBRANCH  14  23
ENDBRANCH   9  14
BRANCH  11  30
ATOM     30  C   UNL A   1      45.592  29.001  27.548  1.00  0.00    -0.018 A 
ATOM     31  C   UNL A   1      44.400  29.622  27.946  1.00  0.00     0.009 A 
ATOM     32  C   UNL A   1      46.390  29.654  26.592  1.00  0.00     0.009 A 
ATOM     33  C   UNL A   1      44.036  30.872  27.434  1.00  0.00     0.014 A 
ATOM     34  C   UNL A   1      46.036  30.906  26.085  1.00  0.00     0.014 A 
ATOM     35  C   UNL A   1      44.857  31.534  26.508  1.00  0.00     0.056 A 
BRANCH  35  36
ATOM     36  C   UNL A   1      44.458  32.881  25.960  1.00  0.00     0.416 C 
ATOM     37  F   UNL A   1      45.508  33.746  25.892  1.00  0.00    -0.166 F 
ATOM     38  F   UNL A   1      43.949  32.809  24.699  1.00  0.00    -0.166 F 
ATOM     39  F   UNL A   1      43.507  33.510  26.708  1.00  0.00    -0.166 F 
ENDBRANCH  35  36
ENDBRANCH  11  30
ENDBRANCH   6   8
ENDBRANCH   3   6
ENDBRANCH   1   2
BRANCH   1  40
ATOM     40  C   UNL A   1      52.230  29.076  30.142  1.00  0.00     0.042 C 
BRANCH  40  41
ATOM     41  C   UNL A   1      52.517  29.840  28.858  1.00  0.00     0.118 C 
BRANCH  41  42
ATOM     42  N   UNL A   1      52.928  31.211  29.111  1.00  0.00    -0.352 N 
ATOM     43  C   UNL A   1      52.195  32.357  29.295  1.00  0.00     0.251 C 
ATOM     44  H   UNL A   1      53.903  31.341  29.158  1.00  0.00     0.163 HD
ATOM     45  O   UNL A   1      52.787  33.435  29.303  1.00  0.00    -0.269 OA
BRANCH  43  46
ATOM     46  C   UNL A   1      50.721  32.338  29.475  1.00  0.00     0.039 A 
ATOM     47  C   UNL A   1      50.198  32.790  30.694  1.00  0.00     0.014 A 
ATOM     48  C   UNL A   1      49.852  31.808  28.518  1.00  0.00     0.014 A 
ATOM     49  C   UNL A   1      48.820  32.741  30.935  1.00  0.00     0.010 A 
ATOM     50  C   UNL A   1      48.473  31.839  28.723  1.00  0.00     0.010 A 
ATOM     51  C   UNL A   1      47.942  32.285  29.942  1.00  0.00    -0.014 A 
BRANCH  51  52
ATOM     52  C   UNL A   1      46.474  32.232  30.168  1.00  0.00     0.031 A 
ATOM     53  C   UNL A   1      45.600  33.378  29.742  1.00  0.00     0.074 A 
ATOM     54  C   UNL A   1      45.926  31.178  30.803  1.00  0.00     0.049 A 
ATOM     55  N   UNL A   1      44.313  33.544  29.916  1.00  0.00    -0.248 NA
ATOM     56  C   UNL A   1      46.261  34.493  29.046  1.00  0.00     0.031 C 
ATOM     57  C   UNL A   1      46.665  30.013  31.279  1.00  0.00     0.029 A 
ATOM     58  N   UNL A   1      44.629  30.920  31.168  1.00  0.00    -0.354 N 
ATOM     59  C   UNL A   1      44.013  34.776  29.352  1.00  0.00     0.074 A 
ATOM     60  C   UNL A   1      45.260  35.347  28.892  1.00  0.00     0.031 C 
ATOM     61  C   UNL A   1      45.817  29.158  31.868  1.00  0.00     0.029 A 
ATOM     62  C   UNL A   1      44.473  29.728  31.833  1.00  0.00     0.049 A 
ATOM     63  H   UNL A   1      43.882  31.529  30.971  1.00  0.00     0.167 HD
ATOM     64  C   UNL A   1      42.803  35.364  29.198  1.00  0.00     0.037 A 
ATOM     65  C   UNL A   1      43.376  29.153  32.358  1.00  0.00     0.037 A 
ATOM     66  C   UNL A   1      41.560  34.788  29.639  1.00  0.00     0.049 A 
ATOM     67  C   UNL A   1      42.048  29.836  32.212  1.00  0.00     0.074 A 
ATOM     68  C   UNL A   1      40.278  35.287  29.492  1.00  0.00     0.029 A 
ATOM     69  N   UNL A   1      41.445  33.582  30.313  1.00  0.00    -0.354 N 
ATOM     70  N   UNL A   1      41.774  30.982  31.637  1.00  0.00    -0.248 NA
ATOM     71  C   UNL A   1      40.878  29.143  32.767  1.00  0.00     0.031 C 
ATOM     72  C   UNL A   1      39.390  34.399  30.108  1.00  0.00     0.029 A 
ATOM     73  C   UNL A   1      40.114  33.326  30.601  1.00  0.00     0.049 A 
ATOM     74  H   UNL A   1      42.197  32.993  30.553  1.00  0.00     0.167 HD
ATOM     75  C   UNL A   1      40.399  31.137  31.735  1.00  0.00     0.074 A 
ATOM     76  C   UNL A   1      39.895  29.965  32.424  1.00  0.00     0.031 C 
ATOM     77  C   UNL A   1      39.625  32.154  31.285  1.00  0.00     0.037 A 
BRANCH  64  78
ATOM     78  C   UNL A   1      42.770  36.694  28.503  1.00  0.00     0.057 A 
ATOM     79  C   UNL A   1      43.136  37.867  29.173  1.00  0.00     0.134 A 
ATOM     80  C   UNL A   1      42.352  36.814  27.170  1.00  0.00     0.134 A 
ATOM     81  F   UNL A   1      43.540  37.825  30.452  1.00  0.00    -0.206 F 
ATOM     82  C   UNL A   1      43.089  39.112  28.542  1.00  0.00     0.040 A 
ATOM     83  C   UNL A   1      42.327  38.049  26.520  1.00  0.00     0.040 A 
ATOM     84  F   UNL A   1      42.002  35.727  26.468  1.00  0.00    -0.206 F 
ATOM     85  C   UNL A   1      42.691  39.204  27.209  1.00  0.00     0.006 A 
ENDBRANCH  64  78
BRANCH  65  86
ATOM     86  C   UNL A   1      43.496  27.830  33.016  1.00  0.00     0.057 A 
ATOM     87  C   UNL A   1      43.436  27.696  34.408  1.00  0.00     0.134 A 
ATOM     88  C   UNL A   1      43.744  26.676  32.264  1.00  0.00     0.134 A 
ATOM     89  F   UNL A   1      43.214  28.768  35.182  1.00  0.00    -0.206 F 
ATOM     90  C   UNL A   1      43.640  26.464  35.032  1.00  0.00     0.040 A 
ATOM     91  C   UNL A   1      43.931  25.434  32.874  1.00  0.00     0.040 A 
ATOM     92  F   UNL A   1      43.801  26.742  30.926  1.00  0.00    -0.206 F 
ATOM     93  C   UNL A   1      43.889  25.328  34.263  1.00  0.00     0.006 A 
ENDBRANCH  65  86
BRANCH  77  94
ATOM     94  C   UNL A   1      38.146  32.041  31.495  1.00  0.00     0.057 A 
ATOM     95  C   UNL A   1      37.306  31.648  30.444  1.00  0.00     0.134 A 
ATOM     96  C   UNL A   1      37.545  32.382  32.712  1.00  0.00     0.134 A 
ATOM     97  F   UNL A   1      37.821  31.315  29.249  1.00  0.00    -0.206 F 
ATOM     98  C   UNL A   1      35.920  31.611  30.593  1.00  0.00     0.040 A 
ATOM     99  C   UNL A   1      36.160  32.328  32.880  1.00  0.00     0.040 A 
ATOM    100  F   UNL A   1      38.295  32.754  33.760  1.00  0.00    -0.206 F 
ATOM    101  C   UNL A   1      35.344  31.950  31.815  1.00  0.00     0.006 A 
ENDBRANCH  77  94
ENDBRANCH  51  52
ENDBRANCH  43  46
ENDBRANCH  41  42
ENDBRANCH  40  41
ENDBRANCH   1  40
TORSDOF 16
ENDMDL
