MODEL 1
REMARK VINA RESULT:     -11.5      0.000      0.000
REMARK SMILES C#Cc1ccc2c(c1)C=C(C(=O)NCCCNC(=O)c1ccc(-c3c4nc(c(-c5c(F)cccc5F)c5ccc([nH]5)c(-c5c(F)cccc5F)c5nc(c(-c6c(F)cccc6F)c6ccc3[nH]6)C=C5)C=C4)cc1)[C@@H](C(F)(F)F)O2
REMARK SMILES IDX 15 1 14 2 13 3 11 4 12 5 10 7 3 8 4 9 8 10 5 11 7 12 6 13
REMARK SMILES IDX 9 14 79 15 74 16 2 17 1 18 75 19 76 20 77 21 78 22 16 23
REMARK SMILES IDX 17 24 18 25 19 27 20 28 21 29 73 30 22 31 72 32 23 33 24 34
REMARK SMILES IDX 25 35 66 36 26 37 71 38 65 39 67 40 27 41 70 42 64 43 63 44
REMARK SMILES IDX 28 46 54 47 37 48 53 49 38 50 41 51 52 52 68 53 39 54 40 55
REMARK SMILES IDX 51 57 69 58 42 59 29 60 30 61 35 62 31 63 32 64 34 65 36 66
REMARK SMILES IDX 33 67 55 68 56 69 61 70 57 71 58 72 60 73 62 74 59 75 43 76
REMARK SMILES IDX 44 77 49 78 45 79 46 80 48 81 50 82 47 83
REMARK H PARENT 13 6 17 26 67 45 41 56
REMARK Flexibility Score: inf
ROOT
ATOM      1  C   UNL A   1      33.878  28.878  25.815  1.00  0.00     0.042 C 
ENDROOT
BRANCH   1   2
ATOM      2  C   UNL A   1      32.566  28.947  25.060  1.00  0.00     0.118 C 
BRANCH   2   3
ATOM      3  N   UNL A   1      31.641  27.906  25.483  1.00  0.00    -0.352 N 
ATOM      4  C   UNL A   1      31.573  26.555  25.424  1.00  0.00     0.251 C 
ATOM      5  O   UNL A   1      30.577  26.051  25.951  1.00  0.00    -0.270 OA
ATOM      6  H   UNL A   1      30.853  28.287  25.934  1.00  0.00     0.163 HD
BRANCH   4   7
ATOM      7  C   UNL A   1      32.595  25.683  24.777  1.00  0.00     0.067 C 
ATOM      8  C   UNL A   1      36.755  23.241  25.065  1.00  0.00     0.025 A 
ATOM      9  C   UNL A   1      36.516  22.690  23.804  1.00  0.00     0.021 A 
ATOM     10  C   UNL A   1      35.821  24.107  25.646  1.00  0.00     0.029 A 
ATOM     11  C   UNL A   1      35.344  23.000  23.122  1.00  0.00     0.048 A 
ATOM     12  C   UNL A   1      34.644  24.424  24.960  1.00  0.00     0.018 A 
ATOM     13  C   UNL A   1      34.421  23.866  23.699  1.00  0.00     0.128 A 
ATOM     14  C   UNL A   1      33.623  25.284  25.549  1.00  0.00     0.025 C 
ATOM     15  O   UNL A   1      33.286  24.089  22.979  1.00  0.00    -0.475 OA
ATOM     16  C   UNL A   1      32.527  25.269  23.336  1.00  0.00     0.314 C 
BRANCH   8  17
ATOM     17  C   UNL A   1      37.954  22.897  25.761  1.00  0.00    -0.070 C 
ATOM     18  C   UNL A   1      38.980  22.631  26.329  1.00  0.00     0.010 C 
ENDBRANCH   8  17
BRANCH  16  19
ATOM     19  C   UNL A   1      32.895  26.418  22.374  1.00  0.00     0.429 C 
ATOM     20  F   UNL A   1      33.959  27.109  22.854  1.00  0.00    -0.167 F 
ATOM     21  F   UNL A   1      33.250  25.980  21.142  1.00  0.00    -0.167 F 
ATOM     22  F   UNL A   1      31.885  27.297  22.196  1.00  0.00    -0.167 F 
ENDBRANCH  16  19
ENDBRANCH   4   7
ENDBRANCH   2   3
ENDBRANCH   1   2
BRANCH   1  23
ATOM     23  C   UNL A   1      33.654  28.877  27.316  1.00  0.00     0.118 C 
BRANCH  23  24
ATOM     24  N   UNL A   1      33.795  30.214  27.898  1.00  0.00    -0.352 N 
ATOM     25  C   UNL A   1      34.850  30.794  28.561  1.00  0.00     0.251 C 
ATOM     26  H   UNL A   1      33.004  30.793  27.797  1.00  0.00     0.163 HD
ATOM     27  O   UNL A   1      34.695  31.846  29.172  1.00  0.00    -0.269 OA
BRANCH  25  28
ATOM     28  C   UNL A   1      36.160  30.119  28.553  1.00  0.00     0.039 A 
ATOM     29  C   UNL A   1      36.588  29.449  29.695  1.00  0.00     0.014 A 
ATOM     30  C   UNL A   1      36.990  30.213  27.434  1.00  0.00     0.014 A 
ATOM     31  C   UNL A   1      37.927  29.129  29.825  1.00  0.00     0.010 A 
ATOM     32  C   UNL A   1      38.300  29.735  27.513  1.00  0.00     0.010 A 
ATOM     33  C   UNL A   1      38.800  29.258  28.734  1.00  0.00    -0.014 A 
BRANCH  33  34
ATOM     34  C   UNL A   1      40.228  28.894  28.922  1.00  0.00     0.031 A 
ATOM     35  C   UNL A   1      41.175  29.814  29.645  1.00  0.00     0.074 A 
ATOM     36  C   UNL A   1      40.647  27.683  28.509  1.00  0.00     0.049 A 
ATOM     37  N   UNL A   1      42.442  29.638  29.926  1.00  0.00    -0.248 NA
ATOM     38  C   UNL A   1      40.638  31.104  30.107  1.00  0.00     0.031 C 
ATOM     39  C   UNL A   1      39.818  26.692  27.816  1.00  0.00     0.029 A 
ATOM     40  N   UNL A   1      41.861  27.061  28.640  1.00  0.00    -0.354 N 
ATOM     41  C   UNL A   1      42.856  30.796  30.573  1.00  0.00     0.074 A 
ATOM     42  C   UNL A   1      41.718  31.686  30.608  1.00  0.00     0.031 C 
ATOM     43  C   UNL A   1      40.524  25.567  27.645  1.00  0.00     0.029 A 
ATOM     44  C   UNL A   1      41.880  25.787  28.127  1.00  0.00     0.049 A 
ATOM     45  H   UNL A   1      42.643  27.486  29.061  1.00  0.00     0.167 HD
ATOM     46  C   UNL A   1      44.071  31.085  31.100  1.00  0.00     0.037 A 
ATOM     47  C   UNL A   1      42.887  24.903  28.024  1.00  0.00     0.037 A 
ATOM     48  C   UNL A   1      45.203  30.193  31.061  1.00  0.00     0.049 A 
ATOM     49  C   UNL A   1      44.241  25.286  28.543  1.00  0.00     0.074 A 
ATOM     50  C   UNL A   1      46.473  30.388  31.577  1.00  0.00     0.029 A 
ATOM     51  N   UNL A   1      45.205  28.943  30.460  1.00  0.00    -0.354 N 
ATOM     52  N   UNL A   1      44.614  26.379  29.165  1.00  0.00    -0.248 NA
ATOM     53  C   UNL A   1      45.317  24.311  28.340  1.00  0.00     0.031 C 
ATOM     54  C   UNL A   1      47.262  29.287  31.223  1.00  0.00     0.029 A 
ATOM     55  C   UNL A   1      46.463  28.370  30.561  1.00  0.00     0.049 A 
ATOM     56  H   UNL A   1      44.427  28.524  30.026  1.00  0.00     0.167 HD
ATOM     57  C   UNL A   1      45.963  26.212  29.449  1.00  0.00     0.074 A 
ATOM     58  C   UNL A   1      46.329  24.898  28.959  1.00  0.00     0.031 C 
ATOM     59  C   UNL A   1      46.820  27.066  30.060  1.00  0.00     0.037 A 
BRANCH  46  60
ATOM     60  C   UNL A   1      44.249  32.441  31.727  1.00  0.00     0.057 A 
ATOM     61  C   UNL A   1      44.660  33.535  30.952  1.00  0.00     0.134 A 
ATOM     62  C   UNL A   1      44.032  32.670  33.093  1.00  0.00     0.134 A 
ATOM     63  F   UNL A   1      44.898  33.389  29.639  1.00  0.00    -0.206 F 
ATOM     64  C   UNL A   1      44.844  34.801  31.508  1.00  0.00     0.040 A 
ATOM     65  C   UNL A   1      44.178  33.941  33.654  1.00  0.00     0.040 A 
ATOM     66  F   UNL A   1      43.628  31.672  33.894  1.00  0.00    -0.206 F 
ATOM     67  C   UNL A   1      44.590  35.010  32.862  1.00  0.00     0.006 A 
ENDBRANCH  46  60
BRANCH  47  68
ATOM     68  C   UNL A   1      42.662  23.587  27.374  1.00  0.00     0.057 A 
ATOM     69  C   UNL A   1      42.815  23.421  25.992  1.00  0.00     0.134 A 
ATOM     70  C   UNL A   1      42.323  22.456  28.125  1.00  0.00     0.134 A 
ATOM     71  F   UNL A   1      43.127  24.468  25.213  1.00  0.00    -0.206 F 
ATOM     72  C   UNL A   1      42.638  22.181  25.379  1.00  0.00     0.040 A 
ATOM     73  C   UNL A   1      42.180  21.201  27.530  1.00  0.00     0.040 A 
ATOM     74  F   UNL A   1      42.175  22.546  29.455  1.00  0.00    -0.206 F 
ATOM     75  C   UNL A   1      42.335  21.063  26.151  1.00  0.00     0.006 A 
ENDBRANCH  47  68
BRANCH  59  76
ATOM     76  C   UNL A   1      48.227  26.579  30.266  1.00  0.00     0.057 A 
ATOM     77  C   UNL A   1      48.568  25.858  31.418  1.00  0.00     0.134 A 
ATOM     78  C   UNL A   1      49.241  26.803  29.324  1.00  0.00     0.134 A 
ATOM     79  F   UNL A   1      47.652  25.618  32.368  1.00  0.00    -0.206 F 
ATOM     80  C   UNL A   1      49.858  25.368  31.619  1.00  0.00     0.040 A 
ATOM     81  C   UNL A   1      50.525  26.282  29.494  1.00  0.00     0.040 A 
ATOM     82  F   UNL A   1      48.982  27.476  28.192  1.00  0.00    -0.206 F 
ATOM     83  C   UNL A   1      50.837  25.564  30.647  1.00  0.00     0.006 A 
ENDBRANCH  59  76
ENDBRANCH  33  34
ENDBRANCH  25  28
ENDBRANCH  23  24
ENDBRANCH   1  23
TORSDOF 12
ENDMDL
MODEL 2
REMARK VINA RESULT:     -11.4      4.302      8.889
REMARK SMILES C#Cc1ccc2c(c1)C=C(C(=O)NCCCNC(=O)c1ccc(-c3c4nc(c(-c5c(F)cccc5F)c5ccc([nH]5)c(-c5c(F)cccc5F)c5nc(c(-c6c(F)cccc6F)c6ccc3[nH]6)C=C5)C=C4)cc1)[C@@H](C(F)(F)F)O2
REMARK SMILES IDX 15 1 14 2 13 3 11 4 12 5 10 7 3 8 4 9 8 10 5 11 7 12 6 13
REMARK SMILES IDX 9 14 79 15 74 16 2 17 1 18 75 19 76 20 77 21 78 22 16 23
REMARK SMILES IDX 17 24 18 25 19 27 20 28 21 29 73 30 22 31 72 32 23 33 24 34
REMARK SMILES IDX 25 35 66 36 26 37 71 38 65 39 67 40 27 41 70 42 64 43 63 44
REMARK SMILES IDX 28 46 54 47 37 48 53 49 38 50 41 51 52 52 68 53 39 54 40 55
REMARK SMILES IDX 51 57 69 58 42 59 29 60 30 61 35 62 31 63 32 64 34 65 36 66
REMARK SMILES IDX 33 67 55 68 56 69 61 70 57 71 58 72 60 73 62 74 59 75 43 76
REMARK SMILES IDX 44 77 49 78 45 79 46 80 48 81 50 82 47 83
REMARK H PARENT 13 6 17 26 67 45 41 56
REMARK Flexibility Score: inf
ROOT
ATOM      1  C   UNL A   1      37.771  22.491  25.593  1.00  0.00     0.042 C 
ENDROOT
BRANCH   1   2
ATOM      2  C   UNL A   1      36.262  22.560  25.718  1.00  0.00     0.118 C 
BRANCH   2   3
ATOM      3  N   UNL A   1      35.617  22.726  24.424  1.00  0.00    -0.352 N 
ATOM      4  C   UNL A   1      34.598  23.453  23.909  1.00  0.00     0.251 C 
ATOM      5  O   UNL A   1      34.392  23.298  22.702  1.00  0.00    -0.270 OA
ATOM      6  H   UNL A   1      36.035  22.156  23.738  1.00  0.00     0.163 HD
BRANCH   4   7
ATOM      7  C   UNL A   1      33.743  24.390  24.696  1.00  0.00     0.067 C 
ATOM      8  C   UNL A   1      33.151  28.698  26.801  1.00  0.00     0.025 A 
ATOM      9  C   UNL A   1      31.815  28.384  27.062  1.00  0.00     0.021 A 
ATOM     10  C   UNL A   1      33.968  27.792  26.114  1.00  0.00     0.029 A 
ATOM     11  C   UNL A   1      31.292  27.167  26.637  1.00  0.00     0.048 A 
ATOM     12  C   UNL A   1      33.446  26.566  25.689  1.00  0.00     0.018 A 
ATOM     13  C   UNL A   1      32.109  26.267  25.961  1.00  0.00     0.128 A 
ATOM     14  C   UNL A   1      34.249  25.614  24.930  1.00  0.00     0.025 C 
ATOM     15  O   UNL A   1      31.509  25.114  25.551  1.00  0.00    -0.475 OA
ATOM     16  C   UNL A   1      32.394  24.013  25.234  1.00  0.00     0.314 C 
BRANCH   8  17
ATOM     17  C   UNL A   1      33.667  29.961  27.226  1.00  0.00    -0.070 C 
ATOM     18  C   UNL A   1      34.108  31.009  27.615  1.00  0.00     0.010 C 
ENDBRANCH   8  17
BRANCH  16  19
ATOM     19  C   UNL A   1      32.486  23.070  26.452  1.00  0.00     0.429 C 
ATOM     20  F   UNL A   1      31.349  23.143  27.188  1.00  0.00    -0.167 F 
ATOM     21  F   UNL A   1      32.628  21.769  26.100  1.00  0.00    -0.167 F 
ATOM     22  F   UNL A   1      33.520  23.367  27.268  1.00  0.00    -0.167 F 
ENDBRANCH  16  19
ENDBRANCH   4   7
ENDBRANCH   2   3
ENDBRANCH   1   2
BRANCH   1  23
ATOM     23  C   UNL A   1      38.437  23.673  26.274  1.00  0.00     0.118 C 
BRANCH  23  24
ATOM     24  N   UNL A   1      39.896  23.633  26.149  1.00  0.00    -0.352 N 
ATOM     25  C   UNL A   1      40.851  24.545  26.532  1.00  0.00     0.251 C 
ATOM     26  H   UNL A   1      40.252  22.821  25.721  1.00  0.00     0.163 HD
ATOM     27  O   UNL A   1      42.007  24.434  26.137  1.00  0.00    -0.269 OA
BRANCH  25  28
ATOM     28  C   UNL A   1      40.460  25.672  27.396  1.00  0.00     0.039 A 
ATOM     29  C   UNL A   1      41.043  26.920  27.194  1.00  0.00     0.014 A 
ATOM     30  C   UNL A   1      39.568  25.470  28.450  1.00  0.00     0.014 A 
ATOM     31  C   UNL A   1      40.961  27.871  28.194  1.00  0.00     0.010 A 
ATOM     32  C   UNL A   1      39.357  26.497  29.374  1.00  0.00     0.010 A 
ATOM     33  C   UNL A   1      40.111  27.678  29.294  1.00  0.00    -0.014 A 
BRANCH  33  34
ATOM     34  C   UNL A   1      40.053  28.732  30.339  1.00  0.00     0.031 A 
ATOM     35  C   UNL A   1      39.026  29.831  30.277  1.00  0.00     0.074 A 
ATOM     36  C   UNL A   1      40.882  28.642  31.397  1.00  0.00     0.049 A 
ATOM     37  N   UNL A   1      38.814  30.810  31.121  1.00  0.00    -0.248 NA
ATOM     38  C   UNL A   1      38.124  29.843  29.114  1.00  0.00     0.031 C 
ATOM     39  C   UNL A   1      41.906  27.608  31.583  1.00  0.00     0.029 A 
ATOM     40  N   UNL A   1      40.975  29.404  32.531  1.00  0.00    -0.354 N 
ATOM     41  C   UNL A   1      37.776  31.561  30.584  1.00  0.00     0.074 A 
ATOM     42  C   UNL A   1      37.427  30.951  29.320  1.00  0.00     0.031 C 
ATOM     43  C   UNL A   1      42.473  27.761  32.786  1.00  0.00     0.029 A 
ATOM     44  C   UNL A   1      41.926  28.955  33.414  1.00  0.00     0.049 A 
ATOM     45  H   UNL A   1      40.416  30.198  32.696  1.00  0.00     0.167 HD
ATOM     46  C   UNL A   1      37.163  32.653  31.102  1.00  0.00     0.037 A 
ATOM     47  C   UNL A   1      42.337  29.466  34.587  1.00  0.00     0.037 A 
ATOM     48  C   UNL A   1      37.516  33.258  32.362  1.00  0.00     0.049 A 
ATOM     49  C   UNL A   1      41.694  30.723  35.094  1.00  0.00     0.074 A 
ATOM     50  C   UNL A   1      36.947  34.358  32.981  1.00  0.00     0.029 A 
ATOM     51  N   UNL A   1      38.539  32.820  33.190  1.00  0.00    -0.354 N 
ATOM     52  N   UNL A   1      40.705  31.415  34.581  1.00  0.00    -0.248 NA
ATOM     53  C   UNL A   1      42.231  31.273  36.343  1.00  0.00     0.031 C 
ATOM     54  C   UNL A   1      37.674  34.629  34.145  1.00  0.00     0.029 A 
ATOM     55  C   UNL A   1      38.641  33.650  34.297  1.00  0.00     0.049 A 
ATOM     56  H   UNL A   1      39.109  32.036  33.018  1.00  0.00     0.167 HD
ATOM     57  C   UNL A   1      40.485  32.468  35.459  1.00  0.00     0.074 A 
ATOM     58  C   UNL A   1      41.424  32.301  36.550  1.00  0.00     0.031 C 
ATOM     59  C   UNL A   1      39.588  33.481  35.371  1.00  0.00     0.037 A 
BRANCH  46  60
ATOM     60  C   UNL A   1      36.073  33.290  30.283  1.00  0.00     0.057 A 
ATOM     61  C   UNL A   1      34.728  33.138  30.648  1.00  0.00     0.134 A 
ATOM     62  C   UNL A   1      36.343  34.039  29.129  1.00  0.00     0.134 A 
ATOM     63  F   UNL A   1      34.393  32.425  31.734  1.00  0.00    -0.206 F 
ATOM     64  C   UNL A   1      33.696  33.709  29.901  1.00  0.00     0.040 A 
ATOM     65  C   UNL A   1      35.321  34.644  28.393  1.00  0.00     0.040 A 
ATOM     66  F   UNL A   1      37.608  34.234  28.725  1.00  0.00    -0.206 F 
ATOM     67  C   UNL A   1      33.992  34.475  28.776  1.00  0.00     0.006 A 
ENDBRANCH  46  60
BRANCH  47  68
ATOM     68  C   UNL A   1      43.434  28.810  35.344  1.00  0.00     0.057 A 
ATOM     69  C   UNL A   1      43.167  27.863  36.341  1.00  0.00     0.134 A 
ATOM     70  C   UNL A   1      44.776  29.090  35.064  1.00  0.00     0.134 A 
ATOM     71  F   UNL A   1      41.901  27.559  36.666  1.00  0.00    -0.206 F 
ATOM     72  C   UNL A   1      44.192  27.219  37.032  1.00  0.00     0.040 A 
ATOM     73  C   UNL A   1      45.812  28.425  35.722  1.00  0.00     0.040 A 
ATOM     74  F   UNL A   1      45.097  29.978  34.112  1.00  0.00    -0.206 F 
ATOM     75  C   UNL A   1      45.520  27.488  36.712  1.00  0.00     0.006 A 
ENDBRANCH  47  68
BRANCH  59  76
ATOM     76  C   UNL A   1      39.559  34.458  36.512  1.00  0.00     0.057 A 
ATOM     77  C   UNL A   1      38.831  34.172  37.675  1.00  0.00     0.134 A 
ATOM     78  C   UNL A   1      40.260  35.672  36.475  1.00  0.00     0.134 A 
ATOM     79  F   UNL A   1      38.125  33.036  37.775  1.00  0.00    -0.206 F 
ATOM     80  C   UNL A   1      38.813  35.047  38.761  1.00  0.00     0.040 A 
ATOM     81  C   UNL A   1      40.284  36.536  37.571  1.00  0.00     0.040 A 
ATOM     82  F   UNL A   1      40.987  36.005  35.397  1.00  0.00    -0.206 F 
ATOM     83  C   UNL A   1      39.555  36.226  38.718  1.00  0.00     0.006 A 
ENDBRANCH  59  76
ENDBRANCH  33  34
ENDBRANCH  25  28
ENDBRANCH  23  24
ENDBRANCH   1  23
TORSDOF 12
ENDMDL
MODEL 3
REMARK VINA RESULT:     -11.3      1.923      6.577
REMARK SMILES C#Cc1ccc2c(c1)C=C(C(=O)NCCCNC(=O)c1ccc(-c3c4nc(c(-c5c(F)cccc5F)c5ccc([nH]5)c(-c5c(F)cccc5F)c5nc(c(-c6c(F)cccc6F)c6ccc3[nH]6)C=C5)C=C4)cc1)[C@@H](C(F)(F)F)O2
REMARK SMILES IDX 15 1 14 2 13 3 11 4 12 5 10 7 3 8 4 9 8 10 5 11 7 12 6 13
REMARK SMILES IDX 9 14 79 15 74 16 2 17 1 18 75 19 76 20 77 21 78 22 16 23
REMARK SMILES IDX 17 24 18 25 19 27 20 28 21 29 73 30 22 31 72 32 23 33 24 34
REMARK SMILES IDX 25 35 66 36 26 37 71 38 65 39 67 40 27 41 70 42 64 43 63 44
REMARK SMILES IDX 28 46 54 47 37 48 53 49 38 50 41 51 52 52 68 53 39 54 40 55
REMARK SMILES IDX 51 57 69 58 42 59 29 60 30 61 35 62 31 63 32 64 34 65 36 66
REMARK SMILES IDX 33 67 55 68 56 69 61 70 57 71 58 72 60 73 62 74 59 75 43 76
REMARK SMILES IDX 44 77 49 78 45 79 46 80 48 81 50 82 47 83
REMARK H PARENT 13 6 17 26 67 45 41 56
REMARK Flexibility Score: inf
ROOT
ATOM      1  C   UNL A   1      33.442  30.114  26.760  1.00  0.00     0.042 C 
ENDROOT
BRANCH   1   2
ATOM      2  C   UNL A   1      33.103  29.171  25.623  1.00  0.00     0.118 C 
BRANCH   2   3
ATOM      3  N   UNL A   1      32.073  28.214  25.999  1.00  0.00    -0.352 N 
ATOM      4  C   UNL A   1      31.846  26.889  25.844  1.00  0.00     0.251 C 
ATOM      5  O   UNL A   1      30.811  26.464  26.365  1.00  0.00    -0.270 OA
ATOM      6  H   UNL A   1      31.346  28.648  26.502  1.00  0.00     0.163 HD
BRANCH   4   7
ATOM      7  C   UNL A   1      32.743  25.956  25.102  1.00  0.00     0.067 C 
ATOM      8  C   UNL A   1      36.681  23.157  25.032  1.00  0.00     0.025 A 
ATOM      9  C   UNL A   1      36.313  22.675  23.774  1.00  0.00     0.021 A 
ATOM     10  C   UNL A   1      35.866  24.078  25.702  1.00  0.00     0.029 A 
ATOM     11  C   UNL A   1      35.131  23.109  23.183  1.00  0.00     0.048 A 
ATOM     12  C   UNL A   1      34.680  24.520  25.107  1.00  0.00     0.018 A 
ATOM     13  C   UNL A   1      34.328  24.030  23.848  1.00  0.00     0.128 A 
ATOM     14  C   UNL A   1      33.779  25.442  25.790  1.00  0.00     0.025 C 
ATOM     15  O   UNL A   1      33.173  24.376  23.213  1.00  0.00    -0.475 OA
ATOM     16  C   UNL A   1      32.545  25.603  23.657  1.00  0.00     0.314 C 
BRANCH   8  17
ATOM     17  C   UNL A   1      37.888  22.685  25.635  1.00  0.00    -0.070 C 
ATOM     18  C   UNL A   1      38.898  22.259  26.126  1.00  0.00     0.010 C 
ENDBRANCH   8  17
BRANCH  16  19
ATOM     19  C   UNL A   1      32.950  26.751  22.709  1.00  0.00     0.429 C 
ATOM     20  F   UNL A   1      31.940  27.651  22.604  1.00  0.00    -0.167 F 
ATOM     21  F   UNL A   1      34.030  27.441  23.149  1.00  0.00    -0.167 F 
ATOM     22  F   UNL A   1      33.245  26.323  21.462  1.00  0.00    -0.167 F 
ENDBRANCH  16  19
ENDBRANCH   4   7
ENDBRANCH   2   3
ENDBRANCH   1   2
BRANCH   1  23
ATOM     23  C   UNL A   1      34.614  29.599  27.575  1.00  0.00     0.118 C 
BRANCH  23  24
ATOM     24  N   UNL A   1      34.878  30.431  28.751  1.00  0.00    -0.352 N 
ATOM     25  C   UNL A   1      35.965  30.472  29.592  1.00  0.00     0.251 C 
ATOM     26  H   UNL A   1      34.160  31.066  28.977  1.00  0.00     0.163 HD
ATOM     27  O   UNL A   1      35.903  31.078  30.656  1.00  0.00    -0.269 OA
BRANCH  25  28
ATOM     28  C   UNL A   1      37.193  29.751  29.212  1.00  0.00     0.039 A 
ATOM     29  C   UNL A   1      37.881  29.021  30.177  1.00  0.00     0.014 A 
ATOM     30  C   UNL A   1      37.695  29.859  27.914  1.00  0.00     0.014 A 
ATOM     31  C   UNL A   1      39.189  28.647  29.931  1.00  0.00     0.010 A 
ATOM     32  C   UNL A   1      38.955  29.331  27.623  1.00  0.00     0.010 A 
ATOM     33  C   UNL A   1      39.743  28.788  28.650  1.00  0.00    -0.014 A 
BRANCH  33  34
ATOM     34  C   UNL A   1      41.150  28.365  28.435  1.00  0.00     0.031 A 
ATOM     35  C   UNL A   1      41.487  26.945  28.067  1.00  0.00     0.074 A 
ATOM     36  C   UNL A   1      42.122  29.297  28.492  1.00  0.00     0.049 A 
ATOM     37  N   UNL A   1      42.657  26.415  27.810  1.00  0.00    -0.248 NA
ATOM     38  C   UNL A   1      40.370  25.991  27.981  1.00  0.00     0.031 C 
ATOM     39  C   UNL A   1      41.919  30.712  28.816  1.00  0.00     0.029 A 
ATOM     40  N   UNL A   1      43.466  29.206  28.243  1.00  0.00    -0.354 N 
ATOM     41  C   UNL A   1      42.421  25.069  27.557  1.00  0.00     0.074 A 
ATOM     42  C   UNL A   1      41.002  24.853  27.730  1.00  0.00     0.031 C 
ATOM     43  C   UNL A   1      43.079  31.367  28.681  1.00  0.00     0.029 A 
ATOM     44  C   UNL A   1      44.123  30.406  28.356  1.00  0.00     0.049 A 
ATOM     45  H   UNL A   1      43.916  28.363  28.007  1.00  0.00     0.167 HD
ATOM     46  C   UNL A   1      43.305  24.105  27.202  1.00  0.00     0.037 A 
ATOM     47  C   UNL A   1      45.431  30.699  28.243  1.00  0.00     0.037 A 
ATOM     48  C   UNL A   1      44.719  24.327  27.032  1.00  0.00     0.049 A 
ATOM     49  C   UNL A   1      46.395  29.593  27.930  1.00  0.00     0.074 A 
ATOM     50  C   UNL A   1      45.697  23.420  26.661  1.00  0.00     0.029 A 
ATOM     51  N   UNL A   1      45.359  25.541  27.234  1.00  0.00    -0.354 N 
ATOM     52  N   UNL A   1      46.155  28.328  27.680  1.00  0.00    -0.248 NA
ATOM     53  C   UNL A   1      47.815  29.958  27.889  1.00  0.00     0.031 C 
ATOM     54  C   UNL A   1      46.936  24.067  26.712  1.00  0.00     0.029 A 
ATOM     55  C   UNL A   1      46.724  25.397  27.031  1.00  0.00     0.049 A 
ATOM     56  H   UNL A   1      44.912  26.381  27.485  1.00  0.00     0.167 HD
ATOM     57  C   UNL A   1      47.393  27.752  27.427  1.00  0.00     0.074 A 
ATOM     58  C   UNL A   1      48.372  28.815  27.523  1.00  0.00     0.031 C 
ATOM     59  C   UNL A   1      47.692  26.460  27.141  1.00  0.00     0.037 A 
BRANCH  46  60
ATOM     60  C   UNL A   1      42.771  22.711  27.015  1.00  0.00     0.057 A 
ATOM     61  C   UNL A   1      42.378  21.946  28.121  1.00  0.00     0.134 A 
ATOM     62  C   UNL A   1      42.659  22.115  25.751  1.00  0.00     0.134 A 
ATOM     63  F   UNL A   1      42.468  22.446  29.363  1.00  0.00    -0.206 F 
ATOM     64  C   UNL A   1      41.889  20.646  27.979  1.00  0.00     0.040 A 
ATOM     65  C   UNL A   1      42.138  20.828  25.593  1.00  0.00     0.040 A 
ATOM     66  F   UNL A   1      43.007  22.792  24.646  1.00  0.00    -0.206 F 
ATOM     67  C   UNL A   1      41.757  20.088  26.710  1.00  0.00     0.006 A 
ENDBRANCH  46  60
BRANCH  47  68
ATOM     68  C   UNL A   1      45.907  32.089  28.461  1.00  0.00     0.057 A 
ATOM     69  C   UNL A   1      46.012  32.998  27.401  1.00  0.00     0.134 A 
ATOM     70  C   UNL A   1      46.234  32.550  29.741  1.00  0.00     0.134 A 
ATOM     71  F   UNL A   1      45.725  32.616  26.148  1.00  0.00    -0.206 F 
ATOM     72  C   UNL A   1      46.427  34.314  27.604  1.00  0.00     0.040 A 
ATOM     73  C   UNL A   1      46.614  33.875  29.964  1.00  0.00     0.040 A 
ATOM     74  F   UNL A   1      46.142  31.732  30.799  1.00  0.00    -0.206 F 
ATOM     75  C   UNL A   1      46.714  34.760  28.891  1.00  0.00     0.006 A 
ENDBRANCH  47  68
BRANCH  59  76
ATOM     76  C   UNL A   1      49.136  26.145  26.872  1.00  0.00     0.057 A 
ATOM     77  C   UNL A   1      49.646  26.209  25.568  1.00  0.00     0.134 A 
ATOM     78  C   UNL A   1      50.029  25.796  27.895  1.00  0.00     0.134 A 
ATOM     79  F   UNL A   1      48.847  26.523  24.538  1.00  0.00    -0.206 F 
ATOM     80  C   UNL A   1      50.989  25.953  25.294  1.00  0.00     0.040 A 
ATOM     81  C   UNL A   1      51.384  25.578  27.640  1.00  0.00     0.040 A 
ATOM     82  F   UNL A   1      49.611  25.727  29.168  1.00  0.00    -0.206 F 
ATOM     83  C   UNL A   1      51.867  25.653  26.334  1.00  0.00     0.006 A 
ENDBRANCH  59  76
ENDBRANCH  33  34
ENDBRANCH  25  28
ENDBRANCH  23  24
ENDBRANCH   1  23
TORSDOF 12
ENDMDL
