MODEL 1
REMARK VINA RESULT:     -10.5      0.000      0.000
REMARK SMILES O=C(NCCCNC(=O)c1ccc2nc(Cl)sc2c1)c1ccc(-c2c3nc(c(-c4c(F)cccc4F)c4ccc([nH]4)c(-c4c(F)cccc4F)c4nc(c(-c5c(F)cccc5F)c5ccc2[nH]5)C=C4)C=C3)cc1
REMARK SMILES IDX 4 1 3 2 1 3 2 4 20 6 21 7 73 8 22 9 72 10 23 11 24 12 25 13
REMARK SMILES IDX 66 14 26 15 71 16 65 17 67 18 27 19 70 20 64 21 63 22 28 24
REMARK SMILES IDX 54 25 37 26 53 27 38 28 41 29 52 30 68 31 39 32 40 33 51 35
REMARK SMILES IDX 69 36 42 37 29 38 30 39 35 40 31 41 32 42 34 43 36 44 33 45
REMARK SMILES IDX 55 46 56 47 61 48 57 49 58 50 60 51 62 52 59 53 43 54 44 55
REMARK SMILES IDX 49 56 45 57 46 58 48 59 50 60 47 61 5 62 6 63 7 64 8 65 9 67
REMARK SMILES IDX 10 68 11 69 19 70 12 71 18 72 13 73 17 74 14 75 15 76 16 77
REMARK H PARENT 3 5 67 23 41 34 7 66
REMARK Flexibility Score: inf
ROOT
ATOM      1  C   UNL A   1      41.823  20.386  27.754  1.00  0.00     0.118 C 
ENDROOT
BRANCH   1   2
ATOM      2  N   UNL A   1      40.597  20.704  27.044  1.00  0.00    -0.352 N 
ATOM      3  O   UNL A   1      38.816  21.853  26.367  1.00  0.00    -0.269 OA
ATOM      4  C   UNL A   1      39.972  21.893  26.795  1.00  0.00     0.251 C 
ATOM      5  H   UNL A   1      40.131  19.919  26.675  1.00  0.00     0.163 HD
BRANCH   4   6
ATOM      6  C   UNL A   1      40.615  23.210  27.005  1.00  0.00     0.039 A 
ATOM      7  C   UNL A   1      39.892  24.159  27.739  1.00  0.00     0.014 A 
ATOM      8  C   UNL A   1      41.814  23.586  26.387  1.00  0.00     0.014 A 
ATOM      9  C   UNL A   1      40.362  25.465  27.860  1.00  0.00     0.010 A 
ATOM     10  C   UNL A   1      42.295  24.895  26.523  1.00  0.00     0.010 A 
ATOM     11  C   UNL A   1      41.567  25.842  27.253  1.00  0.00    -0.014 A 
BRANCH  11  12
ATOM     12  C   UNL A   1      42.006  27.240  27.423  1.00  0.00     0.031 A 
ATOM     13  C   UNL A   1      40.944  28.286  27.486  1.00  0.00     0.074 A 
ATOM     14  C   UNL A   1      43.177  27.529  28.029  1.00  0.00     0.049 A 
ATOM     15  N   UNL A   1      40.272  28.553  28.568  1.00  0.00    -0.248 NA
ATOM     16  C   UNL A   1      40.446  28.968  26.294  1.00  0.00     0.031 C 
ATOM     17  C   UNL A   1      43.762  26.709  29.096  1.00  0.00     0.029 A 
ATOM     18  N   UNL A   1      43.933  28.677  28.025  1.00  0.00    -0.354 N 
ATOM     19  C   UNL A   1      39.236  29.393  28.208  1.00  0.00     0.074 A 
ATOM     20  C   UNL A   1      39.391  29.634  26.790  1.00  0.00     0.031 C 
ATOM     21  C   UNL A   1      44.669  27.454  29.761  1.00  0.00     0.029 A 
ATOM     22  C   UNL A   1      44.853  28.725  29.067  1.00  0.00     0.049 A 
ATOM     23  H   UNL A   1      43.833  29.391  27.355  1.00  0.00     0.167 HD
ATOM     24  C   UNL A   1      38.304  29.842  29.089  1.00  0.00     0.037 A 
ATOM     25  C   UNL A   1      45.307  29.861  29.661  1.00  0.00     0.037 A 
ATOM     26  C   UNL A   1      38.481  29.435  30.450  1.00  0.00     0.049 A 
ATOM     27  C   UNL A   1      44.078  30.345  30.376  1.00  0.00     0.074 A 
ATOM     28  C   UNL A   1      38.084  28.385  31.249  1.00  0.00     0.029 A 
ATOM     29  N   UNL A   1      39.306  30.193  31.250  1.00  0.00    -0.354 N 
ATOM     30  N   UNL A   1      43.649  29.912  31.532  1.00  0.00    -0.248 NA
ATOM     31  C   UNL A   1      43.093  31.112  29.612  1.00  0.00     0.031 C 
ATOM     32  C   UNL A   1      39.045  28.327  32.307  1.00  0.00     0.029 A 
ATOM     33  C   UNL A   1      39.996  29.310  32.041  1.00  0.00     0.049 A 
ATOM     34  H   UNL A   1      39.384  31.174  31.254  1.00  0.00     0.167 HD
ATOM     35  C   UNL A   1      42.268  30.114  31.514  1.00  0.00     0.074 A 
ATOM     36  C   UNL A   1      41.998  30.900  30.328  1.00  0.00     0.031 C 
ATOM     37  C   UNL A   1      41.400  29.462  32.341  1.00  0.00     0.037 A 
BRANCH  24  38
ATOM     38  C   UNL A   1      37.218  30.780  28.759  1.00  0.00     0.057 A 
ATOM     39  C   UNL A   1      35.929  30.339  28.456  1.00  0.00     0.134 A 
ATOM     40  C   UNL A   1      37.410  32.149  28.976  1.00  0.00     0.134 A 
ATOM     41  F   UNL A   1      35.685  29.036  28.254  1.00  0.00    -0.206 F 
ATOM     42  C   UNL A   1      34.856  31.231  28.411  1.00  0.00     0.040 A 
ATOM     43  C   UNL A   1      36.348  33.050  28.940  1.00  0.00     0.040 A 
ATOM     44  F   UNL A   1      38.632  32.619  29.284  1.00  0.00    -0.206 F 
ATOM     45  C   UNL A   1      35.063  32.587  28.669  1.00  0.00     0.006 A 
ENDBRANCH  24  38
BRANCH  25  46
ATOM     46  C   UNL A   1      46.186  30.714  28.804  1.00  0.00     0.057 A 
ATOM     47  C   UNL A   1      45.832  31.335  27.601  1.00  0.00     0.134 A 
ATOM     48  C   UNL A   1      47.508  30.942  29.239  1.00  0.00     0.134 A 
ATOM     49  F   UNL A   1      44.577  31.304  27.137  1.00  0.00    -0.206 F 
ATOM     50  C   UNL A   1      46.766  32.021  26.812  1.00  0.00     0.040 A 
ATOM     51  C   UNL A   1      48.445  31.644  28.475  1.00  0.00     0.040 A 
ATOM     52  F   UNL A   1      47.918  30.484  30.433  1.00  0.00    -0.206 F 
ATOM     53  C   UNL A   1      48.082  32.163  27.239  1.00  0.00     0.006 A 
ENDBRANCH  25  46
BRANCH  37  54
ATOM     54  C   UNL A   1      42.026  28.647  33.419  1.00  0.00     0.057 A 
ATOM     55  C   UNL A   1      42.568  27.379  33.166  1.00  0.00     0.134 A 
ATOM     56  C   UNL A   1      42.065  29.117  34.735  1.00  0.00     0.134 A 
ATOM     57  F   UNL A   1      42.585  26.871  31.924  1.00  0.00    -0.206 F 
ATOM     58  C   UNL A   1      43.087  26.590  34.193  1.00  0.00     0.040 A 
ATOM     59  C   UNL A   1      42.605  28.347  35.767  1.00  0.00     0.040 A 
ATOM     60  F   UNL A   1      41.557  30.322  35.043  1.00  0.00    -0.206 F 
ATOM     61  C   UNL A   1      43.106  27.074  35.499  1.00  0.00     0.006 A 
ENDBRANCH  37  54
ENDBRANCH  11  12
ENDBRANCH   4   6
ENDBRANCH   1   2
BRANCH   1  62
ATOM     62  C   UNL A   1      42.473  19.103  27.225  1.00  0.00     0.042 C 
BRANCH  62  63
ATOM     63  C   UNL A   1      42.763  19.075  25.723  1.00  0.00     0.118 C 
BRANCH  63  64
ATOM     64  N   UNL A   1      44.082  18.537  25.410  1.00  0.00    -0.352 N 
ATOM     65  C   UNL A   1      45.191  19.171  24.929  1.00  0.00     0.251 C 
ATOM     66  H   UNL A   1      44.188  17.572  25.569  1.00  0.00     0.163 HD
ATOM     67  O   UNL A   1      46.173  18.506  24.584  1.00  0.00    -0.269 OA
BRANCH  65  68
ATOM     68  C   UNL A   1      45.243  20.642  24.791  1.00  0.00     0.041 A 
ATOM     69  C   UNL A   1      44.743  21.282  23.652  1.00  0.00     0.016 A 
ATOM     70  C   UNL A   1      45.732  21.385  25.877  1.00  0.00     0.035 A 
ATOM     71  C   UNL A   1      44.777  22.678  23.556  1.00  0.00     0.031 A 
ATOM     72  C   UNL A   1      45.749  22.784  25.766  1.00  0.00     0.057 A 
ATOM     73  C   UNL A   1      45.289  23.446  24.622  1.00  0.00     0.083 A 
ATOM     74  S   UNL A   1      46.288  23.959  26.911  1.00  0.00    -0.102 S 
ATOM     75  N   UNL A   1      45.376  24.827  24.658  1.00  0.00    -0.225 NA
ATOM     76  C   UNL A   1      45.879  25.183  25.811  1.00  0.00     0.184 A 
ATOM     77  Cl  UNL A   1      46.135  26.828  26.231  1.00  0.00    -0.050 Cl
ENDBRANCH  65  68
ENDBRANCH  63  64
ENDBRANCH  62  63
ENDBRANCH   1  62
TORSDOF 10
ENDMDL
MODEL 2
REMARK VINA RESULT:     -10.2      4.139      6.072
REMARK SMILES O=C(NCCCNC(=O)c1ccc2nc(Cl)sc2c1)c1ccc(-c2c3nc(c(-c4c(F)cccc4F)c4ccc([nH]4)c(-c4c(F)cccc4F)c4nc(c(-c5c(F)cccc5F)c5ccc2[nH]5)C=C4)C=C3)cc1
REMARK SMILES IDX 4 1 3 2 1 3 2 4 20 6 21 7 73 8 22 9 72 10 23 11 24 12 25 13
REMARK SMILES IDX 66 14 26 15 71 16 65 17 67 18 27 19 70 20 64 21 63 22 28 24
REMARK SMILES IDX 54 25 37 26 53 27 38 28 41 29 52 30 68 31 39 32 40 33 51 35
REMARK SMILES IDX 69 36 42 37 29 38 30 39 35 40 31 41 32 42 34 43 36 44 33 45
REMARK SMILES IDX 55 46 56 47 61 48 57 49 58 50 60 51 62 52 59 53 43 54 44 55
REMARK SMILES IDX 49 56 45 57 46 58 48 59 50 60 47 61 5 62 6 63 7 64 8 65 9 67
REMARK SMILES IDX 10 68 11 69 19 70 12 71 18 72 13 73 17 74 14 75 15 76 16 77
REMARK H PARENT 3 5 67 23 41 34 7 66
REMARK Flexibility Score: inf
ROOT
ATOM      1  C   UNL A   1      38.502  21.651  25.493  1.00  0.00     0.118 C 
ENDROOT
BRANCH   1   2
ATOM      2  N   UNL A   1      39.578  21.025  26.240  1.00  0.00    -0.352 N 
ATOM      3  O   UNL A   1      41.579  20.734  27.169  1.00  0.00    -0.269 OA
ATOM      4  C   UNL A   1      40.721  21.534  26.789  1.00  0.00     0.251 C 
ATOM      5  H   UNL A   1      39.463  20.057  26.375  1.00  0.00     0.163 HD
BRANCH   4   6
ATOM      6  C   UNL A   1      40.968  22.985  26.955  1.00  0.00     0.039 A 
ATOM      7  C   UNL A   1      41.973  23.552  26.161  1.00  0.00     0.014 A 
ATOM      8  C   UNL A   1      40.362  23.758  27.953  1.00  0.00     0.014 A 
ATOM      9  C   UNL A   1      42.364  24.875  26.355  1.00  0.00     0.010 A 
ATOM     10  C   UNL A   1      40.744  25.093  28.137  1.00  0.00     0.010 A 
ATOM     11  C   UNL A   1      41.752  25.655  27.346  1.00  0.00    -0.014 A 
BRANCH  11  12
ATOM     12  C   UNL A   1      42.214  27.047  27.497  1.00  0.00     0.031 A 
ATOM     13  C   UNL A   1      41.170  28.107  27.596  1.00  0.00     0.074 A 
ATOM     14  C   UNL A   1      43.411  27.322  28.059  1.00  0.00     0.049 A 
ATOM     15  N   UNL A   1      40.540  28.385  28.700  1.00  0.00    -0.248 NA
ATOM     16  C   UNL A   1      40.638  28.794  26.421  1.00  0.00     0.031 C 
ATOM     17  C   UNL A   1      44.022  26.496  29.107  1.00  0.00     0.029 A 
ATOM     18  N   UNL A   1      44.180  28.460  28.025  1.00  0.00    -0.354 N 
ATOM     19  C   UNL A   1      39.503  29.238  28.376  1.00  0.00     0.074 A 
ATOM     20  C   UNL A   1      39.610  29.475  26.953  1.00  0.00     0.031 C 
ATOM     21  C   UNL A   1      44.963  27.230  29.737  1.00  0.00     0.029 A 
ATOM     22  C   UNL A   1      45.138  28.498  29.034  1.00  0.00     0.049 A 
ATOM     23  H   UNL A   1      44.066  29.174  27.358  1.00  0.00     0.167 HD
ATOM     24  C   UNL A   1      38.610  29.701  29.289  1.00  0.00     0.037 A 
ATOM     25  C   UNL A   1      45.629  29.629  29.608  1.00  0.00     0.037 A 
ATOM     26  C   UNL A   1      38.831  29.295  30.644  1.00  0.00     0.049 A 
ATOM     27  C   UNL A   1      44.433  30.130  30.366  1.00  0.00     0.074 A 
ATOM     28  C   UNL A   1      38.449  28.252  31.459  1.00  0.00     0.029 A 
ATOM     29  N   UNL A   1      39.693  30.042  31.412  1.00  0.00    -0.354 N 
ATOM     30  N   UNL A   1      44.040  29.705  31.538  1.00  0.00    -0.248 NA
ATOM     31  C   UNL A   1      43.431  30.909  29.636  1.00  0.00     0.031 C 
ATOM     32  C   UNL A   1      39.447  28.182  32.482  1.00  0.00     0.029 A 
ATOM     33  C   UNL A   1      40.400  29.152  32.179  1.00  0.00     0.049 A 
ATOM     34  H   UNL A   1      39.785  31.023  31.411  1.00  0.00     0.167 HD
ATOM     35  C   UNL A   1      42.662  29.925  31.569  1.00  0.00     0.074 A 
ATOM     36  C   UNL A   1      42.359  30.713  30.392  1.00  0.00     0.031 C 
ATOM     37  C   UNL A   1      41.816  29.286  32.428  1.00  0.00     0.037 A 
BRANCH  24  38
ATOM     38  C   UNL A   1      37.525  30.653  28.996  1.00  0.00     0.057 A 
ATOM     39  C   UNL A   1      37.704  32.032  29.104  1.00  0.00     0.134 A 
ATOM     40  C   UNL A   1      36.360  30.188  28.375  1.00  0.00     0.134 A 
ATOM     41  F   UNL A   1      38.809  32.533  29.676  1.00  0.00    -0.206 F 
ATOM     42  C   UNL A   1      36.769  32.923  28.573  1.00  0.00     0.040 A 
ATOM     43  C   UNL A   1      35.421  31.064  27.835  1.00  0.00     0.040 A 
ATOM     44  F   UNL A   1      36.150  28.867  28.236  1.00  0.00    -0.206 F 
ATOM     45  C   UNL A   1      35.633  32.438  27.922  1.00  0.00     0.006 A 
ENDBRANCH  24  38
BRANCH  25  46
ATOM     46  C   UNL A   1      46.488  30.468  28.718  1.00  0.00     0.057 A 
ATOM     47  C   UNL A   1      46.089  31.122  27.546  1.00  0.00     0.134 A 
ATOM     48  C   UNL A   1      47.838  30.647  29.084  1.00  0.00     0.134 A 
ATOM     49  F   UNL A   1      44.811  31.138  27.151  1.00  0.00    -0.206 F 
ATOM     50  C   UNL A   1      47.001  31.791  26.718  1.00  0.00     0.040 A 
ATOM     51  C   UNL A   1      48.754  31.333  28.281  1.00  0.00     0.040 A 
ATOM     52  F   UNL A   1      48.296  30.155  30.246  1.00  0.00    -0.206 F 
ATOM     53  C   UNL A   1      48.341  31.884  27.075  1.00  0.00     0.006 A 
ENDBRANCH  25  46
BRANCH  37  54
ATOM     54  C   UNL A   1      42.470  28.465  33.484  1.00  0.00     0.057 A 
ATOM     55  C   UNL A   1      42.637  28.941  34.792  1.00  0.00     0.134 A 
ATOM     56  C   UNL A   1      42.968  27.192  33.190  1.00  0.00     0.134 A 
ATOM     57  F   UNL A   1      42.167  30.145  35.154  1.00  0.00    -0.206 F 
ATOM     58  C   UNL A   1      43.316  28.198  35.758  1.00  0.00     0.040 A 
ATOM     59  C   UNL A   1      43.627  26.428  34.156  1.00  0.00     0.040 A 
ATOM     60  F   UNL A   1      42.845  26.681  31.955  1.00  0.00    -0.206 F 
ATOM     61  C   UNL A   1      43.814  26.936  35.440  1.00  0.00     0.006 A 
ENDBRANCH  37  54
ENDBRANCH  11  12
ENDBRANCH   4   6
ENDBRANCH   1   2
BRANCH   1  62
ATOM     62  C   UNL A   1      37.432  20.638  25.075  1.00  0.00     0.042 C 
BRANCH  62  63
ATOM     63  C   UNL A   1      35.989  21.143  25.105  1.00  0.00     0.118 C 
BRANCH  63  64
ATOM     64  N   UNL A   1      35.009  20.062  25.142  1.00  0.00    -0.352 N 
ATOM     65  C   UNL A   1      33.675  20.103  25.422  1.00  0.00     0.251 C 
ATOM     66  H   UNL A   1      35.366  19.169  24.932  1.00  0.00     0.163 HD
ATOM     67  O   UNL A   1      33.045  19.048  25.550  1.00  0.00    -0.269 OA
BRANCH  65  68
ATOM     68  C   UNL A   1      32.960  21.384  25.599  1.00  0.00     0.041 A 
ATOM     69  C   UNL A   1      33.003  22.079  26.812  1.00  0.00     0.016 A 
ATOM     70  C   UNL A   1      32.305  21.929  24.482  1.00  0.00     0.035 A 
ATOM     71  C   UNL A   1      32.342  23.305  26.947  1.00  0.00     0.031 A 
ATOM     72  C   UNL A   1      31.656  23.163  24.633  1.00  0.00     0.057 A 
ATOM     73  C   UNL A   1      31.654  23.860  25.847  1.00  0.00     0.083 A 
ATOM     74  S   UNL A   1      30.771  24.077  23.466  1.00  0.00    -0.102 S 
ATOM     75  N   UNL A   1      30.965  25.061  25.844  1.00  0.00    -0.225 NA
ATOM     76  C   UNL A   1      30.478  25.258  24.647  1.00  0.00     0.184 A 
ATOM     77  Cl  UNL A   1      29.561  26.654  24.249  1.00  0.00    -0.050 Cl
ENDBRANCH  65  68
ENDBRANCH  63  64
ENDBRANCH  62  63
ENDBRANCH   1  62
TORSDOF 10
ENDMDL
MODEL 3
REMARK VINA RESULT:     -10.2      4.525      9.244
REMARK SMILES O=C(NCCCNC(=O)c1ccc2nc(Cl)sc2c1)c1ccc(-c2c3nc(c(-c4c(F)cccc4F)c4ccc([nH]4)c(-c4c(F)cccc4F)c4nc(c(-c5c(F)cccc5F)c5ccc2[nH]5)C=C4)C=C3)cc1
REMARK SMILES IDX 4 1 3 2 1 3 2 4 20 6 21 7 73 8 22 9 72 10 23 11 24 12 25 13
REMARK SMILES IDX 66 14 26 15 71 16 65 17 67 18 27 19 70 20 64 21 63 22 28 24
REMARK SMILES IDX 54 25 37 26 53 27 38 28 41 29 52 30 68 31 39 32 40 33 51 35
REMARK SMILES IDX 69 36 42 37 29 38 30 39 35 40 31 41 32 42 34 43 36 44 33 45
REMARK SMILES IDX 55 46 56 47 61 48 57 49 58 50 60 51 62 52 59 53 43 54 44 55
REMARK SMILES IDX 49 56 45 57 46 58 48 59 50 60 47 61 5 62 6 63 7 64 8 65 9 67
REMARK SMILES IDX 10 68 11 69 19 70 12 71 18 72 13 73 17 74 14 75 15 76 16 77
REMARK H PARENT 3 5 67 23 41 34 7 66
REMARK Flexibility Score: inf
ROOT
ATOM      1  C   UNL A   1      35.807  31.276  28.260  1.00  0.00     0.118 C 
ENDROOT
BRANCH   1   2
ATOM      2  N   UNL A   1      35.897  30.689  29.585  1.00  0.00    -0.352 N 
ATOM      3  O   UNL A   1      36.519  29.314  31.220  1.00  0.00    -0.269 OA
ATOM      4  C   UNL A   1      36.811  29.842  30.145  1.00  0.00     0.251 C 
ATOM      5  H   UNL A   1      35.166  30.949  30.191  1.00  0.00     0.163 HD
BRANCH   4   6
ATOM      6  C   UNL A   1      38.125  29.541  29.531  1.00  0.00     0.039 A 
ATOM      7  C   UNL A   1      38.120  28.728  28.389  1.00  0.00     0.014 A 
ATOM      8  C   UNL A   1      39.346  29.897  30.116  1.00  0.00     0.014 A 
ATOM      9  C   UNL A   1      39.317  28.283  27.835  1.00  0.00     0.010 A 
ATOM     10  C   UNL A   1      40.551  29.462  29.548  1.00  0.00     0.010 A 
ATOM     11  C   UNL A   1      40.542  28.647  28.411  1.00  0.00    -0.014 A 
BRANCH  11  12
ATOM     12  C   UNL A   1      41.771  28.140  27.772  1.00  0.00     0.031 A 
ATOM     13  C   UNL A   1      42.887  29.109  27.574  1.00  0.00     0.074 A 
ATOM     14  C   UNL A   1      42.110  26.836  27.861  1.00  0.00     0.049 A 
ATOM     15  N   UNL A   1      43.724  29.433  28.516  1.00  0.00    -0.248 NA
ATOM     16  C   UNL A   1      43.021  29.911  26.360  1.00  0.00     0.031 C 
ATOM     17  C   UNL A   1      41.785  25.991  29.016  1.00  0.00     0.029 A 
ATOM     18  N   UNL A   1      42.989  26.083  27.120  1.00  0.00    -0.354 N 
ATOM     19  C   UNL A   1      44.464  30.505  28.055  1.00  0.00     0.074 A 
ATOM     20  C   UNL A   1      44.001  30.760  26.707  1.00  0.00     0.031 C 
ATOM     21  C   UNL A   1      42.593  24.910  28.997  1.00  0.00     0.029 A 
ATOM     22  C   UNL A   1      43.358  24.900  27.753  1.00  0.00     0.049 A 
ATOM     23  H   UNL A   1      43.324  26.352  26.235  1.00  0.00     0.167 HD
ATOM     24  C   UNL A   1      45.410  31.130  28.802  1.00  0.00     0.037 A 
ATOM     25  C   UNL A   1      44.548  24.263  27.593  1.00  0.00     0.037 A 
ATOM     26  C   UNL A   1      45.647  30.579  30.102  1.00  0.00     0.049 A 
ATOM     27  C   UNL A   1      45.498  25.219  28.256  1.00  0.00     0.074 A 
ATOM     28  C   UNL A   1      45.159  30.757  31.378  1.00  0.00     0.029 A 
ATOM     29  N   UNL A   1      46.541  29.539  30.210  1.00  0.00    -0.354 N 
ATOM     30  N   UNL A   1      45.717  25.308  29.542  1.00  0.00    -0.248 NA
ATOM     31  C   UNL A   1      45.980  26.362  27.478  1.00  0.00     0.031 C 
ATOM     32  C   UNL A   1      45.435  29.534  32.066  1.00  0.00     0.029 A 
ATOM     33  C   UNL A   1      46.018  28.674  31.138  1.00  0.00     0.049 A 
ATOM     34  H   UNL A   1      47.388  29.436  29.720  1.00  0.00     0.167 HD
ATOM     35  C   UNL A   1      46.110  26.630  29.760  1.00  0.00     0.074 A 
ATOM     36  C   UNL A   1      46.301  27.209  28.446  1.00  0.00     0.031 C 
ATOM     37  C   UNL A   1      46.059  27.239  30.980  1.00  0.00     0.037 A 
BRANCH  24  38
ATOM     38  C   UNL A   1      46.256  32.240  28.331  1.00  0.00     0.057 A 
ATOM     39  C   UNL A   1      47.398  32.020  27.560  1.00  0.00     0.134 A 
ATOM     40  C   UNL A   1      45.789  33.554  28.456  1.00  0.00     0.134 A 
ATOM     41  F   UNL A   1      47.880  30.780  27.393  1.00  0.00    -0.206 F 
ATOM     42  C   UNL A   1      48.033  33.074  26.900  1.00  0.00     0.040 A 
ATOM     43  C   UNL A   1      46.410  34.614  27.799  1.00  0.00     0.040 A 
ATOM     44  F   UNL A   1      44.685  33.812  29.178  1.00  0.00    -0.206 F 
ATOM     45  C   UNL A   1      47.529  34.372  27.006  1.00  0.00     0.006 A 
ENDBRANCH  24  38
BRANCH  25  46
ATOM     46  C   UNL A   1      44.760  23.645  26.249  1.00  0.00     0.057 A 
ATOM     47  C   UNL A   1      45.974  23.536  25.561  1.00  0.00     0.134 A 
ATOM     48  C   UNL A   1      43.638  23.098  25.592  1.00  0.00     0.134 A 
ATOM     49  F   UNL A   1      47.133  23.901  26.121  1.00  0.00    -0.206 F 
ATOM     50  C   UNL A   1      46.047  23.042  24.251  1.00  0.00     0.040 A 
ATOM     51  C   UNL A   1      43.700  22.580  24.295  1.00  0.00     0.040 A 
ATOM     52  F   UNL A   1      42.447  23.052  26.209  1.00  0.00    -0.206 F 
ATOM     53  C   UNL A   1      44.906  22.577  23.607  1.00  0.00     0.006 A 
ENDBRANCH  25  46
BRANCH  37  54
ATOM     54  C   UNL A   1      45.737  26.351  32.131  1.00  0.00     0.057 A 
ATOM     55  C   UNL A   1      46.737  25.684  32.851  1.00  0.00     0.134 A 
ATOM     56  C   UNL A   1      44.410  26.132  32.511  1.00  0.00     0.134 A 
ATOM     57  F   UNL A   1      48.035  25.861  32.557  1.00  0.00    -0.206 F 
ATOM     58  C   UNL A   1      46.425  24.796  33.881  1.00  0.00     0.040 A 
ATOM     59  C   UNL A   1      44.087  25.265  33.557  1.00  0.00     0.040 A 
ATOM     60  F   UNL A   1      43.405  26.737  31.857  1.00  0.00    -0.206 F 
ATOM     61  C   UNL A   1      45.095  24.584  34.237  1.00  0.00     0.006 A 
ENDBRANCH  37  54
ENDBRANCH  11  12
ENDBRANCH   4   6
ENDBRANCH   1   2
BRANCH   1  62
ATOM     62  C   UNL A   1      34.355  31.392  27.785  1.00  0.00     0.042 C 
BRANCH  62  63
ATOM     63  C   UNL A   1      33.838  30.230  26.936  1.00  0.00     0.118 C 
BRANCH  63  64
ATOM     64  N   UNL A   1      32.836  29.424  27.626  1.00  0.00    -0.352 N 
ATOM     65  C   UNL A   1      32.210  28.280  27.227  1.00  0.00     0.251 C 
ATOM     66  H   UNL A   1      32.573  29.757  28.514  1.00  0.00     0.163 HD
ATOM     67  O   UNL A   1      31.275  27.829  27.896  1.00  0.00    -0.269 OA
BRANCH  65  68
ATOM     68  C   UNL A   1      32.610  27.568  25.994  1.00  0.00     0.041 A 
ATOM     69  C   UNL A   1      33.686  26.674  25.989  1.00  0.00     0.016 A 
ATOM     70  C   UNL A   1      31.822  27.752  24.846  1.00  0.00     0.035 A 
ATOM     71  C   UNL A   1      34.029  25.990  24.817  1.00  0.00     0.031 A 
ATOM     72  C   UNL A   1      32.175  27.050  23.684  1.00  0.00     0.057 A 
ATOM     73  C   UNL A   1      33.269  26.178  23.643  1.00  0.00     0.083 A 
ATOM     74  S   UNL A   1      31.418  27.066  22.132  1.00  0.00    -0.102 S 
ATOM     75  N   UNL A   1      33.497  25.564  22.424  1.00  0.00    -0.225 NA
ATOM     76  C   UNL A   1      32.580  25.962  21.580  1.00  0.00     0.184 A 
ATOM     77  Cl  UNL A   1      32.528  25.409  19.956  1.00  0.00    -0.050 Cl
ENDBRANCH  65  68
ENDBRANCH  63  64
ENDBRANCH  62  63
ENDBRANCH   1  62
TORSDOF 10
ENDMDL
