MODEL 1
REMARK VINA RESULT:     -11.7      0.000      0.000
REMARK SMILES CCc1c(C)nc(Nc2cc(Cl)ccc2C)nc1OCC(=O)NCCCNC(=O)c1ccc(-c2c3nc(c(-c4c(F)cccc4F)c4ccc([nH]4)c(-c4c(F)cccc4F)c4nc(c(-c5c(F)cccc5F)c5ccc2[nH]5)C=C4)C=C3)cc1
REMARK SMILES IDX 24 1 23 2 21 3 22 4 20 6 19 7 18 8 3 9 4 10 5 11 6 12 17 13
REMARK SMILES IDX 7 14 2 15 1 16 8 17 9 19 10 20 15 21 11 22 14 23 16 24 12 25
REMARK SMILES IDX 13 26 25 27 26 28 27 29 28 30 29 32 30 33 31 34 83 35 32 36
REMARK SMILES IDX 82 37 33 38 34 39 35 40 76 41 36 42 81 43 75 44 77 45 37 46
REMARK SMILES IDX 80 47 74 48 73 49 38 51 64 52 47 53 63 54 48 55 51 56 62 57
REMARK SMILES IDX 78 58 49 59 50 60 61 62 79 63 52 64 39 65 40 66 45 67 41 68
REMARK SMILES IDX 42 69 44 70 46 71 43 72 65 73 66 74 71 75 67 76 68 77 70 78
REMARK SMILES IDX 72 79 69 80 53 81 54 82 59 83 55 84 56 85 58 86 60 87 57 88
REMARK H PARENT 23 5 8 18 27 31 77 50 51 61
REMARK Flexibility Score: inf
ROOT
ATOM      1  C   UNL A   1      36.590  20.460  25.048  1.00  0.00     0.117 C 
ENDROOT
BRANCH   1   2
ATOM      2  N   UNL A   1      36.900  21.797  25.512  1.00  0.00    -0.353 N 
ATOM      3  C   UNL A   1      36.941  22.964  24.817  1.00  0.00     0.258 C 
ATOM      4  O   UNL A   1      37.394  23.950  25.400  1.00  0.00    -0.271 OA
ATOM      5  H   UNL A   1      37.112  21.871  26.470  1.00  0.00     0.163 HD
BRANCH   3   6
ATOM      6  C   UNL A   1      36.343  23.041  23.398  1.00  0.00     0.331 C 
BRANCH   6   7
ATOM      7  O   UNL A   1      35.092  23.560  23.012  1.00  0.00    -0.467 OA
BRANCH   7   8
ATOM      8  C   UNL A   1      34.008  23.432  23.823  1.00  0.00     0.222 A 
ATOM      9  C   UNL A   1      33.568  24.399  24.718  1.00  0.00     0.035 A 
ATOM     10  C   UNL A   1      32.484  23.984  25.491  1.00  0.00     0.050 A 
ATOM     11  C   UNL A   1      31.781  24.860  26.488  1.00  0.00     0.067 C 
ATOM     12  N   UNL A   1      32.026  22.722  25.496  1.00  0.00    -0.218 NA
ATOM     13  N   UNL A   1      33.554  22.148  23.827  1.00  0.00    -0.177 NA
ATOM     14  C   UNL A   1      32.594  21.822  24.699  1.00  0.00     0.230 A 
BRANCH   9  15
ATOM     15  C   UNL A   1      34.114  25.781  24.976  1.00  0.00     0.040 C 
ATOM     16  C   UNL A   1      33.773  26.962  24.082  1.00  0.00     0.009 C 
ENDBRANCH   9  15
BRANCH  14  17
ATOM     17  N   UNL A   1      32.229  20.476  24.853  1.00  0.00    -0.324 N 
ATOM     18  H   UNL A   1      31.488  20.284  25.473  1.00  0.00     0.170 HD
BRANCH  17  19
ATOM     19  C   UNL A   1      32.821  19.371  24.205  1.00  0.00     0.045 A 
ATOM     20  C   UNL A   1      33.600  18.473  24.959  1.00  0.00     0.047 A 
ATOM     21  C   UNL A   1      32.551  19.053  22.854  1.00  0.00    -0.027 A 
ATOM     22  C   UNL A   1      34.055  17.276  24.397  1.00  0.00     0.043 A 
ATOM     23  C   UNL A   1      33.000  17.833  22.313  1.00  0.00     0.007 A 
ATOM     24  C   UNL A   1      31.802  19.999  21.952  1.00  0.00     0.046 C 
ATOM     25  Cl  UNL A   1      34.982  16.178  25.347  1.00  0.00    -0.084 Cl
ATOM     26  C   UNL A   1      33.745  16.945  23.083  1.00  0.00     0.021 A 
ENDBRANCH  17  19
ENDBRANCH  14  17
ENDBRANCH   7   8
ENDBRANCH   6   7
ENDBRANCH   3   6
ENDBRANCH   1   2
BRANCH   1  27
ATOM     27  C   UNL A   1      37.851  19.617  24.945  1.00  0.00     0.042 C 
BRANCH  27  28
ATOM     28  C   UNL A   1      39.029  20.192  25.723  1.00  0.00     0.118 C 
BRANCH  28  29
ATOM     29  N   UNL A   1      40.146  19.256  25.822  1.00  0.00    -0.352 N 
ATOM     30  C   UNL A   1      41.470  19.494  26.086  1.00  0.00     0.251 C 
ATOM     31  H   UNL A   1      39.912  18.311  25.678  1.00  0.00     0.163 HD
ATOM     32  O   UNL A   1      42.306  18.611  25.906  1.00  0.00    -0.269 OA
BRANCH  30  33
ATOM     33  C   UNL A   1      41.885  20.820  26.575  1.00  0.00     0.039 A 
ATOM     34  C   UNL A   1      42.377  21.761  25.668  1.00  0.00     0.014 A 
ATOM     35  C   UNL A   1      41.777  21.131  27.931  1.00  0.00     0.014 A 
ATOM     36  C   UNL A   1      42.695  23.044  26.117  1.00  0.00     0.010 A 
ATOM     37  C   UNL A   1      41.997  22.433  28.357  1.00  0.00     0.010 A 
ATOM     38  C   UNL A   1      42.470  23.399  27.457  1.00  0.00    -0.014 A 
BRANCH  38  39
ATOM     39  C   UNL A   1      42.748  24.767  27.956  1.00  0.00     0.031 A 
ATOM     40  C   UNL A   1      44.146  25.140  28.366  1.00  0.00     0.074 A 
ATOM     41  C   UNL A   1      41.734  25.640  28.115  1.00  0.00     0.049 A 
ATOM     42  N   UNL A   1      44.579  26.241  28.923  1.00  0.00    -0.248 NA
ATOM     43  C   UNL A   1      45.190  24.124  28.155  1.00  0.00     0.031 C 
ATOM     44  C   UNL A   1      40.330  25.378  27.797  1.00  0.00     0.029 A 
ATOM     45  N   UNL A   1      41.731  26.925  28.599  1.00  0.00    -0.354 N 
ATOM     46  C   UNL A   1      45.936  26.042  29.144  1.00  0.00     0.074 A 
ATOM     47  C   UNL A   1      46.242  24.694  28.722  1.00  0.00     0.031 C 
ATOM     48  C   UNL A   1      39.605  26.474  28.071  1.00  0.00     0.029 A 
ATOM     49  C   UNL A   1      40.484  27.499  28.627  1.00  0.00     0.049 A 
ATOM     50  H   UNL A   1      42.546  27.390  28.898  1.00  0.00     0.167 HD
ATOM     51  C   UNL A   1      46.851  26.915  29.630  1.00  0.00     0.037 A 
ATOM     52  C   UNL A   1      40.093  28.711  29.062  1.00  0.00     0.037 A 
ATOM     53  C   UNL A   1      46.543  28.263  30.025  1.00  0.00     0.049 A 
ATOM     54  C   UNL A   1      41.126  29.657  29.612  1.00  0.00     0.074 A 
ATOM     55  C   UNL A   1      47.404  29.247  30.477  1.00  0.00     0.029 A 
ATOM     56  N   UNL A   1      45.269  28.815  30.020  1.00  0.00    -0.354 N 
ATOM     57  N   UNL A   1      42.418  29.482  29.753  1.00  0.00    -0.248 NA
ATOM     58  C   UNL A   1      40.646  30.973  30.057  1.00  0.00     0.031 C 
ATOM     59  C   UNL A   1      46.645  30.377  30.795  1.00  0.00     0.029 A 
ATOM     60  C   UNL A   1      45.320  30.118  30.484  1.00  0.00     0.049 A 
ATOM     61  H   UNL A   1      44.453  28.348  29.730  1.00  0.00     0.167 HD
ATOM     62  C   UNL A   1      42.910  30.672  30.271  1.00  0.00     0.074 A 
ATOM     63  C   UNL A   1      41.779  31.566  30.406  1.00  0.00     0.031 C 
ATOM     64  C   UNL A   1      44.184  30.998  30.602  1.00  0.00     0.037 A 
BRANCH  51  65
ATOM     65  C   UNL A   1      48.267  26.432  29.758  1.00  0.00     0.057 A 
ATOM     66  C   UNL A   1      48.729  25.787  30.914  1.00  0.00     0.134 A 
ATOM     67  C   UNL A   1      49.175  26.592  28.704  1.00  0.00     0.134 A 
ATOM     68  F   UNL A   1      47.916  25.611  31.967  1.00  0.00    -0.206 F 
ATOM     69  C   UNL A   1      50.051  25.350  31.030  1.00  0.00     0.040 A 
ATOM     70  C   UNL A   1      50.490  26.131  28.796  1.00  0.00     0.040 A 
ATOM     71  F   UNL A   1      48.800  27.195  27.567  1.00  0.00    -0.206 F 
ATOM     72  C   UNL A   1      50.932  25.515  29.965  1.00  0.00     0.006 A 
ENDBRANCH  51  65
BRANCH  52  73
ATOM     73  C   UNL A   1      38.664  29.109  28.979  1.00  0.00     0.057 A 
ATOM     74  C   UNL A   1      37.820  29.002  30.090  1.00  0.00     0.134 A 
ATOM     75  C   UNL A   1      38.107  29.596  27.791  1.00  0.00     0.134 A 
ATOM     76  F   UNL A   1      38.290  28.527  31.252  1.00  0.00    -0.206 F 
ATOM     77  C   UNL A   1      36.468  29.342  30.018  1.00  0.00     0.040 A 
ATOM     78  C   UNL A   1      36.763  29.967  27.711  1.00  0.00     0.040 A 
ATOM     79  F   UNL A   1      38.864  29.733  26.693  1.00  0.00    -0.206 F 
ATOM     80  C   UNL A   1      35.937  29.831  28.826  1.00  0.00     0.006 A 
ENDBRANCH  52  73
BRANCH  64  81
ATOM     81  C   UNL A   1      44.431  32.393  31.099  1.00  0.00     0.057 A 
ATOM     82  C   UNL A   1      44.698  33.457  30.228  1.00  0.00     0.134 A 
ATOM     83  C   UNL A   1      44.356  32.682  32.468  1.00  0.00     0.134 A 
ATOM     84  F   UNL A   1      44.796  33.246  28.906  1.00  0.00    -0.206 F 
ATOM     85  C   UNL A   1      44.907  34.753  30.703  1.00  0.00     0.040 A 
ATOM     86  C   UNL A   1      44.529  33.979  32.951  1.00  0.00     0.040 A 
ATOM     87  F   UNL A   1      44.093  31.711  33.356  1.00  0.00    -0.206 F 
ATOM     88  C   UNL A   1      44.814  35.017  32.068  1.00  0.00     0.006 A 
ENDBRANCH  64  81
ENDBRANCH  38  39
ENDBRANCH  30  33
ENDBRANCH  28  29
ENDBRANCH  27  28
ENDBRANCH   1  27
TORSDOF 15
ENDMDL
MODEL 2
REMARK VINA RESULT:     -11.7      1.119      6.227
REMARK SMILES CCc1c(C)nc(Nc2cc(Cl)ccc2C)nc1OCC(=O)NCCCNC(=O)c1ccc(-c2c3nc(c(-c4c(F)cccc4F)c4ccc([nH]4)c(-c4c(F)cccc4F)c4nc(c(-c5c(F)cccc5F)c5ccc2[nH]5)C=C4)C=C3)cc1
REMARK SMILES IDX 24 1 23 2 21 3 22 4 20 6 19 7 18 8 3 9 4 10 5 11 6 12 17 13
REMARK SMILES IDX 7 14 2 15 1 16 8 17 9 19 10 20 15 21 11 22 14 23 16 24 12 25
REMARK SMILES IDX 13 26 25 27 26 28 27 29 28 30 29 32 30 33 31 34 83 35 32 36
REMARK SMILES IDX 82 37 33 38 34 39 35 40 76 41 36 42 81 43 75 44 77 45 37 46
REMARK SMILES IDX 80 47 74 48 73 49 38 51 64 52 47 53 63 54 48 55 51 56 62 57
REMARK SMILES IDX 78 58 49 59 50 60 61 62 79 63 52 64 39 65 40 66 45 67 41 68
REMARK SMILES IDX 42 69 44 70 46 71 43 72 65 73 66 74 71 75 67 76 68 77 70 78
REMARK SMILES IDX 72 79 69 80 53 81 54 82 59 83 55 84 56 85 58 86 60 87 57 88
REMARK H PARENT 23 5 8 18 27 31 77 50 51 61
REMARK Flexibility Score: inf
ROOT
ATOM      1  C   UNL A   1      36.618  20.602  25.155  1.00  0.00     0.117 C 
ENDROOT
BRANCH   1   2
ATOM      2  N   UNL A   1      36.821  21.887  25.792  1.00  0.00    -0.353 N 
ATOM      3  C   UNL A   1      36.952  23.118  25.230  1.00  0.00     0.258 C 
ATOM      4  O   UNL A   1      37.283  24.043  25.974  1.00  0.00    -0.271 OA
ATOM      5  H   UNL A   1      36.872  21.866  26.775  1.00  0.00     0.163 HD
BRANCH   3   6
ATOM      6  C   UNL A   1      36.593  23.333  23.747  1.00  0.00     0.331 C 
BRANCH   6   7
ATOM      7  O   UNL A   1      35.334  23.639  23.196  1.00  0.00    -0.467 OA
BRANCH   7   8
ATOM      8  C   UNL A   1      34.205  23.538  23.947  1.00  0.00     0.222 A 
ATOM      9  C   UNL A   1      33.691  24.549  24.747  1.00  0.00     0.035 A 
ATOM     10  C   UNL A   1      32.570  24.159  25.480  1.00  0.00     0.050 A 
ATOM     11  C   UNL A   1      31.789  25.081  26.373  1.00  0.00     0.067 C 
ATOM     12  N   UNL A   1      32.139  22.889  25.542  1.00  0.00    -0.218 NA
ATOM     13  N   UNL A   1      33.778  22.245  24.009  1.00  0.00    -0.177 NA
ATOM     14  C   UNL A   1      32.773  21.953  24.843  1.00  0.00     0.230 A 
BRANCH   9  15
ATOM     15  C   UNL A   1      34.191  25.959  24.945  1.00  0.00     0.040 C 
ATOM     16  C   UNL A   1      33.847  27.078  23.977  1.00  0.00     0.009 C 
ENDBRANCH   9  15
BRANCH  14  17
ATOM     17  N   UNL A   1      32.427  20.612  25.064  1.00  0.00    -0.324 N 
ATOM     18  H   UNL A   1      31.804  20.429  25.803  1.00  0.00     0.170 HD
BRANCH  17  19
ATOM     19  C   UNL A   1      32.887  19.498  24.327  1.00  0.00     0.045 A 
ATOM     20  C   UNL A   1      33.631  18.503  24.986  1.00  0.00     0.047 A 
ATOM     21  C   UNL A   1      32.512  19.275  22.982  1.00  0.00    -0.027 A 
ATOM     22  C   UNL A   1      33.952  17.305  24.341  1.00  0.00     0.043 A 
ATOM     23  C   UNL A   1      32.826  18.053  22.356  1.00  0.00     0.007 A 
ATOM     24  C   UNL A   1      31.793  20.324  22.175  1.00  0.00     0.046 C 
ATOM     25  Cl  UNL A   1      34.840  16.087  25.177  1.00  0.00    -0.084 Cl
ATOM     26  C   UNL A   1      33.539  17.069  23.034  1.00  0.00     0.021 A 
ENDBRANCH  17  19
ENDBRANCH  14  17
ENDBRANCH   7   8
ENDBRANCH   6   7
ENDBRANCH   3   6
ENDBRANCH   1   2
BRANCH   1  27
ATOM     27  C   UNL A   1      37.948  19.942  24.831  1.00  0.00     0.042 C 
BRANCH  27  28
ATOM     28  C   UNL A   1      39.047  20.267  25.837  1.00  0.00     0.118 C 
BRANCH  28  29
ATOM     29  N   UNL A   1      40.067  19.224  25.910  1.00  0.00    -0.352 N 
ATOM     30  C   UNL A   1      41.423  19.334  26.080  1.00  0.00     0.251 C 
ATOM     31  H   UNL A   1      39.729  18.304  25.826  1.00  0.00     0.163 HD
ATOM     32  O   UNL A   1      42.151  18.361  25.889  1.00  0.00    -0.269 OA
BRANCH  30  33
ATOM     33  C   UNL A   1      42.002  20.628  26.478  1.00  0.00     0.039 A 
ATOM     34  C   UNL A   1      42.381  21.542  25.493  1.00  0.00     0.014 A 
ATOM     35  C   UNL A   1      42.162  20.936  27.830  1.00  0.00     0.014 A 
ATOM     36  C   UNL A   1      42.855  22.799  25.871  1.00  0.00     0.010 A 
ATOM     37  C   UNL A   1      42.537  22.219  28.202  1.00  0.00     0.010 A 
ATOM     38  C   UNL A   1      42.899  23.159  27.228  1.00  0.00    -0.014 A 
BRANCH  38  39
ATOM     39  C   UNL A   1      43.349  24.503  27.661  1.00  0.00     0.031 A 
ATOM     40  C   UNL A   1      42.330  25.548  28.023  1.00  0.00     0.074 A 
ATOM     41  C   UNL A   1      44.662  24.806  27.649  1.00  0.00     0.049 A 
ATOM     42  N   UNL A   1      42.508  26.809  28.323  1.00  0.00    -0.248 NA
ATOM     43  C   UNL A   1      40.919  25.128  28.010  1.00  0.00     0.031 C 
ATOM     44  C   UNL A   1      45.740  23.891  27.272  1.00  0.00     0.029 A 
ATOM     45  N   UNL A   1      45.310  25.977  27.953  1.00  0.00    -0.354 N 
ATOM     46  C   UNL A   1      41.235  27.332  28.516  1.00  0.00     0.074 A 
ATOM     47  C   UNL A   1      40.293  26.272  28.234  1.00  0.00     0.031 C 
ATOM     48  C   UNL A   1      46.917  24.527  27.390  1.00  0.00     0.029 A 
ATOM     49  C   UNL A   1      46.673  25.905  27.804  1.00  0.00     0.049 A 
ATOM     50  H   UNL A   1      44.842  26.791  28.248  1.00  0.00     0.167 HD
ATOM     51  C   UNL A   1      40.885  28.577  28.916  1.00  0.00     0.037 A 
ATOM     52  C   UNL A   1      47.619  26.848  27.973  1.00  0.00     0.037 A 
ATOM     53  C   UNL A   1      41.829  29.619  29.216  1.00  0.00     0.049 A 
ATOM     54  C   UNL A   1      47.202  28.229  28.405  1.00  0.00     0.074 A 
ATOM     55  C   UNL A   1      41.583  30.897  29.685  1.00  0.00     0.029 A 
ATOM     56  N   UNL A   1      43.205  29.502  29.073  1.00  0.00    -0.354 N 
ATOM     57  N   UNL A   1      46.000  28.693  28.649  1.00  0.00    -0.248 NA
ATOM     58  C   UNL A   1      48.276  29.215  28.589  1.00  0.00     0.031 C 
ATOM     59  C   UNL A   1      42.806  31.571  29.773  1.00  0.00     0.029 A 
ATOM     60  C   UNL A   1      43.818  30.694  29.420  1.00  0.00     0.049 A 
ATOM     61  H   UNL A   1      43.674  28.691  28.769  1.00  0.00     0.167 HD
ATOM     62  C   UNL A   1      46.175  30.012  29.047  1.00  0.00     0.074 A 
ATOM     63  C   UNL A   1      47.600  30.269  29.024  1.00  0.00     0.031 C 
ATOM     64  C   UNL A   1      45.240  30.928  29.402  1.00  0.00     0.037 A 
BRANCH  51  65
ATOM     65  C   UNL A   1      39.419  28.873  29.050  1.00  0.00     0.057 A 
ATOM     66  C   UNL A   1      38.735  28.703  30.262  1.00  0.00     0.134 A 
ATOM     67  C   UNL A   1      38.684  29.356  27.961  1.00  0.00     0.134 A 
ATOM     68  F   UNL A   1      39.375  28.231  31.344  1.00  0.00    -0.206 F 
ATOM     69  C   UNL A   1      37.369  28.970  30.377  1.00  0.00     0.040 A 
ATOM     70  C   UNL A   1      37.325  29.658  28.071  1.00  0.00     0.040 A 
ATOM     71  F   UNL A   1      39.274  29.548  26.772  1.00  0.00    -0.206 F 
ATOM     72  C   UNL A   1      36.663  29.456  29.280  1.00  0.00     0.006 A 
ENDBRANCH  51  65
BRANCH  52  73
ATOM     73  C   UNL A   1      49.050  26.519  27.755  1.00  0.00     0.057 A 
ATOM     74  C   UNL A   1      49.625  26.609  26.482  1.00  0.00     0.134 A 
ATOM     75  C   UNL A   1      49.874  26.099  28.806  1.00  0.00     0.134 A 
ATOM     76  F   UNL A   1      48.884  26.990  25.432  1.00  0.00    -0.206 F 
ATOM     77  C   UNL A   1      50.961  26.272  26.256  1.00  0.00     0.040 A 
ATOM     78  C   UNL A   1      51.219  25.785  28.600  1.00  0.00     0.040 A 
ATOM     79  F   UNL A   1      49.388  26.002  30.051  1.00  0.00    -0.206 F 
ATOM     80  C   UNL A   1      51.764  25.863  27.319  1.00  0.00     0.006 A 
ENDBRANCH  52  73
BRANCH  64  81
ATOM     81  C   UNL A   1      45.730  32.278  29.841  1.00  0.00     0.057 A 
ATOM     82  C   UNL A   1      46.079  32.547  31.170  1.00  0.00     0.134 A 
ATOM     83  C   UNL A   1      45.897  33.309  28.906  1.00  0.00     0.134 A 
ATOM     84  F   UNL A   1      45.931  31.607  32.116  1.00  0.00    -0.206 F 
ATOM     85  C   UNL A   1      46.552  33.801  31.559  1.00  0.00     0.040 A 
ATOM     86  C   UNL A   1      46.400  34.556  29.278  1.00  0.00     0.040 A 
ATOM     87  F   UNL A   1      45.592  33.115  27.615  1.00  0.00    -0.206 F 
ATOM     88  C   UNL A   1      46.721  34.807  30.610  1.00  0.00     0.006 A 
ENDBRANCH  64  81
ENDBRANCH  38  39
ENDBRANCH  30  33
ENDBRANCH  28  29
ENDBRANCH  27  28
ENDBRANCH   1  27
TORSDOF 15
ENDMDL
MODEL 3
REMARK VINA RESULT:     -11.6      5.151      9.456
REMARK SMILES CCc1c(C)nc(Nc2cc(Cl)ccc2C)nc1OCC(=O)NCCCNC(=O)c1ccc(-c2c3nc(c(-c4c(F)cccc4F)c4ccc([nH]4)c(-c4c(F)cccc4F)c4nc(c(-c5c(F)cccc5F)c5ccc2[nH]5)C=C4)C=C3)cc1
REMARK SMILES IDX 24 1 23 2 21 3 22 4 20 6 19 7 18 8 3 9 4 10 5 11 6 12 17 13
REMARK SMILES IDX 7 14 2 15 1 16 8 17 9 19 10 20 15 21 11 22 14 23 16 24 12 25
REMARK SMILES IDX 13 26 25 27 26 28 27 29 28 30 29 32 30 33 31 34 83 35 32 36
REMARK SMILES IDX 82 37 33 38 34 39 35 40 76 41 36 42 81 43 75 44 77 45 37 46
REMARK SMILES IDX 80 47 74 48 73 49 38 51 64 52 47 53 63 54 48 55 51 56 62 57
REMARK SMILES IDX 78 58 49 59 50 60 61 62 79 63 52 64 39 65 40 66 45 67 41 68
REMARK SMILES IDX 42 69 44 70 46 71 43 72 65 73 66 74 71 75 67 76 68 77 70 78
REMARK SMILES IDX 72 79 69 80 53 81 54 82 59 83 55 84 56 85 58 86 60 87 57 88
REMARK H PARENT 23 5 8 18 27 31 77 50 51 61
REMARK Flexibility Score: inf
ROOT
ATOM      1  C   UNL A   1      31.966  30.508  26.883  1.00  0.00     0.117 C 
ENDROOT
BRANCH   1   2
ATOM      2  N   UNL A   1      33.285  30.322  27.452  1.00  0.00    -0.353 N 
ATOM      3  C   UNL A   1      34.066  29.209  27.475  1.00  0.00     0.258 C 
ATOM      4  O   UNL A   1      35.085  29.252  28.166  1.00  0.00    -0.271 OA
ATOM      5  H   UNL A   1      33.673  31.117  27.883  1.00  0.00     0.163 HD
BRANCH   3   6
ATOM      6  C   UNL A   1      33.717  28.000  26.586  1.00  0.00     0.331 C 
BRANCH   6   7
ATOM      7  O   UNL A   1      34.018  27.812  25.223  1.00  0.00    -0.467 OA
BRANCH   7   8
ATOM      8  C   UNL A   1      33.268  26.976  24.456  1.00  0.00     0.222 A 
ATOM      9  C   UNL A   1      33.581  25.651  24.188  1.00  0.00     0.035 A 
ATOM     10  C   UNL A   1      32.690  25.039  23.306  1.00  0.00     0.050 A 
ATOM     11  C   UNL A   1      32.769  23.595  22.902  1.00  0.00     0.067 C 
ATOM     12  N   UNL A   1      31.733  25.710  22.648  1.00  0.00    -0.218 NA
ATOM     13  N   UNL A   1      32.302  27.666  23.787  1.00  0.00    -0.177 NA
ATOM     14  C   UNL A   1      31.584  27.013  22.867  1.00  0.00     0.230 A 
BRANCH   9  15
ATOM     15  C   UNL A   1      34.742  24.823  24.684  1.00  0.00     0.040 C 
ATOM     16  C   UNL A   1      34.669  24.028  25.976  1.00  0.00     0.009 C 
ENDBRANCH   9  15
BRANCH  14  17
ATOM     17  N   UNL A   1      30.708  27.729  22.038  1.00  0.00    -0.324 N 
ATOM     18  H   UNL A   1      30.821  27.615  21.067  1.00  0.00     0.170 HD
BRANCH  17  19
ATOM     19  C   UNL A   1      29.680  28.599  22.463  1.00  0.00     0.045 A 
ATOM     20  C   UNL A   1      29.720  29.949  22.069  1.00  0.00     0.047 A 
ATOM     21  C   UNL A   1      28.537  28.135  23.155  1.00  0.00    -0.027 A 
ATOM     22  C   UNL A   1      28.637  30.798  22.316  1.00  0.00     0.043 A 
ATOM     23  C   UNL A   1      27.448  29.001  23.376  1.00  0.00     0.007 A 
ATOM     24  C   UNL A   1      28.450  26.730  23.690  1.00  0.00     0.046 C 
ATOM     25  Cl  UNL A   1      28.696  32.441  21.800  1.00  0.00    -0.084 Cl
ATOM     26  C   UNL A   1      27.495  30.326  22.954  1.00  0.00     0.021 A 
ENDBRANCH  17  19
ENDBRANCH  14  17
ENDBRANCH   7   8
ENDBRANCH   6   7
ENDBRANCH   3   6
ENDBRANCH   1   2
BRANCH   1  27
ATOM     27  C   UNL A   1      31.573  31.976  26.898  1.00  0.00     0.042 C 
BRANCH  27  28
ATOM     28  C   UNL A   1      32.767  32.923  26.854  1.00  0.00     0.118 C 
BRANCH  28  29
ATOM     29  N   UNL A   1      32.548  34.139  27.633  1.00  0.00    -0.352 N 
ATOM     30  C   UNL A   1      33.147  34.560  28.792  1.00  0.00     0.251 C 
ATOM     31  H   UNL A   1      31.866  34.750  27.270  1.00  0.00     0.163 HD
ATOM     32  O   UNL A   1      32.676  35.501  29.427  1.00  0.00    -0.269 OA
BRANCH  30  33
ATOM     33  C   UNL A   1      34.353  33.867  29.277  1.00  0.00     0.039 A 
ATOM     34  C   UNL A   1      35.612  34.344  28.909  1.00  0.00     0.014 A 
ATOM     35  C   UNL A   1      34.233  32.750  30.106  1.00  0.00     0.014 A 
ATOM     36  C   UNL A   1      36.755  33.738  29.433  1.00  0.00     0.010 A 
ATOM     37  C   UNL A   1      35.363  32.214  30.704  1.00  0.00     0.010 A 
ATOM     38  C   UNL A   1      36.637  32.693  30.365  1.00  0.00    -0.014 A 
BRANCH  38  39
ATOM     39  C   UNL A   1      37.828  32.061  30.980  1.00  0.00     0.031 A 
ATOM     40  C   UNL A   1      38.561  30.977  30.240  1.00  0.00     0.074 A 
ATOM     41  C   UNL A   1      38.197  32.404  32.229  1.00  0.00     0.049 A 
ATOM     42  N   UNL A   1      39.555  30.228  30.640  1.00  0.00    -0.248 NA
ATOM     43  C   UNL A   1      38.089  30.670  28.879  1.00  0.00     0.031 C 
ATOM     44  C   UNL A   1      37.535  33.407  33.065  1.00  0.00     0.029 A 
ATOM     45  N   UNL A   1      39.215  31.933  33.019  1.00  0.00    -0.354 N 
ATOM     46  C   UNL A   1      39.813  29.353  29.592  1.00  0.00     0.074 A 
ATOM     47  C   UNL A   1      38.830  29.619  28.566  1.00  0.00     0.031 C 
ATOM     48  C   UNL A   1      38.179  33.494  34.240  1.00  0.00     0.029 A 
ATOM     49  C   UNL A   1      39.267  32.521  34.259  1.00  0.00     0.049 A 
ATOM     50  H   UNL A   1      39.848  31.238  32.725  1.00  0.00     0.167 HD
ATOM     51  C   UNL A   1      40.796  28.428  29.485  1.00  0.00     0.037 A 
ATOM     52  C   UNL A   1      40.092  32.293  35.298  1.00  0.00     0.037 A 
ATOM     53  C   UNL A   1      41.784  28.185  30.502  1.00  0.00     0.049 A 
ATOM     54  C   UNL A   1      41.168  31.250  35.159  1.00  0.00     0.074 A 
ATOM     55  C   UNL A   1      42.857  27.313  30.471  1.00  0.00     0.029 A 
ATOM     56  N   UNL A   1      41.815  28.817  31.738  1.00  0.00    -0.354 N 
ATOM     57  N   UNL A   1      41.444  30.476  34.137  1.00  0.00    -0.248 NA
ATOM     58  C   UNL A   1      42.051  31.053  36.317  1.00  0.00     0.031 C 
ATOM     59  C   UNL A   1      43.506  27.377  31.707  1.00  0.00     0.029 A 
ATOM     60  C   UNL A   1      42.875  28.334  32.486  1.00  0.00     0.049 A 
ATOM     61  H   UNL A   1      41.178  29.505  32.036  1.00  0.00     0.167 HD
ATOM     62  C   UNL A   1      42.550  29.726  34.515  1.00  0.00     0.074 A 
ATOM     63  C   UNL A   1      42.901  30.148  35.855  1.00  0.00     0.031 C 
ATOM     64  C   UNL A   1      43.217  28.775  33.815  1.00  0.00     0.037 A 
BRANCH  51  65
ATOM     65  C   UNL A   1      40.846  27.616  28.223  1.00  0.00     0.057 A 
ATOM     66  C   UNL A   1      41.587  28.025  27.106  1.00  0.00     0.134 A 
ATOM     67  C   UNL A   1      40.164  26.396  28.131  1.00  0.00     0.134 A 
ATOM     68  F   UNL A   1      42.255  29.189  27.121  1.00  0.00    -0.206 F 
ATOM     69  C   UNL A   1      41.620  27.269  25.932  1.00  0.00     0.040 A 
ATOM     70  C   UNL A   1      40.215  25.616  26.974  1.00  0.00     0.040 A 
ATOM     71  F   UNL A   1      39.439  25.940  29.163  1.00  0.00    -0.206 F 
ATOM     72  C   UNL A   1      40.938  26.056  25.868  1.00  0.00     0.006 A 
ENDBRANCH  51  65
BRANCH  52  73
ATOM     73  C   UNL A   1      39.950  33.078  36.551  1.00  0.00     0.057 A 
ATOM     74  C   UNL A   1      39.061  32.678  37.555  1.00  0.00     0.134 A 
ATOM     75  C   UNL A   1      40.690  34.245  36.773  1.00  0.00     0.134 A 
ATOM     76  F   UNL A   1      38.313  31.577  37.395  1.00  0.00    -0.206 F 
ATOM     77  C   UNL A   1      38.893  33.423  38.724  1.00  0.00     0.040 A 
ATOM     78  C   UNL A   1      40.553  34.985  37.949  1.00  0.00     0.040 A 
ATOM     79  F   UNL A   1      41.567  34.677  35.855  1.00  0.00    -0.206 F 
ATOM     80  C   UNL A   1      39.645  34.579  38.925  1.00  0.00     0.006 A 
ENDBRANCH  52  73
BRANCH  64  81
ATOM     81  C   UNL A   1      44.422  28.158  34.466  1.00  0.00     0.057 A 
ATOM     82  C   UNL A   1      44.341  26.981  35.220  1.00  0.00     0.134 A 
ATOM     83  C   UNL A   1      45.690  28.731  34.294  1.00  0.00     0.134 A 
ATOM     84  F   UNL A   1      43.155  26.390  35.432  1.00  0.00    -0.206 F 
ATOM     85  C   UNL A   1      45.473  26.409  35.801  1.00  0.00     0.040 A 
ATOM     86  C   UNL A   1      46.833  28.149  34.843  1.00  0.00     0.040 A 
ATOM     87  F   UNL A   1      45.840  29.852  33.574  1.00  0.00    -0.206 F 
ATOM     88  C   UNL A   1      46.725  26.989  35.606  1.00  0.00     0.006 A 
ENDBRANCH  64  81
ENDBRANCH  38  39
ENDBRANCH  30  33
ENDBRANCH  28  29
ENDBRANCH  27  28
ENDBRANCH   1  27
TORSDOF 15
ENDMDL
