MODEL 1
REMARK VINA RESULT:     -12.9      0.000      0.000
REMARK SMILES O=C(NCCCNC(=O)[C@@H](Cc1ccc(F)cc1)NC(=O)c1ccn(C2CCCC2)n1)c1ccc(-c2c3nc(c(-c4c(F)cccc4F)c4ccc([nH]4)c(-c4c(F)cccc4F)c4nc(c(-c5c(F)cccc5F)c5ccc2[nH]5)C=C4)C=C3)cc1
REMARK SMILES IDX 5 1 4 2 3 3 1 4 2 5 32 7 33 8 85 9 34 10 84 11 35 12 36 13
REMARK SMILES IDX 37 14 78 15 38 16 83 17 77 18 79 19 39 20 82 21 76 22 75 23
REMARK SMILES IDX 40 25 66 26 49 27 65 28 50 29 53 30 64 31 80 32 51 33 52 34
REMARK SMILES IDX 63 36 81 37 54 38 41 39 42 40 47 41 43 42 44 43 46 44 48 45
REMARK SMILES IDX 45 46 67 47 68 48 73 49 69 50 70 51 72 52 74 53 71 54 55 55
REMARK SMILES IDX 56 56 61 57 57 58 58 59 60 60 62 61 59 62 6 63 7 64 8 65
REMARK SMILES IDX 9 67 10 68 11 69 12 70 13 71 18 72 14 73 17 74 15 75 16 76
REMARK SMILES IDX 19 77 20 78 21 80 22 81 23 82 31 83 24 84 25 85 26 86 27 87
REMARK SMILES IDX 30 88 28 89 29 90
REMARK H PARENT 3 6 79 24 53 35 7 66 19 79
REMARK Flexibility Score: inf
ROOT
ATOM      1  C   UNL A   1      32.248  30.297  26.030  1.00  0.00     0.042 C 
ENDROOT
BRANCH   1   2
ATOM      2  C   UNL A   1      33.203  30.180  27.210  1.00  0.00     0.118 C 
BRANCH   2   3
ATOM      3  N   UNL A   1      33.659  31.447  27.733  1.00  0.00    -0.352 N 
ATOM      4  O   UNL A   1      34.863  33.116  28.510  1.00  0.00    -0.269 OA
ATOM      5  C   UNL A   1      34.834  31.908  28.257  1.00  0.00     0.251 C 
ATOM      6  H   UNL A   1      32.959  32.140  27.706  1.00  0.00     0.163 HD
BRANCH   5   7
ATOM      7  C   UNL A   1      36.044  31.089  28.575  1.00  0.00     0.039 A 
ATOM      8  C   UNL A   1      36.153  29.697  28.526  1.00  0.00     0.014 A 
ATOM      9  C   UNL A   1      37.192  31.828  28.918  1.00  0.00     0.014 A 
ATOM     10  C   UNL A   1      37.369  29.064  28.837  1.00  0.00     0.010 A 
ATOM     11  C   UNL A   1      38.403  31.206  29.211  1.00  0.00     0.010 A 
ATOM     12  C   UNL A   1      38.498  29.814  29.188  1.00  0.00    -0.014 A 
BRANCH  12  13
ATOM     13  C   UNL A   1      39.795  29.146  29.401  1.00  0.00     0.031 A 
ATOM     14  C   UNL A   1      40.228  28.922  30.821  1.00  0.00     0.074 A 
ATOM     15  C   UNL A   1      40.461  28.486  28.427  1.00  0.00     0.049 A 
ATOM     16  N   UNL A   1      41.384  29.139  31.371  1.00  0.00    -0.248 NA
ATOM     17  C   UNL A   1      39.231  28.356  31.745  1.00  0.00     0.031 C 
ATOM     18  C   UNL A   1      40.028  28.250  27.047  1.00  0.00     0.029 A 
ATOM     19  N   UNL A   1      41.622  27.767  28.513  1.00  0.00    -0.354 N 
ATOM     20  C   UNL A   1      41.309  28.616  32.665  1.00  0.00     0.074 A 
ATOM     21  C   UNL A   1      39.943  28.204  32.862  1.00  0.00     0.031 C 
ATOM     22  C   UNL A   1      40.792  27.278  26.501  1.00  0.00     0.029 A 
ATOM     23  C   UNL A   1      41.844  26.918  27.439  1.00  0.00     0.049 A 
ATOM     24  H   UNL A   1      42.245  27.844  29.272  1.00  0.00     0.167 HD
ATOM     25  C   UNL A   1      42.393  28.424  33.469  1.00  0.00     0.037 A 
ATOM     26  C   UNL A   1      42.779  25.943  27.344  1.00  0.00     0.037 A 
ATOM     27  C   UNL A   1      43.540  29.170  33.046  1.00  0.00     0.049 A 
ATOM     28  C   UNL A   1      43.819  26.190  28.367  1.00  0.00     0.074 A 
ATOM     29  C   UNL A   1      43.833  30.511  32.895  1.00  0.00     0.029 A 
ATOM     30  N   UNL A   1      44.573  28.503  32.440  1.00  0.00    -0.354 N 
ATOM     31  N   UNL A   1      44.683  27.164  28.338  1.00  0.00    -0.248 NA
ATOM     32  C   UNL A   1      43.710  25.489  29.638  1.00  0.00     0.031 C 
ATOM     33  C   UNL A   1      44.742  30.573  31.800  1.00  0.00     0.029 A 
ATOM     34  C   UNL A   1      44.946  29.263  31.364  1.00  0.00     0.049 A 
ATOM     35  H   UNL A   1      44.967  27.646  32.722  1.00  0.00     0.167 HD
ATOM     36  C   UNL A   1      44.924  27.460  29.669  1.00  0.00     0.074 A 
ATOM     37  C   UNL A   1      44.413  26.316  30.412  1.00  0.00     0.031 C 
ATOM     38  C   UNL A   1      45.261  28.723  30.062  1.00  0.00     0.037 A 
BRANCH  25  39
ATOM     39  C   UNL A   1      42.479  27.364  34.534  1.00  0.00     0.057 A 
ATOM     40  C   UNL A   1      41.920  27.525  35.817  1.00  0.00     0.134 A 
ATOM     41  C   UNL A   1      42.901  26.061  34.220  1.00  0.00     0.134 A 
ATOM     42  F   UNL A   1      41.368  28.684  36.201  1.00  0.00    -0.206 F 
ATOM     43  C   UNL A   1      41.824  26.476  36.737  1.00  0.00     0.040 A 
ATOM     44  C   UNL A   1      42.767  24.992  35.116  1.00  0.00     0.040 A 
ATOM     45  F   UNL A   1      43.401  25.773  33.008  1.00  0.00    -0.206 F 
ATOM     46  C   UNL A   1      42.233  25.199  36.382  1.00  0.00     0.006 A 
ENDBRANCH  25  39
BRANCH  26  47
ATOM     47  C   UNL A   1      42.728  24.666  26.594  1.00  0.00     0.057 A 
ATOM     48  C   UNL A   1      42.025  23.553  27.083  1.00  0.00     0.134 A 
ATOM     49  C   UNL A   1      43.591  24.424  25.516  1.00  0.00     0.134 A 
ATOM     50  F   UNL A   1      41.232  23.651  28.160  1.00  0.00    -0.206 F 
ATOM     51  C   UNL A   1      42.181  22.272  26.543  1.00  0.00     0.040 A 
ATOM     52  C   UNL A   1      43.766  23.144  24.973  1.00  0.00     0.040 A 
ATOM     53  F   UNL A   1      44.337  25.413  25.002  1.00  0.00    -0.206 F 
ATOM     54  C   UNL A   1      43.066  22.061  25.494  1.00  0.00     0.006 A 
ENDBRANCH  26  47
BRANCH  38  55
ATOM     55  C   UNL A   1      45.676  29.707  29.004  1.00  0.00     0.057 A 
ATOM     56  C   UNL A   1      44.687  30.417  28.313  1.00  0.00     0.134 A 
ATOM     57  C   UNL A   1      46.994  29.848  28.548  1.00  0.00     0.134 A 
ATOM     58  F   UNL A   1      43.395  30.284  28.653  1.00  0.00    -0.206 F 
ATOM     59  C   UNL A   1      44.995  31.235  27.223  1.00  0.00     0.040 A 
ATOM     60  C   UNL A   1      47.319  30.691  27.481  1.00  0.00     0.040 A 
ATOM     61  F   UNL A   1      47.993  29.129  29.078  1.00  0.00    -0.206 F 
ATOM     62  C   UNL A   1      46.315  31.383  26.810  1.00  0.00     0.006 A 
ENDBRANCH  38  55
ENDBRANCH  12  13
ENDBRANCH   5   7
ENDBRANCH   2   3
ENDBRANCH   1   2
BRANCH   1  63
ATOM     63  C   UNL A   1      32.535  29.379  24.839  1.00  0.00     0.117 C 
BRANCH  63  64
ATOM     64  N   UNL A   1      31.545  29.545  23.790  1.00  0.00    -0.354 N 
ATOM     65  C   UNL A   1      31.072  28.723  22.817  1.00  0.00     0.242 C 
ATOM     66  H   UNL A   1      31.132  30.438  23.780  1.00  0.00     0.163 HD
ATOM     67  O   UNL A   1      30.486  29.290  21.884  1.00  0.00    -0.273 OA
BRANCH  65  68
ATOM     68  C   UNL A   1      31.301  27.193  22.740  1.00  0.00     0.176 C 
BRANCH  68  69
ATOM     69  C   UNL A   1      30.239  26.349  23.479  1.00  0.00     0.070 C 
BRANCH  69  70
ATOM     70  C   UNL A   1      30.670  25.399  24.573  1.00  0.00    -0.045 A 
ATOM     71  C   UNL A   1      31.375  25.896  25.686  1.00  0.00     0.007 A 
ATOM     72  C   UNL A   1      30.448  24.016  24.481  1.00  0.00     0.007 A 
ATOM     73  C   UNL A   1      31.778  25.041  26.714  1.00  0.00     0.039 A 
ATOM     74  C   UNL A   1      30.847  23.163  25.513  1.00  0.00     0.039 A 
ATOM     75  C   UNL A   1      31.498  23.683  26.624  1.00  0.00     0.123 A 
ATOM     76  F   UNL A   1      31.852  22.871  27.626  1.00  0.00    -0.207 F 
ENDBRANCH  69  70
ENDBRANCH  68  69
BRANCH  68  77
ATOM     77  N   UNL A   1      31.679  26.663  21.432  1.00  0.00    -0.339 N 
ATOM     78  C   UNL A   1      32.632  25.713  21.114  1.00  0.00     0.272 C 
ATOM     79  H   UNL A   1      31.184  27.035  20.666  1.00  0.00     0.164 HD
ATOM     80  O   UNL A   1      32.903  25.578  19.921  1.00  0.00    -0.267 OA
BRANCH  78  81
ATOM     81  C   UNL A   1      33.264  24.902  22.173  1.00  0.00     0.150 A 
ATOM     82  C   UNL A   1      34.064  25.336  23.267  1.00  0.00     0.056 A 
ATOM     83  N   UNL A   1      33.087  23.567  22.231  1.00  0.00    -0.167 NA
ATOM     84  C   UNL A   1      34.403  24.198  23.959  1.00  0.00     0.110 A 
ATOM     85  N   UNL A   1      33.785  23.169  23.312  1.00  0.00    -0.269 N 
BRANCH  85  86
ATOM     86  C   UNL A   1      33.818  21.776  23.705  1.00  0.00     0.107 C 
ATOM     87  C   UNL A   1      34.053  21.545  25.197  1.00  0.00     0.027 C 
ATOM     88  C   UNL A   1      32.529  20.999  23.439  1.00  0.00     0.027 C 
ATOM     89  C   UNL A   1      33.702  20.074  25.383  1.00  0.00     0.002 C 
ATOM     90  C   UNL A   1      32.629  19.764  24.336  1.00  0.00     0.002 C 
ENDBRANCH  85  86
ENDBRANCH  78  81
ENDBRANCH  68  77
ENDBRANCH  65  68
ENDBRANCH  63  64
ENDBRANCH   1  63
TORSDOF 15
ENDMDL
MODEL 2
REMARK VINA RESULT:     -12.9      1.385      2.172
REMARK SMILES O=C(NCCCNC(=O)[C@@H](Cc1ccc(F)cc1)NC(=O)c1ccn(C2CCCC2)n1)c1ccc(-c2c3nc(c(-c4c(F)cccc4F)c4ccc([nH]4)c(-c4c(F)cccc4F)c4nc(c(-c5c(F)cccc5F)c5ccc2[nH]5)C=C4)C=C3)cc1
REMARK SMILES IDX 5 1 4 2 3 3 1 4 2 5 32 7 33 8 85 9 34 10 84 11 35 12 36 13
REMARK SMILES IDX 37 14 78 15 38 16 83 17 77 18 79 19 39 20 82 21 76 22 75 23
REMARK SMILES IDX 40 25 66 26 49 27 65 28 50 29 53 30 64 31 80 32 51 33 52 34
REMARK SMILES IDX 63 36 81 37 54 38 41 39 42 40 47 41 43 42 44 43 46 44 48 45
REMARK SMILES IDX 45 46 67 47 68 48 73 49 69 50 70 51 72 52 74 53 71 54 55 55
REMARK SMILES IDX 56 56 61 57 57 58 58 59 60 60 62 61 59 62 6 63 7 64 8 65
REMARK SMILES IDX 9 67 10 68 11 69 12 70 13 71 18 72 14 73 17 74 15 75 16 76
REMARK SMILES IDX 19 77 20 78 21 80 22 81 23 82 31 83 24 84 25 85 26 86 27 87
REMARK SMILES IDX 30 88 28 89 29 90
REMARK H PARENT 3 6 79 24 53 35 7 66 19 79
REMARK Flexibility Score: inf
ROOT
ATOM      1  C   UNL A   1      33.465  29.672  27.263  1.00  0.00     0.042 C 
ENDROOT
BRANCH   1   2
ATOM      2  C   UNL A   1      34.108  31.052  27.285  1.00  0.00     0.118 C 
BRANCH   2   3
ATOM      3  N   UNL A   1      34.199  31.644  28.599  1.00  0.00    -0.352 N 
ATOM      4  O   UNL A   1      34.893  32.423  30.536  1.00  0.00    -0.269 OA
ATOM      5  C   UNL A   1      35.173  31.729  29.554  1.00  0.00     0.251 C 
ATOM      6  H   UNL A   1      33.364  32.090  28.870  1.00  0.00     0.163 HD
BRANCH   5   7
ATOM      7  C   UNL A   1      36.500  31.041  29.529  1.00  0.00     0.039 A 
ATOM      8  C   UNL A   1      37.759  31.646  29.472  1.00  0.00     0.014 A 
ATOM      9  C   UNL A   1      36.448  29.637  29.615  1.00  0.00     0.014 A 
ATOM     10  C   UNL A   1      38.928  30.866  29.473  1.00  0.00     0.010 A 
ATOM     11  C   UNL A   1      37.605  28.861  29.633  1.00  0.00     0.010 A 
ATOM     12  C   UNL A   1      38.857  29.469  29.546  1.00  0.00    -0.014 A 
BRANCH  12  13
ATOM     13  C   UNL A   1      40.090  28.670  29.662  1.00  0.00     0.031 A 
ATOM     14  C   UNL A   1      40.684  28.517  31.034  1.00  0.00     0.074 A 
ATOM     15  C   UNL A   1      40.545  27.856  28.684  1.00  0.00     0.049 A 
ATOM     16  N   UNL A   1      41.920  28.640  31.412  1.00  0.00    -0.248 NA
ATOM     17  C   UNL A   1      39.764  28.154  32.125  1.00  0.00     0.031 C 
ATOM     18  C   UNL A   1      39.908  27.558  27.398  1.00  0.00     0.029 A 
ATOM     19  N   UNL A   1      41.623  27.012  28.697  1.00  0.00    -0.354 N 
ATOM     20  C   UNL A   1      41.963  28.241  32.751  1.00  0.00     0.074 A 
ATOM     21  C   UNL A   1      40.599  28.013  33.155  1.00  0.00     0.031 C 
ATOM     22  C   UNL A   1      40.483  26.459  26.861  1.00  0.00     0.029 A 
ATOM     23  C   UNL A   1      41.605  26.056  27.693  1.00  0.00     0.049 A 
ATOM     24  H   UNL A   1      42.346  27.079  29.362  1.00  0.00     0.167 HD
ATOM     25  C   UNL A   1      43.117  27.988  33.430  1.00  0.00     0.037 A 
ATOM     26  C   UNL A   1      42.409  24.972  27.580  1.00  0.00     0.037 A 
ATOM     27  C   UNL A   1      44.271  28.553  32.796  1.00  0.00     0.049 A 
ATOM     28  C   UNL A   1      43.597  25.178  28.438  1.00  0.00     0.074 A 
ATOM     29  C   UNL A   1      44.684  29.832  32.479  1.00  0.00     0.029 A 
ATOM     30  N   UNL A   1      45.135  27.718  32.137  1.00  0.00    -0.354 N 
ATOM     31  N   UNL A   1      44.550  26.035  28.206  1.00  0.00    -0.248 NA
ATOM     32  C   UNL A   1      43.585  24.605  29.775  1.00  0.00     0.031 C 
ATOM     33  C   UNL A   1      45.440  29.692  31.279  1.00  0.00     0.029 A 
ATOM     34  C   UNL A   1      45.441  28.335  30.953  1.00  0.00     0.049 A 
ATOM     35  H   UNL A   1      45.469  26.848  32.452  1.00  0.00     0.167 HD
ATOM     36  C   UNL A   1      44.998  26.411  29.461  1.00  0.00     0.074 A 
ATOM     37  C   UNL A   1      44.470  25.403  30.371  1.00  0.00     0.031 C 
ATOM     38  C   UNL A   1      45.518  27.653  29.682  1.00  0.00     0.037 A 
BRANCH  25  39
ATOM     39  C   UNL A   1      43.230  27.020  34.576  1.00  0.00     0.057 A 
ATOM     40  C   UNL A   1      43.512  25.651  34.394  1.00  0.00     0.134 A 
ATOM     41  C   UNL A   1      43.311  27.480  35.901  1.00  0.00     0.134 A 
ATOM     42  F   UNL A   1      43.591  25.108  33.172  1.00  0.00    -0.206 F 
ATOM     43  C   UNL A   1      43.814  24.793  35.456  1.00  0.00     0.040 A 
ATOM     44  C   UNL A   1      43.657  26.640  36.969  1.00  0.00     0.040 A 
ATOM     45  F   UNL A   1      43.115  28.776  36.193  1.00  0.00    -0.206 F 
ATOM     46  C   UNL A   1      43.903  25.290  36.749  1.00  0.00     0.006 A 
ENDBRANCH  25  39
BRANCH  26  47
ATOM     47  C   UNL A   1      42.120  23.652  26.973  1.00  0.00     0.057 A 
ATOM     48  C   UNL A   1      41.024  22.875  27.384  1.00  0.00     0.134 A 
ATOM     49  C   UNL A   1      43.069  23.000  26.170  1.00  0.00     0.134 A 
ATOM     50  F   UNL A   1      40.097  23.371  28.217  1.00  0.00    -0.206 F 
ATOM     51  C   UNL A   1      40.883  21.530  27.030  1.00  0.00     0.040 A 
ATOM     52  C   UNL A   1      42.947  21.649  25.818  1.00  0.00     0.040 A 
ATOM     53  F   UNL A   1      44.172  23.642  25.758  1.00  0.00    -0.206 F 
ATOM     54  C   UNL A   1      41.855  20.907  26.257  1.00  0.00     0.006 A 
ENDBRANCH  26  47
BRANCH  38  55
ATOM     55  C   UNL A   1      45.891  28.487  28.489  1.00  0.00     0.057 A 
ATOM     56  C   UNL A   1      47.235  28.555  28.102  1.00  0.00     0.134 A 
ATOM     57  C   UNL A   1      44.996  29.338  27.825  1.00  0.00     0.134 A 
ATOM     58  F   UNL A   1      48.160  27.815  28.734  1.00  0.00    -0.206 F 
ATOM     59  C   UNL A   1      47.668  29.422  27.096  1.00  0.00     0.040 A 
ATOM     60  C   UNL A   1      45.412  30.185  26.793  1.00  0.00     0.040 A 
ATOM     61  F   UNL A   1      43.712  29.421  28.195  1.00  0.00    -0.206 F 
ATOM     62  C   UNL A   1      46.754  30.234  26.431  1.00  0.00     0.006 A 
ENDBRANCH  38  55
ENDBRANCH  12  13
ENDBRANCH   5   7
ENDBRANCH   2   3
ENDBRANCH   1   2
BRANCH   1  63
ATOM     63  C   UNL A   1      33.979  28.708  26.191  1.00  0.00     0.117 C 
BRANCH  63  64
ATOM     64  N   UNL A   1      33.804  29.254  24.856  1.00  0.00    -0.354 N 
ATOM     65  C   UNL A   1      33.456  28.705  23.663  1.00  0.00     0.242 C 
ATOM     66  H   UNL A   1      33.973  30.222  24.805  1.00  0.00     0.163 HD
ATOM     67  O   UNL A   1      33.734  29.387  22.666  1.00  0.00    -0.273 OA
BRANCH  65  68
ATOM     68  C   UNL A   1      32.858  27.291  23.462  1.00  0.00     0.176 C 
BRANCH  68  69
ATOM     69  C   UNL A   1      31.626  26.985  24.342  1.00  0.00     0.070 C 
BRANCH  69  70
ATOM     70  C   UNL A   1      31.614  25.742  25.202  1.00  0.00    -0.045 A 
ATOM     71  C   UNL A   1      32.725  25.449  26.015  1.00  0.00     0.007 A 
ATOM     72  C   UNL A   1      30.549  24.829  25.164  1.00  0.00     0.007 A 
ATOM     73  C   UNL A   1      32.735  24.311  26.824  1.00  0.00     0.039 A 
ATOM     74  C   UNL A   1      30.558  23.693  25.979  1.00  0.00     0.039 A 
ATOM     75  C   UNL A   1      31.645  23.450  26.809  1.00  0.00     0.123 A 
ATOM     76  F   UNL A   1      31.639  22.380  27.612  1.00  0.00    -0.207 F 
ENDBRANCH  69  70
ENDBRANCH  68  69
BRANCH  68  77
ATOM     77  N   UNL A   1      32.730  26.836  22.079  1.00  0.00    -0.339 N 
ATOM     78  C   UNL A   1      33.049  25.610  21.528  1.00  0.00     0.272 C 
ATOM     79  H   UNL A   1      32.364  27.498  21.449  1.00  0.00     0.164 HD
ATOM     80  O   UNL A   1      33.035  25.534  20.299  1.00  0.00    -0.267 OA
BRANCH  78  81
ATOM     81  C   UNL A   1      33.369  24.459  22.395  1.00  0.00     0.150 A 
ATOM     82  C   UNL A   1      32.640  23.249  22.571  1.00  0.00     0.056 A 
ATOM     83  N   UNL A   1      34.501  24.426  23.127  1.00  0.00    -0.167 NA
ATOM     84  C   UNL A   1      33.357  22.507  23.478  1.00  0.00     0.110 A 
ATOM     85  N   UNL A   1      34.467  23.244  23.770  1.00  0.00    -0.269 N 
BRANCH  85  86
ATOM     86  C   UNL A   1      35.543  22.846  24.653  1.00  0.00     0.107 C 
ATOM     87  C   UNL A   1      36.722  22.174  23.953  1.00  0.00     0.027 C 
ATOM     88  C   UNL A   1      36.209  23.990  25.417  1.00  0.00     0.027 C 
ATOM     89  C   UNL A   1      37.812  22.180  25.016  1.00  0.00     0.002 C 
ATOM     90  C   UNL A   1      37.552  23.421  25.875  1.00  0.00     0.002 C 
ENDBRANCH  85  86
ENDBRANCH  78  81
ENDBRANCH  68  77
ENDBRANCH  65  68
ENDBRANCH  63  64
ENDBRANCH   1  63
TORSDOF 15
ENDMDL
MODEL 3
REMARK VINA RESULT:     -12.8      1.737      2.712
REMARK SMILES O=C(NCCCNC(=O)[C@@H](Cc1ccc(F)cc1)NC(=O)c1ccn(C2CCCC2)n1)c1ccc(-c2c3nc(c(-c4c(F)cccc4F)c4ccc([nH]4)c(-c4c(F)cccc4F)c4nc(c(-c5c(F)cccc5F)c5ccc2[nH]5)C=C4)C=C3)cc1
REMARK SMILES IDX 5 1 4 2 3 3 1 4 2 5 32 7 33 8 85 9 34 10 84 11 35 12 36 13
REMARK SMILES IDX 37 14 78 15 38 16 83 17 77 18 79 19 39 20 82 21 76 22 75 23
REMARK SMILES IDX 40 25 66 26 49 27 65 28 50 29 53 30 64 31 80 32 51 33 52 34
REMARK SMILES IDX 63 36 81 37 54 38 41 39 42 40 47 41 43 42 44 43 46 44 48 45
REMARK SMILES IDX 45 46 67 47 68 48 73 49 69 50 70 51 72 52 74 53 71 54 55 55
REMARK SMILES IDX 56 56 61 57 57 58 58 59 60 60 62 61 59 62 6 63 7 64 8 65
REMARK SMILES IDX 9 67 10 68 11 69 12 70 13 71 18 72 14 73 17 74 15 75 16 76
REMARK SMILES IDX 19 77 20 78 21 80 22 81 23 82 31 83 24 84 25 85 26 86 27 87
REMARK SMILES IDX 30 88 28 89 29 90
REMARK H PARENT 3 6 79 24 53 35 7 66 19 79
REMARK Flexibility Score: inf
ROOT
ATOM      1  C   UNL A   1      32.668  28.631  27.626  1.00  0.00     0.042 C 
ENDROOT
BRANCH   1   2
ATOM      2  C   UNL A   1      33.225  29.686  26.681  1.00  0.00     0.118 C 
BRANCH   2   3
ATOM      3  N   UNL A   1      33.509  30.956  27.309  1.00  0.00    -0.352 N 
ATOM      4  O   UNL A   1      34.479  32.690  28.253  1.00  0.00    -0.269 OA
ATOM      5  C   UNL A   1      34.600  31.507  27.920  1.00  0.00     0.251 C 
ATOM      6  H   UNL A   1      32.736  31.566  27.292  1.00  0.00     0.163 HD
BRANCH   5   7
ATOM      7  C   UNL A   1      35.882  30.809  28.243  1.00  0.00     0.039 A 
ATOM      8  C   UNL A   1      36.180  29.460  28.035  1.00  0.00     0.014 A 
ATOM      9  C   UNL A   1      36.892  31.632  28.776  1.00  0.00     0.014 A 
ATOM     10  C   UNL A   1      37.443  28.947  28.374  1.00  0.00     0.010 A 
ATOM     11  C   UNL A   1      38.151  31.130  29.099  1.00  0.00     0.010 A 
ATOM     12  C   UNL A   1      38.432  29.777  28.915  1.00  0.00    -0.014 A 
BRANCH  12  13
ATOM     13  C   UNL A   1      39.788  29.250  29.161  1.00  0.00     0.031 A 
ATOM     14  C   UNL A   1      40.191  29.029  30.591  1.00  0.00     0.074 A 
ATOM     15  C   UNL A   1      40.560  28.703  28.196  1.00  0.00     0.049 A 
ATOM     16  N   UNL A   1      41.294  29.356  31.193  1.00  0.00    -0.248 NA
ATOM     17  C   UNL A   1      39.231  28.324  31.456  1.00  0.00     0.031 C 
ATOM     18  C   UNL A   1      40.208  28.466  26.794  1.00  0.00     0.029 A 
ATOM     19  N   UNL A   1      41.791  28.115  28.309  1.00  0.00    -0.354 N 
ATOM     20  C   UNL A   1      41.231  28.785  32.467  1.00  0.00     0.074 A 
ATOM     21  C   UNL A   1      39.913  28.216  32.597  1.00  0.00     0.031 C 
ATOM     22  C   UNL A   1      41.097  27.604  26.251  1.00  0.00     0.029 A 
ATOM     23  C   UNL A   1      42.147  27.333  27.220  1.00  0.00     0.049 A 
ATOM     24  H   UNL A   1      42.372  28.237  29.094  1.00  0.00     0.167 HD
ATOM     25  C   UNL A   1      42.298  28.689  33.308  1.00  0.00     0.037 A 
ATOM     26  C   UNL A   1      43.190  26.473  27.134  1.00  0.00     0.037 A 
ATOM     27  C   UNL A   1      43.369  29.572  32.954  1.00  0.00     0.049 A 
ATOM     28  C   UNL A   1      44.156  26.800  28.206  1.00  0.00     0.074 A 
ATOM     29  C   UNL A   1      43.513  30.942  32.854  1.00  0.00     0.029 A 
ATOM     30  N   UNL A   1      44.492  29.045  32.372  1.00  0.00    -0.354 N 
ATOM     31  N   UNL A   1      44.905  27.865  28.240  1.00  0.00    -0.248 NA
ATOM     32  C   UNL A   1      44.080  26.050  29.450  1.00  0.00     0.031 C 
ATOM     33  C   UNL A   1      44.450  31.141  31.799  1.00  0.00     0.029 A 
ATOM     34  C   UNL A   1      44.816  29.878  31.334  1.00  0.00     0.049 A 
ATOM     35  H   UNL A   1      44.970  28.229  32.645  1.00  0.00     0.167 HD
ATOM     36  C   UNL A   1      45.061  28.142  29.588  1.00  0.00     0.074 A 
ATOM     37  C   UNL A   1      44.656  26.923  30.276  1.00  0.00     0.031 C 
ATOM     38  C   UNL A   1      45.238  29.420  30.031  1.00  0.00     0.037 A 
BRANCH  25  39
ATOM     39  C   UNL A   1      42.464  27.610  34.345  1.00  0.00     0.057 A 
ATOM     40  C   UNL A   1      41.905  27.699  35.635  1.00  0.00     0.134 A 
ATOM     41  C   UNL A   1      42.972  26.348  33.994  1.00  0.00     0.134 A 
ATOM     42  F   UNL A   1      41.277  28.807  36.052  1.00  0.00    -0.206 F 
ATOM     43  C   UNL A   1      41.886  26.623  36.528  1.00  0.00     0.040 A 
ATOM     44  C   UNL A   1      42.919  25.249  34.863  1.00  0.00     0.040 A 
ATOM     45  F   UNL A   1      43.483  26.126  32.773  1.00  0.00    -0.206 F 
ATOM     46  C   UNL A   1      42.380  25.386  36.137  1.00  0.00     0.006 A 
ENDBRANCH  25  39
BRANCH  26  47
ATOM     47  C   UNL A   1      43.311  25.224  26.347  1.00  0.00     0.057 A 
ATOM     48  C   UNL A   1      42.616  24.057  26.704  1.00  0.00     0.134 A 
ATOM     49  C   UNL A   1      44.321  25.069  25.386  1.00  0.00     0.134 A 
ATOM     50  F   UNL A   1      41.684  24.073  27.669  1.00  0.00    -0.206 F 
ATOM     51  C   UNL A   1      42.915  22.807  26.151  1.00  0.00     0.040 A 
ATOM     52  C   UNL A   1      44.639  23.821  24.832  1.00  0.00     0.040 A 
ATOM     53  F   UNL A   1      45.069  26.115  25.005  1.00  0.00    -0.206 F 
ATOM     54  C   UNL A   1      43.941  22.683  25.223  1.00  0.00     0.006 A 
ENDBRANCH  26  47
BRANCH  38  55
ATOM     55  C   UNL A   1      45.578  30.479  29.019  1.00  0.00     0.057 A 
ATOM     56  C   UNL A   1      46.903  30.918  28.916  1.00  0.00     0.134 A 
ATOM     57  C   UNL A   1      44.618  31.178  28.273  1.00  0.00     0.134 A 
ATOM     58  F   UNL A   1      47.868  30.338  29.648  1.00  0.00    -0.206 F 
ATOM     59  C   UNL A   1      47.261  31.997  28.103  1.00  0.00     0.040 A 
ATOM     60  C   UNL A   1      44.968  32.236  27.429  1.00  0.00     0.040 A 
ATOM     61  F   UNL A   1      43.313  30.900  28.386  1.00  0.00    -0.206 F 
ATOM     62  C   UNL A   1      46.293  32.653  27.348  1.00  0.00     0.006 A 
ENDBRANCH  38  55
ENDBRANCH  12  13
ENDBRANCH   5   7
ENDBRANCH   2   3
ENDBRANCH   1   2
BRANCH   1  63
ATOM     63  C   UNL A   1      31.396  27.917  27.161  1.00  0.00     0.117 C 
BRANCH  63  64
ATOM     64  N   UNL A   1      31.407  27.694  25.726  1.00  0.00    -0.354 N 
ATOM     65  C   UNL A   1      31.920  26.712  24.940  1.00  0.00     0.242 C 
ATOM     66  H   UNL A   1      30.949  28.400  25.218  1.00  0.00     0.163 HD
ATOM     67  O   UNL A   1      32.048  27.005  23.742  1.00  0.00    -0.273 OA
BRANCH  65  68
ATOM     68  C   UNL A   1      32.439  25.339  25.435  1.00  0.00     0.176 C 
BRANCH  68  69
ATOM     69  C   UNL A   1      33.941  25.314  25.794  1.00  0.00     0.070 C 
BRANCH  69  70
ATOM     70  C   UNL A   1      34.789  24.136  25.371  1.00  0.00    -0.045 A 
ATOM     71  C   UNL A   1      35.195  24.019  24.029  1.00  0.00     0.007 A 
ATOM     72  C   UNL A   1      35.129  23.111  26.268  1.00  0.00     0.007 A 
ATOM     73  C   UNL A   1      35.985  22.945  23.614  1.00  0.00     0.039 A 
ATOM     74  C   UNL A   1      35.924  22.040  25.853  1.00  0.00     0.039 A 
ATOM     75  C   UNL A   1      36.354  21.971  24.534  1.00  0.00     0.123 A 
ATOM     76  F   UNL A   1      37.141  20.962  24.145  1.00  0.00    -0.207 F 
ENDBRANCH  69  70
ENDBRANCH  68  69
BRANCH  68  77
ATOM     77  N   UNL A   1      31.586  24.634  26.390  1.00  0.00    -0.339 N 
ATOM     78  C   UNL A   1      31.057  23.360  26.316  1.00  0.00     0.272 C 
ATOM     79  H   UNL A   1      31.355  25.140  27.203  1.00  0.00     0.164 HD
ATOM     80  O   UNL A   1      30.207  23.063  27.155  1.00  0.00    -0.267 OA
BRANCH  78  81
ATOM     81  C   UNL A   1      31.522  22.414  25.284  1.00  0.00     0.150 A 
ATOM     82  C   UNL A   1      31.749  22.650  23.898  1.00  0.00     0.056 A 
ATOM     83  N   UNL A   1      31.847  21.142  25.594  1.00  0.00    -0.167 NA
ATOM     84  C   UNL A   1      32.177  21.452  23.378  1.00  0.00     0.110 A 
ATOM     85  N   UNL A   1      32.234  20.586  24.430  1.00  0.00    -0.269 N 
BRANCH  85  86
ATOM     86  C   UNL A   1      32.676  19.209  24.373  1.00  0.00     0.107 C 
ATOM     87  C   UNL A   1      32.460  18.530  23.022  1.00  0.00     0.027 C 
ATOM     88  C   UNL A   1      34.169  18.998  24.625  1.00  0.00     0.027 C 
ATOM     89  C   UNL A   1      33.299  17.263  23.129  1.00  0.00     0.002 C 
ATOM     90  C   UNL A   1      34.465  17.610  24.057  1.00  0.00     0.002 C 
ENDBRANCH  85  86
ENDBRANCH  78  81
ENDBRANCH  68  77
ENDBRANCH  65  68
ENDBRANCH  63  64
ENDBRANCH   1  63
TORSDOF 15
ENDMDL
