MODEL 1
REMARK VINA RESULT:     -12.2      0.000      0.000
REMARK SMILES O=C(NCCCNC(=O)[C@H]1C[C@](O)(c2ccccc2Cl)[C@@H](c2ccccc2Cl)O1)c1ccc(-c2c3nc(c(-c4c(F)cccc4F)c4ccc([nH]4)c(-c4c(F)cccc4F)c4nc(c(-c5c(F)cccc5F)c5ccc2[nH]5)C=C4)C=C3)cc1
REMARK SMILES IDX 4 1 3 2 1 3 2 4 30 6 31 7 83 8 32 9 82 10 33 11 34 12 35 13
REMARK SMILES IDX 76 14 36 15 81 16 75 17 77 18 37 19 80 20 74 21 73 22 38 24
REMARK SMILES IDX 64 25 47 26 63 27 48 28 51 29 62 30 78 31 49 32 50 33 61 35
REMARK SMILES IDX 79 36 52 37 39 38 40 39 45 40 41 41 42 42 44 43 46 44 43 45
REMARK SMILES IDX 65 46 66 47 71 48 67 49 68 50 70 51 72 52 69 53 53 54 54 55
REMARK SMILES IDX 59 56 55 57 56 58 58 59 60 60 57 61 5 62 6 63 7 64 8 65 9 67
REMARK SMILES IDX 10 68 11 69 29 70 12 71 21 72 14 73 15 74 19 75 16 76 18 77
REMARK SMILES IDX 20 78 17 79 13 80 22 82 23 83 27 84 24 85 26 86 28 87 25 88
REMARK H PARENT 3 5 77 23 51 34 7 66 13 81
REMARK Flexibility Score: inf
ROOT
ATOM      1  C   UNL A   1      33.821  28.713  27.396  1.00  0.00     0.118 C 
ENDROOT
BRANCH   1   2
ATOM      2  N   UNL A   1      33.796  30.053  27.960  1.00  0.00    -0.352 N 
ATOM      3  O   UNL A   1      34.483  31.849  29.126  1.00  0.00    -0.269 OA
ATOM      4  C   UNL A   1      34.771  30.778  28.607  1.00  0.00     0.251 C 
ATOM      5  H   UNL A   1      32.936  30.521  27.864  1.00  0.00     0.163 HD
BRANCH   4   6
ATOM      6  C   UNL A   1      36.156  30.263  28.715  1.00  0.00     0.039 A 
ATOM      7  C   UNL A   1      37.080  30.442  27.687  1.00  0.00     0.014 A 
ATOM      8  C   UNL A   1      36.558  29.631  29.897  1.00  0.00     0.014 A 
ATOM      9  C   UNL A   1      38.328  29.839  27.758  1.00  0.00     0.010 A 
ATOM     10  C   UNL A   1      37.863  29.139  30.022  1.00  0.00     0.010 A 
ATOM     11  C   UNL A   1      38.754  29.221  28.943  1.00  0.00    -0.014 A 
BRANCH  11  12
ATOM     12  C   UNL A   1      40.173  28.797  29.056  1.00  0.00     0.031 A 
ATOM     13  C   UNL A   1      40.636  27.455  28.569  1.00  0.00     0.074 A 
ATOM     14  C   UNL A   1      41.051  29.667  29.596  1.00  0.00     0.049 A 
ATOM     15  N   UNL A   1      41.840  26.940  28.610  1.00  0.00    -0.248 NA
ATOM     16  C   UNL A   1      39.628  26.569  27.967  1.00  0.00     0.031 C 
ATOM     17  C   UNL A   1      40.708  30.991  30.125  1.00  0.00     0.029 A 
ATOM     18  N   UNL A   1      42.408  29.585  29.776  1.00  0.00    -0.354 N 
ATOM     19  C   UNL A   1      41.730  25.665  28.071  1.00  0.00     0.074 A 
ATOM     20  C   UNL A   1      40.340  25.477  27.714  1.00  0.00     0.031 C 
ATOM     21  C   UNL A   1      41.824  31.616  30.519  1.00  0.00     0.029 A 
ATOM     22  C   UNL A   1      42.951  30.708  30.353  1.00  0.00     0.049 A 
ATOM     23  H   UNL A   1      42.941  28.799  29.517  1.00  0.00     0.167 HD
ATOM     24  C   UNL A   1      42.704  24.742  27.895  1.00  0.00     0.037 A 
ATOM     25  C   UNL A   1      44.211  30.970  30.745  1.00  0.00     0.037 A 
ATOM     26  C   UNL A   1      44.092  24.955  28.221  1.00  0.00     0.049 A 
ATOM     27  C   UNL A   1      45.260  29.919  30.550  1.00  0.00     0.074 A 
ATOM     28  C   UNL A   1      45.167  24.110  28.002  1.00  0.00     0.029 A 
ATOM     29  N   UNL A   1      44.595  26.089  28.841  1.00  0.00    -0.354 N 
ATOM     30  N   UNL A   1      45.146  28.737  29.995  1.00  0.00    -0.248 NA
ATOM     31  C   UNL A   1      46.605  30.225  31.053  1.00  0.00     0.031 C 
ATOM     32  C   UNL A   1      46.312  24.711  28.534  1.00  0.00     0.029 A 
ATOM     33  C   UNL A   1      45.958  25.948  29.048  1.00  0.00     0.049 A 
ATOM     34  H   UNL A   1      44.063  26.876  29.096  1.00  0.00     0.167 HD
ATOM     35  C   UNL A   1      46.402  28.156  30.086  1.00  0.00     0.074 A 
ATOM     36  C   UNL A   1      47.269  29.128  30.719  1.00  0.00     0.031 C 
ATOM     37  C   UNL A   1      46.797  26.922  29.694  1.00  0.00     0.037 A 
BRANCH  24  38
ATOM     38  C   UNL A   1      42.322  23.402  27.341  1.00  0.00     0.057 A 
ATOM     39  C   UNL A   1      42.408  23.112  25.975  1.00  0.00     0.134 A 
ATOM     40  C   UNL A   1      41.957  22.359  28.203  1.00  0.00     0.134 A 
ATOM     41  F   UNL A   1      42.744  24.068  25.096  1.00  0.00    -0.206 F 
ATOM     42  C   UNL A   1      42.144  21.831  25.484  1.00  0.00     0.040 A 
ATOM     43  C   UNL A   1      41.709  21.070  27.727  1.00  0.00     0.040 A 
ATOM     44  F   UNL A   1      41.863  22.570  29.524  1.00  0.00    -0.206 F 
ATOM     45  C   UNL A   1      41.803  20.803  26.363  1.00  0.00     0.006 A 
ENDBRANCH  24  38
BRANCH  25  46
ATOM     46  C   UNL A   1      44.526  32.258  31.411  1.00  0.00     0.057 A 
ATOM     47  C   UNL A   1      44.960  33.368  30.681  1.00  0.00     0.134 A 
ATOM     48  C   UNL A   1      44.392  32.408  32.797  1.00  0.00     0.134 A 
ATOM     49  F   UNL A   1      45.125  33.281  29.353  1.00  0.00    -0.206 F 
ATOM     50  C   UNL A   1      45.262  34.579  31.307  1.00  0.00     0.040 A 
ATOM     51  C   UNL A   1      44.662  33.619  33.433  1.00  0.00     0.040 A 
ATOM     52  F   UNL A   1      43.972  31.382  33.552  1.00  0.00    -0.206 F 
ATOM     53  C   UNL A   1      45.106  34.708  32.686  1.00  0.00     0.006 A 
ENDBRANCH  25  46
BRANCH  37  54
ATOM     54  C   UNL A   1      48.228  26.562  29.951  1.00  0.00     0.057 A 
ATOM     55  C   UNL A   1      49.237  26.889  29.035  1.00  0.00     0.134 A 
ATOM     56  C   UNL A   1      48.604  25.900  31.124  1.00  0.00     0.134 A 
ATOM     57  F   UNL A   1      48.934  27.507  27.884  1.00  0.00    -0.206 F 
ATOM     58  C   UNL A   1      50.569  26.553  29.271  1.00  0.00     0.040 A 
ATOM     59  C   UNL A   1      49.936  25.578  31.382  1.00  0.00     0.040 A 
ATOM     60  F   UNL A   1      47.684  25.563  32.042  1.00  0.00    -0.206 F 
ATOM     61  C   UNL A   1      50.922  25.900  30.451  1.00  0.00     0.006 A 
ENDBRANCH  37  54
ENDBRANCH  11  12
ENDBRANCH   4   6
ENDBRANCH   1   2
BRANCH   1  62
ATOM     62  C   UNL A   1      34.392  28.664  25.983  1.00  0.00     0.042 C 
BRANCH  62  63
ATOM     63  C   UNL A   1      33.403  29.138  24.927  1.00  0.00     0.117 C 
BRANCH  63  64
ATOM     64  N   UNL A   1      33.940  29.031  23.583  1.00  0.00    -0.354 N 
ATOM     65  C   UNL A   1      33.826  28.094  22.612  1.00  0.00     0.249 C 
ATOM     66  H   UNL A   1      34.503  29.796  23.325  1.00  0.00     0.163 HD
ATOM     67  O   UNL A   1      34.310  28.432  21.523  1.00  0.00    -0.272 OA
BRANCH  65  68
ATOM     68  C   UNL A   1      33.211  26.688  22.786  1.00  0.00     0.211 C 
ATOM     69  C   UNL A   1      32.929  26.070  24.131  1.00  0.00     0.085 C 
ATOM     70  O   UNL A   1      32.002  26.589  22.027  1.00  0.00    -0.357 OA
ATOM     71  C   UNL A   1      31.407  25.985  24.295  1.00  0.00     0.124 C 
ATOM     72  C   UNL A   1      30.866  26.469  22.912  1.00  0.00     0.187 C 
BRANCH  71  73
ATOM     73  C   UNL A   1      31.133  24.574  24.873  1.00  0.00     0.005 A 
ATOM     74  C   UNL A   1      30.545  24.552  26.172  1.00  0.00     0.008 A 
ATOM     75  C   UNL A   1      31.524  23.324  24.356  1.00  0.00     0.047 A 
ATOM     76  C   UNL A   1      30.335  23.374  26.892  1.00  0.00     0.001 A 
ATOM     77  C   UNL A   1      31.278  22.138  25.074  1.00  0.00     0.021 A 
ATOM     78  Cl  UNL A   1      32.415  23.068  22.902  1.00  0.00    -0.084 Cl
ATOM     79  C   UNL A   1      30.692  22.160  26.336  1.00  0.00     0.002 A 
ENDBRANCH  71  73
BRANCH  71  80
ATOM     80  O   UNL A   1      31.056  26.944  25.319  1.00  0.00    -0.382 OA
ATOM     81  H   UNL A   1      30.330  26.592  25.857  1.00  0.00     0.212 HD
ENDBRANCH  71  80
BRANCH  72  82
ATOM     82  C   UNL A   1      30.053  27.761  22.806  1.00  0.00     0.003 A 
ATOM     83  C   UNL A   1      30.609  28.915  22.219  1.00  0.00     0.008 A 
ATOM     84  C   UNL A   1      28.702  27.835  23.202  1.00  0.00     0.046 A 
ATOM     85  C   UNL A   1      29.850  30.068  21.993  1.00  0.00     0.000 A 
ATOM     86  C   UNL A   1      27.944  28.995  22.979  1.00  0.00     0.021 A 
ATOM     87  Cl  UNL A   1      27.879  26.531  23.989  1.00  0.00    -0.084 Cl
ATOM     88  C   UNL A   1      28.515  30.106  22.366  1.00  0.00     0.002 A 
ENDBRANCH  72  82
ENDBRANCH  65  68
ENDBRANCH  63  64
ENDBRANCH  62  63
ENDBRANCH   1  62
TORSDOF 13
ENDMDL
MODEL 2
REMARK VINA RESULT:     -12.2      0.322      6.033
REMARK SMILES O=C(NCCCNC(=O)[C@H]1C[C@](O)(c2ccccc2Cl)[C@@H](c2ccccc2Cl)O1)c1ccc(-c2c3nc(c(-c4c(F)cccc4F)c4ccc([nH]4)c(-c4c(F)cccc4F)c4nc(c(-c5c(F)cccc5F)c5ccc2[nH]5)C=C4)C=C3)cc1
REMARK SMILES IDX 4 1 3 2 1 3 2 4 30 6 31 7 83 8 32 9 82 10 33 11 34 12 35 13
REMARK SMILES IDX 76 14 36 15 81 16 75 17 77 18 37 19 80 20 74 21 73 22 38 24
REMARK SMILES IDX 64 25 47 26 63 27 48 28 51 29 62 30 78 31 49 32 50 33 61 35
REMARK SMILES IDX 79 36 52 37 39 38 40 39 45 40 41 41 42 42 44 43 46 44 43 45
REMARK SMILES IDX 65 46 66 47 71 48 67 49 68 50 70 51 72 52 69 53 53 54 54 55
REMARK SMILES IDX 59 56 55 57 56 58 58 59 60 60 57 61 5 62 6 63 7 64 8 65 9 67
REMARK SMILES IDX 10 68 11 69 29 70 12 71 21 72 14 73 15 74 19 75 16 76 18 77
REMARK SMILES IDX 20 78 17 79 13 80 22 82 23 83 27 84 24 85 26 86 28 87 25 88
REMARK H PARENT 3 5 77 23 51 34 7 66 13 81
REMARK Flexibility Score: inf
ROOT
ATOM      1  C   UNL A   1      33.769  28.587  27.435  1.00  0.00     0.118 C 
ENDROOT
BRANCH   1   2
ATOM      2  N   UNL A   1      33.717  29.987  27.825  1.00  0.00    -0.352 N 
ATOM      3  O   UNL A   1      34.357  31.926  28.767  1.00  0.00    -0.269 OA
ATOM      4  C   UNL A   1      34.669  30.803  28.393  1.00  0.00     0.251 C 
ATOM      5  H   UNL A   1      32.852  30.426  27.654  1.00  0.00     0.163 HD
BRANCH   4   6
ATOM      6  C   UNL A   1      36.058  30.326  28.591  1.00  0.00     0.039 A 
ATOM      7  C   UNL A   1      37.015  30.440  27.585  1.00  0.00     0.014 A 
ATOM      8  C   UNL A   1      36.427  29.800  29.834  1.00  0.00     0.014 A 
ATOM      9  C   UNL A   1      38.270  29.870  27.748  1.00  0.00     0.010 A 
ATOM     10  C   UNL A   1      37.736  29.346  30.044  1.00  0.00     0.010 A 
ATOM     11  C   UNL A   1      38.663  29.359  28.993  1.00  0.00    -0.014 A 
BRANCH  11  12
ATOM     12  C   UNL A   1      40.084  28.974  29.190  1.00  0.00     0.031 A 
ATOM     13  C   UNL A   1      41.067  29.897  29.851  1.00  0.00     0.074 A 
ATOM     14  C   UNL A   1      40.471  27.751  28.774  1.00  0.00     0.049 A 
ATOM     15  N   UNL A   1      42.342  29.705  30.082  1.00  0.00    -0.248 NA
ATOM     16  C   UNL A   1      40.568  31.205  30.303  1.00  0.00     0.031 C 
ATOM     17  C   UNL A   1      39.606  26.779  28.098  1.00  0.00     0.029 A 
ATOM     18  N   UNL A   1      41.676  27.104  28.870  1.00  0.00    -0.354 N 
ATOM     19  C   UNL A   1      42.803  30.872  30.676  1.00  0.00     0.074 A 
ATOM     20  C   UNL A   1      41.675  31.774  30.766  1.00  0.00     0.031 C 
ATOM     21  C   UNL A   1      40.288  25.646  27.888  1.00  0.00     0.029 A 
ATOM     22  C   UNL A   1      41.662  25.839  28.334  1.00  0.00     0.049 A 
ATOM     23  H   UNL A   1      42.474  27.506  29.282  1.00  0.00     0.167 HD
ATOM     24  C   UNL A   1      44.056  31.158  31.104  1.00  0.00     0.037 A 
ATOM     25  C   UNL A   1      42.651  24.940  28.180  1.00  0.00     0.037 A 
ATOM     26  C   UNL A   1      45.163  30.237  31.042  1.00  0.00     0.049 A 
ATOM     27  C   UNL A   1      44.028  25.296  28.649  1.00  0.00     0.074 A 
ATOM     28  C   UNL A   1      46.450  30.406  31.525  1.00  0.00     0.029 A 
ATOM     29  N   UNL A   1      45.118  28.982  30.456  1.00  0.00    -0.354 N 
ATOM     30  N   UNL A   1      44.434  26.387  29.251  1.00  0.00    -0.248 NA
ATOM     31  C   UNL A   1      45.087  24.311  28.399  1.00  0.00     0.031 C 
ATOM     32  C   UNL A   1      47.196  29.272  31.188  1.00  0.00     0.029 A 
ATOM     33  C   UNL A   1      46.364  28.381  30.530  1.00  0.00     0.049 A 
ATOM     34  H   UNL A   1      44.319  28.577  30.047  1.00  0.00     0.167 HD
ATOM     35  C   UNL A   1      45.797  26.223  29.449  1.00  0.00     0.074 A 
ATOM     36  C   UNL A   1      46.140  24.913  28.933  1.00  0.00     0.031 C 
ATOM     37  C   UNL A   1      46.687  27.085  29.995  1.00  0.00     0.037 A 
BRANCH  24  38
ATOM     38  C   UNL A   1      44.322  32.524  31.663  1.00  0.00     0.057 A 
ATOM     39  C   UNL A   1      44.703  33.597  30.850  1.00  0.00     0.134 A 
ATOM     40  C   UNL A   1      44.096  32.788  33.021  1.00  0.00     0.134 A 
ATOM     41  F   UNL A   1      44.941  33.410  29.543  1.00  0.00    -0.206 F 
ATOM     42  C   UNL A   1      44.850  34.886  31.368  1.00  0.00     0.040 A 
ATOM     43  C   UNL A   1      44.223  34.074  33.546  1.00  0.00     0.040 A 
ATOM     44  F   UNL A   1      43.723  31.803  33.852  1.00  0.00    -0.206 F 
ATOM     45  C   UNL A   1      44.600  35.129  32.718  1.00  0.00     0.006 A 
ENDBRANCH  24  38
BRANCH  25  46
ATOM     46  C   UNL A   1      42.378  23.650  27.501  1.00  0.00     0.057 A 
ATOM     47  C   UNL A   1      42.482  23.520  26.113  1.00  0.00     0.134 A 
ATOM     48  C   UNL A   1      42.013  22.510  28.230  1.00  0.00     0.134 A 
ATOM     49  F   UNL A   1      42.810  24.580  25.358  1.00  0.00    -0.206 F 
ATOM     50  C   UNL A   1      42.219  22.309  25.472  1.00  0.00     0.040 A 
ATOM     51  C   UNL A   1      41.776  21.286  27.606  1.00  0.00     0.040 A 
ATOM     52  F   UNL A   1      41.904  22.568  29.565  1.00  0.00    -0.206 F 
ATOM     53  C   UNL A   1      41.872  21.186  26.220  1.00  0.00     0.006 A 
ENDBRANCH  25  46
BRANCH  37  54
ATOM     54  C   UNL A   1      48.113  26.633  30.050  1.00  0.00     0.057 A 
ATOM     55  C   UNL A   1      49.014  26.938  29.022  1.00  0.00     0.134 A 
ATOM     56  C   UNL A   1      48.595  25.903  31.142  1.00  0.00     0.134 A 
ATOM     57  F   UNL A   1      48.605  27.619  27.940  1.00  0.00    -0.206 F 
ATOM     58  C   UNL A   1      50.342  26.517  29.070  1.00  0.00     0.040 A 
ATOM     59  C   UNL A   1      49.927  25.495  31.213  1.00  0.00     0.040 A 
ATOM     60  F   UNL A   1      47.781  25.583  32.160  1.00  0.00    -0.206 F 
ATOM     61  C   UNL A   1      50.803  25.798  30.172  1.00  0.00     0.006 A 
ENDBRANCH  37  54
ENDBRANCH  11  12
ENDBRANCH   4   6
ENDBRANCH   1   2
BRANCH   1  62
ATOM     62  C   UNL A   1      34.236  28.378  25.999  1.00  0.00     0.042 C 
BRANCH  62  63
ATOM     63  C   UNL A   1      33.380  29.122  24.983  1.00  0.00     0.117 C 
BRANCH  63  64
ATOM     64  N   UNL A   1      33.917  29.028  23.638  1.00  0.00    -0.354 N 
ATOM     65  C   UNL A   1      33.799  28.103  22.656  1.00  0.00     0.249 C 
ATOM     66  H   UNL A   1      34.483  29.794  23.389  1.00  0.00     0.163 HD
ATOM     67  O   UNL A   1      34.285  28.452  21.571  1.00  0.00    -0.272 OA
BRANCH  65  68
ATOM     68  C   UNL A   1      33.179  26.698  22.813  1.00  0.00     0.211 C 
ATOM     69  C   UNL A   1      32.878  26.073  24.152  1.00  0.00     0.085 C 
ATOM     70  O   UNL A   1      31.979  26.607  22.039  1.00  0.00    -0.357 OA
ATOM     71  C   UNL A   1      31.354  25.991  24.295  1.00  0.00     0.124 C 
ATOM     72  C   UNL A   1      30.832  26.484  22.908  1.00  0.00     0.187 C 
BRANCH  71  73
ATOM     73  C   UNL A   1      31.069  24.577  24.861  1.00  0.00     0.005 A 
ATOM     74  C   UNL A   1      30.487  24.548  26.163  1.00  0.00     0.008 A 
ATOM     75  C   UNL A   1      31.445  23.328  24.330  1.00  0.00     0.047 A 
ATOM     76  C   UNL A   1      30.269  23.365  26.873  1.00  0.00     0.001 A 
ATOM     77  C   UNL A   1      31.191  22.138  25.038  1.00  0.00     0.021 A 
ATOM     78  Cl  UNL A   1      32.327  23.077  22.870  1.00  0.00    -0.084 Cl
ATOM     79  C   UNL A   1      30.611  22.153  26.303  1.00  0.00     0.002 A 
ENDBRANCH  71  73
BRANCH  71  80
ATOM     80  O   UNL A   1      30.993  26.944  25.320  1.00  0.00    -0.382 OA
ATOM     81  H   UNL A   1      30.998  26.507  26.187  1.00  0.00     0.212 HD
ENDBRANCH  71  80
BRANCH  72  82
ATOM     82  C   UNL A   1      30.024  27.779  22.800  1.00  0.00     0.003 A 
ATOM     83  C   UNL A   1      30.582  28.928  22.206  1.00  0.00     0.008 A 
ATOM     84  C   UNL A   1      28.675  27.861  23.201  1.00  0.00     0.046 A 
ATOM     85  C   UNL A   1      29.827  30.084  21.978  1.00  0.00     0.000 A 
ATOM     86  C   UNL A   1      27.920  29.022  22.977  1.00  0.00     0.021 A 
ATOM     87  Cl  UNL A   1      27.849  26.563  23.998  1.00  0.00    -0.084 Cl
ATOM     88  C   UNL A   1      28.493  30.128  22.356  1.00  0.00     0.002 A 
ENDBRANCH  72  82
ENDBRANCH  65  68
ENDBRANCH  63  64
ENDBRANCH  62  63
ENDBRANCH   1  62
TORSDOF 13
ENDMDL
MODEL 3
REMARK VINA RESULT:     -12.1      2.781      3.966
REMARK SMILES O=C(NCCCNC(=O)[C@H]1C[C@](O)(c2ccccc2Cl)[C@@H](c2ccccc2Cl)O1)c1ccc(-c2c3nc(c(-c4c(F)cccc4F)c4ccc([nH]4)c(-c4c(F)cccc4F)c4nc(c(-c5c(F)cccc5F)c5ccc2[nH]5)C=C4)C=C3)cc1
REMARK SMILES IDX 4 1 3 2 1 3 2 4 30 6 31 7 83 8 32 9 82 10 33 11 34 12 35 13
REMARK SMILES IDX 76 14 36 15 81 16 75 17 77 18 37 19 80 20 74 21 73 22 38 24
REMARK SMILES IDX 64 25 47 26 63 27 48 28 51 29 62 30 78 31 49 32 50 33 61 35
REMARK SMILES IDX 79 36 52 37 39 38 40 39 45 40 41 41 42 42 44 43 46 44 43 45
REMARK SMILES IDX 65 46 66 47 71 48 67 49 68 50 70 51 72 52 69 53 53 54 54 55
REMARK SMILES IDX 59 56 55 57 56 58 58 59 60 60 57 61 5 62 6 63 7 64 8 65 9 67
REMARK SMILES IDX 10 68 11 69 29 70 12 71 21 72 14 73 15 74 19 75 16 76 18 77
REMARK SMILES IDX 20 78 17 79 13 80 22 82 23 83 27 84 24 85 26 86 28 87 25 88
REMARK H PARENT 3 5 77 23 51 34 7 66 13 81
REMARK Flexibility Score: inf
ROOT
ATOM      1  C   UNL A   1      32.109  31.489  27.183  1.00  0.00     0.118 C 
ENDROOT
BRANCH   1   2
ATOM      2  N   UNL A   1      32.057  32.932  27.354  1.00  0.00    -0.352 N 
ATOM      3  O   UNL A   1      32.599  34.972  28.128  1.00  0.00    -0.269 OA
ATOM      4  C   UNL A   1      32.918  33.798  27.989  1.00  0.00     0.251 C 
ATOM      5  H   UNL A   1      31.271  33.363  26.946  1.00  0.00     0.163 HD
BRANCH   4   6
ATOM      6  C   UNL A   1      34.208  33.320  28.539  1.00  0.00     0.039 A 
ATOM      7  C   UNL A   1      34.260  32.531  29.685  1.00  0.00     0.014 A 
ATOM      8  C   UNL A   1      35.393  33.624  27.859  1.00  0.00     0.014 A 
ATOM      9  C   UNL A   1      35.484  32.204  30.253  1.00  0.00     0.010 A 
ATOM     10  C   UNL A   1      36.623  33.179  28.359  1.00  0.00     0.010 A 
ATOM     11  C   UNL A   1      36.680  32.482  29.574  1.00  0.00    -0.014 A 
BRANCH  11  12
ATOM     12  C   UNL A   1      37.947  31.912  30.099  1.00  0.00     0.031 A 
ATOM     13  C   UNL A   1      38.531  30.645  29.545  1.00  0.00     0.074 A 
ATOM     14  C   UNL A   1      38.580  32.581  31.084  1.00  0.00     0.049 A 
ATOM     15  N   UNL A   1      39.623  30.020  29.908  1.00  0.00    -0.248 NA
ATOM     16  C   UNL A   1      37.800  29.984  28.453  1.00  0.00     0.031 C 
ATOM     17  C   UNL A   1      38.092  33.811  31.715  1.00  0.00     0.029 A 
ATOM     18  N   UNL A   1      39.772  32.340  31.718  1.00  0.00    -0.354 N 
ATOM     19  C   UNL A   1      39.695  28.882  29.116  1.00  0.00     0.074 A 
ATOM     20  C   UNL A   1      38.533  28.895  28.254  1.00  0.00     0.031 C 
ATOM     21  C   UNL A   1      38.995  34.245  32.603  1.00  0.00     0.029 A 
ATOM     22  C   UNL A   1      40.085  33.280  32.670  1.00  0.00     0.049 A 
ATOM     23  H   UNL A   1      40.347  31.568  31.512  1.00  0.00     0.167 HD
ATOM     24  C   UNL A   1      40.647  27.919  29.115  1.00  0.00     0.037 A 
ATOM     25  C   UNL A   1      41.115  33.346  33.532  1.00  0.00     0.037 A 
ATOM     26  C   UNL A   1      41.819  27.936  29.954  1.00  0.00     0.049 A 
ATOM     27  C   UNL A   1      42.140  32.254  33.515  1.00  0.00     0.074 A 
ATOM     28  C   UNL A   1      42.881  27.048  29.966  1.00  0.00     0.029 A 
ATOM     29  N   UNL A   1      42.079  28.884  30.932  1.00  0.00    -0.354 N 
ATOM     30  N   UNL A   1      42.217  31.211  32.726  1.00  0.00    -0.248 NA
ATOM     31  C   UNL A   1      43.209  32.334  34.519  1.00  0.00     0.031 C 
ATOM     32  C   UNL A   1      43.759  27.430  30.986  1.00  0.00     0.029 A 
ATOM     33  C   UNL A   1      43.265  28.579  31.581  1.00  0.00     0.049 A 
ATOM     34  H   UNL A   1      41.506  29.658  31.136  1.00  0.00     0.167 HD
ATOM     35  C   UNL A   1      43.337  30.506  33.140  1.00  0.00     0.074 A 
ATOM     36  C   UNL A   1      43.928  31.260  34.227  1.00  0.00     0.031 C 
ATOM     37  C   UNL A   1      43.825  29.334  32.671  1.00  0.00     0.037 A 
BRANCH  24  38
ATOM     38  C   UNL A   1      40.470  26.746  28.198  1.00  0.00     0.057 A 
ATOM     39  C   UNL A   1      39.608  25.687  28.505  1.00  0.00     0.134 A 
ATOM     40  C   UNL A   1      41.098  26.727  26.945  1.00  0.00     0.134 A 
ATOM     41  F   UNL A   1      38.982  25.642  29.691  1.00  0.00    -0.206 F 
ATOM     42  C   UNL A   1      39.376  24.650  27.599  1.00  0.00     0.040 A 
ATOM     43  C   UNL A   1      40.860  25.706  26.024  1.00  0.00     0.040 A 
ATOM     44  F   UNL A   1      41.931  27.716  26.587  1.00  0.00    -0.206 F 
ATOM     45  C   UNL A   1      39.995  24.663  26.349  1.00  0.00     0.006 A 
ENDBRANCH  24  38
BRANCH  25  46
ATOM     46  C   UNL A   1      41.186  34.454  34.517  1.00  0.00     0.057 A 
ATOM     47  C   UNL A   1      41.839  35.653  34.218  1.00  0.00     0.134 A 
ATOM     48  C   UNL A   1      40.594  34.338  35.781  1.00  0.00     0.134 A 
ATOM     49  F   UNL A   1      42.442  35.817  33.030  1.00  0.00    -0.206 F 
ATOM     50  C   UNL A   1      41.913  36.694  35.145  1.00  0.00     0.040 A 
ATOM     51  C   UNL A   1      40.634  35.381  36.707  1.00  0.00     0.040 A 
ATOM     52  F   UNL A   1      39.946  33.216  36.126  1.00  0.00    -0.206 F 
ATOM     53  C   UNL A   1      41.303  36.561  36.390  1.00  0.00     0.006 A 
ENDBRANCH  25  46
BRANCH  37  54
ATOM     54  C   UNL A   1      45.051  28.799  33.343  1.00  0.00     0.057 A 
ATOM     55  C   UNL A   1      46.334  29.175  32.924  1.00  0.00     0.134 A 
ATOM     56  C   UNL A   1      44.952  27.918  34.425  1.00  0.00     0.134 A 
ATOM     57  F   UNL A   1      46.492  30.002  31.880  1.00  0.00    -0.206 F 
ATOM     58  C   UNL A   1      47.477  28.677  33.548  1.00  0.00     0.040 A 
ATOM     59  C   UNL A   1      46.087  27.430  35.072  1.00  0.00     0.040 A 
ATOM     60  F   UNL A   1      43.750  27.524  34.875  1.00  0.00    -0.206 F 
ATOM     61  C   UNL A   1      47.354  27.806  34.629  1.00  0.00     0.006 A 
ENDBRANCH  37  54
ENDBRANCH  11  12
ENDBRANCH   4   6
ENDBRANCH   1   2
BRANCH   1  62
ATOM     62  C   UNL A   1      31.592  31.023  25.827  1.00  0.00     0.042 C 
BRANCH  62  63
ATOM     63  C   UNL A   1      32.089  29.635  25.448  1.00  0.00     0.117 C 
BRANCH  63  64
ATOM     64  N   UNL A   1      33.085  29.676  24.393  1.00  0.00    -0.354 N 
ATOM     65  C   UNL A   1      33.484  28.779  23.461  1.00  0.00     0.249 C 
ATOM     66  H   UNL A   1      33.570  30.531  24.347  1.00  0.00     0.163 HD
ATOM     67  O   UNL A   1      34.267  29.239  22.618  1.00  0.00    -0.272 OA
BRANCH  65  68
ATOM     68  C   UNL A   1      33.087  27.287  23.419  1.00  0.00     0.211 C 
ATOM     69  C   UNL A   1      32.683  26.505  24.643  1.00  0.00     0.085 C 
ATOM     70  O   UNL A   1      32.058  27.085  22.445  1.00  0.00    -0.357 OA
ATOM     71  C   UNL A   1      31.191  26.180  24.516  1.00  0.00     0.124 C 
ATOM     72  C   UNL A   1      30.823  26.712  23.094  1.00  0.00     0.187 C 
BRANCH  71  73
ATOM     73  C   UNL A   1      31.056  24.694  24.933  1.00  0.00     0.005 A 
ATOM     74  C   UNL A   1      30.465  24.472  26.212  1.00  0.00     0.008 A 
ATOM     75  C   UNL A   1      31.572  23.553  24.290  1.00  0.00     0.047 A 
ATOM     76  C   UNL A   1      30.370  23.207  26.796  1.00  0.00     0.001 A 
ATOM     77  C   UNL A   1      31.442  22.277  24.871  1.00  0.00     0.021 A 
ATOM     78  Cl  UNL A   1      32.493  23.547  22.832  1.00  0.00    -0.084 Cl
ATOM     79  C   UNL A   1      30.849  22.102  26.117  1.00  0.00     0.002 A 
ENDBRANCH  71  73
BRANCH  71  80
ATOM     80  O   UNL A   1      30.518  26.971  25.522  1.00  0.00    -0.382 OA
ATOM     81  H   UNL A   1      31.156  27.245  26.199  1.00  0.00     0.212 HD
ENDBRANCH  71  80
BRANCH  72  82
ATOM     82  C   UNL A   1      29.840  27.874  22.931  1.00  0.00     0.003 A 
ATOM     83  C   UNL A   1      30.252  29.088  22.347  1.00  0.00     0.008 A 
ATOM     84  C   UNL A   1      28.476  27.759  23.268  1.00  0.00     0.046 A 
ATOM     85  C   UNL A   1      29.348  30.118  22.069  1.00  0.00     0.000 A 
ATOM     86  C   UNL A   1      27.571  28.796  22.993  1.00  0.00     0.021 A 
ATOM     87  Cl  UNL A   1      27.812  26.359  24.043  1.00  0.00    -0.084 Cl
ATOM     88  C   UNL A   1      28.005  29.970  22.385  1.00  0.00     0.002 A 
ENDBRANCH  72  82
ENDBRANCH  65  68
ENDBRANCH  63  64
ENDBRANCH  62  63
ENDBRANCH   1  62
TORSDOF 13
ENDMDL
