MODEL 1
REMARK VINA RESULT:      -9.6      0.000      0.000
REMARK SMILES CCc1cccc(-c2ccc([C@@H](C)C(=O)NCCCNC(=O)c3ccc(-c4c5nc(c(-c6c(F)cccc6F)c6ccc([nH]6)c(-c6c(F)cccc6F)c6nc(c(-c7c(F)cccc7F)c7ccc4[nH]7)C=C6)C=C5)cc3)cc2)c1
REMARK SMILES IDX 17 1 16 2 14 3 15 4 12 6 13 7 11 8 8 9 9 10 78 11 10 12
REMARK SMILES IDX 77 13 7 14 3 15 4 16 79 17 5 18 6 19 2 20 1 21 18 22 19 23
REMARK SMILES IDX 20 24 21 25 22 27 23 28 24 29 76 30 25 31 75 32 26 33 27 34
REMARK SMILES IDX 28 35 69 36 29 37 74 38 68 39 70 40 30 41 73 42 67 43 66 44
REMARK SMILES IDX 31 46 57 47 40 48 56 49 41 50 44 51 55 52 71 53 42 54 43 55
REMARK SMILES IDX 54 57 72 58 45 59 32 60 33 61 38 62 34 63 35 64 37 65 39 66
REMARK SMILES IDX 36 67 58 68 59 69 64 70 60 71 61 72 63 73 65 74 62 75 46 76
REMARK SMILES IDX 47 77 52 78 48 79 49 80 51 81 53 82 50 83
REMARK H PARENT 16 5 20 26 70 45 44 56
REMARK Flexibility Score: inf
ROOT
ATOM      1  C   UNL A   1      42.251  20.014  25.832  1.00  0.00     0.117 C 
ENDROOT
BRANCH   1   2
ATOM      2  N   UNL A   1      43.669  20.275  25.684  1.00  0.00    -0.356 N 
ATOM      3  C   UNL A   1      44.384  21.434  25.671  1.00  0.00     0.227 C 
ATOM      4  O   UNL A   1      45.597  21.320  25.454  1.00  0.00    -0.274 OA
ATOM      5  H   UNL A   1      44.215  19.465  25.571  1.00  0.00     0.163 HD
BRANCH   3   6
ATOM      6  C   UNL A   1      43.776  22.825  25.908  1.00  0.00     0.105 C 
ATOM      7  C   UNL A   1      44.074  23.843  24.808  1.00  0.00     0.023 C 
BRANCH   6   8
ATOM      8  C   UNL A   1      43.946  23.314  27.337  1.00  0.00    -0.036 A 
ATOM      9  C   UNL A   1      44.318  24.463  29.933  1.00  0.00    -0.018 A 
ATOM     10  C   UNL A   1      43.062  24.012  29.495  1.00  0.00     0.009 A 
ATOM     11  C   UNL A   1      45.395  24.270  29.054  1.00  0.00     0.009 A 
ATOM     12  C   UNL A   1      42.884  23.421  28.238  1.00  0.00     0.005 A 
ATOM     13  C   UNL A   1      45.211  23.728  27.775  1.00  0.00     0.005 A 
BRANCH   9  14
ATOM     14  C   UNL A   1      44.482  25.138  31.246  1.00  0.00    -0.018 A 
ATOM     15  C   UNL A   1      44.413  27.181  32.630  1.00  0.00    -0.048 A 
ATOM     16  C   UNL A   1      44.719  26.418  33.761  1.00  0.00     0.004 A 
ATOM     17  C   UNL A   1      44.301  26.530  31.387  1.00  0.00     0.012 A 
ATOM     18  C   UNL A   1      44.909  25.044  33.652  1.00  0.00     0.001 A 
ATOM     19  C   UNL A   1      44.801  24.415  32.409  1.00  0.00     0.009 A 
BRANCH  15  20
ATOM     20  C   UNL A   1      44.273  28.680  32.749  1.00  0.00     0.032 C 
ATOM     21  C   UNL A   1      43.005  29.247  32.124  1.00  0.00     0.009 C 
ENDBRANCH  15  20
ENDBRANCH   9  14
ENDBRANCH   6   8
ENDBRANCH   3   6
ENDBRANCH   1   2
BRANCH   1  22
ATOM     22  C   UNL A   1      41.803  20.030  27.292  1.00  0.00     0.042 C 
BRANCH  22  23
ATOM     23  C   UNL A   1      40.860  21.175  27.641  1.00  0.00     0.118 C 
BRANCH  23  24
ATOM     24  N   UNL A   1      39.831  21.372  26.627  1.00  0.00    -0.352 N 
ATOM     25  C   UNL A   1      39.167  22.507  26.232  1.00  0.00     0.251 C 
ATOM     26  H   UNL A   1      39.569  20.555  26.146  1.00  0.00     0.163 HD
ATOM     27  O   UNL A   1      38.189  22.397  25.496  1.00  0.00    -0.269 OA
BRANCH  25  28
ATOM     28  C   UNL A   1      39.594  23.853  26.680  1.00  0.00     0.039 A 
ATOM     29  C   UNL A   1      39.263  24.262  27.978  1.00  0.00     0.014 A 
ATOM     30  C   UNL A   1      40.252  24.740  25.826  1.00  0.00     0.014 A 
ATOM     31  C   UNL A   1      39.638  25.531  28.430  1.00  0.00     0.010 A 
ATOM     32  C   UNL A   1      40.694  25.974  26.302  1.00  0.00     0.010 A 
ATOM     33  C   UNL A   1      40.383  26.387  27.605  1.00  0.00    -0.014 A 
BRANCH  33  34
ATOM     34  C   UNL A   1      40.830  27.723  28.079  1.00  0.00     0.031 A 
ATOM     35  C   UNL A   1      42.297  28.060  28.127  1.00  0.00     0.074 A 
ATOM     36  C   UNL A   1      39.922  28.611  28.530  1.00  0.00     0.049 A 
ATOM     37  N   UNL A   1      42.885  29.132  28.592  1.00  0.00    -0.248 NA
ATOM     38  C   UNL A   1      43.225  27.044  27.607  1.00  0.00     0.031 C 
ATOM     39  C   UNL A   1      38.475  28.391  28.579  1.00  0.00     0.029 A 
ATOM     40  N   UNL A   1      40.083  29.872  29.046  1.00  0.00    -0.354 N 
ATOM     41  C   UNL A   1      44.249  28.911  28.444  1.00  0.00     0.074 A 
ATOM     42  C   UNL A   1      44.402  27.586  27.884  1.00  0.00     0.031 C 
ATOM     43  C   UNL A   1      37.881  29.485  29.081  1.00  0.00     0.029 A 
ATOM     44  C   UNL A   1      38.904  30.469  29.423  1.00  0.00     0.049 A 
ATOM     45  H   UNL A   1      40.960  30.308  29.138  1.00  0.00     0.167 HD
ATOM     46  C   UNL A   1      45.278  29.743  28.730  1.00  0.00     0.037 A 
ATOM     47  C   UNL A   1      38.675  31.668  29.988  1.00  0.00     0.037 A 
ATOM     48  C   UNL A   1      45.123  31.075  29.252  1.00  0.00     0.049 A 
ATOM     49  C   UNL A   1      39.834  32.579  30.281  1.00  0.00     0.074 A 
ATOM     50  C   UNL A   1      46.102  32.018  29.514  1.00  0.00     0.029 A 
ATOM     51  N   UNL A   1      43.909  31.654  29.587  1.00  0.00    -0.354 N 
ATOM     52  N   UNL A   1      41.113  32.378  30.080  1.00  0.00    -0.248 NA
ATOM     53  C   UNL A   1      39.517  33.887  30.875  1.00  0.00     0.031 C 
ATOM     54  C   UNL A   1      45.483  33.157  30.039  1.00  0.00     0.029 A 
ATOM     55  C   UNL A   1      44.116  32.937  30.066  1.00  0.00     0.049 A 
ATOM     56  H   UNL A   1      43.031  31.219  29.497  1.00  0.00     0.167 HD
ATOM     57  C   UNL A   1      41.750  33.540  30.495  1.00  0.00     0.074 A 
ATOM     58  C   UNL A   1      40.716  34.447  30.948  1.00  0.00     0.031 C 
ATOM     59  C   UNL A   1      43.074  33.831  30.500  1.00  0.00     0.037 A 
BRANCH  46  60
ATOM     60  C   UNL A   1      46.669  29.238  28.477  1.00  0.00     0.057 A 
ATOM     61  C   UNL A   1      47.397  28.557  29.462  1.00  0.00     0.134 A 
ATOM     62  C   UNL A   1      47.271  29.397  27.223  1.00  0.00     0.134 A 
ATOM     63  F   UNL A   1      46.882  28.382  30.688  1.00  0.00    -0.206 F 
ATOM     64  C   UNL A   1      48.681  28.071  29.215  1.00  0.00     0.040 A 
ATOM     65  C   UNL A   1      48.545  28.893  26.956  1.00  0.00     0.040 A 
ATOM     66  F   UNL A   1      46.627  30.032  26.233  1.00  0.00    -0.206 F 
ATOM     67  C   UNL A   1      49.257  28.232  27.956  1.00  0.00     0.006 A 
ENDBRANCH  46  60
BRANCH  47  68
ATOM     68  C   UNL A   1      37.285  32.090  30.297  1.00  0.00     0.057 A 
ATOM     69  C   UNL A   1      36.691  31.770  31.524  1.00  0.00     0.134 A 
ATOM     70  C   UNL A   1      36.517  32.810  29.376  1.00  0.00     0.134 A 
ATOM     71  F   UNL A   1      37.372  31.064  32.439  1.00  0.00    -0.206 F 
ATOM     72  C   UNL A   1      35.376  32.134  31.816  1.00  0.00     0.040 A 
ATOM     73  C   UNL A   1      35.208  33.202  29.665  1.00  0.00     0.040 A 
ATOM     74  F   UNL A   1      37.030  33.152  28.185  1.00  0.00    -0.206 F 
ATOM     75  C   UNL A   1      34.631  32.856  30.886  1.00  0.00     0.006 A 
ENDBRANCH  47  68
BRANCH  59  76
ATOM     76  C   UNL A   1      43.475  35.197  30.974  1.00  0.00     0.057 A 
ATOM     77  C   UNL A   1      43.584  36.280  30.095  1.00  0.00     0.134 A 
ATOM     78  C   UNL A   1      43.714  35.435  32.333  1.00  0.00     0.134 A 
ATOM     79  F   UNL A   1      43.380  36.113  28.779  1.00  0.00    -0.206 F 
ATOM     80  C   UNL A   1      43.937  37.552  30.548  1.00  0.00     0.040 A 
ATOM     81  C   UNL A   1      44.044  36.708  32.801  1.00  0.00     0.040 A 
ATOM     82  F   UNL A   1      43.618  34.440  33.227  1.00  0.00    -0.206 F 
ATOM     83  C   UNL A   1      44.161  37.769  31.907  1.00  0.00     0.006 A 
ENDBRANCH  59  76
ENDBRANCH  33  34
ENDBRANCH  25  28
ENDBRANCH  23  24
ENDBRANCH  22  23
ENDBRANCH   1  22
TORSDOF 13
ENDMDL
MODEL 2
REMARK VINA RESULT:      -9.6      3.611      9.331
REMARK SMILES CCc1cccc(-c2ccc([C@@H](C)C(=O)NCCCNC(=O)c3ccc(-c4c5nc(c(-c6c(F)cccc6F)c6ccc([nH]6)c(-c6c(F)cccc6F)c6nc(c(-c7c(F)cccc7F)c7ccc4[nH]7)C=C6)C=C5)cc3)cc2)c1
REMARK SMILES IDX 17 1 16 2 14 3 15 4 12 6 13 7 11 8 8 9 9 10 78 11 10 12
REMARK SMILES IDX 77 13 7 14 3 15 4 16 79 17 5 18 6 19 2 20 1 21 18 22 19 23
REMARK SMILES IDX 20 24 21 25 22 27 23 28 24 29 76 30 25 31 75 32 26 33 27 34
REMARK SMILES IDX 28 35 69 36 29 37 74 38 68 39 70 40 30 41 73 42 67 43 66 44
REMARK SMILES IDX 31 46 57 47 40 48 56 49 41 50 44 51 55 52 71 53 42 54 43 55
REMARK SMILES IDX 54 57 72 58 45 59 32 60 33 61 38 62 34 63 35 64 37 65 39 66
REMARK SMILES IDX 36 67 58 68 59 69 64 70 60 71 61 72 63 73 65 74 62 75 46 76
REMARK SMILES IDX 47 77 52 78 48 79 49 80 51 81 53 82 50 83
REMARK H PARENT 16 5 20 26 70 45 44 56
REMARK Flexibility Score: inf
ROOT
ATOM      1  C   UNL A   1      37.303  21.367  24.916  1.00  0.00     0.117 C 
ENDROOT
BRANCH   1   2
ATOM      2  N   UNL A   1      35.938  21.064  24.533  1.00  0.00    -0.356 N 
ATOM      3  C   UNL A   1      34.742  21.358  25.115  1.00  0.00     0.227 C 
ATOM      4  O   UNL A   1      33.740  20.888  24.562  1.00  0.00    -0.274 OA
ATOM      5  H   UNL A   1      35.862  20.549  23.698  1.00  0.00     0.163 HD
BRANCH   3   6
ATOM      6  C   UNL A   1      34.587  22.219  26.378  1.00  0.00     0.105 C 
ATOM      7  C   UNL A   1      33.974  21.488  27.572  1.00  0.00     0.023 C 
BRANCH   6   8
ATOM      8  C   UNL A   1      34.040  23.607  26.090  1.00  0.00    -0.036 A 
ATOM      9  C   UNL A   1      33.023  26.268  25.796  1.00  0.00    -0.018 A 
ATOM     10  C   UNL A   1      34.277  25.893  25.287  1.00  0.00     0.009 A 
ATOM     11  C   UNL A   1      32.267  25.256  26.407  1.00  0.00     0.009 A 
ATOM     12  C   UNL A   1      34.763  24.584  25.403  1.00  0.00     0.005 A 
ATOM     13  C   UNL A   1      32.772  23.959  26.571  1.00  0.00     0.005 A 
BRANCH   9  14
ATOM     14  C   UNL A   1      32.544  27.671  25.716  1.00  0.00    -0.018 A 
ATOM     15  C   UNL A   1      31.063  29.378  24.722  1.00  0.00    -0.048 A 
ATOM     16  C   UNL A   1      31.571  30.329  25.612  1.00  0.00     0.004 A 
ATOM     17  C   UNL A   1      31.559  28.062  24.785  1.00  0.00     0.012 A 
ATOM     18  C   UNL A   1      32.548  29.975  26.538  1.00  0.00     0.001 A 
ATOM     19  C   UNL A   1      33.033  28.665  26.582  1.00  0.00     0.009 A 
BRANCH  15  20
ATOM     20  C   UNL A   1      30.051  29.789  23.679  1.00  0.00     0.032 C 
ATOM     21  C   UNL A   1      30.408  29.376  22.257  1.00  0.00     0.009 C 
ENDBRANCH  15  20
ENDBRANCH   9  14
ENDBRANCH   6   8
ENDBRANCH   3   6
ENDBRANCH   1   2
BRANCH   1  22
ATOM     22  C   UNL A   1      38.222  20.154  24.813  1.00  0.00     0.042 C 
BRANCH  22  23
ATOM     23  C   UNL A   1      38.956  19.818  26.105  1.00  0.00     0.118 C 
BRANCH  23  24
ATOM     24  N   UNL A   1      40.224  19.141  25.861  1.00  0.00    -0.352 N 
ATOM     25  C   UNL A   1      41.514  19.608  25.909  1.00  0.00     0.251 C 
ATOM     26  H   UNL A   1      40.141  18.191  25.620  1.00  0.00     0.163 HD
ATOM     27  O   UNL A   1      42.418  18.905  25.464  1.00  0.00    -0.269 OA
BRANCH  25  28
ATOM     28  C   UNL A   1      41.838  20.939  26.475  1.00  0.00     0.039 A 
ATOM     29  C   UNL A   1      41.830  21.094  27.867  1.00  0.00     0.014 A 
ATOM     30  C   UNL A   1      42.083  22.047  25.661  1.00  0.00     0.014 A 
ATOM     31  C   UNL A   1      42.118  22.338  28.436  1.00  0.00     0.010 A 
ATOM     32  C   UNL A   1      42.446  23.268  26.229  1.00  0.00     0.010 A 
ATOM     33  C   UNL A   1      42.458  23.429  27.622  1.00  0.00    -0.014 A 
BRANCH  33  34
ATOM     34  C   UNL A   1      42.810  24.750  28.206  1.00  0.00     0.031 A 
ATOM     35  C   UNL A   1      41.745  25.793  28.419  1.00  0.00     0.074 A 
ATOM     36  C   UNL A   1      44.097  25.037  28.482  1.00  0.00     0.049 A 
ATOM     37  N   UNL A   1      41.869  27.030  28.829  1.00  0.00    -0.248 NA
ATOM     38  C   UNL A   1      40.363  25.401  28.105  1.00  0.00     0.031 C 
ATOM     39  C   UNL A   1      45.229  24.131  28.279  1.00  0.00     0.029 A 
ATOM     40  N   UNL A   1      44.672  26.179  28.980  1.00  0.00    -0.354 N 
ATOM     41  C   UNL A   1      40.589  27.569  28.798  1.00  0.00     0.074 A 
ATOM     42  C   UNL A   1      39.709  26.538  28.291  1.00  0.00     0.031 C 
ATOM     43  C   UNL A   1      46.359  24.746  28.664  1.00  0.00     0.029 A 
ATOM     44  C   UNL A   1      46.038  26.100  29.107  1.00  0.00     0.049 A 
ATOM     45  H   UNL A   1      44.155  26.980  29.225  1.00  0.00     0.167 HD
ATOM     46  C   UNL A   1      40.179  28.803  29.177  1.00  0.00     0.037 A 
ATOM     47  C   UNL A   1      46.931  27.017  29.523  1.00  0.00     0.037 A 
ATOM     48  C   UNL A   1      41.049  29.815  29.716  1.00  0.00     0.049 A 
ATOM     49  C   UNL A   1      46.449  28.374  29.952  1.00  0.00     0.074 A 
ATOM     50  C   UNL A   1      40.717  31.074  30.187  1.00  0.00     0.029 A 
ATOM     51  N   UNL A   1      42.421  29.681  29.860  1.00  0.00    -0.354 N 
ATOM     52  N   UNL A   1      45.227  28.848  29.972  1.00  0.00    -0.248 NA
ATOM     53  C   UNL A   1      47.469  29.323  30.421  1.00  0.00     0.031 C 
ATOM     54  C   UNL A   1      41.895  31.715  30.587  1.00  0.00     0.029 A 
ATOM     55  C   UNL A   1      42.953  30.841  30.400  1.00  0.00     0.049 A 
ATOM     56  H   UNL A   1      42.940  28.883  29.615  1.00  0.00     0.167 HD
ATOM     57  C   UNL A   1      45.327  30.136  30.481  1.00  0.00     0.074 A 
ATOM     58  C   UNL A   1      46.728  30.366  30.767  1.00  0.00     0.031 C 
ATOM     59  C   UNL A   1      44.347  31.048  30.692  1.00  0.00     0.037 A 
BRANCH  46  60
ATOM     60  C   UNL A   1      38.721  29.128  29.026  1.00  0.00     0.057 A 
ATOM     61  C   UNL A   1      37.835  29.058  30.110  1.00  0.00     0.134 A 
ATOM     62  C   UNL A   1      38.207  29.556  27.797  1.00  0.00     0.134 A 
ATOM     63  F   UNL A   1      38.262  28.645  31.312  1.00  0.00    -0.206 F 
ATOM     64  C   UNL A   1      36.485  29.382  29.969  1.00  0.00     0.040 A 
ATOM     65  C   UNL A   1      36.863  29.907  27.650  1.00  0.00     0.040 A 
ATOM     66  F   UNL A   1      39.002  29.653  26.721  1.00  0.00    -0.206 F 
ATOM     67  C   UNL A   1      35.997  29.814  28.738  1.00  0.00     0.006 A 
ENDBRANCH  46  60
BRANCH  47  68
ATOM     68  C   UNL A   1      48.375  26.676  29.575  1.00  0.00     0.057 A 
ATOM     69  C   UNL A   1      49.218  26.946  28.490  1.00  0.00     0.134 A 
ATOM     70  C   UNL A   1      48.943  26.067  30.700  1.00  0.00     0.134 A 
ATOM     71  F   UNL A   1      48.726  27.510  27.378  1.00  0.00    -0.206 F 
ATOM     72  C   UNL A   1      50.571  26.604  28.514  1.00  0.00     0.040 A 
ATOM     73  C   UNL A   1      50.301  25.742  30.746  1.00  0.00     0.040 A 
ATOM     74  F   UNL A   1      48.190  25.788  31.773  1.00  0.00    -0.206 F 
ATOM     75  C   UNL A   1      51.117  26.003  29.647  1.00  0.00     0.006 A 
ENDBRANCH  47  68
BRANCH  59  76
ATOM     76  C   UNL A   1      44.750  32.361  31.295  1.00  0.00     0.057 A 
ATOM     77  C   UNL A   1      44.804  32.550  32.681  1.00  0.00     0.134 A 
ATOM     78  C   UNL A   1      45.125  33.433  30.477  1.00  0.00     0.134 A 
ATOM     79  F   UNL A   1      44.443  31.565  33.518  1.00  0.00    -0.206 F 
ATOM     80  C   UNL A   1      45.200  33.769  33.233  1.00  0.00     0.040 A 
ATOM     81  C   UNL A   1      45.546  34.649  31.018  1.00  0.00     0.040 A 
ATOM     82  F   UNL A   1      45.102  33.313  29.141  1.00  0.00    -0.206 F 
ATOM     83  C   UNL A   1      45.579  34.821  32.400  1.00  0.00     0.006 A 
ENDBRANCH  59  76
ENDBRANCH  33  34
ENDBRANCH  25  28
ENDBRANCH  23  24
ENDBRANCH  22  23
ENDBRANCH   1  22
TORSDOF 13
ENDMDL
MODEL 3
REMARK VINA RESULT:      -9.5      3.480     10.224
REMARK SMILES CCc1cccc(-c2ccc([C@@H](C)C(=O)NCCCNC(=O)c3ccc(-c4c5nc(c(-c6c(F)cccc6F)c6ccc([nH]6)c(-c6c(F)cccc6F)c6nc(c(-c7c(F)cccc7F)c7ccc4[nH]7)C=C6)C=C5)cc3)cc2)c1
REMARK SMILES IDX 17 1 16 2 14 3 15 4 12 6 13 7 11 8 8 9 9 10 78 11 10 12
REMARK SMILES IDX 77 13 7 14 3 15 4 16 79 17 5 18 6 19 2 20 1 21 18 22 19 23
REMARK SMILES IDX 20 24 21 25 22 27 23 28 24 29 76 30 25 31 75 32 26 33 27 34
REMARK SMILES IDX 28 35 69 36 29 37 74 38 68 39 70 40 30 41 73 42 67 43 66 44
REMARK SMILES IDX 31 46 57 47 40 48 56 49 41 50 44 51 55 52 71 53 42 54 43 55
REMARK SMILES IDX 54 57 72 58 45 59 32 60 33 61 38 62 34 63 35 64 37 65 39 66
REMARK SMILES IDX 36 67 58 68 59 69 64 70 60 71 61 72 63 73 65 74 62 75 46 76
REMARK SMILES IDX 47 77 52 78 48 79 49 80 51 81 53 82 50 83
REMARK H PARENT 16 5 20 26 70 45 44 56
REMARK Flexibility Score: inf
ROOT
ATOM      1  C   UNL A   1      33.788  35.165  29.815  1.00  0.00     0.117 C 
ENDROOT
BRANCH   1   2
ATOM      2  N   UNL A   1      32.626  35.182  30.681  1.00  0.00    -0.356 N 
ATOM      3  C   UNL A   1      32.473  35.520  31.992  1.00  0.00     0.227 C 
ATOM      4  O   UNL A   1      31.342  35.359  32.465  1.00  0.00    -0.274 OA
ATOM      5  H   UNL A   1      31.794  34.895  30.241  1.00  0.00     0.163 HD
BRANCH   3   6
ATOM      6  C   UNL A   1      33.601  36.076  32.876  1.00  0.00     0.105 C 
ATOM      7  C   UNL A   1      34.040  37.496  32.524  1.00  0.00     0.023 C 
BRANCH   6   8
ATOM      8  C   UNL A   1      34.715  35.071  33.122  1.00  0.00    -0.036 A 
ATOM      9  C   UNL A   1      36.720  33.045  33.393  1.00  0.00    -0.018 A 
ATOM     10  C   UNL A   1      37.036  34.351  32.987  1.00  0.00     0.009 A 
ATOM     11  C   UNL A   1      35.377  32.797  33.716  1.00  0.00     0.009 A 
ATOM     12  C   UNL A   1      36.061  35.353  32.884  1.00  0.00     0.005 A 
ATOM     13  C   UNL A   1      34.391  33.781  33.563  1.00  0.00     0.005 A 
BRANCH   9  14
ATOM     14  C   UNL A   1      37.753  31.980  33.445  1.00  0.00    -0.018 A 
ATOM     15  C   UNL A   1      38.428  29.629  33.107  1.00  0.00    -0.048 A 
ATOM     16  C   UNL A   1      39.738  29.960  33.467  1.00  0.00     0.004 A 
ATOM     17  C   UNL A   1      37.453  30.645  33.104  1.00  0.00     0.012 A 
ATOM     18  C   UNL A   1      40.063  31.267  33.814  1.00  0.00     0.001 A 
ATOM     19  C   UNL A   1      39.081  32.261  33.811  1.00  0.00     0.009 A 
BRANCH  15  20
ATOM     20  C   UNL A   1      38.073  28.195  32.796  1.00  0.00     0.032 C 
ATOM     21  C   UNL A   1      39.179  27.407  32.106  1.00  0.00     0.009 C 
ENDBRANCH  15  20
ENDBRANCH   9  14
ENDBRANCH   6   8
ENDBRANCH   3   6
ENDBRANCH   1   2
BRANCH   1  22
ATOM     22  C   UNL A   1      33.673  34.124  28.704  1.00  0.00     0.042 C 
BRANCH  22  23
ATOM     23  C   UNL A   1      34.405  32.820  28.995  1.00  0.00     0.118 C 
BRANCH  23  24
ATOM     24  N   UNL A   1      33.776  31.676  28.346  1.00  0.00    -0.352 N 
ATOM     25  C   UNL A   1      34.313  30.502  27.879  1.00  0.00     0.251 C 
ATOM     26  H   UNL A   1      32.804  31.760  28.222  1.00  0.00     0.163 HD
ATOM     27  O   UNL A   1      33.619  29.767  27.181  1.00  0.00    -0.269 OA
BRANCH  25  28
ATOM     28  C   UNL A   1      35.708  30.109  28.187  1.00  0.00     0.039 A 
ATOM     29  C   UNL A   1      36.660  30.159  27.161  1.00  0.00     0.014 A 
ATOM     30  C   UNL A   1      36.078  29.630  29.446  1.00  0.00     0.014 A 
ATOM     31  C   UNL A   1      37.983  29.783  27.412  1.00  0.00     0.010 A 
ATOM     32  C   UNL A   1      37.413  29.329  29.717  1.00  0.00     0.010 A 
ATOM     33  C   UNL A   1      38.377  29.393  28.701  1.00  0.00    -0.014 A 
BRANCH  33  34
ATOM     34  C   UNL A   1      39.787  29.030  29.002  1.00  0.00     0.031 A 
ATOM     35  C   UNL A   1      40.702  30.025  29.663  1.00  0.00     0.074 A 
ATOM     36  C   UNL A   1      40.263  27.828  28.621  1.00  0.00     0.049 A 
ATOM     37  N   UNL A   1      41.981  29.928  29.924  1.00  0.00    -0.248 NA
ATOM     38  C   UNL A   1      40.105  31.310  30.060  1.00  0.00     0.031 C 
ATOM     39  C   UNL A   1      39.493  26.791  27.932  1.00  0.00     0.029 A 
ATOM     40  N   UNL A   1      41.516  27.282  28.747  1.00  0.00    -0.354 N 
ATOM     41  C   UNL A   1      42.346  31.143  30.490  1.00  0.00     0.074 A 
ATOM     42  C   UNL A   1      41.164  31.977  30.498  1.00  0.00     0.031 C 
ATOM     43  C   UNL A   1      40.285  25.729  27.711  1.00  0.00     0.029 A 
ATOM     44  C   UNL A   1      41.625  26.022  28.209  1.00  0.00     0.049 A 
ATOM     45  H   UNL A   1      42.266  27.748  29.182  1.00  0.00     0.167 HD
ATOM     46  C   UNL A   1      43.551  31.523  30.977  1.00  0.00     0.037 A 
ATOM     47  C   UNL A   1      42.688  25.201  28.117  1.00  0.00     0.037 A 
ATOM     48  C   UNL A   1      44.717  30.681  31.003  1.00  0.00     0.049 A 
ATOM     49  C   UNL A   1      44.010  25.641  28.679  1.00  0.00     0.074 A 
ATOM     50  C   UNL A   1      45.966  30.954  31.533  1.00  0.00     0.029 A 
ATOM     51  N   UNL A   1      44.776  29.398  30.479  1.00  0.00    -0.354 N 
ATOM     52  N   UNL A   1      44.323  26.770  29.265  1.00  0.00    -0.248 NA
ATOM     53  C   UNL A   1      45.126  24.689  28.573  1.00  0.00     0.031 C 
ATOM     54  C   UNL A   1      46.791  29.848  31.301  1.00  0.00     0.029 A 
ATOM     55  C   UNL A   1      46.044  28.873  30.661  1.00  0.00     0.049 A 
ATOM     56  H   UNL A   1      44.028  28.931  30.042  1.00  0.00     0.167 HD
ATOM     57  C   UNL A   1      45.661  26.656  29.622  1.00  0.00     0.074 A 
ATOM     58  C   UNL A   1      46.097  25.341  29.197  1.00  0.00     0.031 C 
ATOM     59  C   UNL A   1      46.457  27.558  30.245  1.00  0.00     0.037 A 
BRANCH  46  60
ATOM     60  C   UNL A   1      43.669  32.914  31.530  1.00  0.00     0.057 A 
ATOM     61  C   UNL A   1      43.518  33.179  32.898  1.00  0.00     0.134 A 
ATOM     62  C   UNL A   1      43.980  33.993  30.693  1.00  0.00     0.134 A 
ATOM     63  F   UNL A   1      43.209  32.191  33.751  1.00  0.00    -0.206 F 
ATOM     64  C   UNL A   1      43.650  34.470  33.410  1.00  0.00     0.040 A 
ATOM     65  C   UNL A   1      44.139  35.285  31.198  1.00  0.00     0.040 A 
ATOM     66  F   UNL A   1      44.145  33.808  29.375  1.00  0.00    -0.206 F 
ATOM     67  C   UNL A   1      43.969  35.527  32.559  1.00  0.00     0.006 A 
ENDBRANCH  46  60
BRANCH  47  68
ATOM     68  C   UNL A   1      42.542  23.865  27.485  1.00  0.00     0.057 A 
ATOM     69  C   UNL A   1      42.641  23.711  26.097  1.00  0.00     0.134 A 
ATOM     70  C   UNL A   1      42.291  22.718  28.247  1.00  0.00     0.134 A 
ATOM     71  F   UNL A   1      42.861  24.777  25.314  1.00  0.00    -0.206 F 
ATOM     72  C   UNL A   1      42.475  22.466  25.487  1.00  0.00     0.040 A 
ATOM     73  C   UNL A   1      42.148  21.463  27.651  1.00  0.00     0.040 A 
ATOM     74  F   UNL A   1      42.190  22.799  29.582  1.00  0.00    -0.206 F 
ATOM     75  C   UNL A   1      42.233  21.337  26.266  1.00  0.00     0.006 A 
ENDBRANCH  47  68
BRANCH  59  76
ATOM     76  C   UNL A   1      47.867  27.140  30.540  1.00  0.00     0.057 A 
ATOM     77  C   UNL A   1      48.198  26.421  31.694  1.00  0.00     0.134 A 
ATOM     78  C   UNL A   1      48.897  27.428  29.636  1.00  0.00     0.134 A 
ATOM     79  F   UNL A   1      47.258  26.127  32.606  1.00  0.00    -0.206 F 
ATOM     80  C   UNL A   1      49.510  26.019  31.950  1.00  0.00     0.040 A 
ATOM     81  C   UNL A   1      50.208  27.010  29.869  1.00  0.00     0.040 A 
ATOM     82  F   UNL A   1      48.644  28.107  28.507  1.00  0.00    -0.206 F 
ATOM     83  C   UNL A   1      50.518  26.307  31.031  1.00  0.00     0.006 A 
ENDBRANCH  59  76
ENDBRANCH  33  34
ENDBRANCH  25  28
ENDBRANCH  23  24
ENDBRANCH  22  23
ENDBRANCH   1  22
TORSDOF 13
ENDMDL
