MODEL 1
REMARK VINA RESULT:     -11.9      0.000      0.000
REMARK SMILES C[C@@H](C(=O)NCCCNC(=O)c1ccc(-c2c3nc(c(-c4c(F)cccc4F)c4ccc([nH]4)c(-c4c(F)cccc4F)c4nc(c(-c5c(F)cccc5F)c5ccc2[nH]5)C=C4)C=C3)cc1)c1cc(C(=O)c2ccccc2)ccc1O
REMARK SMILES IDX 6 1 5 2 3 3 4 4 2 6 1 7 66 8 67 9 79 10 68 11 78 12 77 13
REMARK SMILES IDX 80 14 69 16 70 17 71 18 72 19 76 20 73 21 75 22 74 23 7 24
REMARK SMILES IDX 8 25 9 26 10 27 11 29 12 30 13 31 65 32 14 33 64 34 15 35
REMARK SMILES IDX 16 36 17 37 58 38 18 39 63 40 57 41 59 42 19 43 62 44 56 45
REMARK SMILES IDX 55 46 20 48 46 49 29 50 45 51 30 52 33 53 44 54 60 55 31 56
REMARK SMILES IDX 32 57 43 59 61 60 34 61 21 62 22 63 27 64 23 65 24 66 26 67
REMARK SMILES IDX 28 68 25 69 47 70 48 71 53 72 49 73 50 74 52 75 54 76 51 77
REMARK SMILES IDX 35 78 36 79 41 80 37 81 38 82 40 83 42 84 39 85
REMARK H PARENT 5 5 80 15 9 28 59 47 33 58
REMARK Flexibility Score: inf
ROOT
ATOM      1  C   UNL A   1      37.057  21.138  24.573  1.00  0.00     0.117 C 
ENDROOT
BRANCH   1   2
ATOM      2  N   UNL A   1      35.636  20.861  24.632  1.00  0.00    -0.356 N 
ATOM      3  C   UNL A   1      34.623  21.527  25.257  1.00  0.00     0.227 C 
ATOM      4  O   UNL A   1      33.506  21.015  25.176  1.00  0.00    -0.274 OA
ATOM      5  H   UNL A   1      35.355  20.057  24.139  1.00  0.00     0.163 HD
BRANCH   3   6
ATOM      6  C   UNL A   1      34.909  22.857  25.976  1.00  0.00     0.109 C 
ATOM      7  C   UNL A   1      34.460  22.832  27.440  1.00  0.00     0.023 C 
BRANCH   6   8
ATOM      8  C   UNL A   1      34.287  24.066  25.282  1.00  0.00     0.007 A 
ATOM      9  C   UNL A   1      33.511  24.970  26.043  1.00  0.00     0.020 A 
ATOM     10  C   UNL A   1      34.462  24.353  23.922  1.00  0.00     0.119 A 
ATOM     11  C   UNL A   1      32.911  26.096  25.468  1.00  0.00     0.023 A 
ATOM     12  C   UNL A   1      33.883  25.485  23.344  1.00  0.00     0.047 A 
ATOM     13  C   UNL A   1      33.122  26.363  24.114  1.00  0.00     0.016 A 
BRANCH  10  14
ATOM     14  O   UNL A   1      35.202  23.592  23.065  1.00  0.00    -0.508 OA
ATOM     15  H   UNL A   1      35.772  24.003  22.444  1.00  0.00     0.293 HD
ENDBRANCH  10  14
BRANCH  11  16
ATOM     16  C   UNL A   1      32.110  26.993  26.347  1.00  0.00     0.193 C 
ATOM     17  O   UNL A   1      31.107  26.559  26.908  1.00  0.00    -0.289 OA
BRANCH  16  18
ATOM     18  C   UNL A   1      32.520  28.393  26.608  1.00  0.00     0.022 A 
ATOM     19  C   UNL A   1      31.618  29.413  26.288  1.00  0.00     0.012 A 
ATOM     20  C   UNL A   1      33.771  28.707  27.150  1.00  0.00     0.012 A 
ATOM     21  C   UNL A   1      31.944  30.741  26.563  1.00  0.00     0.001 A 
ATOM     22  C   UNL A   1      34.091  30.037  27.427  1.00  0.00     0.001 A 
ATOM     23  C   UNL A   1      33.174  31.050  27.143  1.00  0.00     0.000 A 
ENDBRANCH  16  18
ENDBRANCH  11  16
ENDBRANCH   6   8
ENDBRANCH   3   6
ENDBRANCH   1   2
BRANCH   1  24
ATOM     24  C   UNL A   1      37.882  19.929  24.999  1.00  0.00     0.042 C 
BRANCH  24  25
ATOM     25  C   UNL A   1      39.126  20.283  25.804  1.00  0.00     0.118 C 
BRANCH  25  26
ATOM     26  N   UNL A   1      40.096  19.198  25.849  1.00  0.00    -0.352 N 
ATOM     27  C   UNL A   1      41.454  19.253  26.045  1.00  0.00     0.251 C 
ATOM     28  H   UNL A   1      39.725  18.294  25.720  1.00  0.00     0.163 HD
ATOM     29  O   UNL A   1      42.145  18.254  25.875  1.00  0.00    -0.269 OA
BRANCH  27  30
ATOM     30  C   UNL A   1      42.083  20.529  26.441  1.00  0.00     0.039 A 
ATOM     31  C   UNL A   1      42.487  21.429  25.451  1.00  0.00     0.014 A 
ATOM     32  C   UNL A   1      42.261  20.840  27.791  1.00  0.00     0.014 A 
ATOM     33  C   UNL A   1      43.003  22.674  25.817  1.00  0.00     0.010 A 
ATOM     34  C   UNL A   1      42.699  22.106  28.153  1.00  0.00     0.010 A 
ATOM     35  C   UNL A   1      43.078  23.035  27.169  1.00  0.00    -0.014 A 
BRANCH  35  36
ATOM     36  C   UNL A   1      43.565  24.366  27.608  1.00  0.00     0.031 A 
ATOM     37  C   UNL A   1      42.573  25.408  28.041  1.00  0.00     0.074 A 
ATOM     38  C   UNL A   1      44.870  24.678  27.501  1.00  0.00     0.049 A 
ATOM     39  N   UNL A   1      42.754  26.684  28.267  1.00  0.00    -0.248 NA
ATOM     40  C   UNL A   1      41.181  24.957  28.200  1.00  0.00     0.031 C 
ATOM     41  C   UNL A   1      45.927  23.765  27.063  1.00  0.00     0.029 A 
ATOM     42  N   UNL A   1      45.524  25.864  27.721  1.00  0.00    -0.354 N 
ATOM     43  C   UNL A   1      41.495  27.193  28.561  1.00  0.00     0.074 A 
ATOM     44  C   UNL A   1      40.556  26.099  28.438  1.00  0.00     0.031 C 
ATOM     45  C   UNL A   1      47.095  24.426  27.042  1.00  0.00     0.029 A 
ATOM     46  C   UNL A   1      46.862  25.817  27.418  1.00  0.00     0.049 A 
ATOM     47  H   UNL A   1      45.075  26.672  28.062  1.00  0.00     0.167 HD
ATOM     48  C   UNL A   1      41.156  28.455  28.915  1.00  0.00     0.037 A 
ATOM     49  C   UNL A   1      47.792  26.792  27.415  1.00  0.00     0.037 A 
ATOM     50  C   UNL A   1      42.099  29.531  29.057  1.00  0.00     0.049 A 
ATOM     51  C   UNL A   1      47.398  28.188  27.807  1.00  0.00     0.074 A 
ATOM     52  C   UNL A   1      41.869  30.832  29.470  1.00  0.00     0.029 A 
ATOM     53  N   UNL A   1      43.457  29.429  28.788  1.00  0.00    -0.354 N 
ATOM     54  N   UNL A   1      46.215  28.649  28.133  1.00  0.00    -0.248 NA
ATOM     55  C   UNL A   1      48.465  29.199  27.834  1.00  0.00     0.031 C 
ATOM     56  C   UNL A   1      43.079  31.530  29.406  1.00  0.00     0.029 A 
ATOM     57  C   UNL A   1      44.074  30.650  29.007  1.00  0.00     0.049 A 
ATOM     58  H   UNL A   1      43.913  28.612  28.486  1.00  0.00     0.167 HD
ATOM     59  C   UNL A   1      46.398  29.993  28.437  1.00  0.00     0.074 A 
ATOM     60  C   UNL A   1      47.808  30.273  28.253  1.00  0.00     0.031 C 
ATOM     61  C   UNL A   1      45.482  30.908  28.837  1.00  0.00     0.037 A 
BRANCH  48  62
ATOM     62  C   UNL A   1      39.699  28.732  29.154  1.00  0.00     0.057 A 
ATOM     63  C   UNL A   1      38.855  29.199  28.135  1.00  0.00     0.134 A 
ATOM     64  C   UNL A   1      39.133  28.537  30.419  1.00  0.00     0.134 A 
ATOM     65  F   UNL A   1      39.336  29.418  26.902  1.00  0.00    -0.206 F 
ATOM     66  C   UNL A   1      37.515  29.503  28.379  1.00  0.00     0.040 A 
ATOM     67  C   UNL A   1      37.786  28.807  30.667  1.00  0.00     0.040 A 
ATOM     68  F   UNL A   1      39.880  28.085  31.439  1.00  0.00    -0.206 F 
ATOM     69  C   UNL A   1      36.976  29.304  29.648  1.00  0.00     0.006 A 
ENDBRANCH  48  62
BRANCH  49  70
ATOM     70  C   UNL A   1      49.190  26.467  27.039  1.00  0.00     0.057 A 
ATOM     71  C   UNL A   1      50.096  25.978  27.987  1.00  0.00     0.134 A 
ATOM     72  C   UNL A   1      49.644  26.601  25.721  1.00  0.00     0.134 A 
ATOM     73  F   UNL A   1      49.725  25.843  29.268  1.00  0.00    -0.206 F 
ATOM     74  C   UNL A   1      51.407  25.643  27.640  1.00  0.00     0.040 A 
ATOM     75  C   UNL A   1      50.944  26.248  25.357  1.00  0.00     0.040 A 
ATOM     76  F   UNL A   1      48.820  27.053  24.764  1.00  0.00    -0.206 F 
ATOM     77  C   UNL A   1      51.831  25.770  26.319  1.00  0.00     0.006 A 
ENDBRANCH  49  70
BRANCH  61  78
ATOM     78  C   UNL A   1      45.974  32.287  29.160  1.00  0.00     0.057 A 
ATOM     79  C   UNL A   1      45.996  33.311  28.207  1.00  0.00     0.134 A 
ATOM     80  C   UNL A   1      46.351  32.614  30.470  1.00  0.00     0.134 A 
ATOM     81  F   UNL A   1      45.658  33.061  26.933  1.00  0.00    -0.206 F 
ATOM     82  C   UNL A   1      46.385  34.610  28.541  1.00  0.00     0.040 A 
ATOM     83  C   UNL A   1      46.717  33.912  30.823  1.00  0.00     0.040 A 
ATOM     84  F   UNL A   1      46.343  31.679  31.433  1.00  0.00    -0.206 F 
ATOM     85  C   UNL A   1      46.737  34.914  29.856  1.00  0.00     0.006 A 
ENDBRANCH  61  78
ENDBRANCH  35  36
ENDBRANCH  27  30
ENDBRANCH  25  26
ENDBRANCH  24  25
ENDBRANCH   1  24
TORSDOF 14
ENDMDL
MODEL 2
REMARK VINA RESULT:     -11.9      4.885      9.487
REMARK SMILES C[C@@H](C(=O)NCCCNC(=O)c1ccc(-c2c3nc(c(-c4c(F)cccc4F)c4ccc([nH]4)c(-c4c(F)cccc4F)c4nc(c(-c5c(F)cccc5F)c5ccc2[nH]5)C=C4)C=C3)cc1)c1cc(C(=O)c2ccccc2)ccc1O
REMARK SMILES IDX 6 1 5 2 3 3 4 4 2 6 1 7 66 8 67 9 79 10 68 11 78 12 77 13
REMARK SMILES IDX 80 14 69 16 70 17 71 18 72 19 76 20 73 21 75 22 74 23 7 24
REMARK SMILES IDX 8 25 9 26 10 27 11 29 12 30 13 31 65 32 14 33 64 34 15 35
REMARK SMILES IDX 16 36 17 37 58 38 18 39 63 40 57 41 59 42 19 43 62 44 56 45
REMARK SMILES IDX 55 46 20 48 46 49 29 50 45 51 30 52 33 53 44 54 60 55 31 56
REMARK SMILES IDX 32 57 43 59 61 60 34 61 21 62 22 63 27 64 23 65 24 66 26 67
REMARK SMILES IDX 28 68 25 69 47 70 48 71 53 72 49 73 50 74 52 75 54 76 51 77
REMARK SMILES IDX 35 78 36 79 41 80 37 81 38 82 40 83 42 84 39 85
REMARK H PARENT 5 5 80 15 9 28 59 47 33 58
REMARK Flexibility Score: inf
ROOT
ATOM      1  C   UNL A   1      31.274  30.850  26.344  1.00  0.00     0.117 C 
ENDROOT
BRANCH   1   2
ATOM      2  N   UNL A   1      31.936  30.395  25.138  1.00  0.00    -0.356 N 
ATOM      3  C   UNL A   1      32.860  29.410  24.946  1.00  0.00     0.227 C 
ATOM      4  O   UNL A   1      33.291  29.286  23.800  1.00  0.00    -0.274 OA
ATOM      5  H   UNL A   1      31.676  30.877  24.320  1.00  0.00     0.163 HD
BRANCH   3   6
ATOM      6  C   UNL A   1      33.276  28.509  26.123  1.00  0.00     0.109 C 
ATOM      7  C   UNL A   1      34.755  28.675  26.484  1.00  0.00     0.023 C 
BRANCH   6   8
ATOM      8  C   UNL A   1      32.982  27.030  25.887  1.00  0.00     0.007 A 
ATOM      9  C   UNL A   1      33.869  26.272  25.091  1.00  0.00     0.020 A 
ATOM     10  C   UNL A   1      31.882  26.361  26.443  1.00  0.00     0.119 A 
ATOM     11  C   UNL A   1      33.656  24.913  24.833  1.00  0.00     0.023 A 
ATOM     12  C   UNL A   1      31.672  25.001  26.207  1.00  0.00     0.047 A 
ATOM     13  C   UNL A   1      32.562  24.273  25.417  1.00  0.00     0.016 A 
BRANCH  10  14
ATOM     14  O   UNL A   1      30.953  26.949  27.251  1.00  0.00    -0.508 OA
ATOM     15  H   UNL A   1      30.281  26.430  27.648  1.00  0.00     0.293 HD
ENDBRANCH  10  14
BRANCH  11  16
ATOM     16  C   UNL A   1      34.644  24.194  23.981  1.00  0.00     0.193 C 
ATOM     17  O   UNL A   1      34.512  24.197  22.760  1.00  0.00    -0.289 OA
BRANCH  16  18
ATOM     18  C   UNL A   1      35.822  23.511  24.567  1.00  0.00     0.022 A 
ATOM     19  C   UNL A   1      36.218  22.290  24.010  1.00  0.00     0.012 A 
ATOM     20  C   UNL A   1      36.526  24.050  25.649  1.00  0.00     0.012 A 
ATOM     21  C   UNL A   1      37.350  21.638  24.499  1.00  0.00     0.001 A 
ATOM     22  C   UNL A   1      37.661  23.396  26.132  1.00  0.00     0.001 A 
ATOM     23  C   UNL A   1      38.077  22.198  25.550  1.00  0.00     0.000 A 
ENDBRANCH  16  18
ENDBRANCH  11  16
ENDBRANCH   6   8
ENDBRANCH   3   6
ENDBRANCH   1   2
BRANCH   1  24
ATOM     24  C   UNL A   1      31.384  32.362  26.507  1.00  0.00     0.042 C 
BRANCH  24  25
ATOM     25  C   UNL A   1      32.676  32.819  27.172  1.00  0.00     0.118 C 
BRANCH  25  26
ATOM     26  N   UNL A   1      32.617  34.201  27.626  1.00  0.00    -0.352 N 
ATOM     27  C   UNL A   1      33.290  34.806  28.659  1.00  0.00     0.251 C 
ATOM     28  H   UNL A   1      32.006  34.786  27.121  1.00  0.00     0.163 HD
ATOM     29  O   UNL A   1      32.986  35.940  29.016  1.00  0.00    -0.269 OA
BRANCH  27  30
ATOM     30  C   UNL A   1      34.369  34.077  29.354  1.00  0.00     0.039 A 
ATOM     31  C   UNL A   1      34.045  33.210  30.401  1.00  0.00     0.014 A 
ATOM     32  C   UNL A   1      35.699  34.241  28.961  1.00  0.00     0.014 A 
ATOM     33  C   UNL A   1      35.048  32.450  31.007  1.00  0.00     0.010 A 
ATOM     34  C   UNL A   1      36.683  33.428  29.508  1.00  0.00     0.010 A 
ATOM     35  C   UNL A   1      36.368  32.527  30.539  1.00  0.00    -0.014 A 
BRANCH  35  36
ATOM     36  C   UNL A   1      37.459  31.700  31.110  1.00  0.00     0.031 A 
ATOM     37  C   UNL A   1      37.983  32.015  32.482  1.00  0.00     0.074 A 
ATOM     38  C   UNL A   1      38.058  30.758  30.357  1.00  0.00     0.049 A 
ATOM     39  N   UNL A   1      39.050  31.561  33.088  1.00  0.00    -0.248 NA
ATOM     40  C   UNL A   1      37.221  33.005  33.259  1.00  0.00     0.031 C 
ATOM     41  C   UNL A   1      37.664  30.381  28.999  1.00  0.00     0.029 A 
ATOM     42  N   UNL A   1      39.150  29.969  30.619  1.00  0.00    -0.354 N 
ATOM     43  C   UNL A   1      39.106  32.237  34.301  1.00  0.00     0.074 A 
ATOM     44  C   UNL A   1      37.994  33.162  34.322  1.00  0.00     0.031 C 
ATOM     45  C   UNL A   1      38.504  29.438  28.546  1.00  0.00     0.029 A 
ATOM     46  C   UNL A   1      39.522  29.178  29.560  1.00  0.00     0.049 A 
ATOM     47  H   UNL A   1      39.622  29.971  31.483  1.00  0.00     0.167 HD
ATOM     48  C   UNL A   1      39.996  32.088  35.310  1.00  0.00     0.037 A 
ATOM     49  C   UNL A   1      40.580  28.359  29.411  1.00  0.00     0.037 A 
ATOM     50  C   UNL A   1      41.085  31.149  35.290  1.00  0.00     0.049 A 
ATOM     51  C   UNL A   1      41.561  28.208  30.540  1.00  0.00     0.074 A 
ATOM     52  C   UNL A   1      42.008  30.876  36.284  1.00  0.00     0.029 A 
ATOM     53  N   UNL A   1      41.399  30.330  34.215  1.00  0.00    -0.354 N 
ATOM     54  N   UNL A   1      41.577  28.812  31.703  1.00  0.00    -0.248 NA
ATOM     55  C   UNL A   1      42.667  27.262  30.339  1.00  0.00     0.031 C 
ATOM     56  C   UNL A   1      42.909  29.925  35.794  1.00  0.00     0.029 A 
ATOM     57  C   UNL A   1      42.514  29.564  34.514  1.00  0.00     0.049 A 
ATOM     58  H   UNL A   1      40.904  30.297  33.366  1.00  0.00     0.167 HD
ATOM     59  C   UNL A   1      42.671  28.297  32.386  1.00  0.00     0.074 A 
ATOM     60  C   UNL A   1      43.296  27.332  31.505  1.00  0.00     0.031 C 
ATOM     61  C   UNL A   1      43.113  28.594  33.633  1.00  0.00     0.037 A 
BRANCH  48  62
ATOM     62  C   UNL A   1      39.828  32.978  36.509  1.00  0.00     0.057 A 
ATOM     63  C   UNL A   1      38.913  32.683  37.530  1.00  0.00     0.134 A 
ATOM     64  C   UNL A   1      40.587  34.147  36.641  1.00  0.00     0.134 A 
ATOM     65  F   UNL A   1      38.147  31.584  37.460  1.00  0.00    -0.206 F 
ATOM     66  C   UNL A   1      38.728  33.543  38.614  1.00  0.00     0.040 A 
ATOM     67  C   UNL A   1      40.432  34.998  37.738  1.00  0.00     0.040 A 
ATOM     68  F   UNL A   1      41.487  34.486  35.706  1.00  0.00    -0.206 F 
ATOM     69  C   UNL A   1      39.492  34.703  38.722  1.00  0.00     0.006 A 
ENDBRANCH  48  62
BRANCH  49  70
ATOM     70  C   UNL A   1      40.751  27.608  28.142  1.00  0.00     0.057 A 
ATOM     71  C   UNL A   1      41.507  28.135  27.089  1.00  0.00     0.134 A 
ATOM     72  C   UNL A   1      40.196  26.335  27.964  1.00  0.00     0.134 A 
ATOM     73  F   UNL A   1      42.050  29.357  27.194  1.00  0.00    -0.206 F 
ATOM     74  C   UNL A   1      41.698  27.428  25.901  1.00  0.00     0.040 A 
ATOM     75  C   UNL A   1      40.398  25.607  26.791  1.00  0.00     0.040 A 
ATOM     76  F   UNL A   1      39.470  25.770  28.941  1.00  0.00    -0.206 F 
ATOM     77  C   UNL A   1      41.149  26.155  25.753  1.00  0.00     0.006 A 
ENDBRANCH  49  70
BRANCH  61  78
ATOM     78  C   UNL A   1      44.297  27.832  34.150  1.00  0.00     0.057 A 
ATOM     79  C   UNL A   1      45.601  28.334  34.062  1.00  0.00     0.134 A 
ATOM     80  C   UNL A   1      44.116  26.615  34.820  1.00  0.00     0.134 A 
ATOM     81  F   UNL A   1      45.843  29.488  33.422  1.00  0.00    -0.206 F 
ATOM     82  C   UNL A   1      46.684  27.648  34.615  1.00  0.00     0.040 A 
ATOM     83  C   UNL A   1      45.185  25.932  35.399  1.00  0.00     0.040 A 
ATOM     84  F   UNL A   1      42.889  26.084  34.946  1.00  0.00    -0.206 F 
ATOM     85  C   UNL A   1      46.475  26.449  35.295  1.00  0.00     0.006 A 
ENDBRANCH  61  78
ENDBRANCH  35  36
ENDBRANCH  27  30
ENDBRANCH  25  26
ENDBRANCH  24  25
ENDBRANCH   1  24
TORSDOF 14
ENDMDL
MODEL 3
REMARK VINA RESULT:     -11.8      3.884      7.716
REMARK SMILES C[C@@H](C(=O)NCCCNC(=O)c1ccc(-c2c3nc(c(-c4c(F)cccc4F)c4ccc([nH]4)c(-c4c(F)cccc4F)c4nc(c(-c5c(F)cccc5F)c5ccc2[nH]5)C=C4)C=C3)cc1)c1cc(C(=O)c2ccccc2)ccc1O
REMARK SMILES IDX 6 1 5 2 3 3 4 4 2 6 1 7 66 8 67 9 79 10 68 11 78 12 77 13
REMARK SMILES IDX 80 14 69 16 70 17 71 18 72 19 76 20 73 21 75 22 74 23 7 24
REMARK SMILES IDX 8 25 9 26 10 27 11 29 12 30 13 31 65 32 14 33 64 34 15 35
REMARK SMILES IDX 16 36 17 37 58 38 18 39 63 40 57 41 59 42 19 43 62 44 56 45
REMARK SMILES IDX 55 46 20 48 46 49 29 50 45 51 30 52 33 53 44 54 60 55 31 56
REMARK SMILES IDX 32 57 43 59 61 60 34 61 21 62 22 63 27 64 23 65 24 66 26 67
REMARK SMILES IDX 28 68 25 69 47 70 48 71 53 72 49 73 50 74 52 75 54 76 51 77
REMARK SMILES IDX 35 78 36 79 41 80 37 81 38 82 40 83 42 84 39 85
REMARK H PARENT 5 5 80 15 9 28 59 47 33 58
REMARK Flexibility Score: inf
ROOT
ATOM      1  C   UNL A   1      31.741  28.356  27.120  1.00  0.00     0.117 C 
ENDROOT
BRANCH   1   2
ATOM      2  N   UNL A   1      31.133  27.041  27.104  1.00  0.00    -0.356 N 
ATOM      3  C   UNL A   1      30.430  26.396  26.128  1.00  0.00     0.227 C 
ATOM      4  O   UNL A   1      29.980  25.289  26.425  1.00  0.00    -0.274 OA
ATOM      5  H   UNL A   1      31.244  26.526  27.935  1.00  0.00     0.163 HD
BRANCH   3   6
ATOM      6  C   UNL A   1      30.270  27.045  24.742  1.00  0.00     0.109 C 
ATOM      7  C   UNL A   1      29.124  26.423  23.940  1.00  0.00     0.023 C 
BRANCH   6   8
ATOM      8  C   UNL A   1      31.546  27.005  23.904  1.00  0.00     0.007 A 
ATOM      9  C   UNL A   1      32.193  25.766  23.698  1.00  0.00     0.020 A 
ATOM     10  C   UNL A   1      32.109  28.136  23.297  1.00  0.00     0.119 A 
ATOM     11  C   UNL A   1      33.367  25.661  22.943  1.00  0.00     0.023 A 
ATOM     12  C   UNL A   1      33.269  28.037  22.527  1.00  0.00     0.047 A 
ATOM     13  C   UNL A   1      33.890  26.804  22.336  1.00  0.00     0.016 A 
BRANCH  10  14
ATOM     14  O   UNL A   1      31.588  29.395  23.383  1.00  0.00    -0.508 OA
ATOM     15  H   UNL A   1      31.757  29.921  24.140  1.00  0.00     0.293 HD
ENDBRANCH  10  14
BRANCH  11  16
ATOM     16  C   UNL A   1      33.980  24.313  22.779  1.00  0.00     0.193 C 
ATOM     17  O   UNL A   1      33.607  23.582  21.865  1.00  0.00    -0.289 OA
BRANCH  16  18
ATOM     18  C   UNL A   1      35.071  23.843  23.665  1.00  0.00     0.022 A 
ATOM     19  C   UNL A   1      35.157  24.389  24.950  1.00  0.00     0.012 A 
ATOM     20  C   UNL A   1      36.003  22.888  23.244  1.00  0.00     0.012 A 
ATOM     21  C   UNL A   1      36.138  23.938  25.832  1.00  0.00     0.001 A 
ATOM     22  C   UNL A   1      36.981  22.437  24.132  1.00  0.00     0.001 A 
ATOM     23  C   UNL A   1      37.041  22.955  25.427  1.00  0.00     0.000 A 
ENDBRANCH  16  18
ENDBRANCH  11  16
ENDBRANCH   6   8
ENDBRANCH   3   6
ENDBRANCH   1   2
BRANCH   1  24
ATOM     24  C   UNL A   1      33.263  28.269  27.110  1.00  0.00     0.042 C 
BRANCH  24  25
ATOM     25  C   UNL A   1      33.937  29.349  26.275  1.00  0.00     0.118 C 
BRANCH  25  26
ATOM     26  N   UNL A   1      33.869  30.665  26.895  1.00  0.00    -0.352 N 
ATOM     27  C   UNL A   1      34.654  31.200  27.887  1.00  0.00     0.251 C 
ATOM     28  H   UNL A   1      33.159  31.256  26.555  1.00  0.00     0.163 HD
ATOM     29  O   UNL A   1      34.343  32.262  28.417  1.00  0.00    -0.269 OA
BRANCH  27  30
ATOM     30  C   UNL A   1      35.864  30.479  28.331  1.00  0.00     0.039 A 
ATOM     31  C   UNL A   1      37.043  30.602  27.591  1.00  0.00     0.014 A 
ATOM     32  C   UNL A   1      35.834  29.693  29.485  1.00  0.00     0.014 A 
ATOM     33  C   UNL A   1      38.214  29.995  28.050  1.00  0.00     0.010 A 
ATOM     34  C   UNL A   1      37.014  29.157  29.982  1.00  0.00     0.010 A 
ATOM     35  C   UNL A   1      38.216  29.299  29.268  1.00  0.00    -0.014 A 
BRANCH  35  36
ATOM     36  C   UNL A   1      39.445  28.685  29.828  1.00  0.00     0.031 A 
ATOM     37  C   UNL A   1      40.126  29.335  30.998  1.00  0.00     0.074 A 
ATOM     38  C   UNL A   1      40.012  27.629  29.215  1.00  0.00     0.049 A 
ATOM     39  N   UNL A   1      41.303  29.091  31.514  1.00  0.00    -0.248 NA
ATOM     40  C   UNL A   1      39.397  30.435  31.648  1.00  0.00     0.031 C 
ATOM     41  C   UNL A   1      39.466  26.929  28.052  1.00  0.00     0.029 A 
ATOM     42  N   UNL A   1      41.195  26.981  29.470  1.00  0.00    -0.354 N 
ATOM     43  C   UNL A   1      41.470  30.030  32.525  1.00  0.00     0.074 A 
ATOM     44  C   UNL A   1      40.294  30.873  32.517  1.00  0.00     0.031 C 
ATOM     45  C   UNL A   1      40.314  25.953  27.691  1.00  0.00     0.029 A 
ATOM     46  C   UNL A   1      41.483  25.989  28.565  1.00  0.00     0.049 A 
ATOM     47  H   UNL A   1      41.782  27.207  30.228  1.00  0.00     0.167 HD
ATOM     48  C   UNL A   1      42.502  30.165  33.390  1.00  0.00     0.037 A 
ATOM     49  C   UNL A   1      42.577  25.215  28.436  1.00  0.00     0.037 A 
ATOM     50  C   UNL A   1      43.656  29.307  33.406  1.00  0.00     0.049 A 
ATOM     51  C   UNL A   1      43.717  25.382  29.402  1.00  0.00     0.074 A 
ATOM     52  C   UNL A   1      44.730  29.320  34.279  1.00  0.00     0.029 A 
ATOM     53  N   UNL A   1      43.887  28.280  32.501  1.00  0.00    -0.354 N 
ATOM     54  N   UNL A   1      43.842  26.237  30.388  1.00  0.00    -0.248 NA
ATOM     55  C   UNL A   1      44.862  24.475  29.243  1.00  0.00     0.031 C 
ATOM     56  C   UNL A   1      45.632  28.331  33.874  1.00  0.00     0.029 A 
ATOM     57  C   UNL A   1      45.095  27.665  32.783  1.00  0.00     0.049 A 
ATOM     58  H   UNL A   1      43.281  28.027  31.768  1.00  0.00     0.167 HD
ATOM     59  C   UNL A   1      45.063  25.953  30.987  1.00  0.00     0.074 A 
ATOM     60  C   UNL A   1      45.640  24.845  30.253  1.00  0.00     0.031 C 
ATOM     61  C   UNL A   1      45.648  26.552  32.053  1.00  0.00     0.037 A 
BRANCH  48  62
ATOM     62  C   UNL A   1      42.427  31.297  34.376  1.00  0.00     0.057 A 
ATOM     63  C   UNL A   1      41.841  31.142  35.641  1.00  0.00     0.134 A 
ATOM     64  C   UNL A   1      42.941  32.558  34.054  1.00  0.00     0.134 A 
ATOM     65  F   UNL A   1      41.319  29.962  36.008  1.00  0.00    -0.206 F 
ATOM     66  C   UNL A   1      41.730  32.212  36.529  1.00  0.00     0.040 A 
ATOM     67  C   UNL A   1      42.864  33.628  34.948  1.00  0.00     0.040 A 
ATOM     68  F   UNL A   1      43.523  32.775  32.865  1.00  0.00    -0.206 F 
ATOM     69  C   UNL A   1      42.245  33.460  36.185  1.00  0.00     0.006 A 
ENDBRANCH  48  62
BRANCH  49  70
ATOM     70  C   UNL A   1      42.633  24.203  27.351  1.00  0.00     0.057 A 
ATOM     71  C   UNL A   1      43.139  24.528  26.088  1.00  0.00     0.134 A 
ATOM     72  C   UNL A   1      42.219  22.883  27.562  1.00  0.00     0.134 A 
ATOM     73  F   UNL A   1      43.537  25.781  25.822  1.00  0.00    -0.206 F 
ATOM     74  C   UNL A   1      43.223  23.578  25.068  1.00  0.00     0.040 A 
ATOM     75  C   UNL A   1      42.319  21.917  26.558  1.00  0.00     0.040 A 
ATOM     76  F   UNL A   1      41.736  22.506  28.754  1.00  0.00    -0.206 F 
ATOM     77  C   UNL A   1      42.820  22.266  25.305  1.00  0.00     0.006 A 
ENDBRANCH  49  70
BRANCH  61  78
ATOM     78  C   UNL A   1      46.955  25.994  32.533  1.00  0.00     0.057 A 
ATOM     79  C   UNL A   1      48.183  26.452  32.044  1.00  0.00     0.134 A 
ATOM     80  C   UNL A   1      46.981  25.042  33.561  1.00  0.00     0.134 A 
ATOM     81  F   UNL A   1      48.225  27.354  31.051  1.00  0.00    -0.206 F 
ATOM     82  C   UNL A   1      49.393  25.977  32.554  1.00  0.00     0.040 A 
ATOM     83  C   UNL A   1      48.182  24.578  34.097  1.00  0.00     0.040 A 
ATOM     84  F   UNL A   1      45.837  24.569  34.080  1.00  0.00    -0.206 F 
ATOM     85  C   UNL A   1      49.394  25.045  33.591  1.00  0.00     0.006 A 
ENDBRANCH  61  78
ENDBRANCH  35  36
ENDBRANCH  27  30
ENDBRANCH  25  26
ENDBRANCH  24  25
ENDBRANCH   1  24
TORSDOF 14
ENDMDL
