MODEL 1
REMARK VINA RESULT:     -13.5      0.000      0.000
REMARK SMILES Cc1cccc(-c2cc(C[C@]3(C(=O)NCCCNC(=O)c4ccc(-c5c6nc(c(-c7c(F)cccc7F)c7ccc([nH]7)c(-c7c(F)cccc7F)c7nc(c(-c8c(F)cccc8F)c8ccc5[nH]8)C=C7)C=C6)cc4)CCCN(C(=O)C(C)C)C3)on2)c1
REMARK SMILES IDX 15 1 14 2 12 3 13 4 11 6 75 7 84 8 76 9 78 10 77 11 10 12
REMARK SMILES IDX 9 13 7 14 8 15 86 16 85 17 6 18 1 19 2 20 3 21 87 22 4 23
REMARK SMILES IDX 5 24 79 25 80 26 81 27 82 28 83 29 16 30 17 31 18 32 19 33
REMARK SMILES IDX 20 35 21 36 22 37 74 38 23 39 73 40 24 41 25 42 26 43 67 44
REMARK SMILES IDX 27 45 72 46 66 47 68 48 28 49 71 50 65 51 64 52 29 54 55 55
REMARK SMILES IDX 38 56 54 57 39 58 42 59 53 60 69 61 40 62 41 63 52 65 70 66
REMARK SMILES IDX 43 67 30 68 31 69 36 70 32 71 33 72 35 73 37 74 34 75 56 76
REMARK SMILES IDX 57 77 62 78 58 79 59 80 61 81 63 82 60 83 44 84 45 85 50 86
REMARK SMILES IDX 46 87 47 88 49 89 51 90 48 91
REMARK H PARENT 14 5 18 34 68 53 42 64
REMARK Flexibility Score: inf
ROOT
ATOM      1  C   UNL A   1      32.066  30.413  26.629  1.00  0.00     0.117 C 
ENDROOT
BRANCH   1   2
ATOM      2  N   UNL A   1      31.809  29.041  27.063  1.00  0.00    -0.355 N 
ATOM      3  C   UNL A   1      31.544  27.867  26.413  1.00  0.00     0.228 C 
ATOM      4  O   UNL A   1      31.484  26.869  27.139  1.00  0.00    -0.274 OA
ATOM      5  H   UNL A   1      31.831  28.938  28.042  1.00  0.00     0.163 HD
BRANCH   3   6
ATOM      6  C   UNL A   1      31.260  27.759  24.887  1.00  0.00     0.074 C 
ATOM      7  C   UNL A   1      30.618  26.361  24.645  1.00  0.00     0.021 C 
ATOM      8  C   UNL A   1      30.435  28.992  24.438  1.00  0.00     0.136 C 
ATOM      9  C   UNL A   1      29.513  26.292  23.598  1.00  0.00     0.023 C 
ATOM     10  N   UNL A   1      29.433  28.698  23.408  1.00  0.00    -0.341 N 
ATOM     11  C   UNL A   1      28.626  27.517  23.650  1.00  0.00     0.119 C 
BRANCH   6  12
ATOM     12  C   UNL A   1      32.653  27.809  24.156  1.00  0.00     0.097 C 
BRANCH  12  13
ATOM     13  C   UNL A   1      33.349  26.498  23.997  1.00  0.00     0.138 A 
ATOM     14  C   UNL A   1      34.397  24.545  24.063  1.00  0.00     0.114 A 
ATOM     15  C   UNL A   1      33.857  25.573  24.879  1.00  0.00     0.077 A 
ATOM     16  N   UNL A   1      34.205  24.829  22.766  1.00  0.00    -0.080 NA
ATOM     17  O   UNL A   1      33.529  26.037  22.730  1.00  0.00    -0.361 OA
BRANCH  14  18
ATOM     18  C   UNL A   1      35.106  23.351  24.498  1.00  0.00     0.004 A 
ATOM     19  C   UNL A   1      38.544  22.312  25.782  1.00  0.00     0.044 C 
ATOM     20  C   UNL A   1      37.123  22.255  25.305  1.00  0.00    -0.050 A 
ATOM     21  C   UNL A   1      36.466  21.018  25.252  1.00  0.00     0.003 A 
ATOM     22  C   UNL A   1      36.441  23.418  24.913  1.00  0.00     0.014 A 
ATOM     23  C   UNL A   1      35.139  20.945  24.844  1.00  0.00     0.001 A 
ATOM     24  C   UNL A   1      34.463  22.109  24.484  1.00  0.00     0.010 A 
ENDBRANCH  14  18
ENDBRANCH  12  13
ENDBRANCH   6  12
BRANCH  10  25
ATOM     25  C   UNL A   1      29.332  29.551  22.322  1.00  0.00     0.225 C 
ATOM     26  O   UNL A   1      30.245  29.614  21.488  1.00  0.00    -0.275 OA
BRANCH  25  27
ATOM     27  C   UNL A   1      28.121  30.470  22.130  1.00  0.00     0.072 C 
ATOM     28  C   UNL A   1      27.608  31.193  23.372  1.00  0.00     0.018 C 
ATOM     29  C   UNL A   1      28.306  31.405  20.944  1.00  0.00     0.018 C 
ENDBRANCH  25  27
ENDBRANCH  10  25
ENDBRANCH   3   6
ENDBRANCH   1   2
BRANCH   1  30
ATOM     30  C   UNL A   1      33.510  30.859  26.814  1.00  0.00     0.042 C 
BRANCH  30  31
ATOM     31  C   UNL A   1      34.144  30.335  28.088  1.00  0.00     0.118 C 
BRANCH  31  32
ATOM     32  N   UNL A   1      34.957  31.309  28.813  1.00  0.00    -0.352 N 
ATOM     33  C   UNL A   1      36.230  31.156  29.350  1.00  0.00     0.251 C 
ATOM     34  H   UNL A   1      34.547  32.194  28.938  1.00  0.00     0.163 HD
ATOM     35  O   UNL A   1      36.778  32.084  29.913  1.00  0.00    -0.269 OA
BRANCH  33  36
ATOM     36  C   UNL A   1      36.967  29.892  29.091  1.00  0.00     0.039 A 
ATOM     37  C   UNL A   1      37.175  29.029  30.171  1.00  0.00     0.014 A 
ATOM     38  C   UNL A   1      37.678  29.724  27.911  1.00  0.00     0.014 A 
ATOM     39  C   UNL A   1      38.298  28.207  30.170  1.00  0.00     0.010 A 
ATOM     40  C   UNL A   1      38.867  29.031  27.966  1.00  0.00     0.010 A 
ATOM     41  C   UNL A   1      39.209  28.325  29.124  1.00  0.00    -0.014 A 
BRANCH  41  42
ATOM     42  C   UNL A   1      40.582  27.841  29.198  1.00  0.00     0.031 A 
ATOM     43  C   UNL A   1      40.929  26.512  28.659  1.00  0.00     0.074 A 
ATOM     44  C   UNL A   1      41.554  28.660  29.663  1.00  0.00     0.049 A 
ATOM     45  N   UNL A   1      41.970  25.836  29.006  1.00  0.00    -0.248 NA
ATOM     46  C   UNL A   1      40.091  25.812  27.692  1.00  0.00     0.031 C 
ATOM     47  C   UNL A   1      42.998  28.477  29.540  1.00  0.00     0.029 A 
ATOM     48  N   UNL A   1      41.415  29.752  30.533  1.00  0.00    -0.354 N 
ATOM     49  C   UNL A   1      42.096  24.776  28.136  1.00  0.00     0.074 A 
ATOM     50  C   UNL A   1      40.869  24.775  27.374  1.00  0.00     0.031 C 
ATOM     51  C   UNL A   1      43.608  29.197  30.495  1.00  0.00     0.029 A 
ATOM     52  C   UNL A   1      42.570  29.750  31.346  1.00  0.00     0.049 A 
ATOM     53  H   UNL A   1      40.665  30.389  30.570  1.00  0.00     0.167 HD
ATOM     54  C   UNL A   1      43.283  24.105  28.072  1.00  0.00     0.037 A 
ATOM     55  C   UNL A   1      42.494  29.570  32.696  1.00  0.00     0.037 A 
ATOM     56  C   UNL A   1      44.222  24.609  29.074  1.00  0.00     0.049 A 
ATOM     57  C   UNL A   1      43.249  28.361  33.194  1.00  0.00     0.074 A 
ATOM     58  C   UNL A   1      45.271  25.512  29.004  1.00  0.00     0.029 A 
ATOM     59  N   UNL A   1      43.950  24.427  30.426  1.00  0.00    -0.354 N 
ATOM     60  N   UNL A   1      43.608  27.364  32.432  1.00  0.00    -0.248 NA
ATOM     61  C   UNL A   1      43.642  28.167  34.587  1.00  0.00     0.031 C 
ATOM     62  C   UNL A   1      45.600  25.910  30.321  1.00  0.00     0.029 A 
ATOM     63  C   UNL A   1      44.763  25.237  31.195  1.00  0.00     0.049 A 
ATOM     64  H   UNL A   1      43.273  23.809  30.784  1.00  0.00     0.167 HD
ATOM     65  C   UNL A   1      44.232  26.408  33.192  1.00  0.00     0.074 A 
ATOM     66  C   UNL A   1      44.248  26.969  34.530  1.00  0.00     0.031 C 
ATOM     67  C   UNL A   1      44.670  25.233  32.649  1.00  0.00     0.037 A 
BRANCH  54  68
ATOM     68  C   UNL A   1      43.690  23.220  26.912  1.00  0.00     0.057 A 
ATOM     69  C   UNL A   1      43.093  21.957  26.722  1.00  0.00     0.134 A 
ATOM     70  C   UNL A   1      44.702  23.518  25.984  1.00  0.00     0.134 A 
ATOM     71  F   UNL A   1      42.030  21.562  27.435  1.00  0.00    -0.206 F 
ATOM     72  C   UNL A   1      43.555  21.023  25.784  1.00  0.00     0.040 A 
ATOM     73  C   UNL A   1      45.213  22.576  25.078  1.00  0.00     0.040 A 
ATOM     74  F   UNL A   1      45.201  24.755  25.864  1.00  0.00    -0.206 F 
ATOM     75  C   UNL A   1      44.650  21.314  24.987  1.00  0.00     0.006 A 
ENDBRANCH  54  68
BRANCH  55  76
ATOM     76  C   UNL A   1      41.242  30.104  33.288  1.00  0.00     0.057 A 
ATOM     77  C   UNL A   1      41.142  31.490  33.504  1.00  0.00     0.134 A 
ATOM     78  C   UNL A   1      40.049  29.376  33.266  1.00  0.00     0.134 A 
ATOM     79  F   UNL A   1      42.250  32.247  33.538  1.00  0.00    -0.206 F 
ATOM     80  C   UNL A   1      39.908  32.141  33.574  1.00  0.00     0.040 A 
ATOM     81  C   UNL A   1      38.806  30.018  33.345  1.00  0.00     0.040 A 
ATOM     82  F   UNL A   1      40.060  28.054  33.040  1.00  0.00    -0.206 F 
ATOM     83  C   UNL A   1      38.733  31.405  33.457  1.00  0.00     0.006 A 
ENDBRANCH  55  76
BRANCH  67  84
ATOM     84  C   UNL A   1      45.139  24.010  33.405  1.00  0.00     0.057 A 
ATOM     85  C   UNL A   1      46.423  23.856  33.947  1.00  0.00     0.134 A 
ATOM     86  C   UNL A   1      44.227  22.983  33.744  1.00  0.00     0.134 A 
ATOM     87  F   UNL A   1      47.363  24.800  33.811  1.00  0.00    -0.206 F 
ATOM     88  C   UNL A   1      46.789  22.741  34.715  1.00  0.00     0.040 A 
ATOM     89  C   UNL A   1      44.565  21.896  34.555  1.00  0.00     0.040 A 
ATOM     90  F   UNL A   1      42.953  23.001  33.324  1.00  0.00    -0.206 F 
ATOM     91  C   UNL A   1      45.857  21.763  35.033  1.00  0.00     0.006 A 
ENDBRANCH  67  84
ENDBRANCH  41  42
ENDBRANCH  33  36
ENDBRANCH  31  32
ENDBRANCH  30  31
ENDBRANCH   1  30
TORSDOF 15
ENDMDL
MODEL 2
REMARK VINA RESULT:     -13.2      4.037      9.880
REMARK SMILES Cc1cccc(-c2cc(C[C@]3(C(=O)NCCCNC(=O)c4ccc(-c5c6nc(c(-c7c(F)cccc7F)c7ccc([nH]7)c(-c7c(F)cccc7F)c7nc(c(-c8c(F)cccc8F)c8ccc5[nH]8)C=C7)C=C6)cc4)CCCN(C(=O)C(C)C)C3)on2)c1
REMARK SMILES IDX 15 1 14 2 12 3 13 4 11 6 75 7 84 8 76 9 78 10 77 11 10 12
REMARK SMILES IDX 9 13 7 14 8 15 86 16 85 17 6 18 1 19 2 20 3 21 87 22 4 23
REMARK SMILES IDX 5 24 79 25 80 26 81 27 82 28 83 29 16 30 17 31 18 32 19 33
REMARK SMILES IDX 20 35 21 36 22 37 74 38 23 39 73 40 24 41 25 42 26 43 67 44
REMARK SMILES IDX 27 45 72 46 66 47 68 48 28 49 71 50 65 51 64 52 29 54 55 55
REMARK SMILES IDX 38 56 54 57 39 58 42 59 53 60 69 61 40 62 41 63 52 65 70 66
REMARK SMILES IDX 43 67 30 68 31 69 36 70 32 71 33 72 35 73 37 74 34 75 56 76
REMARK SMILES IDX 57 77 62 78 58 79 59 80 61 81 63 82 60 83 44 84 45 85 50 86
REMARK SMILES IDX 46 87 47 88 49 89 51 90 48 91
REMARK H PARENT 14 5 18 34 68 53 42 64
REMARK Flexibility Score: inf
ROOT
ATOM      1  C   UNL A   1      37.239  21.756  25.622  1.00  0.00     0.117 C 
ENDROOT
BRANCH   1   2
ATOM      2  N   UNL A   1      36.710  22.389  24.414  1.00  0.00    -0.355 N 
ATOM      3  C   UNL A   1      35.458  22.534  23.882  1.00  0.00     0.228 C 
ATOM      4  O   UNL A   1      35.400  23.240  22.869  1.00  0.00    -0.274 OA
ATOM      5  H   UNL A   1      37.411  22.803  23.861  1.00  0.00     0.163 HD
BRANCH   3   6
ATOM      6  C   UNL A   1      34.189  21.825  24.433  1.00  0.00     0.074 C 
ATOM      7  C   UNL A   1      32.991  22.297  23.556  1.00  0.00     0.021 C 
ATOM      8  C   UNL A   1      34.448  20.298  24.493  1.00  0.00     0.136 C 
ATOM      9  C   UNL A   1      31.926  21.255  23.239  1.00  0.00     0.023 C 
ATOM     10  N   UNL A   1      33.277  19.479  24.163  1.00  0.00    -0.341 N 
ATOM     11  C   UNL A   1      32.542  19.897  22.984  1.00  0.00     0.119 C 
BRANCH   6  12
ATOM     12  C   UNL A   1      33.974  22.343  25.904  1.00  0.00     0.097 C 
BRANCH  12  13
ATOM     13  C   UNL A   1      33.362  23.700  26.030  1.00  0.00     0.138 A 
ATOM     14  C   UNL A   1      32.723  25.820  26.127  1.00  0.00     0.114 A 
ATOM     15  C   UNL A   1      33.818  24.978  25.804  1.00  0.00     0.077 A 
ATOM     16  N   UNL A   1      31.665  25.087  26.507  1.00  0.00    -0.080 NA
ATOM     17  O   UNL A   1      32.061  23.763  26.420  1.00  0.00    -0.361 OA
BRANCH  14  18
ATOM     18  C   UNL A   1      32.693  27.276  26.115  1.00  0.00     0.004 A 
ATOM     19  C   UNL A   1      30.662  30.132  24.613  1.00  0.00     0.044 C 
ATOM     20  C   UNL A   1      31.716  29.373  25.362  1.00  0.00    -0.050 A 
ATOM     21  C   UNL A   1      32.715  30.078  26.047  1.00  0.00     0.003 A 
ATOM     22  C   UNL A   1      31.719  27.968  25.387  1.00  0.00     0.014 A 
ATOM     23  C   UNL A   1      33.683  29.396  26.774  1.00  0.00     0.001 A 
ATOM     24  C   UNL A   1      33.659  28.003  26.817  1.00  0.00     0.010 A 
ENDBRANCH  14  18
ENDBRANCH  12  13
ENDBRANCH   6  12
BRANCH  10  25
ATOM     25  C   UNL A   1      32.977  18.398  24.974  1.00  0.00     0.225 C 
ATOM     26  O   UNL A   1      32.184  18.521  25.917  1.00  0.00    -0.275 OA
BRANCH  25  27
ATOM     27  C   UNL A   1      33.637  17.030  24.768  1.00  0.00     0.072 C 
ATOM     28  C   UNL A   1      32.917  15.827  25.372  1.00  0.00     0.018 C 
ATOM     29  C   UNL A   1      34.028  16.808  23.314  1.00  0.00     0.018 C 
ENDBRANCH  25  27
ENDBRANCH  10  25
ENDBRANCH   3   6
ENDBRANCH   1   2
BRANCH   1  30
ATOM     30  C   UNL A   1      38.758  21.797  25.725  1.00  0.00     0.042 C 
BRANCH  30  31
ATOM     31  C   UNL A   1      39.266  22.795  26.749  1.00  0.00     0.118 C 
BRANCH  31  32
ATOM     32  N   UNL A   1      40.687  23.114  26.640  1.00  0.00    -0.352 N 
ATOM     33  C   UNL A   1      41.303  24.361  26.627  1.00  0.00     0.251 C 
ATOM     34  H   UNL A   1      41.291  22.341  26.565  1.00  0.00     0.163 HD
ATOM     35  O   UNL A   1      42.513  24.450  26.547  1.00  0.00    -0.269 OA
BRANCH  33  36
ATOM     36  C   UNL A   1      40.473  25.569  26.864  1.00  0.00     0.039 A 
ATOM     37  C   UNL A   1      40.778  26.721  26.132  1.00  0.00     0.014 A 
ATOM     38  C   UNL A   1      39.643  25.643  27.974  1.00  0.00     0.014 A 
ATOM     39  C   UNL A   1      40.503  27.966  26.688  1.00  0.00     0.010 A 
ATOM     40  C   UNL A   1      39.505  26.863  28.598  1.00  0.00     0.010 A 
ATOM     41  C   UNL A   1      39.996  28.020  27.985  1.00  0.00    -0.014 A 
BRANCH  41  42
ATOM     42  C   UNL A   1      40.045  29.216  28.816  1.00  0.00     0.031 A 
ATOM     43  C   UNL A   1      38.952  30.206  28.754  1.00  0.00     0.074 A 
ATOM     44  C   UNL A   1      41.040  29.359  29.722  1.00  0.00     0.049 A 
ATOM     45  N   UNL A   1      39.064  31.437  29.119  1.00  0.00    -0.248 NA
ATOM     46  C   UNL A   1      37.630  29.885  28.230  1.00  0.00     0.031 C 
ATOM     47  C   UNL A   1      41.099  30.312  30.827  1.00  0.00     0.029 A 
ATOM     48  N   UNL A   1      42.317  28.778  29.695  1.00  0.00    -0.354 N 
ATOM     49  C   UNL A   1      37.803  31.986  29.150  1.00  0.00     0.074 A 
ATOM     50  C   UNL A   1      36.952  30.995  28.532  1.00  0.00     0.031 C 
ATOM     51  C   UNL A   1      42.382  30.478  31.188  1.00  0.00     0.029 A 
ATOM     52  C   UNL A   1      43.194  29.746  30.233  1.00  0.00     0.049 A 
ATOM     53  H   UNL A   1      42.553  27.881  29.368  1.00  0.00     0.167 HD
ATOM     54  C   UNL A   1      37.604  33.160  29.816  1.00  0.00     0.037 A 
ATOM     55  C   UNL A   1      44.200  30.290  29.490  1.00  0.00     0.037 A 
ATOM     56  C   UNL A   1      38.869  33.695  30.320  1.00  0.00     0.049 A 
ATOM     57  C   UNL A   1      44.103  31.789  29.335  1.00  0.00     0.074 A 
ATOM     58  C   UNL A   1      39.480  33.641  31.562  1.00  0.00     0.029 A 
ATOM     59  N   UNL A   1      39.840  34.125  29.422  1.00  0.00    -0.354 N 
ATOM     60  N   UNL A   1      43.005  32.469  29.525  1.00  0.00    -0.248 NA
ATOM     61  C   UNL A   1      45.221  32.638  28.933  1.00  0.00     0.031 C 
ATOM     62  C   UNL A   1      40.840  33.997  31.401  1.00  0.00     0.029 A 
ATOM     63  C   UNL A   1      41.054  34.283  30.064  1.00  0.00     0.049 A 
ATOM     64  H   UNL A   1      39.685  34.292  28.465  1.00  0.00     0.167 HD
ATOM     65  C   UNL A   1      43.234  33.794  29.259  1.00  0.00     0.074 A 
ATOM     66  C   UNL A   1      44.642  33.852  28.914  1.00  0.00     0.031 C 
ATOM     67  C   UNL A   1      42.237  34.725  29.337  1.00  0.00     0.037 A 
BRANCH  54  68
ATOM     68  C   UNL A   1      36.245  33.652  30.272  1.00  0.00     0.057 A 
ATOM     69  C   UNL A   1      35.317  34.172  29.347  1.00  0.00     0.134 A 
ATOM     70  C   UNL A   1      35.809  33.702  31.607  1.00  0.00     0.134 A 
ATOM     71  F   UNL A   1      35.514  34.091  28.025  1.00  0.00    -0.206 F 
ATOM     72  C   UNL A   1      34.128  34.808  29.730  1.00  0.00     0.040 A 
ATOM     73  C   UNL A   1      34.651  34.383  32.011  1.00  0.00     0.040 A 
ATOM     74  F   UNL A   1      36.448  33.038  32.579  1.00  0.00    -0.206 F 
ATOM     75  C   UNL A   1      33.811  34.956  31.070  1.00  0.00     0.006 A 
ENDBRANCH  54  68
BRANCH  55  76
ATOM     76  C   UNL A   1      44.752  29.356  28.476  1.00  0.00     0.057 A 
ATOM     77  C   UNL A   1      45.673  28.380  28.897  1.00  0.00     0.134 A 
ATOM     78  C   UNL A   1      44.118  29.146  27.249  1.00  0.00     0.134 A 
ATOM     79  F   UNL A   1      46.317  28.522  30.066  1.00  0.00    -0.206 F 
ATOM     80  C   UNL A   1      45.865  27.191  28.188  1.00  0.00     0.040 A 
ATOM     81  C   UNL A   1      44.311  27.962  26.526  1.00  0.00     0.040 A 
ATOM     82  F   UNL A   1      43.208  30.020  26.792  1.00  0.00    -0.206 F 
ATOM     83  C   UNL A   1      45.153  26.964  27.016  1.00  0.00     0.006 A 
ENDBRANCH  55  76
BRANCH  67  84
ATOM     84  C   UNL A   1      42.293  36.151  28.836  1.00  0.00     0.057 A 
ATOM     85  C   UNL A   1      42.964  37.196  29.487  1.00  0.00     0.134 A 
ATOM     86  C   UNL A   1      41.777  36.483  27.560  1.00  0.00     0.134 A 
ATOM     87  F   UNL A   1      43.604  37.005  30.648  1.00  0.00    -0.206 F 
ATOM     88  C   UNL A   1      43.062  38.485  28.943  1.00  0.00     0.040 A 
ATOM     89  C   UNL A   1      41.919  37.749  26.984  1.00  0.00     0.040 A 
ATOM     90  F   UNL A   1      41.132  35.585  26.801  1.00  0.00    -0.206 F 
ATOM     91  C   UNL A   1      42.551  38.763  27.683  1.00  0.00     0.006 A 
ENDBRANCH  67  84
ENDBRANCH  41  42
ENDBRANCH  33  36
ENDBRANCH  31  32
ENDBRANCH  30  31
ENDBRANCH   1  30
TORSDOF 15
ENDMDL
MODEL 3
REMARK VINA RESULT:     -13.2      1.414      4.908
REMARK SMILES Cc1cccc(-c2cc(C[C@]3(C(=O)NCCCNC(=O)c4ccc(-c5c6nc(c(-c7c(F)cccc7F)c7ccc([nH]7)c(-c7c(F)cccc7F)c7nc(c(-c8c(F)cccc8F)c8ccc5[nH]8)C=C7)C=C6)cc4)CCCN(C(=O)C(C)C)C3)on2)c1
REMARK SMILES IDX 15 1 14 2 12 3 13 4 11 6 75 7 84 8 76 9 78 10 77 11 10 12
REMARK SMILES IDX 9 13 7 14 8 15 86 16 85 17 6 18 1 19 2 20 3 21 87 22 4 23
REMARK SMILES IDX 5 24 79 25 80 26 81 27 82 28 83 29 16 30 17 31 18 32 19 33
REMARK SMILES IDX 20 35 21 36 22 37 74 38 23 39 73 40 24 41 25 42 26 43 67 44
REMARK SMILES IDX 27 45 72 46 66 47 68 48 28 49 71 50 65 51 64 52 29 54 55 55
REMARK SMILES IDX 38 56 54 57 39 58 42 59 53 60 69 61 40 62 41 63 52 65 70 66
REMARK SMILES IDX 43 67 30 68 31 69 36 70 32 71 33 72 35 73 37 74 34 75 56 76
REMARK SMILES IDX 57 77 62 78 58 79 59 80 61 81 63 82 60 83 44 84 45 85 50 86
REMARK SMILES IDX 46 87 47 88 49 89 51 90 48 91
REMARK H PARENT 14 5 18 34 68 53 42 64
REMARK Flexibility Score: inf
ROOT
ATOM      1  C   UNL A   1      34.383  28.941  26.311  1.00  0.00     0.117 C 
ENDROOT
BRANCH   1   2
ATOM      2  N   UNL A   1      34.426  28.862  24.852  1.00  0.00    -0.355 N 
ATOM      3  C   UNL A   1      33.960  27.965  23.930  1.00  0.00     0.228 C 
ATOM      4  O   UNL A   1      34.105  28.305  22.751  1.00  0.00    -0.274 OA
ATOM      5  H   UNL A   1      34.894  29.624  24.441  1.00  0.00     0.163 HD
BRANCH   3   6
ATOM      6  C   UNL A   1      33.353  26.579  24.290  1.00  0.00     0.074 C 
ATOM      7  C   UNL A   1      33.046  25.857  22.945  1.00  0.00     0.021 C 
ATOM      8  C   UNL A   1      34.305  25.849  25.272  1.00  0.00     0.136 C 
ATOM      9  C   UNL A   1      33.295  24.354  22.907  1.00  0.00     0.023 C 
ATOM     10  N   UNL A   1      34.383  24.399  25.063  1.00  0.00    -0.341 N 
ATOM     11  C   UNL A   1      34.540  23.982  23.682  1.00  0.00     0.119 C 
BRANCH   6  12
ATOM     12  C   UNL A   1      31.995  26.853  25.038  1.00  0.00     0.097 C 
BRANCH  12  13
ATOM     13  C   UNL A   1      31.018  27.718  24.313  1.00  0.00     0.138 A 
ATOM     14  C   UNL A   1      29.746  29.235  23.315  1.00  0.00     0.114 A 
ATOM     15  C   UNL A   1      30.942  29.068  24.059  1.00  0.00     0.077 A 
ATOM     16  N   UNL A   1      29.150  28.050  23.116  1.00  0.00    -0.080 NA
ATOM     17  O   UNL A   1      29.960  27.103  23.719  1.00  0.00    -0.361 OA
BRANCH  14  18
ATOM     18  C   UNL A   1      29.167  30.483  22.840  1.00  0.00     0.004 A 
ATOM     19  C   UNL A   1      27.716  31.992  19.652  1.00  0.00     0.044 C 
ATOM     20  C   UNL A   1      28.207  31.837  21.061  1.00  0.00    -0.050 A 
ATOM     21  C   UNL A   1      28.131  32.928  21.938  1.00  0.00     0.003 A 
ATOM     22  C   UNL A   1      28.741  30.620  21.514  1.00  0.00     0.014 A 
ATOM     23  C   UNL A   1      28.549  32.797  23.257  1.00  0.00     0.001 A 
ATOM     24  C   UNL A   1      29.050  31.576  23.705  1.00  0.00     0.010 A 
ENDBRANCH  14  18
ENDBRANCH  12  13
ENDBRANCH   6  12
BRANCH  10  25
ATOM     25  C   UNL A   1      34.311  23.569  26.167  1.00  0.00     0.225 C 
ATOM     26  O   UNL A   1      35.332  23.036  26.620  1.00  0.00    -0.275 OA
BRANCH  25  27
ATOM     27  C   UNL A   1      32.974  23.245  26.844  1.00  0.00     0.072 C 
ATOM     28  C   UNL A   1      31.835  22.801  25.930  1.00  0.00     0.018 C 
ATOM     29  C   UNL A   1      33.158  22.321  28.039  1.00  0.00     0.018 C 
ENDBRANCH  25  27
ENDBRANCH  10  25
ENDBRANCH   3   6
ENDBRANCH   1   2
BRANCH   1  30
ATOM     30  C   UNL A   1      34.010  30.318  26.845  1.00  0.00     0.042 C 
BRANCH  30  31
ATOM     31  C   UNL A   1      34.289  30.486  28.327  1.00  0.00     0.118 C 
BRANCH  31  32
ATOM     32  N   UNL A   1      35.318  31.471  28.648  1.00  0.00    -0.352 N 
ATOM     33  C   UNL A   1      36.675  31.273  28.880  1.00  0.00     0.251 C 
ATOM     34  H   UNL A   1      35.008  32.403  28.710  1.00  0.00     0.163 HD
ATOM     35  O   UNL A   1      37.404  32.216  29.120  1.00  0.00    -0.269 OA
BRANCH  33  36
ATOM     36  C   UNL A   1      37.241  29.915  28.678  1.00  0.00     0.039 A 
ATOM     37  C   UNL A   1      37.397  29.103  29.806  1.00  0.00     0.014 A 
ATOM     38  C   UNL A   1      37.871  29.586  27.486  1.00  0.00     0.014 A 
ATOM     39  C   UNL A   1      38.411  28.151  29.818  1.00  0.00     0.010 A 
ATOM     40  C   UNL A   1      38.969  28.758  27.541  1.00  0.00     0.010 A 
ATOM     41  C   UNL A   1      39.280  28.090  28.730  1.00  0.00    -0.014 A 
BRANCH  41  42
ATOM     42  C   UNL A   1      40.587  27.447  28.783  1.00  0.00     0.031 A 
ATOM     43  C   UNL A   1      40.717  26.008  28.480  1.00  0.00     0.074 A 
ATOM     44  C   UNL A   1      41.691  28.198  29.002  1.00  0.00     0.049 A 
ATOM     45  N   UNL A   1      41.703  25.272  28.864  1.00  0.00    -0.248 NA
ATOM     46  C   UNL A   1      39.707  25.267  27.736  1.00  0.00     0.031 C 
ATOM     47  C   UNL A   1      43.083  27.804  28.799  1.00  0.00     0.029 A 
ATOM     48  N   UNL A   1      41.773  29.436  29.657  1.00  0.00    -0.354 N 
ATOM     49  C   UNL A   1      41.612  24.067  28.204  1.00  0.00     0.074 A 
ATOM     50  C   UNL A   1      40.321  24.095  27.558  1.00  0.00     0.031 C 
ATOM     51  C   UNL A   1      43.870  28.594  29.546  1.00  0.00     0.029 A 
ATOM     52  C   UNL A   1      42.998  29.424  30.358  1.00  0.00     0.049 A 
ATOM     53  H   UNL A   1      41.111  30.164  29.633  1.00  0.00     0.167 HD
ATOM     54  C   UNL A   1      42.699  23.242  28.172  1.00  0.00     0.037 A 
ATOM     55  C   UNL A   1      43.044  29.499  31.720  1.00  0.00     0.037 A 
ATOM     56  C   UNL A   1      43.791  23.786  28.980  1.00  0.00     0.049 A 
ATOM     57  C   UNL A   1      43.701  28.309  32.375  1.00  0.00     0.074 A 
ATOM     58  C   UNL A   1      44.925  24.513  28.653  1.00  0.00     0.029 A 
ATOM     59  N   UNL A   1      43.643  23.886  30.359  1.00  0.00    -0.354 N 
ATOM     60  N   UNL A   1      43.859  27.153  31.791  1.00  0.00    -0.248 NA
ATOM     61  C   UNL A   1      44.213  28.316  33.743  1.00  0.00     0.031 C 
ATOM     62  C   UNL A   1      45.435  25.091  29.840  1.00  0.00     0.029 A 
ATOM     63  C   UNL A   1      44.622  24.704  30.891  1.00  0.00     0.049 A 
ATOM     64  H   UNL A   1      42.940  23.438  30.882  1.00  0.00     0.167 HD
ATOM     65  C   UNL A   1      44.443  26.273  32.665  1.00  0.00     0.074 A 
ATOM     66  C   UNL A   1      44.665  27.056  33.866  1.00  0.00     0.031 C 
ATOM     67  C   UNL A   1      44.681  24.972  32.321  1.00  0.00     0.037 A 
BRANCH  54  68
ATOM     68  C   UNL A   1      42.875  22.117  27.172  1.00  0.00     0.057 A 
ATOM     69  C   UNL A   1      42.101  20.943  27.261  1.00  0.00     0.134 A 
ATOM     70  C   UNL A   1      43.829  22.096  26.140  1.00  0.00     0.134 A 
ATOM     71  F   UNL A   1      41.065  20.840  28.104  1.00  0.00    -0.206 F 
ATOM     72  C   UNL A   1      42.346  19.802  26.484  1.00  0.00     0.040 A 
ATOM     73  C   UNL A   1      44.124  20.945  25.393  1.00  0.00     0.040 A 
ATOM     74  F   UNL A   1      44.475  23.205  25.759  1.00  0.00    -0.206 F 
ATOM     75  C   UNL A   1      43.391  19.784  25.575  1.00  0.00     0.006 A 
ENDBRANCH  54  68
BRANCH  55  76
ATOM     76  C   UNL A   1      41.932  30.294  32.300  1.00  0.00     0.057 A 
ATOM     77  C   UNL A   1      42.033  31.697  32.283  1.00  0.00     0.134 A 
ATOM     78  C   UNL A   1      40.659  29.749  32.487  1.00  0.00     0.134 A 
ATOM     79  F   UNL A   1      43.227  32.284  32.109  1.00  0.00    -0.206 F 
ATOM     80  C   UNL A   1      40.904  32.520  32.329  1.00  0.00     0.040 A 
ATOM     81  C   UNL A   1      39.522  30.566  32.543  1.00  0.00     0.040 A 
ATOM     82  F   UNL A   1      40.479  28.421  32.489  1.00  0.00    -0.206 F 
ATOM     83  C   UNL A   1      39.639  31.950  32.422  1.00  0.00     0.006 A 
ENDBRANCH  55  76
BRANCH  67  84
ATOM     84  C   UNL A   1      45.082  23.851  33.256  1.00  0.00     0.057 A 
ATOM     85  C   UNL A   1      46.359  23.702  33.816  1.00  0.00     0.134 A 
ATOM     86  C   UNL A   1      44.111  22.947  33.747  1.00  0.00     0.134 A 
ATOM     87  F   UNL A   1      47.353  24.555  33.537  1.00  0.00    -0.206 F 
ATOM     88  C   UNL A   1      46.662  22.697  34.745  1.00  0.00     0.040 A 
ATOM     89  C   UNL A   1      44.389  21.978  34.715  1.00  0.00     0.040 A 
ATOM     90  F   UNL A   1      42.836  22.980  33.329  1.00  0.00    -0.206 F 
ATOM     91  C   UNL A   1      45.675  21.838  35.208  1.00  0.00     0.006 A 
ENDBRANCH  67  84
ENDBRANCH  41  42
ENDBRANCH  33  36
ENDBRANCH  31  32
ENDBRANCH  30  31
ENDBRANCH   1  30
TORSDOF 15
ENDMDL
