MODEL 1
REMARK VINA RESULT:     -11.5      0.000      0.000
REMARK SMILES CC[C@@H](C)[C@H](NC(=O)CCc1ccc(F)c(F)c1)C(=O)NCCCNC(=O)c1ccc(-c2c3nc(c(-c4c(F)cccc4F)c4ccc([nH]4)c(-c4c(F)cccc4F)c4nc(c(-c5c(F)cccc5F)c5ccc2[nH]5)C=C4)C=C3)cc1
REMARK SMILES IDX 22 1 21 2 19 3 20 4 5 6 3 7 4 8 2 9 1 10 6 11 7 12 8 14 9 15
REMARK SMILES IDX 10 16 11 17 12 18 18 19 13 20 16 21 14 22 17 23 15 24 23 25
REMARK SMILES IDX 24 26 25 27 26 28 27 30 28 31 29 32 81 33 30 34 80 35 31 36
REMARK SMILES IDX 32 37 33 38 74 39 34 40 79 41 73 42 75 43 35 44 78 45 72 46
REMARK SMILES IDX 71 47 36 49 62 50 45 51 61 52 46 53 49 54 60 55 76 56 47 57
REMARK SMILES IDX 48 58 59 60 77 61 50 62 37 63 38 64 43 65 39 66 40 67 42 68
REMARK SMILES IDX 44 69 41 70 63 71 64 72 69 73 65 74 66 75 68 76 70 77 67 78
REMARK SMILES IDX 51 79 52 80 57 81 53 82 54 83 56 84 58 85 55 86
REMARK H PARENT 21 5 6 13 25 29 75 48 49 59
REMARK Flexibility Score: inf
ROOT
ATOM      1  C   UNL A   1      37.194  21.025  24.611  1.00  0.00     0.117 C 
ENDROOT
BRANCH   1   2
ATOM      2  N   UNL A   1      37.414  22.171  25.459  1.00  0.00    -0.354 N 
ATOM      3  C   UNL A   1      36.596  23.194  25.785  1.00  0.00     0.242 C 
ATOM      4  O   UNL A   1      37.083  24.083  26.491  1.00  0.00    -0.273 OA
ATOM      5  H   UNL A   1      38.308  22.214  25.867  1.00  0.00     0.163 HD
BRANCH   3   6
ATOM      6  C   UNL A   1      35.106  23.212  25.392  1.00  0.00     0.174 C 
BRANCH   6   7
ATOM      7  C   UNL A   1      34.827  24.094  24.120  1.00  0.00     0.018 C 
ATOM      8  C   UNL A   1      33.998  25.344  24.464  1.00  0.00     0.010 C 
BRANCH   7   9
ATOM      9  C   UNL A   1      34.355  23.339  22.848  1.00  0.00     0.002 C 
ATOM     10  C   UNL A   1      32.868  23.410  22.530  1.00  0.00     0.004 C 
ENDBRANCH   7   9
ENDBRANCH   6   7
BRANCH   6  11
ATOM     11  N   UNL A   1      34.166  23.403  26.506  1.00  0.00    -0.344 N 
ATOM     12  C   UNL A   1      33.097  22.632  26.871  1.00  0.00     0.220 C 
ATOM     13  H   UNL A   1      34.328  24.196  27.066  1.00  0.00     0.164 HD
ATOM     14  O   UNL A   1      32.221  23.155  27.564  1.00  0.00    -0.275 OA
BRANCH  12  15
ATOM     15  C   UNL A   1      33.004  21.166  26.491  1.00  0.00     0.105 C 
BRANCH  15  16
ATOM     16  C   UNL A   1      32.322  20.906  25.145  1.00  0.00     0.045 C 
BRANCH  16  17
ATOM     17  C   UNL A   1      32.914  19.742  24.392  1.00  0.00    -0.044 A 
ATOM     18  C   UNL A   1      32.207  19.127  23.346  1.00  0.00     0.007 A 
ATOM     19  C   UNL A   1      34.125  19.177  24.824  1.00  0.00     0.046 A 
ATOM     20  C   UNL A   1      32.669  17.931  22.787  1.00  0.00     0.043 A 
ATOM     21  C   UNL A   1      34.572  17.982  24.269  1.00  0.00     0.159 A 
ATOM     22  C   UNL A   1      33.842  17.356  23.267  1.00  0.00     0.158 A 
ATOM     23  F   UNL A   1      35.674  17.402  24.764  1.00  0.00    -0.204 F 
ATOM     24  F   UNL A   1      34.236  16.168  22.789  1.00  0.00    -0.204 F 
ENDBRANCH  16  17
ENDBRANCH  15  16
ENDBRANCH  12  15
ENDBRANCH   6  11
ENDBRANCH   3   6
ENDBRANCH   1   2
BRANCH   1  25
ATOM     25  C   UNL A   1      38.089  19.859  24.991  1.00  0.00     0.042 C 
BRANCH  25  26
ATOM     26  C   UNL A   1      39.330  20.302  25.752  1.00  0.00     0.118 C 
BRANCH  26  27
ATOM     27  N   UNL A   1      40.261  19.195  25.971  1.00  0.00    -0.352 N 
ATOM     28  C   UNL A   1      41.617  19.221  26.150  1.00  0.00     0.251 C 
ATOM     29  H   UNL A   1      39.851  18.301  25.994  1.00  0.00     0.163 HD
ATOM     30  O   UNL A   1      42.287  18.202  26.020  1.00  0.00    -0.269 OA
BRANCH  28  31
ATOM     31  C   UNL A   1      42.253  20.500  26.488  1.00  0.00     0.039 A 
ATOM     32  C   UNL A   1      42.746  21.320  25.473  1.00  0.00     0.014 A 
ATOM     33  C   UNL A   1      42.305  20.899  27.825  1.00  0.00     0.014 A 
ATOM     34  C   UNL A   1      43.231  22.584  25.799  1.00  0.00     0.010 A 
ATOM     35  C   UNL A   1      42.672  22.196  28.131  1.00  0.00     0.010 A 
ATOM     36  C   UNL A   1      43.159  23.043  27.124  1.00  0.00    -0.014 A 
BRANCH  36  37
ATOM     37  C   UNL A   1      43.620  24.394  27.510  1.00  0.00     0.031 A 
ATOM     38  C   UNL A   1      42.607  25.428  27.910  1.00  0.00     0.074 A 
ATOM     39  C   UNL A   1      44.923  24.714  27.399  1.00  0.00     0.049 A 
ATOM     40  N   UNL A   1      42.775  26.702  28.149  1.00  0.00    -0.248 NA
ATOM     41  C   UNL A   1      41.207  24.979  28.007  1.00  0.00     0.031 C 
ATOM     42  C   UNL A   1      45.985  23.807  26.956  1.00  0.00     0.029 A 
ATOM     43  N   UNL A   1      45.571  25.899  27.628  1.00  0.00    -0.354 N 
ATOM     44  C   UNL A   1      41.503  27.206  28.394  1.00  0.00     0.074 A 
ATOM     45  C   UNL A   1      40.568  26.120  28.203  1.00  0.00     0.031 C 
ATOM     46  C   UNL A   1      47.154  24.466  26.961  1.00  0.00     0.029 A 
ATOM     47  C   UNL A   1      46.918  25.847  27.364  1.00  0.00     0.049 A 
ATOM     48  H   UNL A   1      45.115  26.709  27.950  1.00  0.00     0.167 HD
ATOM     49  C   UNL A   1      41.150  28.455  28.774  1.00  0.00     0.037 A 
ATOM     50  C   UNL A   1      47.852  26.815  27.426  1.00  0.00     0.037 A 
ATOM     51  C   UNL A   1      42.094  29.516  28.993  1.00  0.00     0.049 A 
ATOM     52  C   UNL A   1      47.442  28.194  27.862  1.00  0.00     0.074 A 
ATOM     53  C   UNL A   1      41.858  30.799  29.453  1.00  0.00     0.029 A 
ATOM     54  N   UNL A   1      43.458  29.414  28.762  1.00  0.00    -0.354 N 
ATOM     55  N   UNL A   1      46.248  28.640  28.172  1.00  0.00    -0.248 NA
ATOM     56  C   UNL A   1      48.505  29.201  27.966  1.00  0.00     0.031 C 
ATOM     57  C   UNL A   1      43.074  31.489  29.452  1.00  0.00     0.029 A 
ATOM     58  C   UNL A   1      44.076  30.619  29.046  1.00  0.00     0.049 A 
ATOM     59  H   UNL A   1      43.919  28.604  28.445  1.00  0.00     0.167 HD
ATOM     60  C   UNL A   1      46.419  29.970  28.531  1.00  0.00     0.074 A 
ATOM     61  C   UNL A   1      47.834  30.255  28.410  1.00  0.00     0.031 C 
ATOM     62  C   UNL A   1      45.489  30.876  28.925  1.00  0.00     0.037 A 
BRANCH  49  63
ATOM     63  C   UNL A   1      39.687  28.726  28.975  1.00  0.00     0.057 A 
ATOM     64  C   UNL A   1      38.872  29.212  27.943  1.00  0.00     0.134 A 
ATOM     65  C   UNL A   1      39.083  28.502  30.220  1.00  0.00     0.134 A 
ATOM     66  F   UNL A   1      39.388  29.463  26.730  1.00  0.00    -0.206 F 
ATOM     67  C   UNL A   1      37.523  29.506  28.151  1.00  0.00     0.040 A 
ATOM     68  C   UNL A   1      37.728  28.760  30.430  1.00  0.00     0.040 A 
ATOM     69  F   UNL A   1      39.801  28.034  31.251  1.00  0.00    -0.206 F 
ATOM     70  C   UNL A   1      36.947  29.274  29.397  1.00  0.00     0.006 A 
ENDBRANCH  49  63
BRANCH  50  71
ATOM     71  C   UNL A   1      49.261  26.502  27.081  1.00  0.00     0.057 A 
ATOM     72  C   UNL A   1      50.142  25.985  28.037  1.00  0.00     0.134 A 
ATOM     73  C   UNL A   1      49.754  26.689  25.784  1.00  0.00     0.134 A 
ATOM     74  F   UNL A   1      49.732  25.795  29.300  1.00  0.00    -0.206 F 
ATOM     75  C   UNL A   1      51.468  25.680  27.721  1.00  0.00     0.040 A 
ATOM     76  C   UNL A   1      51.069  26.365  25.447  1.00  0.00     0.040 A 
ATOM     77  F   UNL A   1      48.957  27.169  24.818  1.00  0.00    -0.206 F 
ATOM     78  C   UNL A   1      51.932  25.864  26.420  1.00  0.00     0.006 A 
ENDBRANCH  50  71
BRANCH  62  79
ATOM     79  C   UNL A   1      45.974  32.248  29.289  1.00  0.00     0.057 A 
ATOM     80  C   UNL A   1      46.050  33.279  28.347  1.00  0.00     0.134 A 
ATOM     81  C   UNL A   1      46.300  32.555  30.616  1.00  0.00     0.134 A 
ATOM     82  F   UNL A   1      45.762  33.046  27.058  1.00  0.00    -0.206 F 
ATOM     83  C   UNL A   1      46.447  34.568  28.710  1.00  0.00     0.040 A 
ATOM     84  C   UNL A   1      46.670  33.845  30.996  1.00  0.00     0.040 A 
ATOM     85  F   UNL A   1      46.238  31.613  31.570  1.00  0.00    -0.206 F 
ATOM     86  C   UNL A   1      46.748  34.854  30.040  1.00  0.00     0.006 A 
ENDBRANCH  62  79
ENDBRANCH  36  37
ENDBRANCH  28  31
ENDBRANCH  26  27
ENDBRANCH  25  26
ENDBRANCH   1  25
TORSDOF 16
ENDMDL
MODEL 2
REMARK VINA RESULT:     -11.3      1.324      2.403
REMARK SMILES CC[C@@H](C)[C@H](NC(=O)CCc1ccc(F)c(F)c1)C(=O)NCCCNC(=O)c1ccc(-c2c3nc(c(-c4c(F)cccc4F)c4ccc([nH]4)c(-c4c(F)cccc4F)c4nc(c(-c5c(F)cccc5F)c5ccc2[nH]5)C=C4)C=C3)cc1
REMARK SMILES IDX 22 1 21 2 19 3 20 4 5 6 3 7 4 8 2 9 1 10 6 11 7 12 8 14 9 15
REMARK SMILES IDX 10 16 11 17 12 18 18 19 13 20 16 21 14 22 17 23 15 24 23 25
REMARK SMILES IDX 24 26 25 27 26 28 27 30 28 31 29 32 81 33 30 34 80 35 31 36
REMARK SMILES IDX 32 37 33 38 74 39 34 40 79 41 73 42 75 43 35 44 78 45 72 46
REMARK SMILES IDX 71 47 36 49 62 50 45 51 61 52 46 53 49 54 60 55 76 56 47 57
REMARK SMILES IDX 48 58 59 60 77 61 50 62 37 63 38 64 43 65 39 66 40 67 42 68
REMARK SMILES IDX 44 69 41 70 63 71 64 72 69 73 65 74 66 75 68 76 70 77 67 78
REMARK SMILES IDX 51 79 52 80 57 81 53 82 54 83 56 84 58 85 55 86
REMARK H PARENT 21 5 6 13 25 29 75 48 49 59
REMARK Flexibility Score: inf
ROOT
ATOM      1  C   UNL A   1      36.406  20.468  24.628  1.00  0.00     0.117 C 
ENDROOT
BRANCH   1   2
ATOM      2  N   UNL A   1      35.580  20.567  25.807  1.00  0.00    -0.354 N 
ATOM      3  C   UNL A   1      34.750  21.547  26.220  1.00  0.00     0.242 C 
ATOM      4  O   UNL A   1      34.213  21.386  27.321  1.00  0.00    -0.273 OA
ATOM      5  H   UNL A   1      35.632  19.791  26.410  1.00  0.00     0.163 HD
BRANCH   3   6
ATOM      6  C   UNL A   1      34.400  22.756  25.330  1.00  0.00     0.174 C 
BRANCH   6   7
ATOM      7  C   UNL A   1      35.266  24.024  25.667  1.00  0.00     0.018 C 
ATOM      8  C   UNL A   1      34.511  25.328  25.355  1.00  0.00     0.010 C 
BRANCH   7   9
ATOM      9  C   UNL A   1      36.740  24.002  25.179  1.00  0.00     0.002 C 
ATOM     10  C   UNL A   1      37.802  23.756  26.242  1.00  0.00     0.004 C 
ENDBRANCH   7   9
ENDBRANCH   6   7
BRANCH   6  11
ATOM     11  N   UNL A   1      32.963  23.007  25.150  1.00  0.00    -0.344 N 
ATOM     12  C   UNL A   1      32.224  22.993  23.999  1.00  0.00     0.220 C 
ATOM     13  H   UNL A   1      32.463  23.216  25.972  1.00  0.00     0.164 HD
ATOM     14  O   UNL A   1      31.152  23.601  23.997  1.00  0.00    -0.275 OA
BRANCH  12  15
ATOM     15  C   UNL A   1      32.669  22.212  22.776  1.00  0.00     0.105 C 
BRANCH  15  16
ATOM     16  C   UNL A   1      31.801  20.992  22.457  1.00  0.00     0.045 C 
BRANCH  16  17
ATOM     17  C   UNL A   1      32.332  19.712  23.050  1.00  0.00    -0.044 A 
ATOM     18  C   UNL A   1      32.613  18.603  22.235  1.00  0.00     0.007 A 
ATOM     19  C   UNL A   1      32.418  19.575  24.446  1.00  0.00     0.046 A 
ATOM     20  C   UNL A   1      32.912  17.362  22.808  1.00  0.00     0.043 A 
ATOM     21  C   UNL A   1      32.707  18.334  25.006  1.00  0.00     0.159 A 
ATOM     22  C   UNL A   1      32.939  17.232  24.192  1.00  0.00     0.158 A 
ATOM     23  F   UNL A   1      32.684  18.197  26.339  1.00  0.00    -0.204 F 
ATOM     24  F   UNL A   1      33.140  16.025  24.737  1.00  0.00    -0.204 F 
ENDBRANCH  16  17
ENDBRANCH  15  16
ENDBRANCH  12  15
ENDBRANCH   6  11
ENDBRANCH   3   6
ENDBRANCH   1   2
BRANCH   1  25
ATOM     25  C   UNL A   1      37.572  19.516  24.831  1.00  0.00     0.042 C 
BRANCH  25  26
ATOM     26  C   UNL A   1      38.646  20.097  25.740  1.00  0.00     0.118 C 
BRANCH  26  27
ATOM     27  N   UNL A   1      39.817  19.225  25.827  1.00  0.00    -0.352 N 
ATOM     28  C   UNL A   1      41.126  19.548  26.064  1.00  0.00     0.251 C 
ATOM     29  H   UNL A   1      39.638  18.267  25.698  1.00  0.00     0.163 HD
ATOM     30  O   UNL A   1      42.025  18.753  25.809  1.00  0.00    -0.269 OA
BRANCH  28  31
ATOM     31  C   UNL A   1      41.430  20.874  26.617  1.00  0.00     0.039 A 
ATOM     32  C   UNL A   1      41.600  21.031  27.992  1.00  0.00     0.014 A 
ATOM     33  C   UNL A   1      41.597  21.950  25.743  1.00  0.00     0.014 A 
ATOM     34  C   UNL A   1      42.011  22.266  28.486  1.00  0.00     0.010 A 
ATOM     35  C   UNL A   1      42.121  23.135  26.221  1.00  0.00     0.010 A 
ATOM     36  C   UNL A   1      42.313  23.312  27.600  1.00  0.00    -0.014 A 
BRANCH  36  37
ATOM     37  C   UNL A   1      42.795  24.627  28.076  1.00  0.00     0.031 A 
ATOM     38  C   UNL A   1      41.797  25.709  28.373  1.00  0.00     0.074 A 
ATOM     39  C   UNL A   1      44.117  24.873  28.137  1.00  0.00     0.049 A 
ATOM     40  N   UNL A   1      42.002  26.967  28.665  1.00  0.00    -0.248 NA
ATOM     41  C   UNL A   1      40.374  25.338  28.283  1.00  0.00     0.031 C 
ATOM     42  C   UNL A   1      45.175  23.916  27.805  1.00  0.00     0.029 A 
ATOM     43  N   UNL A   1      44.795  26.015  28.476  1.00  0.00    -0.354 N 
ATOM     44  C   UNL A   1      40.739  27.537  28.763  1.00  0.00     0.074 A 
ATOM     45  C   UNL A   1      39.778  26.510  28.428  1.00  0.00     0.031 C 
ATOM     46  C   UNL A   1      46.368  24.507  27.974  1.00  0.00     0.029 A 
ATOM     47  C   UNL A   1      46.159  25.892  28.381  1.00  0.00     0.049 A 
ATOM     48  H   UNL A   1      44.346  26.844  28.760  1.00  0.00     0.167 HD
ATOM     49  C   UNL A   1      40.409  28.796  29.129  1.00  0.00     0.037 A 
ATOM     50  C   UNL A   1      47.129  26.803  28.584  1.00  0.00     0.037 A 
ATOM     51  C   UNL A   1      41.374  29.798  29.491  1.00  0.00     0.049 A 
ATOM     52  C   UNL A   1      46.743  28.194  29.002  1.00  0.00     0.074 A 
ATOM     53  C   UNL A   1      41.152  31.083  29.952  1.00  0.00     0.029 A 
ATOM     54  N   UNL A   1      42.750  29.623  29.430  1.00  0.00    -0.354 N 
ATOM     55  N   UNL A   1      45.545  28.701  29.172  1.00  0.00    -0.248 NA
ATOM     56  C   UNL A   1      47.837  29.136  29.264  1.00  0.00     0.031 C 
ATOM     57  C   UNL A   1      42.395  31.702  30.121  1.00  0.00     0.029 A 
ATOM     58  C   UNL A   1      43.391  30.785  29.821  1.00  0.00     0.049 A 
ATOM     59  H   UNL A   1      43.202  28.793  29.151  1.00  0.00     0.167 HD
ATOM     60  C   UNL A   1      45.741  30.013  29.585  1.00  0.00     0.074 A 
ATOM     61  C   UNL A   1      47.174  30.218  29.649  1.00  0.00     0.031 C 
ATOM     62  C   UNL A   1      44.820  30.962  29.884  1.00  0.00     0.037 A 
BRANCH  49  63
ATOM     63  C   UNL A   1      38.949  29.147  29.152  1.00  0.00     0.057 A 
ATOM     64  C   UNL A   1      38.182  29.054  30.322  1.00  0.00     0.134 A 
ATOM     65  C   UNL A   1      38.299  29.579  27.989  1.00  0.00     0.134 A 
ATOM     66  F   UNL A   1      38.737  28.632  31.468  1.00  0.00    -0.206 F 
ATOM     67  C   UNL A   1      36.814  29.336  30.324  1.00  0.00     0.040 A 
ATOM     68  C   UNL A   1      36.940  29.897  27.987  1.00  0.00     0.040 A 
ATOM     69  F   UNL A   1      38.972  29.695  26.835  1.00  0.00    -0.206 F 
ATOM     70  C   UNL A   1      36.192  29.765  29.155  1.00  0.00     0.006 A 
ENDBRANCH  49  63
BRANCH  50  71
ATOM     71  C   UNL A   1      48.551  26.416  28.409  1.00  0.00     0.057 A 
ATOM     72  C   UNL A   1      49.198  26.577  27.179  1.00  0.00     0.134 A 
ATOM     73  C   UNL A   1      49.302  25.898  29.471  1.00  0.00     0.134 A 
ATOM     74  F   UNL A   1      48.529  27.057  26.121  1.00  0.00    -0.206 F 
ATOM     75  C   UNL A   1      50.539  26.224  27.007  1.00  0.00     0.040 A 
ATOM     76  C   UNL A   1      50.649  25.564  29.320  1.00  0.00     0.040 A 
ATOM     77  F   UNL A   1      48.744  25.732  30.679  1.00  0.00    -0.206 F 
ATOM     78  C   UNL A   1      51.269  25.721  28.082  1.00  0.00     0.006 A 
ENDBRANCH  50  71
BRANCH  62  79
ATOM     79  C   UNL A   1      45.328  32.297  30.342  1.00  0.00     0.057 A 
ATOM     80  C   UNL A   1      45.617  32.556  31.686  1.00  0.00     0.134 A 
ATOM     81  C   UNL A   1      45.599  33.310  29.413  1.00  0.00     0.134 A 
ATOM     82  F   UNL A   1      45.369  31.632  32.626  1.00  0.00    -0.206 F 
ATOM     83  C   UNL A   1      46.146  33.783  32.093  1.00  0.00     0.040 A 
ATOM     84  C   UNL A   1      46.153  34.528  29.803  1.00  0.00     0.040 A 
ATOM     85  F   UNL A   1      45.353  33.120  28.107  1.00  0.00    -0.206 F 
ATOM     86  C   UNL A   1      46.424  34.768  31.148  1.00  0.00     0.006 A 
ENDBRANCH  62  79
ENDBRANCH  36  37
ENDBRANCH  28  31
ENDBRANCH  26  27
ENDBRANCH  25  26
ENDBRANCH   1  25
TORSDOF 16
ENDMDL
MODEL 3
REMARK VINA RESULT:     -11.3      1.503      6.331
REMARK SMILES CC[C@@H](C)[C@H](NC(=O)CCc1ccc(F)c(F)c1)C(=O)NCCCNC(=O)c1ccc(-c2c3nc(c(-c4c(F)cccc4F)c4ccc([nH]4)c(-c4c(F)cccc4F)c4nc(c(-c5c(F)cccc5F)c5ccc2[nH]5)C=C4)C=C3)cc1
REMARK SMILES IDX 22 1 21 2 19 3 20 4 5 6 3 7 4 8 2 9 1 10 6 11 7 12 8 14 9 15
REMARK SMILES IDX 10 16 11 17 12 18 18 19 13 20 16 21 14 22 17 23 15 24 23 25
REMARK SMILES IDX 24 26 25 27 26 28 27 30 28 31 29 32 81 33 30 34 80 35 31 36
REMARK SMILES IDX 32 37 33 38 74 39 34 40 79 41 73 42 75 43 35 44 78 45 72 46
REMARK SMILES IDX 71 47 36 49 62 50 45 51 61 52 46 53 49 54 60 55 76 56 47 57
REMARK SMILES IDX 48 58 59 60 77 61 50 62 37 63 38 64 43 65 39 66 40 67 42 68
REMARK SMILES IDX 44 69 41 70 63 71 64 72 69 73 65 74 66 75 68 76 70 77 67 78
REMARK SMILES IDX 51 79 52 80 57 81 53 82 54 83 56 84 58 85 55 86
REMARK H PARENT 21 5 6 13 25 29 75 48 49 59
REMARK Flexibility Score: inf
ROOT
ATOM      1  C   UNL A   1      37.362  20.690  25.119  1.00  0.00     0.117 C 
ENDROOT
BRANCH   1   2
ATOM      2  N   UNL A   1      37.624  21.961  25.750  1.00  0.00    -0.354 N 
ATOM      3  C   UNL A   1      36.845  23.055  25.881  1.00  0.00     0.242 C 
ATOM      4  O   UNL A   1      37.364  24.038  26.420  1.00  0.00    -0.273 OA
ATOM      5  H   UNL A   1      38.520  22.044  26.149  1.00  0.00     0.163 HD
BRANCH   3   6
ATOM      6  C   UNL A   1      35.357  23.057  25.482  1.00  0.00     0.174 C 
BRANCH   6   7
ATOM      7  C   UNL A   1      35.084  23.885  24.173  1.00  0.00     0.018 C 
ATOM      8  C   UNL A   1      34.220  25.127  24.455  1.00  0.00     0.010 C 
BRANCH   7   9
ATOM      9  C   UNL A   1      34.655  23.074  22.921  1.00  0.00     0.002 C 
ATOM     10  C   UNL A   1      33.245  23.321  22.402  1.00  0.00     0.004 C 
ENDBRANCH   7   9
ENDBRANCH   6   7
BRANCH   6  11
ATOM     11  N   UNL A   1      34.412  23.293  26.582  1.00  0.00    -0.344 N 
ATOM     12  C   UNL A   1      33.288  22.590  26.918  1.00  0.00     0.220 C 
ATOM     13  H   UNL A   1      34.615  24.066  27.158  1.00  0.00     0.164 HD
ATOM     14  O   UNL A   1      32.437  23.160  27.604  1.00  0.00    -0.275 OA
BRANCH  12  15
ATOM     15  C   UNL A   1      33.106  21.139  26.514  1.00  0.00     0.105 C 
BRANCH  15  16
ATOM     16  C   UNL A   1      32.467  20.943  25.136  1.00  0.00     0.045 C 
BRANCH  16  17
ATOM     17  C   UNL A   1      33.011  19.752  24.390  1.00  0.00    -0.044 A 
ATOM     18  C   UNL A   1      32.281  19.163  23.345  1.00  0.00     0.007 A 
ATOM     19  C   UNL A   1      34.195  19.138  24.830  1.00  0.00     0.046 A 
ATOM     20  C   UNL A   1      32.694  17.946  22.793  1.00  0.00     0.043 A 
ATOM     21  C   UNL A   1      34.592  17.921  24.281  1.00  0.00     0.159 A 
ATOM     22  C   UNL A   1      33.838  17.324  23.279  1.00  0.00     0.158 A 
ATOM     23  F   UNL A   1      35.666  17.297  24.782  1.00  0.00    -0.204 F 
ATOM     24  F   UNL A   1      34.183  16.117  22.808  1.00  0.00    -0.204 F 
ENDBRANCH  16  17
ENDBRANCH  15  16
ENDBRANCH  12  15
ENDBRANCH   6  11
ENDBRANCH   3   6
ENDBRANCH   1   2
BRANCH   1  25
ATOM     25  C   UNL A   1      38.637  19.902  24.879  1.00  0.00     0.042 C 
BRANCH  25  26
ATOM     26  C   UNL A   1      39.338  19.519  26.175  1.00  0.00     0.118 C 
BRANCH  26  27
ATOM     27  N   UNL A   1      40.676  18.980  25.934  1.00  0.00    -0.352 N 
ATOM     28  C   UNL A   1      41.880  19.628  25.885  1.00  0.00     0.251 C 
ATOM     29  H   UNL A   1      40.716  18.008  25.787  1.00  0.00     0.163 HD
ATOM     30  O   UNL A   1      42.861  19.093  25.380  1.00  0.00    -0.269 OA
BRANCH  28  31
ATOM     31  C   UNL A   1      41.966  20.985  26.439  1.00  0.00     0.039 A 
ATOM     32  C   UNL A   1      41.949  21.173  27.820  1.00  0.00     0.014 A 
ATOM     33  C   UNL A   1      42.117  22.065  25.567  1.00  0.00     0.014 A 
ATOM     34  C   UNL A   1      42.158  22.452  28.332  1.00  0.00     0.010 A 
ATOM     35  C   UNL A   1      42.445  23.306  26.076  1.00  0.00     0.010 A 
ATOM     36  C   UNL A   1      42.447  23.517  27.463  1.00  0.00    -0.014 A 
BRANCH  36  37
ATOM     37  C   UNL A   1      42.720  24.882  27.963  1.00  0.00     0.031 A 
ATOM     38  C   UNL A   1      44.111  25.236  28.406  1.00  0.00     0.074 A 
ATOM     39  C   UNL A   1      41.706  25.754  28.113  1.00  0.00     0.049 A 
ATOM     40  N   UNL A   1      44.539  26.318  29.002  1.00  0.00    -0.248 NA
ATOM     41  C   UNL A   1      45.151  24.214  28.195  1.00  0.00     0.031 C 
ATOM     42  C   UNL A   1      40.304  25.493  27.778  1.00  0.00     0.029 A 
ATOM     43  N   UNL A   1      41.697  27.031  28.611  1.00  0.00    -0.354 N 
ATOM     44  C   UNL A   1      45.886  26.092  29.259  1.00  0.00     0.074 A 
ATOM     45  C   UNL A   1      46.186  24.747  28.824  1.00  0.00     0.031 C 
ATOM     46  C   UNL A   1      39.575  26.583  28.065  1.00  0.00     0.029 A 
ATOM     47  C   UNL A   1      40.447  27.599  28.643  1.00  0.00     0.049 A 
ATOM     48  H   UNL A   1      42.509  27.496  28.917  1.00  0.00     0.167 HD
ATOM     49  C   UNL A   1      46.798  26.942  29.784  1.00  0.00     0.037 A 
ATOM     50  C   UNL A   1      40.052  28.800  29.105  1.00  0.00     0.037 A 
ATOM     51  C   UNL A   1      46.492  28.289  30.182  1.00  0.00     0.049 A 
ATOM     52  C   UNL A   1      41.081  29.736  29.673  1.00  0.00     0.074 A 
ATOM     53  C   UNL A   1      47.351  29.264  30.653  1.00  0.00     0.029 A 
ATOM     54  N   UNL A   1      45.222  28.848  30.154  1.00  0.00    -0.354 N 
ATOM     55  N   UNL A   1      42.369  29.544  29.837  1.00  0.00    -0.248 NA
ATOM     56  C   UNL A   1      40.609  31.054  30.113  1.00  0.00     0.031 C 
ATOM     57  C   UNL A   1      46.592  30.398  30.960  1.00  0.00     0.029 A 
ATOM     58  C   UNL A   1      45.269  30.148  30.625  1.00  0.00     0.049 A 
ATOM     59  H   UNL A   1      44.409  28.388  29.844  1.00  0.00     0.167 HD
ATOM     60  C   UNL A   1      42.865  30.724  30.374  1.00  0.00     0.074 A 
ATOM     61  C   UNL A   1      41.741  31.629  30.499  1.00  0.00     0.031 C 
ATOM     62  C   UNL A   1      44.136  31.032  30.733  1.00  0.00     0.037 A 
BRANCH  49  63
ATOM     63  C   UNL A   1      48.200  26.432  29.950  1.00  0.00     0.057 A 
ATOM     64  C   UNL A   1      49.174  26.598  28.956  1.00  0.00     0.134 A 
ATOM     65  C   UNL A   1      48.581  25.759  31.119  1.00  0.00     0.134 A 
ATOM     66  F   UNL A   1      48.873  27.219  27.805  1.00  0.00    -0.206 F 
ATOM     67  C   UNL A   1      50.462  26.079  29.099  1.00  0.00     0.040 A 
ATOM     68  C   UNL A   1      49.876  25.266  31.287  1.00  0.00     0.040 A 
ATOM     69  F   UNL A   1      47.702  25.567  32.113  1.00  0.00    -0.206 F 
ATOM     70  C   UNL A   1      50.817  25.416  30.271  1.00  0.00     0.006 A 
ENDBRANCH  49  63
BRANCH  50  71
ATOM     71  C   UNL A   1      38.619  29.182  29.029  1.00  0.00     0.057 A 
ATOM     72  C   UNL A   1      37.785  29.086  30.148  1.00  0.00     0.134 A 
ATOM     73  C   UNL A   1      38.056  29.673  27.845  1.00  0.00     0.134 A 
ATOM     74  F   UNL A   1      38.262  28.611  31.308  1.00  0.00    -0.206 F 
ATOM     75  C   UNL A   1      36.438  29.451  30.089  1.00  0.00     0.040 A 
ATOM     76  C   UNL A   1      36.718  30.065  27.778  1.00  0.00     0.040 A 
ATOM     77  F   UNL A   1      38.806  29.802  26.740  1.00  0.00    -0.206 F 
ATOM     78  C   UNL A   1      35.903  29.948  28.902  1.00  0.00     0.006 A 
ENDBRANCH  50  71
BRANCH  62  79
ATOM     79  C   UNL A   1      44.388  32.414  31.260  1.00  0.00     0.057 A 
ATOM     80  C   UNL A   1      44.379  32.695  32.630  1.00  0.00     0.134 A 
ATOM     81  C   UNL A   1      44.713  33.458  30.385  1.00  0.00     0.134 A 
ATOM     82  F   UNL A   1      44.063  31.742  33.519  1.00  0.00    -0.206 F 
ATOM     83  C   UNL A   1      44.672  33.972  33.113  1.00  0.00     0.040 A 
ATOM     84  C   UNL A   1      45.037  34.730  30.856  1.00  0.00     0.040 A 
ATOM     85  F   UNL A   1      44.749  33.251  29.059  1.00  0.00    -0.206 F 
ATOM     86  C   UNL A   1      45.012  34.990  32.224  1.00  0.00     0.006 A 
ENDBRANCH  62  79
ENDBRANCH  36  37
ENDBRANCH  28  31
ENDBRANCH  26  27
ENDBRANCH  25  26
ENDBRANCH   1  25
TORSDOF 16
ENDMDL
