MODEL 1
REMARK VINA RESULT:     -10.8      0.000      0.000
REMARK SMILES COc1ccc([C@H](C(=O)NCCCNC(=O)c2ccc(-c3c4nc(c(-c5c(F)cccc5F)c5ccc([nH]5)c(-c5c(F)cccc5F)c5nc(c(-c6c(F)cccc6F)c6ccc3[nH]6)C=C5)C=C4)cc2)[NH+]2CCOCC2)c(OC)n1
REMARK SMILES IDX 12 1 11 2 10 3 8 4 9 5 7 7 6 8 3 9 4 10 80 11 5 12 77 13
REMARK SMILES IDX 2 14 1 15 78 16 79 17 71 18 72 19 76 20 73 22 75 23 74 24
REMARK SMILES IDX 13 25 14 26 15 27 16 29 17 30 18 31 70 32 19 33 69 34 20 35
REMARK SMILES IDX 21 36 22 37 63 38 23 39 68 40 62 41 64 42 24 43 67 44 61 45
REMARK SMILES IDX 60 46 25 48 51 49 34 50 50 51 35 52 38 53 49 54 65 55 36 56
REMARK SMILES IDX 37 57 48 59 66 60 39 61 26 62 27 63 32 64 28 65 29 66 31 67
REMARK SMILES IDX 33 68 30 69 52 70 53 71 58 72 54 73 55 74 57 75 59 76 56 77
REMARK SMILES IDX 40 78 41 79 46 80 42 81 43 82 45 83 47 84 44 85
REMARK H PARENT 10 6 71 21 14 28 64 47 38 58
REMARK Flexibility Score: inf
ROOT
ATOM      1  C   UNL A   1      33.355  27.953  26.902  1.00  0.00     0.042 C 
ENDROOT
BRANCH   1   2
ATOM      2  C   UNL A   1      31.974  27.568  26.395  1.00  0.00     0.118 C 
BRANCH   2   3
ATOM      3  N   UNL A   1      31.537  26.265  26.874  1.00  0.00    -0.351 N 
ATOM      4  C   UNL A   1      31.729  24.995  26.415  1.00  0.00     0.283 C 
ATOM      5  O   UNL A   1      31.157  24.102  27.056  1.00  0.00    -0.268 OA
ATOM      6  H   UNL A   1      30.994  26.310  27.694  1.00  0.00     0.163 HD
BRANCH   4   7
ATOM      7  C   UNL A   1      32.638  24.643  25.206  1.00  0.00     0.311 C 
BRANCH   7   8
ATOM      8  C   UNL A   1      33.756  23.672  25.568  1.00  0.00     0.081 A 
ATOM      9  C   UNL A   1      35.767  21.821  25.675  1.00  0.00     0.216 A 
ATOM     10  C   UNL A   1      36.049  23.124  26.052  1.00  0.00     0.069 A 
ATOM     11  N   UNL A   1      34.537  21.367  25.357  1.00  0.00    -0.177 NA
ATOM     12  C   UNL A   1      35.018  24.057  26.028  1.00  0.00     0.022 A 
ATOM     13  C   UNL A   1      33.559  22.300  25.342  1.00  0.00     0.226 A 
BRANCH   9  14
ATOM     14  O   UNL A   1      36.834  21.001  25.390  1.00  0.00    -0.481 OA
ATOM     15  C   UNL A   1      38.040  21.752  25.376  1.00  0.00     0.280 C 
ENDBRANCH   9  14
BRANCH  13  16
ATOM     16  O   UNL A   1      32.257  21.877  25.179  1.00  0.00    -0.481 OA
ATOM     17  C   UNL A   1      32.154  20.654  24.464  1.00  0.00     0.280 C 
ENDBRANCH  13  16
ENDBRANCH   7   8
BRANCH   7  18
ATOM     18  N   UNL A   1      31.862  24.373  23.958  1.00  0.00    -0.317 N 
ATOM     19  C   UNL A   1      32.693  24.484  22.733  1.00  0.00     0.292 C 
ATOM     20  C   UNL A   1      30.588  25.077  23.738  1.00  0.00     0.292 C 
ATOM     21  H   UNL A   1      31.582  23.410  24.142  1.00  0.00     0.349 HD
ATOM     22  C   UNL A   1      32.725  25.874  22.068  1.00  0.00     0.221 C 
ATOM     23  C   UNL A   1      30.663  26.441  23.026  1.00  0.00     0.221 C 
ATOM     24  O   UNL A   1      31.400  26.349  21.806  1.00  0.00    -0.370 OA
ENDBRANCH   7  18
ENDBRANCH   4   7
ENDBRANCH   2   3
ENDBRANCH   1   2
BRANCH   1  25
ATOM     25  C   UNL A   1      34.041  29.013  26.057  1.00  0.00     0.118 C 
BRANCH  25  26
ATOM     26  N   UNL A   1      33.798  30.355  26.563  1.00  0.00    -0.352 N 
ATOM     27  C   UNL A   1      34.436  31.009  27.585  1.00  0.00     0.251 C 
ATOM     28  H   UNL A   1      33.083  30.859  26.112  1.00  0.00     0.163 HD
ATOM     29  O   UNL A   1      33.960  32.046  28.046  1.00  0.00    -0.269 OA
BRANCH  27  30
ATOM     30  C   UNL A   1      35.689  30.458  28.139  1.00  0.00     0.039 A 
ATOM     31  C   UNL A   1      35.641  29.704  29.314  1.00  0.00     0.014 A 
ATOM     32  C   UNL A   1      36.912  30.693  27.501  1.00  0.00     0.014 A 
ATOM     33  C   UNL A   1      36.817  29.157  29.829  1.00  0.00     0.010 A 
ATOM     34  C   UNL A   1      38.065  30.073  27.965  1.00  0.00     0.010 A 
ATOM     35  C   UNL A   1      38.036  29.320  29.149  1.00  0.00    -0.014 A 
BRANCH  35  36
ATOM     36  C   UNL A   1      39.301  28.767  29.690  1.00  0.00     0.031 A 
ATOM     37  C   UNL A   1      39.921  29.388  30.912  1.00  0.00     0.074 A 
ATOM     38  C   UNL A   1      39.916  27.746  29.063  1.00  0.00     0.049 A 
ATOM     39  N   UNL A   1      41.053  29.101  31.505  1.00  0.00    -0.248 NA
ATOM     40  C   UNL A   1      39.188  30.502  31.535  1.00  0.00     0.031 C 
ATOM     41  C   UNL A   1      39.442  27.090  27.844  1.00  0.00     0.029 A 
ATOM     42  N   UNL A   1      41.083  27.089  29.363  1.00  0.00    -0.354 N 
ATOM     43  C   UNL A   1      41.174  30.010  32.548  1.00  0.00     0.074 A 
ATOM     44  C   UNL A   1      40.033  30.894  32.475  1.00  0.00     0.031 C 
ATOM     45  C   UNL A   1      40.295  26.105  27.515  1.00  0.00     0.029 A 
ATOM     46  C   UNL A   1      41.392  26.085  28.479  1.00  0.00     0.049 A 
ATOM     47  H   UNL A   1      41.643  27.315  30.139  1.00  0.00     0.167 HD
ATOM     48  C   UNL A   1      42.134  30.086  33.499  1.00  0.00     0.037 A 
ATOM     49  C   UNL A   1      42.443  25.245  28.449  1.00  0.00     0.037 A 
ATOM     50  C   UNL A   1      43.248  29.180  33.594  1.00  0.00     0.049 A 
ATOM     51  C   UNL A   1      43.490  25.339  29.524  1.00  0.00     0.074 A 
ATOM     52  C   UNL A   1      44.239  29.133  34.557  1.00  0.00     0.029 A 
ATOM     53  N   UNL A   1      43.510  28.158  32.694  1.00  0.00    -0.354 N 
ATOM     54  N   UNL A   1      43.559  26.164  30.541  1.00  0.00    -0.248 NA
ATOM     55  C   UNL A   1      44.603  24.381  29.452  1.00  0.00     0.031 C 
ATOM     56  C   UNL A   1      45.125  28.103  34.220  1.00  0.00     0.029 A 
ATOM     57  C   UNL A   1      44.659  27.484  33.071  1.00  0.00     0.049 A 
ATOM     58  H   UNL A   1      42.962  27.945  31.905  1.00  0.00     0.167 HD
ATOM     59  C   UNL A   1      44.703  25.807  31.245  1.00  0.00     0.074 A 
ATOM     60  C   UNL A   1      45.290  24.683  30.544  1.00  0.00     0.031 C 
ATOM     61  C   UNL A   1      45.220  26.359  32.369  1.00  0.00     0.037 A 
BRANCH  48  62
ATOM     62  C   UNL A   1      42.014  31.183  34.516  1.00  0.00     0.057 A 
ATOM     63  C   UNL A   1      41.256  31.027  35.683  1.00  0.00     0.134 A 
ATOM     64  C   UNL A   1      42.683  32.400  34.339  1.00  0.00     0.134 A 
ATOM     65  F   UNL A   1      40.578  29.891  35.908  1.00  0.00    -0.206 F 
ATOM     66  C   UNL A   1      41.144  32.052  36.624  1.00  0.00     0.040 A 
ATOM     67  C   UNL A   1      42.602  33.423  35.285  1.00  0.00     0.040 A 
ATOM     68  F   UNL A   1      43.430  32.614  33.245  1.00  0.00    -0.206 F 
ATOM     69  C   UNL A   1      41.824  33.251  36.429  1.00  0.00     0.006 A 
ENDBRANCH  48  62
BRANCH  49  70
ATOM     70  C   UNL A   1      42.545  24.219  27.382  1.00  0.00     0.057 A 
ATOM     71  C   UNL A   1      42.066  22.920  27.582  1.00  0.00     0.134 A 
ATOM     72  C   UNL A   1      43.129  24.508  26.142  1.00  0.00     0.134 A 
ATOM     73  F   UNL A   1      41.512  22.579  28.755  1.00  0.00    -0.206 F 
ATOM     74  C   UNL A   1      42.180  21.938  26.598  1.00  0.00     0.040 A 
ATOM     75  C   UNL A   1      43.229  23.542  25.140  1.00  0.00     0.040 A 
ATOM     76  F   UNL A   1      43.602  25.736  25.886  1.00  0.00    -0.206 F 
ATOM     77  C   UNL A   1      42.760  22.249  25.370  1.00  0.00     0.006 A 
ENDBRANCH  49  70
BRANCH  61  78
ATOM     78  C   UNL A   1      46.461  25.733  32.932  1.00  0.00     0.057 A 
ATOM     79  C   UNL A   1      46.404  24.700  33.876  1.00  0.00     0.134 A 
ATOM     80  C   UNL A   1      47.726  26.139  32.492  1.00  0.00     0.134 A 
ATOM     81  F   UNL A   1      45.222  24.274  34.348  1.00  0.00    -0.206 F 
ATOM     82  C   UNL A   1      47.563  24.108  34.377  1.00  0.00     0.040 A 
ATOM     83  C   UNL A   1      48.892  25.538  32.965  1.00  0.00     0.040 A 
ATOM     84  F   UNL A   1      47.849  27.118  31.581  1.00  0.00    -0.206 F 
ATOM     85  C   UNL A   1      48.812  24.522  33.916  1.00  0.00     0.006 A 
ENDBRANCH  61  78
ENDBRANCH  35  36
ENDBRANCH  27  30
ENDBRANCH  25  26
ENDBRANCH   1  25
TORSDOF 14
ENDMDL
MODEL 2
REMARK VINA RESULT:     -10.7      2.043      2.576
REMARK SMILES COc1ccc([C@H](C(=O)NCCCNC(=O)c2ccc(-c3c4nc(c(-c5c(F)cccc5F)c5ccc([nH]5)c(-c5c(F)cccc5F)c5nc(c(-c6c(F)cccc6F)c6ccc3[nH]6)C=C5)C=C4)cc2)[NH+]2CCOCC2)c(OC)n1
REMARK SMILES IDX 12 1 11 2 10 3 8 4 9 5 7 7 6 8 3 9 4 10 80 11 5 12 77 13
REMARK SMILES IDX 2 14 1 15 78 16 79 17 71 18 72 19 76 20 73 22 75 23 74 24
REMARK SMILES IDX 13 25 14 26 15 27 16 29 17 30 18 31 70 32 19 33 69 34 20 35
REMARK SMILES IDX 21 36 22 37 63 38 23 39 68 40 62 41 64 42 24 43 67 44 61 45
REMARK SMILES IDX 60 46 25 48 51 49 34 50 50 51 35 52 38 53 49 54 65 55 36 56
REMARK SMILES IDX 37 57 48 59 66 60 39 61 26 62 27 63 32 64 28 65 29 66 31 67
REMARK SMILES IDX 33 68 30 69 52 70 53 71 58 72 54 73 55 74 57 75 59 76 56 77
REMARK SMILES IDX 40 78 41 79 46 80 42 81 43 82 45 83 47 84 44 85
REMARK H PARENT 10 6 71 21 14 28 64 47 38 58
REMARK Flexibility Score: inf
ROOT
ATOM      1  C   UNL A   1      33.165  28.309  25.985  1.00  0.00     0.042 C 
ENDROOT
BRANCH   1   2
ATOM      2  C   UNL A   1      31.720  28.026  26.362  1.00  0.00     0.118 C 
BRANCH   2   3
ATOM      3  N   UNL A   1      31.523  26.681  26.884  1.00  0.00    -0.351 N 
ATOM      4  C   UNL A   1      31.788  25.442  26.380  1.00  0.00     0.283 C 
ATOM      5  O   UNL A   1      31.436  24.489  27.088  1.00  0.00    -0.268 OA
ATOM      6  H   UNL A   1      31.117  26.663  27.780  1.00  0.00     0.163 HD
BRANCH   4   7
ATOM      7  C   UNL A   1      32.527  25.198  25.035  1.00  0.00     0.311 C 
BRANCH   7   8
ATOM      8  C   UNL A   1      33.733  24.278  25.181  1.00  0.00     0.081 A 
ATOM      9  C   UNL A   1      35.833  22.547  24.899  1.00  0.00     0.216 A 
ATOM     10  C   UNL A   1      36.097  23.843  25.313  1.00  0.00     0.069 A 
ATOM     11  N   UNL A   1      34.596  22.038  24.725  1.00  0.00    -0.177 NA
ATOM     12  C   UNL A   1      35.026  24.712  25.486  1.00  0.00     0.022 A 
ATOM     13  C   UNL A   1      33.579  22.910  24.900  1.00  0.00     0.226 A 
BRANCH   9  14
ATOM     14  O   UNL A   1      36.891  21.809  24.421  1.00  0.00    -0.481 OA
ATOM     15  C   UNL A   1      37.890  21.678  25.422  1.00  0.00     0.280 C 
ENDBRANCH   9  14
BRANCH  13  16
ATOM     16  O   UNL A   1      32.290  22.419  24.892  1.00  0.00    -0.481 OA
ATOM     17  C   UNL A   1      32.222  21.041  24.557  1.00  0.00     0.280 C 
ENDBRANCH  13  16
ENDBRANCH   7   8
BRANCH   7  18
ATOM     18  N   UNL A   1      31.592  24.940  23.899  1.00  0.00    -0.317 N 
ATOM     19  C   UNL A   1      32.201  25.235  22.579  1.00  0.00     0.292 C 
ATOM     20  C   UNL A   1      30.237  25.514  23.940  1.00  0.00     0.292 C 
ATOM     21  H   UNL A   1      31.439  23.940  24.033  1.00  0.00     0.349 HD
ATOM     22  C   UNL A   1      31.991  26.666  22.047  1.00  0.00     0.221 C 
ATOM     23  C   UNL A   1      30.064  26.928  23.355  1.00  0.00     0.221 C 
ATOM     24  O   UNL A   1      30.602  27.011  22.034  1.00  0.00    -0.370 OA
ENDBRANCH   7  18
ENDBRANCH   4   7
ENDBRANCH   2   3
ENDBRANCH   1   2
BRANCH   1  25
ATOM     25  C   UNL A   1      34.062  28.596  27.177  1.00  0.00     0.118 C 
BRANCH  25  26
ATOM     26  N   UNL A   1      33.885  29.949  27.679  1.00  0.00    -0.352 N 
ATOM     27  C   UNL A   1      34.750  30.697  28.436  1.00  0.00     0.251 C 
ATOM     28  H   UNL A   1      33.035  30.385  27.444  1.00  0.00     0.163 HD
ATOM     29  O   UNL A   1      34.360  31.731  28.977  1.00  0.00    -0.269 OA
BRANCH  27  30
ATOM     30  C   UNL A   1      36.147  30.250  28.610  1.00  0.00     0.039 A 
ATOM     31  C   UNL A   1      36.538  29.698  29.832  1.00  0.00     0.014 A 
ATOM     32  C   UNL A   1      37.071  30.385  27.568  1.00  0.00     0.014 A 
ATOM     33  C   UNL A   1      37.850  29.248  29.995  1.00  0.00     0.010 A 
ATOM     34  C   UNL A   1      38.347  29.854  27.703  1.00  0.00     0.010 A 
ATOM     35  C   UNL A   1      38.759  29.305  28.926  1.00  0.00    -0.014 A 
BRANCH  35  36
ATOM     36  C   UNL A   1      40.163  28.854  29.084  1.00  0.00     0.031 A 
ATOM     37  C   UNL A   1      41.183  29.790  29.675  1.00  0.00     0.074 A 
ATOM     38  C   UNL A   1      40.534  27.632  28.657  1.00  0.00     0.049 A 
ATOM     39  N   UNL A   1      42.471  29.618  29.838  1.00  0.00    -0.248 NA
ATOM     40  C   UNL A   1      40.697  31.109  30.113  1.00  0.00     0.031 C 
ATOM     41  C   UNL A   1      39.652  26.651  28.024  1.00  0.00     0.029 A 
ATOM     42  N   UNL A   1      41.758  27.012  28.683  1.00  0.00    -0.354 N 
ATOM     43  C   UNL A   1      42.945  30.810  30.372  1.00  0.00     0.074 A 
ATOM     44  C   UNL A   1      41.823  31.716  30.454  1.00  0.00     0.031 C 
ATOM     45  C   UNL A   1      40.357  25.542  27.746  1.00  0.00     0.029 A 
ATOM     46  C   UNL A   1      41.746  25.747  28.149  1.00  0.00     0.049 A 
ATOM     47  H   UNL A   1      42.567  27.433  29.051  1.00  0.00     0.167 HD
ATOM     48  C   UNL A   1      44.198  31.113  30.785  1.00  0.00     0.037 A 
ATOM     49  C   UNL A   1      42.742  24.855  28.001  1.00  0.00     0.037 A 
ATOM     50  C   UNL A   1      45.306  30.196  30.742  1.00  0.00     0.049 A 
ATOM     51  C   UNL A   1      44.124  25.210  28.479  1.00  0.00     0.074 A 
ATOM     52  C   UNL A   1      46.599  30.385  31.195  1.00  0.00     0.029 A 
ATOM     53  N   UNL A   1      45.245  28.913  30.220  1.00  0.00    -0.354 N 
ATOM     54  N   UNL A   1      44.545  26.317  29.041  1.00  0.00    -0.248 NA
ATOM     55  C   UNL A   1      45.166  24.188  28.311  1.00  0.00     0.031 C 
ATOM     56  C   UNL A   1      47.333  29.228  30.913  1.00  0.00     0.029 A 
ATOM     57  C   UNL A   1      46.484  28.304  30.324  1.00  0.00     0.049 A 
ATOM     58  H   UNL A   1      44.442  28.498  29.831  1.00  0.00     0.167 HD
ATOM     59  C   UNL A   1      45.891  26.116  29.318  1.00  0.00     0.074 A 
ATOM     60  C   UNL A   1      46.213  24.775  28.874  1.00  0.00     0.031 C 
ATOM     61  C   UNL A   1      46.781  26.964  29.888  1.00  0.00     0.037 A 
BRANCH  48  62
ATOM     62  C   UNL A   1      44.431  32.493  31.327  1.00  0.00     0.057 A 
ATOM     63  C   UNL A   1      44.270  32.789  32.687  1.00  0.00     0.134 A 
ATOM     64  C   UNL A   1      44.846  33.532  30.485  1.00  0.00     0.134 A 
ATOM     65  F   UNL A   1      43.861  31.842  33.545  1.00  0.00    -0.206 F 
ATOM     66  C   UNL A   1      44.485  34.075  33.185  1.00  0.00     0.040 A 
ATOM     67  C   UNL A   1      45.090  34.816  30.976  1.00  0.00     0.040 A 
ATOM     68  F   UNL A   1      45.024  33.316  29.173  1.00  0.00    -0.206 F 
ATOM     69  C   UNL A   1      44.903  35.091  32.329  1.00  0.00     0.006 A 
ENDBRANCH  48  62
BRANCH  49  70
ATOM     70  C   UNL A   1      42.469  23.527  27.398  1.00  0.00     0.057 A 
ATOM     71  C   UNL A   1      42.096  22.438  28.194  1.00  0.00     0.134 A 
ATOM     72  C   UNL A   1      42.581  23.311  26.019  1.00  0.00     0.134 A 
ATOM     73  F   UNL A   1      41.990  22.579  29.523  1.00  0.00    -0.206 F 
ATOM     74  C   UNL A   1      41.862  21.177  27.645  1.00  0.00     0.040 A 
ATOM     75  C   UNL A   1      42.327  22.061  25.454  1.00  0.00     0.040 A 
ATOM     76  F   UNL A   1      42.929  24.316  25.203  1.00  0.00    -0.206 F 
ATOM     77  C   UNL A   1      41.974  20.987  26.269  1.00  0.00     0.006 A 
ENDBRANCH  49  70
BRANCH  61  78
ATOM     78  C   UNL A   1      48.176  26.455  30.101  1.00  0.00     0.057 A 
ATOM     79  C   UNL A   1      49.181  26.632  29.143  1.00  0.00     0.134 A 
ATOM     80  C   UNL A   1      48.526  25.817  31.297  1.00  0.00     0.134 A 
ATOM     81  F   UNL A   1      48.907  27.225  27.970  1.00  0.00    -0.206 F 
ATOM     82  C   UNL A   1      50.481  26.175  29.359  1.00  0.00     0.040 A 
ATOM     83  C   UNL A   1      49.827  25.378  31.537  1.00  0.00     0.040 A 
ATOM     84  F   UNL A   1      47.610  25.625  32.260  1.00  0.00    -0.206 F 
ATOM     85  C   UNL A   1      50.809  25.552  30.563  1.00  0.00     0.006 A 
ENDBRANCH  61  78
ENDBRANCH  35  36
ENDBRANCH  27  30
ENDBRANCH  25  26
ENDBRANCH   1  25
TORSDOF 14
ENDMDL
MODEL 3
REMARK VINA RESULT:     -10.6      3.569      8.233
REMARK SMILES COc1ccc([C@H](C(=O)NCCCNC(=O)c2ccc(-c3c4nc(c(-c5c(F)cccc5F)c5ccc([nH]5)c(-c5c(F)cccc5F)c5nc(c(-c6c(F)cccc6F)c6ccc3[nH]6)C=C5)C=C4)cc2)[NH+]2CCOCC2)c(OC)n1
REMARK SMILES IDX 12 1 11 2 10 3 8 4 9 5 7 7 6 8 3 9 4 10 80 11 5 12 77 13
REMARK SMILES IDX 2 14 1 15 78 16 79 17 71 18 72 19 76 20 73 22 75 23 74 24
REMARK SMILES IDX 13 25 14 26 15 27 16 29 17 30 18 31 70 32 19 33 69 34 20 35
REMARK SMILES IDX 21 36 22 37 63 38 23 39 68 40 62 41 64 42 24 43 67 44 61 45
REMARK SMILES IDX 60 46 25 48 51 49 34 50 50 51 35 52 38 53 49 54 65 55 36 56
REMARK SMILES IDX 37 57 48 59 66 60 39 61 26 62 27 63 32 64 28 65 29 66 31 67
REMARK SMILES IDX 33 68 30 69 52 70 53 71 58 72 54 73 55 74 57 75 59 76 56 77
REMARK SMILES IDX 40 78 41 79 46 80 42 81 43 82 45 83 47 84 44 85
REMARK H PARENT 10 6 71 21 14 28 64 47 38 58
REMARK Flexibility Score: inf
ROOT
ATOM      1  C   UNL A   1      36.664  23.705  24.503  1.00  0.00     0.042 C 
ENDROOT
BRANCH   1   2
ATOM      2  C   UNL A   1      35.812  22.718  23.721  1.00  0.00     0.118 C 
BRANCH   2   3
ATOM      3  N   UNL A   1      34.642  23.335  23.114  1.00  0.00    -0.351 N 
ATOM      4  C   UNL A   1      33.511  23.892  23.633  1.00  0.00     0.283 C 
ATOM      5  O   UNL A   1      32.678  24.286  22.805  1.00  0.00    -0.268 OA
ATOM      6  H   UNL A   1      34.674  23.353  22.130  1.00  0.00     0.163 HD
BRANCH   4   7
ATOM      7  C   UNL A   1      33.267  24.088  25.155  1.00  0.00     0.311 C 
BRANCH   7   8
ATOM      8  C   UNL A   1      32.968  25.536  25.525  1.00  0.00     0.081 A 
ATOM      9  C   UNL A   1      32.239  27.916  26.661  1.00  0.00     0.216 A 
ATOM     10  C   UNL A   1      33.578  27.704  26.376  1.00  0.00     0.069 A 
ATOM     11  N   UNL A   1      31.243  27.073  26.320  1.00  0.00    -0.177 NA
ATOM     12  C   UNL A   1      33.943  26.506  25.770  1.00  0.00     0.022 A 
ATOM     13  C   UNL A   1      31.633  25.919  25.734  1.00  0.00     0.226 A 
BRANCH   9  14
ATOM     14  O   UNL A   1      31.933  28.931  27.538  1.00  0.00    -0.481 OA
ATOM     15  C   UNL A   1      32.111  30.192  26.911  1.00  0.00     0.280 C 
ENDBRANCH   9  14
BRANCH  13  16
ATOM     16  O   UNL A   1      30.660  25.087  25.221  1.00  0.00    -0.481 OA
ATOM     17  C   UNL A   1      29.850  25.717  24.239  1.00  0.00     0.280 C 
ENDBRANCH  13  16
ENDBRANCH   7   8
BRANCH   7  18
ATOM     18  N   UNL A   1      32.393  23.028  25.742  1.00  0.00    -0.317 N 
ATOM     19  C   UNL A   1      32.809  22.639  27.113  1.00  0.00     0.292 C 
ATOM     20  C   UNL A   1      32.119  21.810  24.961  1.00  0.00     0.292 C 
ATOM     21  H   UNL A   1      31.504  23.526  25.741  1.00  0.00     0.349 HD
ATOM     22  C   UNL A   1      33.803  21.465  27.205  1.00  0.00     0.221 C 
ATOM     23  C   UNL A   1      33.113  20.644  25.121  1.00  0.00     0.221 C 
ATOM     24  O   UNL A   1      33.314  20.321  26.497  1.00  0.00    -0.370 OA
ENDBRANCH   7  18
ENDBRANCH   4   7
ENDBRANCH   2   3
ENDBRANCH   1   2
BRANCH   1  25
ATOM     25  C   UNL A   1      36.844  23.332  25.964  1.00  0.00     0.118 C 
BRANCH  25  26
ATOM     26  N   UNL A   1      37.911  22.361  26.152  1.00  0.00    -0.352 N 
ATOM     27  C   UNL A   1      39.227  22.590  26.458  1.00  0.00     0.251 C 
ATOM     28  H   UNL A   1      37.653  21.417  26.046  1.00  0.00     0.163 HD
ATOM     29  O   UNL A   1      40.052  21.683  26.351  1.00  0.00    -0.269 OA
BRANCH  27  30
ATOM     30  C   UNL A   1      39.653  23.932  26.904  1.00  0.00     0.039 A 
ATOM     31  C   UNL A   1      40.050  24.873  25.951  1.00  0.00     0.014 A 
ATOM     32  C   UNL A   1      39.669  24.257  28.265  1.00  0.00     0.014 A 
ATOM     33  C   UNL A   1      40.428  26.152  26.362  1.00  0.00     0.010 A 
ATOM     34  C   UNL A   1      39.957  25.556  28.663  1.00  0.00     0.010 A 
ATOM     35  C   UNL A   1      40.367  26.510  27.719  1.00  0.00    -0.014 A 
BRANCH  35  36
ATOM     36  C   UNL A   1      40.785  27.856  28.181  1.00  0.00     0.031 A 
ATOM     37  C   UNL A   1      42.246  28.220  28.184  1.00  0.00     0.074 A 
ATOM     38  C   UNL A   1      39.869  28.729  28.642  1.00  0.00     0.049 A 
ATOM     39  N   UNL A   1      42.827  29.314  28.609  1.00  0.00    -0.248 NA
ATOM     40  C   UNL A   1      43.183  27.208  27.669  1.00  0.00     0.031 C 
ATOM     41  C   UNL A   1      38.431  28.478  28.736  1.00  0.00     0.029 A 
ATOM     42  N   UNL A   1      40.018  30.004  29.127  1.00  0.00    -0.354 N 
ATOM     43  C   UNL A   1      44.190  29.109  28.433  1.00  0.00     0.074 A 
ATOM     44  C   UNL A   1      44.355  27.769  27.918  1.00  0.00     0.031 C 
ATOM     45  C   UNL A   1      37.825  29.574  29.222  1.00  0.00     0.029 A 
ATOM     46  C   UNL A   1      38.835  30.590  29.506  1.00  0.00     0.049 A 
ATOM     47  H   UNL A   1      40.889  30.455  29.196  1.00  0.00     0.167 HD
ATOM     48  C   UNL A   1      45.210  29.970  28.654  1.00  0.00     0.037 A 
ATOM     49  C   UNL A   1      38.595  31.808  30.024  1.00  0.00     0.037 A 
ATOM     50  C   UNL A   1      45.042  31.317  29.128  1.00  0.00     0.049 A 
ATOM     51  C   UNL A   1      39.744  32.752  30.249  1.00  0.00     0.074 A 
ATOM     52  C   UNL A   1      46.006  32.289  29.323  1.00  0.00     0.029 A 
ATOM     53  N   UNL A   1      43.824  31.883  29.473  1.00  0.00    -0.354 N 
ATOM     54  N   UNL A   1      41.022  32.568  30.020  1.00  0.00    -0.248 NA
ATOM     55  C   UNL A   1      39.417  34.076  30.797  1.00  0.00     0.031 C 
ATOM     56  C   UNL A   1      45.376  33.434  29.823  1.00  0.00     0.029 A 
ATOM     57  C   UNL A   1      44.014  33.187  29.897  1.00  0.00     0.049 A 
ATOM     58  H   UNL A   1      42.954  31.425  29.426  1.00  0.00     0.167 HD
ATOM     59  C   UNL A   1      41.647  33.758  30.367  1.00  0.00     0.074 A 
ATOM     60  C   UNL A   1      40.606  34.663  30.812  1.00  0.00     0.031 C 
ATOM     61  C   UNL A   1      42.964  34.075  30.323  1.00  0.00     0.037 A 
BRANCH  48  62
ATOM     62  C   UNL A   1      46.601  29.477  28.377  1.00  0.00     0.057 A 
ATOM     63  C   UNL A   1      47.375  28.857  29.366  1.00  0.00     0.134 A 
ATOM     64  C   UNL A   1      47.163  29.601  27.100  1.00  0.00     0.134 A 
ATOM     65  F   UNL A   1      46.903  28.720  30.614  1.00  0.00    -0.206 F 
ATOM     66  C   UNL A   1      48.670  28.404  29.103  1.00  0.00     0.040 A 
ATOM     67  C   UNL A   1      48.445  29.128  26.817  1.00  0.00     0.040 A 
ATOM     68  F   UNL A   1      46.474  30.180  26.105  1.00  0.00    -0.206 F 
ATOM     69  C   UNL A   1      49.205  28.533  27.823  1.00  0.00     0.006 A 
ENDBRANCH  48  62
BRANCH  49  70
ATOM     70  C   UNL A   1      37.205  32.220  30.342  1.00  0.00     0.057 A 
ATOM     71  C   UNL A   1      36.639  31.945  31.592  1.00  0.00     0.134 A 
ATOM     72  C   UNL A   1      36.408  32.891  29.406  1.00  0.00     0.134 A 
ATOM     73  F   UNL A   1      37.348  31.289  32.522  1.00  0.00    -0.206 F 
ATOM     74  C   UNL A   1      35.325  32.302  31.895  1.00  0.00     0.040 A 
ATOM     75  C   UNL A   1      35.100  33.275  29.704  1.00  0.00     0.040 A 
ATOM     76  F   UNL A   1      36.894  33.190  28.193  1.00  0.00    -0.206 F 
ATOM     77  C   UNL A   1      34.552  32.974  30.950  1.00  0.00     0.006 A 
ENDBRANCH  49  70
BRANCH  61  78
ATOM     78  C   UNL A   1      43.349  35.467  30.728  1.00  0.00     0.057 A 
ATOM     79  C   UNL A   1      43.629  35.798  32.059  1.00  0.00     0.134 A 
ATOM     80  C   UNL A   1      43.483  36.476  29.767  1.00  0.00     0.134 A 
ATOM     81  F   UNL A   1      43.507  34.879  33.029  1.00  0.00    -0.206 F 
ATOM     82  C   UNL A   1      44.009  37.090  32.423  1.00  0.00     0.040 A 
ATOM     83  C   UNL A   1      43.886  37.765  30.114  1.00  0.00     0.040 A 
ATOM     84  F   UNL A   1      43.237  36.221  28.472  1.00  0.00    -0.206 F 
ATOM     85  C   UNL A   1      44.145  38.077  31.447  1.00  0.00     0.006 A 
ENDBRANCH  61  78
ENDBRANCH  35  36
ENDBRANCH  27  30
ENDBRANCH  25  26
ENDBRANCH   1  25
TORSDOF 14
ENDMDL
