MODEL 1
REMARK VINA RESULT:     -11.0      0.000      0.000
REMARK SMILES COc1cccc(C2=NN3[C@@H](c4ccc(OC)c(OC)c4C(=O)NCCCNC(=O)c4ccc(-c5c6nc(c(-c7c(F)cccc7F)c7ccc([nH]7)c(-c7c(F)cccc7F)c7nc(c(-c8c(F)cccc8F)c8ccc5[nH]8)C=C7)C=C6)cc4)Oc4c(OC)cccc4[C@@H]3C2)c1
REMARK SMILES IDX 25 1 24 2 22 3 23 4 21 6 12 7 13 8 14 9 18 10 15 11 11 12
REMARK SMILES IDX 8 13 9 14 95 15 10 16 94 17 93 18 85 19 86 20 92 21 87 22
REMARK SMILES IDX 91 23 90 24 7 25 3 26 4 27 96 28 5 29 6 30 2 31 1 32 88 33
REMARK SMILES IDX 89 34 19 35 20 36 16 37 17 38 26 39 27 40 28 41 29 42 30 44
REMARK SMILES IDX 31 45 32 46 84 47 33 48 83 49 34 50 35 51 36 52 77 53 37 54
REMARK SMILES IDX 82 55 76 56 78 57 38 58 81 59 75 60 74 61 39 63 65 64 48 65
REMARK SMILES IDX 64 66 49 67 52 68 63 69 79 70 50 71 51 72 62 74 80 75 53 76
REMARK SMILES IDX 40 77 41 78 46 79 42 80 43 81 45 82 47 83 44 84 66 85 67 86
REMARK SMILES IDX 72 87 68 88 69 89 71 90 73 91 70 92 54 93 55 94 60 95 56 96
REMARK SMILES IDX 57 97 59 98 61 99 58 100
REMARK H PARENT 24 5 28 43 78 62 52 73
REMARK Flexibility Score: inf
ROOT
ATOM      1  C   UNL A   1      42.541  36.119  35.551  1.00  0.00     0.118 C 
ENDROOT
BRANCH   1   2
ATOM      2  N   UNL A   1      41.420  35.224  35.863  1.00  0.00    -0.352 N 
ATOM      3  C   UNL A   1      40.135  35.652  36.128  1.00  0.00     0.255 C 
ATOM      4  O   UNL A   1      39.679  36.728  35.748  1.00  0.00    -0.269 OA
ATOM      5  H   UNL A   1      41.597  34.256  35.886  1.00  0.00     0.163 HD
BRANCH   3   6
ATOM      6  C   UNL A   1      39.339  34.730  36.997  1.00  0.00     0.094 A 
ATOM      7  C   UNL A   1      38.325  33.944  36.379  1.00  0.00     0.032 A 
ATOM      8  C   UNL A   1      37.546  33.086  37.172  1.00  0.00     0.014 A 
ATOM      9  C   UNL A   1      37.796  32.963  38.531  1.00  0.00     0.051 A 
ATOM     10  C   UNL A   1      39.618  34.571  38.375  1.00  0.00     0.173 A 
ATOM     11  C   UNL A   1      38.851  33.659  39.131  1.00  0.00     0.161 A 
BRANCH   7  12
ATOM     12  C   UNL A   1      38.171  33.873  34.871  1.00  0.00     0.321 C 
ATOM     13  C   UNL A   1      35.254  34.055  33.093  1.00  0.00     0.070 C 
ATOM     14  N   UNL A   1      35.906  34.473  34.141  1.00  0.00    -0.178 NA
ATOM     15  C   UNL A   1      35.524  32.616  32.748  1.00  0.00     0.090 C 
ATOM     16  N   UNL A   1      36.807  33.455  34.431  1.00  0.00    -0.246 NA
ATOM     17  C   UNL A   1      36.942  32.549  33.265  1.00  0.00     0.146 C 
ATOM     18  C   UNL A   1      38.040  33.052  32.347  1.00  0.00     0.023 A 
ATOM     19  O   UNL A   1      39.262  33.054  34.358  1.00  0.00    -0.460 OA
ATOM     20  C   UNL A   1      39.278  33.220  32.989  1.00  0.00     0.169 A 
ATOM     21  C   UNL A   1      37.929  33.391  30.998  1.00  0.00     0.010 A 
ATOM     22  C   UNL A   1      40.420  33.595  32.285  1.00  0.00     0.161 A 
ATOM     23  C   UNL A   1      39.047  33.864  30.305  1.00  0.00     0.004 A 
ATOM     24  C   UNL A   1      40.291  33.928  30.936  1.00  0.00     0.050 A 
BRANCH  13  25
ATOM     25  C   UNL A   1      34.408  34.912  32.243  1.00  0.00     0.001 A 
ATOM     26  C   UNL A   1      33.189  35.296  30.205  1.00  0.00     0.119 A 
ATOM     27  C   UNL A   1      32.599  36.395  30.820  1.00  0.00     0.046 A 
ATOM     28  C   UNL A   1      34.096  34.531  30.926  1.00  0.00     0.056 A 
ATOM     29  C   UNL A   1      32.884  36.779  32.117  1.00  0.00     0.005 A 
ATOM     30  C   UNL A   1      33.808  36.041  32.825  1.00  0.00     0.010 A 
BRANCH  26  31
ATOM     31  O   UNL A   1      32.767  35.141  28.921  1.00  0.00    -0.497 OA
ATOM     32  C   UNL A   1      33.257  34.046  28.174  1.00  0.00     0.278 C 
ENDBRANCH  26  31
ENDBRANCH  13  25
BRANCH  22  33
ATOM     33  O   UNL A   1      41.693  33.582  32.776  1.00  0.00    -0.493 OA
ATOM     34  C   UNL A   1      42.148  32.297  33.183  1.00  0.00     0.278 C 
ENDBRANCH  22  33
ENDBRANCH   7  12
BRANCH  10  35
ATOM     35  O   UNL A   1      40.664  35.186  39.011  1.00  0.00    -0.492 OA
ATOM     36  C   UNL A   1      40.407  36.487  39.522  1.00  0.00     0.278 C 
ENDBRANCH  10  35
BRANCH  11  37
ATOM     37  O   UNL A   1      38.960  33.367  40.466  1.00  0.00    -0.493 OA
ATOM     38  C   UNL A   1      37.799  33.499  41.271  1.00  0.00     0.278 C 
ENDBRANCH  11  37
ENDBRANCH   3   6
ENDBRANCH   1   2
BRANCH   1  39
ATOM     39  C   UNL A   1      43.296  35.568  34.330  1.00  0.00     0.042 C 
BRANCH  39  40
ATOM     40  C   UNL A   1      43.353  36.450  33.087  1.00  0.00     0.118 C 
BRANCH  40  41
ATOM     41  N   UNL A   1      44.692  36.842  32.674  1.00  0.00    -0.352 N 
ATOM     42  C   UNL A   1      45.628  36.206  31.881  1.00  0.00     0.251 C 
ATOM     43  H   UNL A   1      44.982  37.716  33.022  1.00  0.00     0.163 HD
ATOM     44  O   UNL A   1      46.728  36.746  31.749  1.00  0.00    -0.269 OA
BRANCH  42  45
ATOM     45  C   UNL A   1      45.396  34.889  31.204  1.00  0.00     0.039 A 
ATOM     46  C   UNL A   1      45.665  33.704  31.918  1.00  0.00     0.014 A 
ATOM     47  C   UNL A   1      44.970  34.766  29.886  1.00  0.00     0.014 A 
ATOM     48  C   UNL A   1      45.444  32.429  31.352  1.00  0.00     0.010 A 
ATOM     49  C   UNL A   1      44.668  33.506  29.354  1.00  0.00     0.010 A 
ATOM     50  C   UNL A   1      44.905  32.313  30.069  1.00  0.00    -0.014 A 
BRANCH  50  51
ATOM     51  C   UNL A   1      44.580  31.019  29.381  1.00  0.00     0.031 A 
ATOM     52  C   UNL A   1      43.167  30.505  29.462  1.00  0.00     0.074 A 
ATOM     53  C   UNL A   1      45.534  30.196  28.890  1.00  0.00     0.049 A 
ATOM     54  N   UNL A   1      42.706  29.299  29.248  1.00  0.00    -0.248 NA
ATOM     55  C   UNL A   1      42.138  31.487  29.843  1.00  0.00     0.031 C 
ATOM     56  C   UNL A   1      46.937  30.524  28.663  1.00  0.00     0.029 A 
ATOM     57  N   UNL A   1      45.481  28.840  28.640  1.00  0.00    -0.354 N 
ATOM     58  C   UNL A   1      41.335  29.390  29.429  1.00  0.00     0.074 A 
ATOM     59  C   UNL A   1      41.055  30.729  29.902  1.00  0.00     0.031 C 
ATOM     60  C   UNL A   1      47.649  29.388  28.564  1.00  0.00     0.029 A 
ATOM     61  C   UNL A   1      46.732  28.256  28.609  1.00  0.00     0.049 A 
ATOM     62  H   UNL A   1      44.643  28.342  28.500  1.00  0.00     0.167 HD
ATOM     63  C   UNL A   1      40.382  28.472  29.142  1.00  0.00     0.037 A 
ATOM     64  C   UNL A   1      47.102  26.962  28.634  1.00  0.00     0.037 A 
ATOM     65  C   UNL A   1      40.652  27.154  28.639  1.00  0.00     0.049 A 
ATOM     66  C   UNL A   1      46.055  25.903  28.464  1.00  0.00     0.074 A 
ATOM     67  C   UNL A   1      39.764  26.200  28.176  1.00  0.00     0.029 A 
ATOM     68  N   UNL A   1      41.919  26.601  28.544  1.00  0.00    -0.354 N 
ATOM     69  N   UNL A   1      44.753  26.026  28.477  1.00  0.00    -0.248 NA
ATOM     70  C   UNL A   1      46.531  24.542  28.174  1.00  0.00     0.031 C 
ATOM     71  C   UNL A   1      40.494  25.058  27.821  1.00  0.00     0.029 A 
ATOM     72  C   UNL A   1      41.837  25.312  28.046  1.00  0.00     0.049 A 
ATOM     73  H   UNL A   1      42.755  27.058  28.793  1.00  0.00     0.167 HD
ATOM     74  C   UNL A   1      44.255  24.791  28.086  1.00  0.00     0.074 A 
ATOM     75  C   UNL A   1      45.393  23.914  27.910  1.00  0.00     0.031 C 
ATOM     76  C   UNL A   1      42.969  24.446  27.838  1.00  0.00     0.037 A 
BRANCH  63  77
ATOM     77  C   UNL A   1      38.960  28.918  29.293  1.00  0.00     0.057 A 
ATOM     78  C   UNL A   1      38.272  29.504  28.218  1.00  0.00     0.134 A 
ATOM     79  C   UNL A   1      38.281  28.794  30.508  1.00  0.00     0.134 A 
ATOM     80  F   UNL A   1      38.875  29.662  27.031  1.00  0.00    -0.206 F 
ATOM     81  C   UNL A   1      36.975  29.994  28.362  1.00  0.00     0.040 A 
ATOM     82  C   UNL A   1      36.972  29.258  30.656  1.00  0.00     0.040 A 
ATOM     83  F   UNL A   1      38.881  28.240  31.572  1.00  0.00    -0.206 F 
ATOM     84  C   UNL A   1      36.321  29.870  29.586  1.00  0.00     0.006 A 
ENDBRANCH  63  77
BRANCH  64  85
ATOM     85  C   UNL A   1      48.533  26.586  28.733  1.00  0.00     0.057 A 
ATOM     86  C   UNL A   1      49.129  26.323  29.970  1.00  0.00     0.134 A 
ATOM     87  C   UNL A   1      49.347  26.525  27.595  1.00  0.00     0.134 A 
ATOM     88  F   UNL A   1      48.401  26.392  31.093  1.00  0.00    -0.206 F 
ATOM     89  C   UNL A   1      50.489  26.026  30.078  1.00  0.00     0.040 A 
ATOM     90  C   UNL A   1      50.708  26.219  27.688  1.00  0.00     0.040 A 
ATOM     91  F   UNL A   1      48.837  26.780  26.381  1.00  0.00    -0.206 F 
ATOM     92  C   UNL A   1      51.282  25.972  28.933  1.00  0.00     0.006 A 
ENDBRANCH  64  85
BRANCH  76  93
ATOM     93  C   UNL A   1      42.724  23.097  27.241  1.00  0.00     0.057 A 
ATOM     94  C   UNL A   1      42.918  22.833  25.881  1.00  0.00     0.134 A 
ATOM     95  C   UNL A   1      42.313  22.035  28.057  1.00  0.00     0.134 A 
ATOM     96  F   UNL A   1      43.289  23.814  25.045  1.00  0.00    -0.206 F 
ATOM     97  C   UNL A   1      42.700  21.560  25.351  1.00  0.00     0.040 A 
ATOM     98  C   UNL A   1      42.111  20.754  27.543  1.00  0.00     0.040 A 
ATOM     99  F   UNL A   1      42.109  22.224  29.370  1.00  0.00    -0.206 F 
ATOM    100  C   UNL A   1      42.302  20.515  26.184  1.00  0.00     0.006 A 
ENDBRANCH  76  93
ENDBRANCH  50  51
ENDBRANCH  42  45
ENDBRANCH  40  41
ENDBRANCH  39  40
ENDBRANCH   1  39
TORSDOF 16
ENDMDL
MODEL 2
REMARK VINA RESULT:     -10.9      1.349      3.910
REMARK SMILES COc1cccc(C2=NN3[C@@H](c4ccc(OC)c(OC)c4C(=O)NCCCNC(=O)c4ccc(-c5c6nc(c(-c7c(F)cccc7F)c7ccc([nH]7)c(-c7c(F)cccc7F)c7nc(c(-c8c(F)cccc8F)c8ccc5[nH]8)C=C7)C=C6)cc4)Oc4c(OC)cccc4[C@@H]3C2)c1
REMARK SMILES IDX 25 1 24 2 22 3 23 4 21 6 12 7 13 8 14 9 18 10 15 11 11 12
REMARK SMILES IDX 8 13 9 14 95 15 10 16 94 17 93 18 85 19 86 20 92 21 87 22
REMARK SMILES IDX 91 23 90 24 7 25 3 26 4 27 96 28 5 29 6 30 2 31 1 32 88 33
REMARK SMILES IDX 89 34 19 35 20 36 16 37 17 38 26 39 27 40 28 41 29 42 30 44
REMARK SMILES IDX 31 45 32 46 84 47 33 48 83 49 34 50 35 51 36 52 77 53 37 54
REMARK SMILES IDX 82 55 76 56 78 57 38 58 81 59 75 60 74 61 39 63 65 64 48 65
REMARK SMILES IDX 64 66 49 67 52 68 63 69 79 70 50 71 51 72 62 74 80 75 53 76
REMARK SMILES IDX 40 77 41 78 46 79 42 80 43 81 45 82 47 83 44 84 66 85 67 86
REMARK SMILES IDX 72 87 68 88 69 89 71 90 73 91 70 92 54 93 55 94 60 95 56 96
REMARK SMILES IDX 57 97 59 98 61 99 58 100
REMARK H PARENT 24 5 28 43 78 62 52 73
REMARK Flexibility Score: inf
ROOT
ATOM      1  C   UNL A   1      42.640  36.428  36.006  1.00  0.00     0.118 C 
ENDROOT
BRANCH   1   2
ATOM      2  N   UNL A   1      41.568  35.514  36.420  1.00  0.00    -0.352 N 
ATOM      3  C   UNL A   1      40.237  35.867  36.510  1.00  0.00     0.255 C 
ATOM      4  O   UNL A   1      39.733  36.803  35.893  1.00  0.00    -0.269 OA
ATOM      5  H   UNL A   1      41.815  34.589  36.649  1.00  0.00     0.163 HD
BRANCH   3   6
ATOM      6  C   UNL A   1      39.445  35.065  37.495  1.00  0.00     0.094 A 
ATOM      7  C   UNL A   1      38.596  34.040  36.987  1.00  0.00     0.032 A 
ATOM      8  C   UNL A   1      37.824  33.285  37.884  1.00  0.00     0.014 A 
ATOM      9  C   UNL A   1      37.927  33.496  39.252  1.00  0.00     0.051 A 
ATOM     10  C   UNL A   1      39.579  35.248  38.891  1.00  0.00     0.173 A 
ATOM     11  C   UNL A   1      38.828  34.435  39.766  1.00  0.00     0.161 A 
BRANCH   7  12
ATOM     12  C   UNL A   1      38.626  33.621  35.529  1.00  0.00     0.321 C 
ATOM     13  C   UNL A   1      41.158  31.983  33.914  1.00  0.00     0.070 C 
ATOM     14  N   UNL A   1      40.506  32.123  35.033  1.00  0.00    -0.178 NA
ATOM     15  C   UNL A   1      41.329  33.268  33.150  1.00  0.00     0.090 C 
ATOM     16  N   UNL A   1      40.006  33.420  34.996  1.00  0.00    -0.246 NA
ATOM     17  C   UNL A   1      40.060  33.944  33.610  1.00  0.00     0.146 C 
ATOM     18  C   UNL A   1      38.779  33.593  32.876  1.00  0.00     0.023 A 
ATOM     19  O   UNL A   1      37.810  34.571  34.784  1.00  0.00    -0.460 OA
ATOM     20  C   UNL A   1      37.617  34.035  33.528  1.00  0.00     0.169 A 
ATOM     21  C   UNL A   1      38.653  32.864  31.692  1.00  0.00     0.010 A 
ATOM     22  C   UNL A   1      36.355  33.874  32.959  1.00  0.00     0.161 A 
ATOM     23  C   UNL A   1      37.384  32.611  31.164  1.00  0.00     0.004 A 
ATOM     24  C   UNL A   1      36.248  33.146  31.774  1.00  0.00     0.050 A 
BRANCH  13  25
ATOM     25  C   UNL A   1      41.606  30.689  33.368  1.00  0.00     0.001 A 
ATOM     26  C   UNL A   1      43.364  29.189  32.702  1.00  0.00     0.119 A 
ATOM     27  C   UNL A   1      42.414  28.177  32.637  1.00  0.00     0.046 A 
ATOM     28  C   UNL A   1      42.965  30.461  33.086  1.00  0.00     0.056 A 
ATOM     29  C   UNL A   1      41.075  28.377  32.922  1.00  0.00     0.005 A 
ATOM     30  C   UNL A   1      40.669  29.647  33.272  1.00  0.00     0.010 A 
BRANCH  26  31
ATOM     31  O   UNL A   1      44.604  28.750  32.351  1.00  0.00    -0.497 OA
ATOM     32  C   UNL A   1      44.764  27.398  31.975  1.00  0.00     0.278 C 
ENDBRANCH  26  31
ENDBRANCH  13  25
BRANCH  22  33
ATOM     33  O   UNL A   1      35.203  34.447  33.412  1.00  0.00    -0.493 OA
ATOM     34  C   UNL A   1      34.603  35.354  32.495  1.00  0.00     0.278 C 
ENDBRANCH  22  33
ENDBRANCH   7  12
BRANCH  10  35
ATOM     35  O   UNL A   1      40.475  36.115  39.458  1.00  0.00    -0.492 OA
ATOM     36  C   UNL A   1      41.696  35.546  39.910  1.00  0.00     0.278 C 
ENDBRANCH  10  35
BRANCH  11  37
ATOM     37  O   UNL A   1      38.812  34.458  41.137  1.00  0.00    -0.493 OA
ATOM     38  C   UNL A   1      37.552  34.557  41.783  1.00  0.00     0.278 C 
ENDBRANCH  11  37
ENDBRANCH   3   6
ENDBRANCH   1   2
BRANCH   1  39
ATOM     39  C   UNL A   1      43.417  35.793  34.841  1.00  0.00     0.042 C 
BRANCH  39  40
ATOM     40  C   UNL A   1      43.172  36.360  33.446  1.00  0.00     0.118 C 
BRANCH  40  41
ATOM     41  N   UNL A   1      44.345  36.932  32.802  1.00  0.00    -0.352 N 
ATOM     42  C   UNL A   1      45.192  36.431  31.832  1.00  0.00     0.251 C 
ATOM     43  H   UNL A   1      44.576  37.836  33.113  1.00  0.00     0.163 HD
ATOM     44  O   UNL A   1      46.165  37.115  31.512  1.00  0.00    -0.269 OA
BRANCH  42  45
ATOM     45  C   UNL A   1      45.015  35.095  31.175  1.00  0.00     0.039 A 
ATOM     46  C   UNL A   1      45.247  33.930  31.933  1.00  0.00     0.014 A 
ATOM     47  C   UNL A   1      44.676  34.936  29.835  1.00  0.00     0.014 A 
ATOM     48  C   UNL A   1      45.073  32.640  31.386  1.00  0.00     0.010 A 
ATOM     49  C   UNL A   1      44.419  33.660  29.317  1.00  0.00     0.010 A 
ATOM     50  C   UNL A   1      44.620  32.488  30.075  1.00  0.00    -0.014 A 
BRANCH  50  51
ATOM     51  C   UNL A   1      44.350  31.174  29.400  1.00  0.00     0.031 A 
ATOM     52  C   UNL A   1      42.943  30.640  29.417  1.00  0.00     0.074 A 
ATOM     53  C   UNL A   1      45.341  30.356  28.978  1.00  0.00     0.049 A 
ATOM     54  N   UNL A   1      42.511  29.422  29.207  1.00  0.00    -0.248 NA
ATOM     55  C   UNL A   1      41.881  31.613  29.722  1.00  0.00     0.031 C 
ATOM     56  C   UNL A   1      46.749  30.701  28.818  1.00  0.00     0.029 A 
ATOM     57  N   UNL A   1      45.321  28.994  28.756  1.00  0.00    -0.354 N 
ATOM     58  C   UNL A   1      41.131  29.496  29.314  1.00  0.00     0.074 A 
ATOM     59  C   UNL A   1      40.807  30.840  29.741  1.00  0.00     0.031 C 
ATOM     60  C   UNL A   1      47.481  29.574  28.782  1.00  0.00     0.029 A 
ATOM     61  C   UNL A   1      46.580  28.430  28.804  1.00  0.00     0.049 A 
ATOM     62  H   UNL A   1      44.499  28.480  28.584  1.00  0.00     0.167 HD
ATOM     63  C   UNL A   1      40.208  28.557  28.998  1.00  0.00     0.037 A 
ATOM     64  C   UNL A   1      46.967  27.142  28.877  1.00  0.00     0.037 A 
ATOM     65  C   UNL A   1      40.524  27.233  28.539  1.00  0.00     0.049 A 
ATOM     66  C   UNL A   1      45.946  26.063  28.676  1.00  0.00     0.074 A 
ATOM     67  C   UNL A   1      39.675  26.255  28.051  1.00  0.00     0.029 A 
ATOM     68  N   UNL A   1      41.802  26.698  28.523  1.00  0.00    -0.354 N 
ATOM     69  N   UNL A   1      44.643  26.166  28.619  1.00  0.00    -0.248 NA
ATOM     70  C   UNL A   1      46.457  24.705  28.443  1.00  0.00     0.031 C 
ATOM     71  C   UNL A   1      40.439  25.118  27.761  1.00  0.00     0.029 A 
ATOM     72  C   UNL A   1      41.765  25.397  28.051  1.00  0.00     0.049 A 
ATOM     73  H   UNL A   1      42.617  27.173  28.806  1.00  0.00     0.167 HD
ATOM     74  C   UNL A   1      44.185  24.916  28.229  1.00  0.00     0.074 A 
ATOM     75  C   UNL A   1      45.343  24.053  28.133  1.00  0.00     0.031 C 
ATOM     76  C   UNL A   1      42.919  24.545  27.921  1.00  0.00     0.037 A 
BRANCH  63  77
ATOM     77  C   UNL A   1      38.774  28.983  29.063  1.00  0.00     0.057 A 
ATOM     78  C   UNL A   1      38.160  29.614  27.969  1.00  0.00     0.134 A 
ATOM     79  C   UNL A   1      38.009  28.796  30.217  1.00  0.00     0.134 A 
ATOM     80  F   UNL A   1      38.848  29.834  26.839  1.00  0.00    -0.206 F 
ATOM     81  C   UNL A   1      36.850  30.086  28.040  1.00  0.00     0.040 A 
ATOM     82  C   UNL A   1      36.687  29.242  30.290  1.00  0.00     0.040 A 
ATOM     83  F   UNL A   1      38.535  28.198  31.296  1.00  0.00    -0.206 F 
ATOM     84  C   UNL A   1      36.110  29.899  29.204  1.00  0.00     0.006 A 
ENDBRANCH  63  77
BRANCH  64  85
ATOM     85  C   UNL A   1      48.397  26.791  29.060  1.00  0.00     0.057 A 
ATOM     86  C   UNL A   1      48.927  26.552  30.331  1.00  0.00     0.134 A 
ATOM     87  C   UNL A   1      49.273  26.730  27.970  1.00  0.00     0.134 A 
ATOM     88  F   UNL A   1      48.137  26.621  31.412  1.00  0.00    -0.206 F 
ATOM     89  C   UNL A   1      50.283  26.278  30.517  1.00  0.00     0.040 A 
ATOM     90  C   UNL A   1      50.631  26.448  28.142  1.00  0.00     0.040 A 
ATOM     91  F   UNL A   1      48.827  26.963  26.727  1.00  0.00    -0.206 F 
ATOM     92  C   UNL A   1      51.140  26.225  29.419  1.00  0.00     0.006 A 
ENDBRANCH  64  85
BRANCH  76  93
ATOM     93  C   UNL A   1      42.726  23.179  27.343  1.00  0.00     0.057 A 
ATOM     94  C   UNL A   1      42.322  22.087  28.118  1.00  0.00     0.134 A 
ATOM     95  C   UNL A   1      42.926  22.965  25.972  1.00  0.00     0.134 A 
ATOM     96  F   UNL A   1      42.137  22.224  29.440  1.00  0.00    -0.206 F 
ATOM     97  C   UNL A   1      42.132  20.826  27.551  1.00  0.00     0.040 A 
ATOM     98  C   UNL A   1      42.720  21.715  25.391  1.00  0.00     0.040 A 
ATOM     99  F   UNL A   1      43.315  23.973  25.175  1.00  0.00    -0.206 F 
ATOM    100  C   UNL A   1      42.324  20.639  26.183  1.00  0.00     0.006 A 
ENDBRANCH  76  93
ENDBRANCH  50  51
ENDBRANCH  42  45
ENDBRANCH  40  41
ENDBRANCH  39  40
ENDBRANCH   1  39
TORSDOF 16
ENDMDL
MODEL 3
REMARK VINA RESULT:     -10.8      1.423      2.432
REMARK SMILES COc1cccc(C2=NN3[C@@H](c4ccc(OC)c(OC)c4C(=O)NCCCNC(=O)c4ccc(-c5c6nc(c(-c7c(F)cccc7F)c7ccc([nH]7)c(-c7c(F)cccc7F)c7nc(c(-c8c(F)cccc8F)c8ccc5[nH]8)C=C7)C=C6)cc4)Oc4c(OC)cccc4[C@@H]3C2)c1
REMARK SMILES IDX 25 1 24 2 22 3 23 4 21 6 12 7 13 8 14 9 18 10 15 11 11 12
REMARK SMILES IDX 8 13 9 14 95 15 10 16 94 17 93 18 85 19 86 20 92 21 87 22
REMARK SMILES IDX 91 23 90 24 7 25 3 26 4 27 96 28 5 29 6 30 2 31 1 32 88 33
REMARK SMILES IDX 89 34 19 35 20 36 16 37 17 38 26 39 27 40 28 41 29 42 30 44
REMARK SMILES IDX 31 45 32 46 84 47 33 48 83 49 34 50 35 51 36 52 77 53 37 54
REMARK SMILES IDX 82 55 76 56 78 57 38 58 81 59 75 60 74 61 39 63 65 64 48 65
REMARK SMILES IDX 64 66 49 67 52 68 63 69 79 70 50 71 51 72 62 74 80 75 53 76
REMARK SMILES IDX 40 77 41 78 46 79 42 80 43 81 45 82 47 83 44 84 66 85 67 86
REMARK SMILES IDX 72 87 68 88 69 89 71 90 73 91 70 92 54 93 55 94 60 95 56 96
REMARK SMILES IDX 57 97 59 98 61 99 58 100
REMARK H PARENT 24 5 28 43 78 62 52 73
REMARK Flexibility Score: inf
ROOT
ATOM      1  C   UNL A   1      42.564  36.743  35.670  1.00  0.00     0.118 C 
ENDROOT
BRANCH   1   2
ATOM      2  N   UNL A   1      41.667  35.824  36.381  1.00  0.00    -0.352 N 
ATOM      3  C   UNL A   1      40.289  35.912  36.361  1.00  0.00     0.255 C 
ATOM      4  O   UNL A   1      39.651  36.466  35.468  1.00  0.00    -0.269 OA
ATOM      5  H   UNL A   1      42.074  35.097  36.906  1.00  0.00     0.163 HD
BRANCH   3   6
ATOM      6  C   UNL A   1      39.611  35.342  37.567  1.00  0.00     0.094 A 
ATOM      7  C   UNL A   1      39.136  34.001  37.491  1.00  0.00     0.032 A 
ATOM      8  C   UNL A   1      38.477  33.446  38.599  1.00  0.00     0.014 A 
ATOM      9  C   UNL A   1      38.337  34.173  39.772  1.00  0.00     0.051 A 
ATOM     10  C   UNL A   1      39.504  36.064  38.778  1.00  0.00     0.173 A 
ATOM     11  C   UNL A   1      38.883  35.456  39.889  1.00  0.00     0.161 A 
BRANCH   7  12
ATOM     12  C   UNL A   1      39.470  33.096  36.320  1.00  0.00     0.321 C 
ATOM     13  C   UNL A   1      37.657  32.705  33.445  1.00  0.00     0.070 C 
ATOM     14  N   UNL A   1      38.041  33.535  34.373  1.00  0.00    -0.178 NA
ATOM     15  C   UNL A   1      37.396  31.313  33.951  1.00  0.00     0.090 C 
ATOM     16  N   UNL A   1      38.283  32.739  35.487  1.00  0.00    -0.246 NA
ATOM     17  C   UNL A   1      38.400  31.319  35.080  1.00  0.00     0.146 C 
ATOM     18  C   UNL A   1      39.841  30.999  34.729  1.00  0.00     0.023 A 
ATOM     19  O   UNL A   1      40.219  31.961  36.843  1.00  0.00    -0.460 OA
ATOM     20  C   UNL A   1      40.750  31.296  35.758  1.00  0.00     0.169 A 
ATOM     21  C   UNL A   1      40.331  30.506  33.519  1.00  0.00     0.010 A 
ATOM     22  C   UNL A   1      42.105  30.992  35.644  1.00  0.00     0.161 A 
ATOM     23  C   UNL A   1      41.702  30.291  33.359  1.00  0.00     0.004 A 
ATOM     24  C   UNL A   1      42.576  30.496  34.429  1.00  0.00     0.050 A 
BRANCH  13  25
ATOM     25  C   UNL A   1      37.577  33.039  32.011  1.00  0.00     0.001 A 
ATOM     26  C   UNL A   1      36.302  33.666  30.071  1.00  0.00     0.119 A 
ATOM     27  C   UNL A   1      37.503  33.942  29.427  1.00  0.00     0.046 A 
ATOM     28  C   UNL A   1      36.332  33.223  31.386  1.00  0.00     0.056 A 
ATOM     29  C   UNL A   1      38.738  33.778  30.029  1.00  0.00     0.005 A 
ATOM     30  C   UNL A   1      38.772  33.306  31.323  1.00  0.00     0.010 A 
BRANCH  26  31
ATOM     31  O   UNL A   1      35.228  33.880  29.263  1.00  0.00    -0.497 OA
ATOM     32  C   UNL A   1      35.273  33.404  27.934  1.00  0.00     0.278 C 
ENDBRANCH  26  31
ENDBRANCH  13  25
BRANCH  22  33
ATOM     33  O   UNL A   1      43.017  31.050  36.657  1.00  0.00    -0.493 OA
ATOM     34  C   UNL A   1      44.174  30.250  36.446  1.00  0.00     0.278 C 
ENDBRANCH  22  33
ENDBRANCH   7  12
BRANCH  10  35
ATOM     35  O   UNL A   1      40.057  37.302  38.972  1.00  0.00    -0.492 OA
ATOM     36  C   UNL A   1      41.339  37.327  39.586  1.00  0.00     0.278 C 
ENDBRANCH  10  35
BRANCH  11  37
ATOM     37  O   UNL A   1      38.678  35.985  41.137  1.00  0.00    -0.493 OA
ATOM     38  C   UNL A   1      38.223  35.112  42.161  1.00  0.00     0.278 C 
ENDBRANCH  11  37
ENDBRANCH   3   6
ENDBRANCH   1   2
BRANCH   1  39
ATOM     39  C   UNL A   1      43.207  36.001  34.488  1.00  0.00     0.042 C 
BRANCH  39  40
ATOM     40  C   UNL A   1      43.530  36.819  33.241  1.00  0.00     0.118 C 
BRANCH  40  41
ATOM     41  N   UNL A   1      44.949  36.973  32.960  1.00  0.00    -0.352 N 
ATOM     42  C   UNL A   1      45.834  36.179  32.256  1.00  0.00     0.251 C 
ATOM     43  H   UNL A   1      45.350  37.788  33.339  1.00  0.00     0.163 HD
ATOM     44  O   UNL A   1      47.018  36.522  32.232  1.00  0.00    -0.269 OA
BRANCH  42  45
ATOM     45  C   UNL A   1      45.446  34.914  31.552  1.00  0.00     0.039 A 
ATOM     46  C   UNL A   1      45.255  34.946  30.156  1.00  0.00     0.014 A 
ATOM     47  C   UNL A   1      45.216  33.708  32.207  1.00  0.00     0.014 A 
ATOM     48  C   UNL A   1      44.915  33.787  29.425  1.00  0.00     0.010 A 
ATOM     49  C   UNL A   1      44.965  32.541  31.474  1.00  0.00     0.010 A 
ATOM     50  C   UNL A   1      44.801  32.556  30.073  1.00  0.00    -0.014 A 
BRANCH  50  51
ATOM     51  C   UNL A   1      44.494  31.249  29.400  1.00  0.00     0.031 A 
ATOM     52  C   UNL A   1      43.088  30.718  29.482  1.00  0.00     0.074 A 
ATOM     53  C   UNL A   1      45.460  30.432  28.924  1.00  0.00     0.049 A 
ATOM     54  N   UNL A   1      42.643  29.504  29.283  1.00  0.00    -0.248 NA
ATOM     55  C   UNL A   1      42.045  31.692  29.847  1.00  0.00     0.031 C 
ATOM     56  C   UNL A   1      46.860  30.774  28.698  1.00  0.00     0.029 A 
ATOM     57  N   UNL A   1      45.425  29.071  28.692  1.00  0.00    -0.354 N 
ATOM     58  C   UNL A   1      41.269  29.581  29.457  1.00  0.00     0.074 A 
ATOM     59  C   UNL A   1      40.971  30.922  29.911  1.00  0.00     0.031 C 
ATOM     60  C   UNL A   1      47.586  29.645  28.617  1.00  0.00     0.029 A 
ATOM     61  C   UNL A   1      46.683  28.504  28.673  1.00  0.00     0.049 A 
ATOM     62  H   UNL A   1      44.595  28.562  28.555  1.00  0.00     0.167 HD
ATOM     63  C   UNL A   1      40.329  28.647  29.179  1.00  0.00     0.037 A 
ATOM     64  C   UNL A   1      47.069  27.215  28.717  1.00  0.00     0.037 A 
ATOM     65  C   UNL A   1      40.618  27.326  28.694  1.00  0.00     0.049 A 
ATOM     66  C   UNL A   1      46.036  26.140  28.557  1.00  0.00     0.074 A 
ATOM     67  C   UNL A   1      39.743  26.355  28.240  1.00  0.00     0.029 A 
ATOM     68  N   UNL A   1      41.892  26.788  28.611  1.00  0.00    -0.354 N 
ATOM     69  N   UNL A   1      44.733  26.247  28.564  1.00  0.00    -0.248 NA
ATOM     70  C   UNL A   1      46.530  24.782  28.287  1.00  0.00     0.031 C 
ATOM     71  C   UNL A   1      40.489  25.218  27.904  1.00  0.00     0.029 A 
ATOM     72  C   UNL A   1      41.828  25.491  28.131  1.00  0.00     0.049 A 
ATOM     73  H   UNL A   1      42.721  27.258  28.858  1.00  0.00     0.167 HD
ATOM     74  C   UNL A   1      44.252  25.001  28.186  1.00  0.00     0.074 A 
ATOM     75  C   UNL A   1      45.401  24.136  28.027  1.00  0.00     0.031 C 
ATOM     76  C   UNL A   1      42.971  24.637  27.938  1.00  0.00     0.037 A 
BRANCH  63  77
ATOM     77  C   UNL A   1      38.901  29.077  29.318  1.00  0.00     0.057 A 
ATOM     78  C   UNL A   1      38.205  29.624  28.228  1.00  0.00     0.134 A 
ATOM     79  C   UNL A   1      38.225  28.977  30.536  1.00  0.00     0.134 A 
ATOM     80  F   UNL A   1      38.806  29.757  27.037  1.00  0.00    -0.206 F 
ATOM     81  C   UNL A   1      36.901  30.099  28.359  1.00  0.00     0.040 A 
ATOM     82  C   UNL A   1      36.909  29.427  30.673  1.00  0.00     0.040 A 
ATOM     83  F   UNL A   1      38.832  28.462  31.615  1.00  0.00    -0.206 F 
ATOM     84  C   UNL A   1      36.249  30.001  29.586  1.00  0.00     0.006 A 
ENDBRANCH  63  77
BRANCH  64  85
ATOM     85  C   UNL A   1      48.505  26.858  28.826  1.00  0.00     0.057 A 
ATOM     86  C   UNL A   1      49.314  26.754  27.691  1.00  0.00     0.134 A 
ATOM     87  C   UNL A   1      49.088  26.570  30.065  1.00  0.00     0.134 A 
ATOM     88  F   UNL A   1      48.800  26.995  26.476  1.00  0.00    -0.206 F 
ATOM     89  C   UNL A   1      50.651  26.362  27.779  1.00  0.00     0.040 A 
ATOM     90  C   UNL A   1      50.428  26.185  30.169  1.00  0.00     0.040 A 
ATOM     91  F   UNL A   1      48.361  26.639  31.190  1.00  0.00    -0.206 F 
ATOM     92  C   UNL A   1      51.212  26.077  29.023  1.00  0.00     0.006 A 
ENDBRANCH  64  85
BRANCH  76  93
ATOM     93  C   UNL A   1      42.746  23.276  27.358  1.00  0.00     0.057 A 
ATOM     94  C   UNL A   1      42.399  22.174  28.146  1.00  0.00     0.134 A 
ATOM     95  C   UNL A   1      42.854  23.079  25.975  1.00  0.00     0.134 A 
ATOM     96  F   UNL A   1      42.302  22.296  29.479  1.00  0.00    -0.206 F 
ATOM     97  C   UNL A   1      42.177  20.918  27.579  1.00  0.00     0.040 A 
ATOM     98  C   UNL A   1      42.615  21.834  25.394  1.00  0.00     0.040 A 
ATOM     99  F   UNL A   1      43.186  24.097  25.165  1.00  0.00    -0.206 F 
ATOM    100  C   UNL A   1      42.278  20.748  26.199  1.00  0.00     0.006 A 
ENDBRANCH  76  93
ENDBRANCH  50  51
ENDBRANCH  42  45
ENDBRANCH  40  41
ENDBRANCH  39  40
ENDBRANCH   1  39
TORSDOF 16
ENDMDL
