MODEL 1
REMARK VINA RESULT:     -11.4      0.000      0.000
REMARK SMILES C[C@@H](C(=O)NCCCNC(=O)c1ccc(-c2c3nc(c(-c4c(F)cccc4F)c4ccc([nH]4)c(-c4c(F)cccc4F)c4nc(c(-c5c(F)cccc5F)c5ccc2[nH]5)C=C4)C=C3)cc1)c1ccc(C[C@H]2CCCC2=O)cc1[N+](=O)[O-]
REMARK SMILES IDX 6 1 5 2 3 3 4 4 2 6 1 7 66 8 67 9 78 10 68 11 77 12 69 13
REMARK SMILES IDX 79 14 80 15 81 16 70 17 71 18 72 19 75 20 73 21 74 22 76 23
REMARK SMILES IDX 7 24 8 25 9 26 10 27 11 29 12 30 13 31 65 32 14 33 64 34
REMARK SMILES IDX 15 35 16 36 17 37 58 38 18 39 63 40 57 41 59 42 19 43 62 44
REMARK SMILES IDX 56 45 55 46 20 48 46 49 29 50 45 51 30 52 33 53 44 54 60 55
REMARK SMILES IDX 31 56 32 57 43 59 61 60 34 61 21 62 22 63 27 64 23 65 24 66
REMARK SMILES IDX 26 67 28 68 25 69 47 70 48 71 53 72 49 73 50 74 52 75 54 76
REMARK SMILES IDX 51 77 35 78 36 79 41 80 37 81 38 82 40 83 42 84 39 85
REMARK H PARENT 5 5 9 28 59 47 33 58
REMARK Flexibility Score: inf
ROOT
ATOM      1  C   UNL A   1      32.001  28.499  25.542  1.00  0.00     0.117 C 
ENDROOT
BRANCH   1   2
ATOM      2  N   UNL A   1      31.623  28.741  24.162  1.00  0.00    -0.356 N 
ATOM      3  C   UNL A   1      31.141  27.888  23.214  1.00  0.00     0.227 C 
ATOM      4  O   UNL A   1      30.942  28.369  22.097  1.00  0.00    -0.274 OA
ATOM      5  H   UNL A   1      31.732  29.673  23.862  1.00  0.00     0.163 HD
BRANCH   3   6
ATOM      6  C   UNL A   1      30.835  26.421  23.576  1.00  0.00     0.112 C 
ATOM      7  C   UNL A   1      29.669  26.297  24.558  1.00  0.00     0.023 C 
BRANCH   6   8
ATOM      8  C   UNL A   1      32.049  25.687  24.148  1.00  0.00     0.042 A 
ATOM      9  C   UNL A   1      31.994  25.217  25.474  1.00  0.00     0.012 A 
ATOM     10  C   UNL A   1      33.238  25.439  23.435  1.00  0.00     0.273 A 
ATOM     11  C   UNL A   1      33.086  24.586  26.074  1.00  0.00     0.004 A 
ATOM     12  C   UNL A   1      34.354  24.836  24.047  1.00  0.00     0.089 A 
ATOM     13  C   UNL A   1      34.291  24.427  25.383  1.00  0.00    -0.040 A 
BRANCH  10  14
ATOM     14  N   UNL A   1      33.362  25.745  22.013  1.00  0.00     0.063 N 
ATOM     15  O   UNL A   1      32.902  24.921  21.212  1.00  0.00    -0.258 OA
ATOM     16  O   UNL A   1      33.888  26.824  21.702  1.00  0.00    -0.258 OA
ENDBRANCH  10  14
BRANCH  13  17
ATOM     17  C   UNL A   1      35.492  23.824  26.070  1.00  0.00     0.047 C 
BRANCH  17  18
ATOM     18  C   UNL A   1      36.710  23.529  25.185  1.00  0.00     0.060 C 
ATOM     19  C   UNL A   1      38.080  23.888  25.769  1.00  0.00     0.012 C 
ATOM     20  C   UNL A   1      36.874  22.057  24.878  1.00  0.00     0.136 C 
ATOM     21  C   UNL A   1      38.655  22.595  26.336  1.00  0.00     0.009 C 
ATOM     22  C   UNL A   1      38.163  21.491  25.412  1.00  0.00     0.076 C 
ATOM     23  O   UNL A   1      36.051  21.399  24.250  1.00  0.00    -0.299 OA
ENDBRANCH  17  18
ENDBRANCH  13  17
ENDBRANCH   6   8
ENDBRANCH   3   6
ENDBRANCH   1   2
BRANCH   1  24
ATOM     24  C   UNL A   1      33.510  28.616  25.737  1.00  0.00     0.042 C 
BRANCH  24  25
ATOM     25  C   UNL A   1      33.941  28.675  27.198  1.00  0.00     0.118 C 
BRANCH  25  26
ATOM     26  N   UNL A   1      33.906  30.026  27.741  1.00  0.00    -0.352 N 
ATOM     27  C   UNL A   1      34.872  30.704  28.445  1.00  0.00     0.251 C 
ATOM     28  H   UNL A   1      33.073  30.525  27.579  1.00  0.00     0.163 HD
ATOM     29  O   UNL A   1      34.611  31.779  28.976  1.00  0.00    -0.269 OA
BRANCH  27  30
ATOM     30  C   UNL A   1      36.222  30.122  28.578  1.00  0.00     0.039 A 
ATOM     31  C   UNL A   1      37.103  30.187  27.495  1.00  0.00     0.014 A 
ATOM     32  C   UNL A   1      36.619  29.527  29.777  1.00  0.00     0.014 A 
ATOM     33  C   UNL A   1      38.411  29.718  27.638  1.00  0.00     0.010 A 
ATOM     34  C   UNL A   1      37.940  29.130  29.942  1.00  0.00     0.010 A 
ATOM     35  C   UNL A   1      38.848  29.220  28.875  1.00  0.00    -0.014 A 
BRANCH  35  36
ATOM     36  C   UNL A   1      40.242  28.763  29.096  1.00  0.00     0.031 A 
ATOM     37  C   UNL A   1      41.267  29.741  29.593  1.00  0.00     0.074 A 
ATOM     38  C   UNL A   1      40.611  27.520  28.734  1.00  0.00     0.049 A 
ATOM     39  N   UNL A   1      42.568  29.620  29.658  1.00  0.00    -0.248 NA
ATOM     40  C   UNL A   1      40.759  31.048  30.040  1.00  0.00     0.031 C 
ATOM     41  C   UNL A   1      39.717  26.490  28.207  1.00  0.00     0.029 A 
ATOM     42  N   UNL A   1      41.849  26.927  28.723  1.00  0.00    -0.354 N 
ATOM     43  C   UNL A   1      43.035  30.846  30.115  1.00  0.00     0.074 A 
ATOM     44  C   UNL A   1      41.883  31.708  30.271  1.00  0.00     0.031 C 
ATOM     45  C   UNL A   1      40.435  25.393  27.918  1.00  0.00     0.029 A 
ATOM     46  C   UNL A   1      41.844  25.659  28.195  1.00  0.00     0.049 A 
ATOM     47  H   UNL A   1      42.662  27.367  29.061  1.00  0.00     0.167 HD
ATOM     48  C   UNL A   1      44.308  31.215  30.392  1.00  0.00     0.037 A 
ATOM     49  C   UNL A   1      42.862  24.816  27.937  1.00  0.00     0.037 A 
ATOM     50  C   UNL A   1      45.445  30.343  30.263  1.00  0.00     0.049 A 
ATOM     51  C   UNL A   1      44.268  25.239  28.258  1.00  0.00     0.074 A 
ATOM     52  C   UNL A   1      46.767  30.595  30.579  1.00  0.00     0.029 A 
ATOM     53  N   UNL A   1      45.390  29.044  29.776  1.00  0.00    -0.354 N 
ATOM     54  N   UNL A   1      44.696  26.382  28.737  1.00  0.00    -0.248 NA
ATOM     55  C   UNL A   1      45.332  24.257  28.006  1.00  0.00     0.031 C 
ATOM     56  C   UNL A   1      47.519  29.464  30.246  1.00  0.00     0.029 A 
ATOM     57  C   UNL A   1      46.658  28.488  29.768  1.00  0.00     0.049 A 
ATOM     58  H   UNL A   1      44.570  28.585  29.481  1.00  0.00     0.167 HD
ATOM     59  C   UNL A   1      46.071  26.249  28.873  1.00  0.00     0.074 A 
ATOM     60  C   UNL A   1      46.408  24.913  28.425  1.00  0.00     0.031 C 
ATOM     61  C   UNL A   1      46.972  27.151  29.333  1.00  0.00     0.037 A 
BRANCH  48  62
ATOM     62  C   UNL A   1      44.529  32.627  30.849  1.00  0.00     0.057 A 
ATOM     63  C   UNL A   1      44.787  33.668  29.946  1.00  0.00     0.134 A 
ATOM     64  C   UNL A   1      44.491  32.950  32.212  1.00  0.00     0.134 A 
ATOM     65  F   UNL A   1      44.850  33.424  28.628  1.00  0.00    -0.206 F 
ATOM     66  C   UNL A   1      45.041  34.969  30.384  1.00  0.00     0.040 A 
ATOM     67  C   UNL A   1      44.712  34.254  32.659  1.00  0.00     0.040 A 
ATOM     68  F   UNL A   1      44.242  32.005  33.130  1.00  0.00    -0.206 F 
ATOM     69  C   UNL A   1      45.001  35.264  31.745  1.00  0.00     0.006 A 
ENDBRANCH  48  62
BRANCH  49  70
ATOM     70  C   UNL A   1      42.576  23.482  27.353  1.00  0.00     0.057 A 
ATOM     71  C   UNL A   1      42.232  22.399  28.168  1.00  0.00     0.134 A 
ATOM     72  C   UNL A   1      42.602  23.269  25.970  1.00  0.00     0.134 A 
ATOM     73  F   UNL A   1      42.206  22.539  29.502  1.00  0.00    -0.206 F 
ATOM     74  C   UNL A   1      41.928  21.148  27.629  1.00  0.00     0.040 A 
ATOM     75  C   UNL A   1      42.281  22.029  25.415  1.00  0.00     0.040 A 
ATOM     76  F   UNL A   1      42.915  24.273  25.136  1.00  0.00    -0.206 F 
ATOM     77  C   UNL A   1      41.945  20.963  26.248  1.00  0.00     0.006 A 
ENDBRANCH  49  70
BRANCH  61  78
ATOM     78  C   UNL A   1      48.404  26.716  29.425  1.00  0.00     0.057 A 
ATOM     79  C   UNL A   1      48.890  25.993  30.521  1.00  0.00     0.134 A 
ATOM     80  C   UNL A   1      49.286  26.955  28.363  1.00  0.00     0.134 A 
ATOM     81  F   UNL A   1      48.098  25.742  31.574  1.00  0.00    -0.206 F 
ATOM     82  C   UNL A   1      50.206  25.529  30.561  1.00  0.00     0.040 A 
ATOM     83  C   UNL A   1      50.597  26.478  28.381  1.00  0.00     0.040 A 
ATOM     84  F   UNL A   1      48.879  27.635  27.281  1.00  0.00    -0.206 F 
ATOM     85  C   UNL A   1      51.060  25.762  29.483  1.00  0.00     0.006 A 
ENDBRANCH  61  78
ENDBRANCH  35  36
ENDBRANCH  27  30
ENDBRANCH  25  26
ENDBRANCH  24  25
ENDBRANCH   1  24
TORSDOF 14
ENDMDL
MODEL 2
REMARK VINA RESULT:     -11.4      2.538      7.435
REMARK SMILES C[C@@H](C(=O)NCCCNC(=O)c1ccc(-c2c3nc(c(-c4c(F)cccc4F)c4ccc([nH]4)c(-c4c(F)cccc4F)c4nc(c(-c5c(F)cccc5F)c5ccc2[nH]5)C=C4)C=C3)cc1)c1ccc(C[C@H]2CCCC2=O)cc1[N+](=O)[O-]
REMARK SMILES IDX 6 1 5 2 3 3 4 4 2 6 1 7 66 8 67 9 78 10 68 11 77 12 69 13
REMARK SMILES IDX 79 14 80 15 81 16 70 17 71 18 72 19 75 20 73 21 74 22 76 23
REMARK SMILES IDX 7 24 8 25 9 26 10 27 11 29 12 30 13 31 65 32 14 33 64 34
REMARK SMILES IDX 15 35 16 36 17 37 58 38 18 39 63 40 57 41 59 42 19 43 62 44
REMARK SMILES IDX 56 45 55 46 20 48 46 49 29 50 45 51 30 52 33 53 44 54 60 55
REMARK SMILES IDX 31 56 32 57 43 59 61 60 34 61 21 62 22 63 27 64 23 65 24 66
REMARK SMILES IDX 26 67 28 68 25 69 47 70 48 71 53 72 49 73 50 74 52 75 54 76
REMARK SMILES IDX 51 77 35 78 36 79 41 80 37 81 38 82 40 83 42 84 39 85
REMARK H PARENT 5 5 9 28 59 47 33 58
REMARK Flexibility Score: inf
ROOT
ATOM      1  C   UNL A   1      36.389  19.718  25.001  1.00  0.00     0.117 C 
ENDROOT
BRANCH   1   2
ATOM      2  N   UNL A   1      36.001  20.894  25.758  1.00  0.00    -0.356 N 
ATOM      3  C   UNL A   1      35.540  22.105  25.337  1.00  0.00     0.227 C 
ATOM      4  O   UNL A   1      35.326  22.944  26.214  1.00  0.00    -0.274 OA
ATOM      5  H   UNL A   1      36.085  20.801  26.735  1.00  0.00     0.163 HD
BRANCH   3   6
ATOM      6  C   UNL A   1      35.274  22.354  23.839  1.00  0.00     0.112 C 
ATOM      7  C   UNL A   1      36.479  22.976  23.130  1.00  0.00     0.023 C 
BRANCH   6   8
ATOM      8  C   UNL A   1      34.044  23.231  23.595  1.00  0.00     0.042 A 
ATOM      9  C   UNL A   1      34.226  24.612  23.386  1.00  0.00     0.012 A 
ATOM     10  C   UNL A   1      32.720  22.752  23.559  1.00  0.00     0.273 A 
ATOM     11  C   UNL A   1      33.144  25.475  23.209  1.00  0.00     0.004 A 
ATOM     12  C   UNL A   1      31.623  23.624  23.418  1.00  0.00     0.089 A 
ATOM     13  C   UNL A   1      31.830  24.999  23.266  1.00  0.00    -0.040 A 
BRANCH  10  14
ATOM     14  N   UNL A   1      32.414  21.325  23.615  1.00  0.00     0.063 N 
ATOM     15  O   UNL A   1      32.408  20.789  24.731  1.00  0.00    -0.258 OA
ATOM     16  O   UNL A   1      32.147  20.754  22.548  1.00  0.00    -0.258 OA
ENDBRANCH  10  14
BRANCH  13  17
ATOM     17  C   UNL A   1      30.665  25.954  23.164  1.00  0.00     0.047 C 
BRANCH  17  18
ATOM     18  C   UNL A   1      30.232  26.647  24.462  1.00  0.00     0.060 C 
ATOM     19  C   UNL A   1      30.383  25.834  25.752  1.00  0.00     0.012 C 
ATOM     20  C   UNL A   1      31.045  27.883  24.772  1.00  0.00     0.136 C 
ATOM     21  C   UNL A   1      31.690  26.288  26.392  1.00  0.00     0.009 C 
ATOM     22  C   UNL A   1      31.812  27.769  26.063  1.00  0.00     0.076 C 
ATOM     23  O   UNL A   1      31.068  28.879  24.054  1.00  0.00    -0.299 OA
ENDBRANCH  17  18
ENDBRANCH  13  17
ENDBRANCH   6   8
ENDBRANCH   3   6
ENDBRANCH   1   2
BRANCH   1  24
ATOM     24  C   UNL A   1      37.862  19.766  24.609  1.00  0.00     0.042 C 
BRANCH  24  25
ATOM     25  C   UNL A   1      38.806  20.000  25.782  1.00  0.00     0.118 C 
BRANCH  25  26
ATOM     26  N   UNL A   1      39.956  19.107  25.766  1.00  0.00    -0.352 N 
ATOM     27  C   UNL A   1      41.283  19.396  25.976  1.00  0.00     0.251 C 
ATOM     28  H   UNL A   1      39.755  18.162  25.577  1.00  0.00     0.163 HD
ATOM     29  O   UNL A   1      42.144  18.550  25.757  1.00  0.00    -0.269 OA
BRANCH  27  30
ATOM     30  C   UNL A   1      41.671  20.739  26.451  1.00  0.00     0.039 A 
ATOM     31  C   UNL A   1      41.856  20.953  27.820  1.00  0.00     0.014 A 
ATOM     32  C   UNL A   1      41.866  21.780  25.540  1.00  0.00     0.014 A 
ATOM     33  C   UNL A   1      42.307  22.196  28.271  1.00  0.00     0.010 A 
ATOM     34  C   UNL A   1      42.386  22.990  25.982  1.00  0.00     0.010 A 
ATOM     35  C   UNL A   1      42.610  23.210  27.351  1.00  0.00    -0.014 A 
BRANCH  35  36
ATOM     36  C   UNL A   1      43.147  24.528  27.773  1.00  0.00     0.031 A 
ATOM     37  C   UNL A   1      42.195  25.613  28.187  1.00  0.00     0.074 A 
ATOM     38  C   UNL A   1      44.463  24.787  27.665  1.00  0.00     0.049 A 
ATOM     39  N   UNL A   1      42.422  26.885  28.389  1.00  0.00    -0.248 NA
ATOM     40  C   UNL A   1      40.787  25.217  28.354  1.00  0.00     0.031 C 
ATOM     41  C   UNL A   1      45.484  23.827  27.243  1.00  0.00     0.029 A 
ATOM     42  N   UNL A   1      45.161  25.951  27.868  1.00  0.00    -0.354 N 
ATOM     43  C   UNL A   1      41.183  27.446  28.670  1.00  0.00     0.074 A 
ATOM     44  C   UNL A   1      40.204  26.385  28.571  1.00  0.00     0.031 C 
ATOM     45  C   UNL A   1      46.677  24.443  27.212  1.00  0.00     0.029 A 
ATOM     46  C   UNL A   1      46.497  25.848  27.567  1.00  0.00     0.049 A 
ATOM     47  H   UNL A   1      44.744  26.779  28.198  1.00  0.00     0.167 HD
ATOM     48  C   UNL A   1      40.890  28.728  28.995  1.00  0.00     0.037 A 
ATOM     49  C   UNL A   1      47.463  26.785  27.550  1.00  0.00     0.037 A 
ATOM     50  C   UNL A   1      41.874  29.771  29.121  1.00  0.00     0.049 A 
ATOM     51  C   UNL A   1      47.122  28.202  27.920  1.00  0.00     0.074 A 
ATOM     52  C   UNL A   1      41.692  31.086  29.508  1.00  0.00     0.029 A 
ATOM     53  N   UNL A   1      43.228  29.612  28.861  1.00  0.00    -0.354 N 
ATOM     54  N   UNL A   1      45.957  28.714  28.234  1.00  0.00    -0.248 NA
ATOM     55  C   UNL A   1      48.228  29.170  27.939  1.00  0.00     0.031 C 
ATOM     56  C   UNL A   1      42.930  31.734  29.443  1.00  0.00     0.029 A 
ATOM     57  C   UNL A   1      43.891  30.810  29.062  1.00  0.00     0.049 A 
ATOM     58  H   UNL A   1      43.654  28.771  28.575  1.00  0.00     0.167 HD
ATOM     59  C   UNL A   1      46.191  30.053  28.515  1.00  0.00     0.074 A 
ATOM     60  C   UNL A   1      47.610  30.276  28.335  1.00  0.00     0.031 C 
ATOM     61  C   UNL A   1      45.308  31.010  28.894  1.00  0.00     0.037 A 
BRANCH  48  62
ATOM     62  C   UNL A   1      39.446  29.065  29.221  1.00  0.00     0.057 A 
ATOM     63  C   UNL A   1      38.861  29.011  30.493  1.00  0.00     0.134 A 
ATOM     64  C   UNL A   1      38.625  29.441  28.149  1.00  0.00     0.134 A 
ATOM     65  F   UNL A   1      39.587  28.645  31.560  1.00  0.00    -0.206 F 
ATOM     66  C   UNL A   1      37.503  29.277  30.685  1.00  0.00     0.040 A 
ATOM     67  C   UNL A   1      37.275  29.740  28.334  1.00  0.00     0.040 A 
ATOM     68  F   UNL A   1      39.121  29.520  26.905  1.00  0.00    -0.206 F 
ATOM     69  C   UNL A   1      36.708  29.646  29.603  1.00  0.00     0.006 A 
ENDBRANCH  48  62
BRANCH  49  70
ATOM     70  C   UNL A   1      48.848  26.401  27.179  1.00  0.00     0.057 A 
ATOM     71  C   UNL A   1      49.760  25.972  28.150  1.00  0.00     0.134 A 
ATOM     72  C   UNL A   1      49.279  26.418  25.848  1.00  0.00     0.134 A 
ATOM     73  F   UNL A   1      49.408  25.950  29.444  1.00  0.00    -0.206 F 
ATOM     74  C   UNL A   1      51.054  25.576  27.810  1.00  0.00     0.040 A 
ATOM     75  C   UNL A   1      50.564  26.005  25.491  1.00  0.00     0.040 A 
ATOM     76  F   UNL A   1      48.447  26.810  24.872  1.00  0.00    -0.206 F 
ATOM     77  C   UNL A   1      51.457  25.585  26.476  1.00  0.00     0.006 A 
ENDBRANCH  49  70
BRANCH  61  78
ATOM     78  C   UNL A   1      45.851  32.376  29.189  1.00  0.00     0.057 A 
ATOM     79  C   UNL A   1      46.343  32.721  30.453  1.00  0.00     0.134 A 
ATOM     80  C   UNL A   1      45.955  33.331  28.169  1.00  0.00     0.134 A 
ATOM     81  F   UNL A   1      46.262  31.854  31.473  1.00  0.00    -0.206 F 
ATOM     82  C   UNL A   1      46.914  33.971  30.695  1.00  0.00     0.040 A 
ATOM     83  C   UNL A   1      46.544  34.576  28.392  1.00  0.00     0.040 A 
ATOM     84  F   UNL A   1      45.509  33.059  26.933  1.00  0.00    -0.206 F 
ATOM     85  C   UNL A   1      47.026  34.899  29.660  1.00  0.00     0.006 A 
ENDBRANCH  61  78
ENDBRANCH  35  36
ENDBRANCH  27  30
ENDBRANCH  25  26
ENDBRANCH  24  25
ENDBRANCH   1  24
TORSDOF 14
ENDMDL
MODEL 3
REMARK VINA RESULT:     -11.2      3.969      7.689
REMARK SMILES C[C@@H](C(=O)NCCCNC(=O)c1ccc(-c2c3nc(c(-c4c(F)cccc4F)c4ccc([nH]4)c(-c4c(F)cccc4F)c4nc(c(-c5c(F)cccc5F)c5ccc2[nH]5)C=C4)C=C3)cc1)c1ccc(C[C@H]2CCCC2=O)cc1[N+](=O)[O-]
REMARK SMILES IDX 6 1 5 2 3 3 4 4 2 6 1 7 66 8 67 9 78 10 68 11 77 12 69 13
REMARK SMILES IDX 79 14 80 15 81 16 70 17 71 18 72 19 75 20 73 21 74 22 76 23
REMARK SMILES IDX 7 24 8 25 9 26 10 27 11 29 12 30 13 31 65 32 14 33 64 34
REMARK SMILES IDX 15 35 16 36 17 37 58 38 18 39 63 40 57 41 59 42 19 43 62 44
REMARK SMILES IDX 56 45 55 46 20 48 46 49 29 50 45 51 30 52 33 53 44 54 60 55
REMARK SMILES IDX 31 56 32 57 43 59 61 60 34 61 21 62 22 63 27 64 23 65 24 66
REMARK SMILES IDX 26 67 28 68 25 69 47 70 48 71 53 72 49 73 50 74 52 75 54 76
REMARK SMILES IDX 51 77 35 78 36 79 41 80 37 81 38 82 40 83 42 84 39 85
REMARK H PARENT 5 5 9 28 59 47 33 58
REMARK Flexibility Score: inf
ROOT
ATOM      1  C   UNL A   1      31.032  30.830  25.173  1.00  0.00     0.117 C 
ENDROOT
BRANCH   1   2
ATOM      2  N   UNL A   1      32.232  30.032  25.004  1.00  0.00    -0.356 N 
ATOM      3  C   UNL A   1      32.518  28.765  25.418  1.00  0.00     0.227 C 
ATOM      4  O   UNL A   1      33.649  28.349  25.165  1.00  0.00    -0.274 OA
ATOM      5  H   UNL A   1      32.958  30.478  24.510  1.00  0.00     0.163 HD
BRANCH   3   6
ATOM      6  C   UNL A   1      31.437  27.918  26.120  1.00  0.00     0.112 C 
ATOM      7  C   UNL A   1      31.571  27.955  27.644  1.00  0.00     0.023 C 
BRANCH   6   8
ATOM      8  C   UNL A   1      31.433  26.461  25.655  1.00  0.00     0.042 A 
ATOM      9  C   UNL A   1      32.100  25.497  26.436  1.00  0.00     0.012 A 
ATOM     10  C   UNL A   1      30.798  26.001  24.485  1.00  0.00     0.273 A 
ATOM     11  C   UNL A   1      32.178  24.161  26.041  1.00  0.00     0.004 A 
ATOM     12  C   UNL A   1      30.905  24.661  24.064  1.00  0.00     0.089 A 
ATOM     13  C   UNL A   1      31.620  23.736  24.832  1.00  0.00    -0.040 A 
BRANCH  10  14
ATOM     14  N   UNL A   1      29.953  26.872  23.673  1.00  0.00     0.063 N 
ATOM     15  O   UNL A   1      28.732  26.825  23.871  1.00  0.00    -0.258 OA
ATOM     16  O   UNL A   1      30.515  27.624  22.864  1.00  0.00    -0.258 OA
ENDBRANCH  10  14
BRANCH  13  17
ATOM     17  C   UNL A   1      31.788  22.308  24.372  1.00  0.00     0.047 C 
BRANCH  17  18
ATOM     18  C   UNL A   1      33.078  21.981  23.609  1.00  0.00     0.060 C 
ATOM     19  C   UNL A   1      33.589  23.056  22.643  1.00  0.00     0.012 C 
ATOM     20  C   UNL A   1      34.269  21.784  24.519  1.00  0.00     0.136 C 
ATOM     21  C   UNL A   1      34.674  23.821  23.392  1.00  0.00     0.009 C 
ATOM     22  C   UNL A   1      35.361  22.792  24.278  1.00  0.00     0.076 C 
ATOM     23  O   UNL A   1      34.342  20.890  25.357  1.00  0.00    -0.299 OA
ENDBRANCH  17  18
ENDBRANCH  13  17
ENDBRANCH   6   8
ENDBRANCH   3   6
ENDBRANCH   1   2
BRANCH   1  24
ATOM     24  C   UNL A   1      31.063  31.617  26.479  1.00  0.00     0.042 C 
BRANCH  24  25
ATOM     25  C   UNL A   1      32.399  32.295  26.760  1.00  0.00     0.118 C 
BRANCH  25  26
ATOM     26  N   UNL A   1      32.245  33.641  27.294  1.00  0.00    -0.352 N 
ATOM     27  C   UNL A   1      32.975  34.277  28.269  1.00  0.00     0.251 C 
ATOM     28  H   UNL A   1      31.513  34.171  26.901  1.00  0.00     0.163 HD
ATOM     29  O   UNL A   1      32.601  35.355  28.719  1.00  0.00    -0.269 OA
BRANCH  27  30
ATOM     30  C   UNL A   1      34.205  33.646  28.787  1.00  0.00     0.039 A 
ATOM     31  C   UNL A   1      35.445  34.057  28.289  1.00  0.00     0.014 A 
ATOM     32  C   UNL A   1      34.131  32.662  29.775  1.00  0.00     0.014 A 
ATOM     33  C   UNL A   1      36.619  33.529  28.835  1.00  0.00     0.010 A 
ATOM     34  C   UNL A   1      35.298  32.194  30.368  1.00  0.00     0.010 A 
ATOM     35  C   UNL A   1      36.551  32.622  29.902  1.00  0.00    -0.014 A 
BRANCH  35  36
ATOM     36  C   UNL A   1      37.768  32.077  30.555  1.00  0.00     0.031 A 
ATOM     37  C   UNL A   1      38.543  30.987  29.874  1.00  0.00     0.074 A 
ATOM     38  C   UNL A   1      38.097  32.466  31.801  1.00  0.00     0.049 A 
ATOM     39  N   UNL A   1      39.499  30.228  30.345  1.00  0.00    -0.248 NA
ATOM     40  C   UNL A   1      38.160  30.683  28.486  1.00  0.00     0.031 C 
ATOM     41  C   UNL A   1      37.403  33.490  32.580  1.00  0.00     0.029 A 
ATOM     42  N   UNL A   1      39.084  32.015  32.643  1.00  0.00    -0.354 N 
ATOM     43  C   UNL A   1      39.805  29.336  29.325  1.00  0.00     0.074 A 
ATOM     44  C   UNL A   1      38.905  29.620  28.229  1.00  0.00     0.031 C 
ATOM     45  C   UNL A   1      37.980  33.586  33.789  1.00  0.00     0.029 A 
ATOM     46  C   UNL A   1      39.053  32.600  33.885  1.00  0.00     0.049 A 
ATOM     47  H   UNL A   1      39.749  31.339  32.381  1.00  0.00     0.167 HD
ATOM     48  C   UNL A   1      40.759  28.374  29.302  1.00  0.00     0.037 A 
ATOM     49  C   UNL A   1      39.786  32.351  34.986  1.00  0.00     0.037 A 
ATOM     50  C   UNL A   1      41.669  28.117  30.386  1.00  0.00     0.049 A 
ATOM     51  C   UNL A   1      40.846  31.285  34.940  1.00  0.00     0.074 A 
ATOM     52  C   UNL A   1      42.713  27.213  30.440  1.00  0.00     0.029 A 
ATOM     53  N   UNL A   1      41.641  28.771  31.610  1.00  0.00    -0.354 N 
ATOM     54  N   UNL A   1      41.162  30.480  33.955  1.00  0.00    -0.248 NA
ATOM     55  C   UNL A   1      41.652  31.096  36.154  1.00  0.00     0.031 C 
ATOM     56  C   UNL A   1      43.292  27.290  31.711  1.00  0.00     0.029 A 
ATOM     57  C   UNL A   1      42.639  28.278  32.432  1.00  0.00     0.049 A 
ATOM     58  H   UNL A   1      41.005  29.482  31.857  1.00  0.00     0.167 HD
ATOM     59  C   UNL A   1      42.221  29.709  34.417  1.00  0.00     0.074 A 
ATOM     60  C   UNL A   1      42.494  30.143  35.771  1.00  0.00     0.031 C 
ATOM     61  C   UNL A   1      42.907  28.733  33.773  1.00  0.00     0.037 A 
BRANCH  48  62
ATOM     62  C   UNL A   1      40.848  27.527  28.067  1.00  0.00     0.057 A 
ATOM     63  C   UNL A   1      40.169  26.306  27.954  1.00  0.00     0.134 A 
ATOM     64  C   UNL A   1      41.630  27.933  26.978  1.00  0.00     0.134 A 
ATOM     65  F   UNL A   1      39.414  25.851  28.965  1.00  0.00    -0.206 F 
ATOM     66  C   UNL A   1      40.299  25.500  26.820  1.00  0.00     0.040 A 
ATOM     67  C   UNL A   1      41.741  27.151  25.827  1.00  0.00     0.040 A 
ATOM     68  F   UNL A   1      42.300  29.095  27.016  1.00  0.00    -0.206 F 
ATOM     69  C   UNL A   1      41.085  25.925  25.752  1.00  0.00     0.006 A 
ENDBRANCH  48  62
BRANCH  49  70
ATOM     70  C   UNL A   1      39.545  33.140  36.219  1.00  0.00     0.057 A 
ATOM     71  C   UNL A   1      40.181  34.369  36.423  1.00  0.00     0.134 A 
ATOM     72  C   UNL A   1      38.647  32.705  37.201  1.00  0.00     0.134 A 
ATOM     73  F   UNL A   1      41.063  34.830  35.524  1.00  0.00    -0.206 F 
ATOM     74  C   UNL A   1      39.937  35.137  37.563  1.00  0.00     0.040 A 
ATOM     75  C   UNL A   1      38.377  33.472  38.336  1.00  0.00     0.040 A 
ATOM     76  F   UNL A   1      37.999  31.540  37.057  1.00  0.00    -0.206 F 
ATOM     77  C   UNL A   1      39.026  34.691  38.520  1.00  0.00     0.006 A 
ENDBRANCH  49  70
BRANCH  61  78
ATOM     78  C   UNL A   1      44.054  28.097  34.500  1.00  0.00     0.057 A 
ATOM     79  C   UNL A   1      45.341  28.646  34.478  1.00  0.00     0.134 A 
ATOM     80  C   UNL A   1      43.844  26.964  35.298  1.00  0.00     0.134 A 
ATOM     81  F   UNL A   1      45.608  29.723  33.725  1.00  0.00    -0.206 F 
ATOM     82  C   UNL A   1      46.383  28.086  35.220  1.00  0.00     0.040 A 
ATOM     83  C   UNL A   1      44.872  26.409  36.061  1.00  0.00     0.040 A 
ATOM     84  F   UNL A   1      42.631  26.396  35.368  1.00  0.00    -0.206 F 
ATOM     85  C   UNL A   1      46.146  26.971  36.023  1.00  0.00     0.006 A 
ENDBRANCH  61  78
ENDBRANCH  35  36
ENDBRANCH  27  30
ENDBRANCH  25  26
ENDBRANCH  24  25
ENDBRANCH   1  24
TORSDOF 14
ENDMDL
