MODEL 1
REMARK VINA RESULT:      -8.4      0.000      0.000
REMARK SMILES CCCCCCOC(=O)Nc1cccc(-c2ccc([C@@H](C)C(=O)NCCCNC(=O)c3ccc(-c4c5nc(c(-c6c(F)cccc6F)c6ccc([nH]6)c(-c6c(F)cccc6F)c6nc(c(-c7c(F)cccc7F)c7ccc4[nH]7)C=C6)C=C5)cc3)cc2F)c1
REMARK SMILES IDX 16 1 17 2 18 3 19 4 85 5 86 6 87 7 15 8 11 9 12 10 88 11
REMARK SMILES IDX 13 12 14 13 10 14 8 15 9 16 7 18 6 19 5 20 4 21 3 22 2 23
REMARK SMILES IDX 1 24 20 25 21 26 22 27 23 28 24 29 25 31 26 32 27 33 28 34
REMARK SMILES IDX 29 35 30 37 31 38 32 39 84 40 33 41 83 42 34 43 35 44 36 45
REMARK SMILES IDX 77 46 37 47 82 48 76 49 78 50 38 51 81 52 75 53 74 54 39 56
REMARK SMILES IDX 65 57 48 58 64 59 49 60 52 61 63 62 79 63 50 64 51 65 62 67
REMARK SMILES IDX 80 68 53 69 40 70 41 71 46 72 42 73 43 74 45 75 47 76 44 77
REMARK SMILES IDX 66 78 67 79 72 80 68 81 69 82 71 83 73 84 70 85 54 86 55 87
REMARK SMILES IDX 60 88 56 89 57 90 59 91 61 92 58 93
REMARK H PARENT 10 17 24 30 28 36 78 55 52 66
REMARK Flexibility Score: inf
ROOT
ATOM      1  C   UNL A   1      41.128  28.243  27.543  1.00  0.00     0.018 A 
ATOM      2  C   UNL A   1      40.132  28.894  26.800  1.00  0.00     0.012 A 
ATOM      3  C   UNL A   1      39.047  29.523  27.424  1.00  0.00     0.005 A 
ATOM      4  C   UNL A   1      38.875  29.470  28.811  1.00  0.00    -0.033 A 
ATOM      5  C   UNL A   1      39.880  28.851  29.564  1.00  0.00     0.044 A 
ATOM      6  C   UNL A   1      40.988  28.274  28.941  1.00  0.00     0.131 A 
ATOM      7  F   UNL A   1      41.931  27.741  29.734  1.00  0.00    -0.206 F 
ENDROOT
BRANCH   1   8
ATOM      8  C   UNL A   1      42.254  27.555  26.878  1.00  0.00    -0.013 A 
ATOM      9  C   UNL A   1      43.073  25.765  25.418  1.00  0.00     0.045 A 
ATOM     10  C   UNL A   1      44.389  26.113  25.709  1.00  0.00     0.026 A 
ATOM     11  C   UNL A   1      42.023  26.495  25.985  1.00  0.00     0.035 A 
ATOM     12  C   UNL A   1      44.648  27.207  26.532  1.00  0.00     0.003 A 
ATOM     13  C   UNL A   1      43.592  27.912  27.118  1.00  0.00     0.009 A 
BRANCH   9  14
ATOM     14  N   UNL A   1      42.835  24.612  24.660  1.00  0.00    -0.291 N 
ATOM     15  C   UNL A   1      43.375  23.366  24.848  1.00  0.00     0.411 C 
ATOM     16  O   UNL A   1      43.492  22.581  23.924  1.00  0.00    -0.224 OA
ATOM     17  H   UNL A   1      42.209  24.706  23.906  1.00  0.00     0.173 HD
BRANCH  15  18
ATOM     18  O   UNL A   1      43.619  23.092  26.157  1.00  0.00    -0.449 OA
BRANCH  18  19
ATOM     19  C   UNL A   1      42.996  21.933  26.733  1.00  0.00     0.235 C 
BRANCH  19  20
ATOM     20  C   UNL A   1      41.918  22.303  27.758  1.00  0.00     0.042 C 
BRANCH  20  21
ATOM     21  C   UNL A   1      42.424  22.943  29.056  1.00  0.00     0.003 C 
BRANCH  21  22
ATOM     22  C   UNL A   1      42.481  24.476  29.046  1.00  0.00    -0.000 C 
BRANCH  22  23
ATOM     23  C   UNL A   1      43.821  25.077  29.467  1.00  0.00    -0.003 C 
ATOM     24  C   UNL A   1      45.007  24.258  28.984  1.00  0.00     0.004 C 
ENDBRANCH  22  23
ENDBRANCH  21  22
ENDBRANCH  20  21
ENDBRANCH  19  20
ENDBRANCH  18  19
ENDBRANCH  15  18
ENDBRANCH   9  14
ENDBRANCH   1   8
BRANCH   4  25
ATOM     25  C   UNL A   1      37.646  30.013  29.521  1.00  0.00     0.105 C 
ATOM     26  C   UNL A   1      37.048  29.107  30.595  1.00  0.00     0.023 C 
BRANCH  25  27
ATOM     27  C   UNL A   1      37.780  31.487  29.931  1.00  0.00     0.227 C 
ATOM     28  O   UNL A   1      38.814  32.111  29.663  1.00  0.00    -0.274 OA
ATOM     29  N   UNL A   1      36.815  32.185  30.589  1.00  0.00    -0.356 N 
ATOM     30  H   UNL A   1      37.032  33.135  30.730  1.00  0.00     0.163 HD
BRANCH  29  31
ATOM     31  C   UNL A   1      35.526  31.789  31.120  1.00  0.00     0.117 C 
BRANCH  31  32
ATOM     32  C   UNL A   1      35.173  32.533  32.406  1.00  0.00     0.042 C 
BRANCH  32  33
ATOM     33  C   UNL A   1      36.296  33.410  32.949  1.00  0.00     0.118 C 
BRANCH  33  34
ATOM     34  N   UNL A   1      36.500  33.217  34.377  1.00  0.00    -0.352 N 
ATOM     35  C   UNL A   1      37.428  32.485  35.071  1.00  0.00     0.251 C 
ATOM     36  H   UNL A   1      35.858  33.699  34.946  1.00  0.00     0.163 HD
ATOM     37  O   UNL A   1      37.252  32.305  36.274  1.00  0.00    -0.269 OA
BRANCH  35  38
ATOM     38  C   UNL A   1      38.625  31.903  34.416  1.00  0.00     0.039 A 
ATOM     39  C   UNL A   1      38.439  30.815  33.556  1.00  0.00     0.014 A 
ATOM     40  C   UNL A   1      39.922  32.345  34.691  1.00  0.00     0.014 A 
ATOM     41  C   UNL A   1      39.538  30.205  32.948  1.00  0.00     0.010 A 
ATOM     42  C   UNL A   1      41.013  31.791  34.018  1.00  0.00     0.010 A 
ATOM     43  C   UNL A   1      40.834  30.705  33.150  1.00  0.00    -0.014 A 
BRANCH  43  44
ATOM     44  C   UNL A   1      41.992  30.091  32.451  1.00  0.00     0.031 A 
ATOM     45  C   UNL A   1      42.599  30.740  31.237  1.00  0.00     0.074 A 
ATOM     46  C   UNL A   1      42.494  28.927  32.911  1.00  0.00     0.049 A 
ATOM     47  N   UNL A   1      43.643  30.371  30.537  1.00  0.00    -0.248 NA
ATOM     48  C   UNL A   1      41.934  31.949  30.725  1.00  0.00     0.031 C 
ATOM     49  C   UNL A   1      41.955  28.164  34.038  1.00  0.00     0.029 A 
ATOM     50  N   UNL A   1      43.572  28.189  32.495  1.00  0.00    -0.354 N 
ATOM     51  C   UNL A   1      43.757  31.294  29.505  1.00  0.00     0.074 A 
ATOM     52  C   UNL A   1      42.643  32.207  29.634  1.00  0.00     0.031 C 
ATOM     53  C   UNL A   1      42.731  27.091  34.253  1.00  0.00     0.029 A 
ATOM     54  C   UNL A   1      43.803  27.073  33.263  1.00  0.00     0.049 A 
ATOM     55  H   UNL A   1      44.128  28.435  31.720  1.00  0.00     0.167 HD
ATOM     56  C   UNL A   1      44.716  31.388  28.552  1.00  0.00     0.037 A 
ATOM     57  C   UNL A   1      44.775  26.146  33.187  1.00  0.00     0.037 A 
ATOM     58  C   UNL A   1      45.833  30.486  28.435  1.00  0.00     0.049 A 
ATOM     59  C   UNL A   1      45.838  26.285  32.134  1.00  0.00     0.074 A 
ATOM     60  C   UNL A   1      46.890  30.531  27.542  1.00  0.00     0.029 A 
ATOM     61  N   UNL A   1      46.036  29.372  29.235  1.00  0.00    -0.354 N 
ATOM     62  N   UNL A   1      45.979  27.211  31.217  1.00  0.00    -0.248 NA
ATOM     63  C   UNL A   1      46.885  25.255  32.116  1.00  0.00     0.031 C 
ATOM     64  C   UNL A   1      47.708  29.420  27.774  1.00  0.00     0.029 A 
ATOM     65  C   UNL A   1      47.188  28.708  28.843  1.00  0.00     0.049 A 
ATOM     66  H   UNL A   1      45.447  29.092  29.973  1.00  0.00     0.167 HD
ATOM     67  C   UNL A   1      47.137  26.886  30.523  1.00  0.00     0.074 A 
ATOM     68  C   UNL A   1      47.675  25.693  31.147  1.00  0.00     0.031 C 
ATOM     69  C   UNL A   1      47.704  27.516  29.465  1.00  0.00     0.037 A 
BRANCH  56  70
ATOM     70  C   UNL A   1      44.599  32.511  27.561  1.00  0.00     0.057 A 
ATOM     71  C   UNL A   1      43.930  32.352  26.339  1.00  0.00     0.134 A 
ATOM     72  C   UNL A   1      45.133  33.775  27.842  1.00  0.00     0.134 A 
ATOM     73  F   UNL A   1      43.403  31.164  26.002  1.00  0.00    -0.206 F 
ATOM     74  C   UNL A   1      43.820  33.400  25.422  1.00  0.00     0.040 A 
ATOM     75  C   UNL A   1      45.007  34.838  26.945  1.00  0.00     0.040 A 
ATOM     76  F   UNL A   1      45.781  34.001  28.994  1.00  0.00    -0.206 F 
ATOM     77  C   UNL A   1      44.354  34.650  25.727  1.00  0.00     0.006 A 
ENDBRANCH  56  70
BRANCH  57  78
ATOM     78  C   UNL A   1      44.813  25.030  34.164  1.00  0.00     0.057 A 
ATOM     79  C   UNL A   1      45.350  25.209  35.445  1.00  0.00     0.134 A 
ATOM     80  C   UNL A   1      44.312  23.762  33.845  1.00  0.00     0.134 A 
ATOM     81  F   UNL A   1      45.859  26.397  35.802  1.00  0.00    -0.206 F 
ATOM     82  C   UNL A   1      45.405  24.162  36.366  1.00  0.00     0.040 A 
ATOM     83  C   UNL A   1      44.338  22.714  34.767  1.00  0.00     0.040 A 
ATOM     84  F   UNL A   1      43.776  23.529  32.638  1.00  0.00    -0.206 F 
ATOM     85  C   UNL A   1      44.892  22.912  36.030  1.00  0.00     0.006 A 
ENDBRANCH  57  78
BRANCH  69  86
ATOM     86  C   UNL A   1      48.978  26.928  28.929  1.00  0.00     0.057 A 
ATOM     87  C   UNL A   1      50.232  27.313  29.420  1.00  0.00     0.134 A 
ATOM     88  C   UNL A   1      48.948  25.966  27.913  1.00  0.00     0.134 A 
ATOM     89  F   UNL A   1      50.330  28.240  30.384  1.00  0.00    -0.206 F 
ATOM     90  C   UNL A   1      51.414  26.787  28.893  1.00  0.00     0.040 A 
ATOM     91  C   UNL A   1      50.121  25.412  27.398  1.00  0.00     0.040 A 
ATOM     92  F   UNL A   1      47.779  25.546  27.404  1.00  0.00    -0.206 F 
ATOM     93  C   UNL A   1      51.359  25.831  27.881  1.00  0.00     0.006 A 
ENDBRANCH  69  86
ENDBRANCH  43  44
ENDBRANCH  35  38
ENDBRANCH  33  34
ENDBRANCH  32  33
ENDBRANCH  31  32
ENDBRANCH  29  31
ENDBRANCH  25  27
ENDBRANCH   4  25
TORSDOF 19
ENDMDL
MODEL 2
REMARK VINA RESULT:      -8.2      5.388      8.793
REMARK SMILES CCCCCCOC(=O)Nc1cccc(-c2ccc([C@@H](C)C(=O)NCCCNC(=O)c3ccc(-c4c5nc(c(-c6c(F)cccc6F)c6ccc([nH]6)c(-c6c(F)cccc6F)c6nc(c(-c7c(F)cccc7F)c7ccc4[nH]7)C=C6)C=C5)cc3)cc2F)c1
REMARK SMILES IDX 16 1 17 2 18 3 19 4 85 5 86 6 87 7 15 8 11 9 12 10 88 11
REMARK SMILES IDX 13 12 14 13 10 14 8 15 9 16 7 18 6 19 5 20 4 21 3 22 2 23
REMARK SMILES IDX 1 24 20 25 21 26 22 27 23 28 24 29 25 31 26 32 27 33 28 34
REMARK SMILES IDX 29 35 30 37 31 38 32 39 84 40 33 41 83 42 34 43 35 44 36 45
REMARK SMILES IDX 77 46 37 47 82 48 76 49 78 50 38 51 81 52 75 53 74 54 39 56
REMARK SMILES IDX 65 57 48 58 64 59 49 60 52 61 63 62 79 63 50 64 51 65 62 67
REMARK SMILES IDX 80 68 53 69 40 70 41 71 46 72 42 73 43 74 45 75 47 76 44 77
REMARK SMILES IDX 66 78 67 79 72 80 68 81 69 82 71 83 73 84 70 85 54 86 55 87
REMARK SMILES IDX 60 88 56 89 57 90 59 91 61 92 58 93
REMARK H PARENT 10 17 24 30 28 36 78 55 52 66
REMARK Flexibility Score: inf
ROOT
ATOM      1  C   UNL A   1      32.478  29.149  26.382  1.00  0.00     0.018 A 
ATOM      2  C   UNL A   1      32.102  30.473  26.652  1.00  0.00     0.012 A 
ATOM      3  C   UNL A   1      32.970  31.361  27.301  1.00  0.00     0.005 A 
ATOM      4  C   UNL A   1      34.221  30.946  27.767  1.00  0.00    -0.033 A 
ATOM      5  C   UNL A   1      34.618  29.635  27.473  1.00  0.00     0.044 A 
ATOM      6  C   UNL A   1      33.772  28.770  26.777  1.00  0.00     0.131 A 
ATOM      7  F   UNL A   1      34.243  27.546  26.494  1.00  0.00    -0.206 F 
ENDROOT
BRANCH   1   8
ATOM      8  C   UNL A   1      31.547  28.207  25.724  1.00  0.00    -0.013 A 
ATOM      9  C   UNL A   1      30.233  26.140  25.791  1.00  0.00     0.045 A 
ATOM     10  C   UNL A   1      29.892  26.299  24.451  1.00  0.00     0.026 A 
ATOM     11  C   UNL A   1      31.037  27.097  26.419  1.00  0.00     0.035 A 
ATOM     12  C   UNL A   1      30.322  27.428  23.758  1.00  0.00     0.003 A 
ATOM     13  C   UNL A   1      31.150  28.365  24.386  1.00  0.00     0.009 A 
BRANCH   9  14
ATOM     14  N   UNL A   1      29.862  24.957  26.442  1.00  0.00    -0.291 N 
ATOM     15  C   UNL A   1      30.621  23.829  26.617  1.00  0.00     0.411 C 
ATOM     16  O   UNL A   1      30.106  22.735  26.759  1.00  0.00    -0.224 OA
ATOM     17  H   UNL A   1      28.953  24.932  26.818  1.00  0.00     0.173 HD
BRANCH  15  18
ATOM     18  O   UNL A   1      31.948  24.104  26.743  1.00  0.00    -0.449 OA
BRANCH  18  19
ATOM     19  C   UNL A   1      32.881  23.255  26.057  1.00  0.00     0.235 C 
BRANCH  19  20
ATOM     20  C   UNL A   1      34.325  23.750  26.194  1.00  0.00     0.042 C 
BRANCH  20  21
ATOM     21  C   UNL A   1      34.879  24.532  24.997  1.00  0.00     0.003 C 
BRANCH  21  22
ATOM     22  C   UNL A   1      33.835  25.330  24.203  1.00  0.00    -0.000 C 
BRANCH  22  23
ATOM     23  C   UNL A   1      33.779  25.014  22.709  1.00  0.00    -0.003 C 
ATOM     24  C   UNL A   1      32.357  24.849  22.198  1.00  0.00     0.004 C 
ENDBRANCH  22  23
ENDBRANCH  21  22
ENDBRANCH  20  21
ENDBRANCH  19  20
ENDBRANCH  18  19
ENDBRANCH  15  18
ENDBRANCH   9  14
ENDBRANCH   1   8
BRANCH   4  25
ATOM     25  C   UNL A   1      35.138  31.828  28.597  1.00  0.00     0.105 C 
ATOM     26  C   UNL A   1      36.110  32.703  27.808  1.00  0.00     0.023 C 
BRANCH  25  27
ATOM     27  C   UNL A   1      34.415  32.550  29.744  1.00  0.00     0.227 C 
ATOM     28  O   UNL A   1      34.425  32.066  30.882  1.00  0.00    -0.274 OA
ATOM     29  N   UNL A   1      33.740  33.723  29.600  1.00  0.00    -0.356 N 
ATOM     30  H   UNL A   1      33.379  34.084  30.442  1.00  0.00     0.163 HD
BRANCH  29  31
ATOM     31  C   UNL A   1      33.456  34.540  28.437  1.00  0.00     0.117 C 
BRANCH  31  32
ATOM     32  C   UNL A   1      32.820  35.878  28.806  1.00  0.00     0.042 C 
BRANCH  32  33
ATOM     33  C   UNL A   1      33.507  36.599  29.960  1.00  0.00     0.118 C 
BRANCH  33  34
ATOM     34  N   UNL A   1      32.660  36.676  31.142  1.00  0.00    -0.352 N 
ATOM     35  C   UNL A   1      32.716  36.018  32.343  1.00  0.00     0.251 C 
ATOM     36  H   UNL A   1      31.915  37.314  31.064  1.00  0.00     0.163 HD
ATOM     37  O   UNL A   1      31.749  36.095  33.098  1.00  0.00    -0.269 OA
BRANCH  35  38
ATOM     38  C   UNL A   1      33.895  35.217  32.751  1.00  0.00     0.039 A 
ATOM     39  C   UNL A   1      35.163  35.674  32.371  1.00  0.00     0.014 A 
ATOM     40  C   UNL A   1      33.780  33.996  33.421  1.00  0.00     0.014 A 
ATOM     41  C   UNL A   1      36.302  34.934  32.694  1.00  0.00     0.010 A 
ATOM     42  C   UNL A   1      34.923  33.300  33.819  1.00  0.00     0.010 A 
ATOM     43  C   UNL A   1      36.196  33.754  33.447  1.00  0.00    -0.014 A 
BRANCH  43  44
ATOM     44  C   UNL A   1      37.417  33.005  33.843  1.00  0.00     0.031 A 
ATOM     45  C   UNL A   1      38.039  31.992  32.922  1.00  0.00     0.074 A 
ATOM     46  C   UNL A   1      37.963  33.236  35.054  1.00  0.00     0.049 A 
ATOM     47  N   UNL A   1      39.132  31.289  33.085  1.00  0.00    -0.248 NA
ATOM     48  C   UNL A   1      37.331  31.712  31.663  1.00  0.00     0.031 C 
ATOM     49  C   UNL A   1      37.418  34.145  36.065  1.00  0.00     0.029 A 
ATOM     50  N   UNL A   1      39.098  32.733  35.637  1.00  0.00    -0.354 N 
ATOM     51  C   UNL A   1      39.240  30.483  31.958  1.00  0.00     0.074 A 
ATOM     52  C   UNL A   1      38.071  30.741  31.145  1.00  0.00     0.031 C 
ATOM     53  C   UNL A   1      38.243  34.169  37.123  1.00  0.00     0.029 A 
ATOM     54  C   UNL A   1      39.357  33.259  36.879  1.00  0.00     0.049 A 
ATOM     55  H   UNL A   1      39.672  32.060  35.205  1.00  0.00     0.167 HD
ATOM     56  C   UNL A   1      40.233  29.626  31.618  1.00  0.00     0.037 A 
ATOM     57  C   UNL A   1      40.383  33.042  37.723  1.00  0.00     0.037 A 
ATOM     58  C   UNL A   1      41.403  29.383  32.422  1.00  0.00     0.049 A 
ATOM     59  C   UNL A   1      41.482  32.103  37.313  1.00  0.00     0.074 A 
ATOM     60  C   UNL A   1      42.494  28.579  32.138  1.00  0.00     0.029 A 
ATOM     61  N   UNL A   1      41.633  29.939  33.671  1.00  0.00    -0.354 N 
ATOM     62  N   UNL A   1      41.610  31.412  36.207  1.00  0.00    -0.248 NA
ATOM     63  C   UNL A   1      42.585  31.924  38.267  1.00  0.00     0.031 C 
ATOM     64  C   UNL A   1      43.362  28.615  33.235  1.00  0.00     0.029 A 
ATOM     65  C   UNL A   1      42.836  29.479  34.182  1.00  0.00     0.049 A 
ATOM     66  H   UNL A   1      41.029  30.567  34.129  1.00  0.00     0.167 HD
ATOM     67  C   UNL A   1      42.815  30.730  36.322  1.00  0.00     0.074 A 
ATOM     68  C   UNL A   1      43.390  31.115  37.595  1.00  0.00     0.031 C 
ATOM     69  C   UNL A   1      43.391  29.863  35.455  1.00  0.00     0.037 A 
BRANCH  56  70
ATOM     70  C   UNL A   1      40.096  28.890  30.315  1.00  0.00     0.057 A 
ATOM     71  C   UNL A   1      39.358  27.703  30.210  1.00  0.00     0.134 A 
ATOM     72  C   UNL A   1      40.683  29.389  29.145  1.00  0.00     0.134 A 
ATOM     73  F   UNL A   1      38.779  27.165  31.295  1.00  0.00    -0.206 F 
ATOM     74  C   UNL A   1      39.232  27.024  28.996  1.00  0.00     0.040 A 
ATOM     75  C   UNL A   1      40.540  28.733  27.920  1.00  0.00     0.040 A 
ATOM     76  F   UNL A   1      41.398  30.523  29.169  1.00  0.00    -0.206 F 
ATOM     77  C   UNL A   1      39.818  27.543  27.845  1.00  0.00     0.006 A 
ENDBRANCH  56  70
BRANCH  57  78
ATOM     78  C   UNL A   1      40.440  33.761  39.019  1.00  0.00     0.057 A 
ATOM     79  C   UNL A   1      41.216  34.916  39.172  1.00  0.00     0.134 A 
ATOM     80  C   UNL A   1      39.721  33.315  40.135  1.00  0.00     0.134 A 
ATOM     81  F   UNL A   1      41.940  35.382  38.143  1.00  0.00    -0.206 F 
ATOM     82  C   UNL A   1      41.290  35.592  40.390  1.00  0.00     0.040 A 
ATOM     83  C   UNL A   1      39.766  33.997  41.352  1.00  0.00     0.040 A 
ATOM     84  F   UNL A   1      38.951  32.221  40.051  1.00  0.00    -0.206 F 
ATOM     85  C   UNL A   1      40.559  35.135  41.484  1.00  0.00     0.006 A 
ENDBRANCH  57  78
BRANCH  69  86
ATOM     86  C   UNL A   1      44.718  29.285  35.856  1.00  0.00     0.057 A 
ATOM     87  C   UNL A   1      45.927  29.894  35.495  1.00  0.00     0.134 A 
ATOM     88  C   UNL A   1      44.787  28.108  36.611  1.00  0.00     0.134 A 
ATOM     89  F   UNL A   1      45.931  31.017  34.760  1.00  0.00    -0.206 F 
ATOM     90  C   UNL A   1      47.158  29.334  35.842  1.00  0.00     0.040 A 
ATOM     91  C   UNL A   1      46.011  27.554  36.988  1.00  0.00     0.040 A 
ATOM     92  F   UNL A   1      43.666  27.479  36.997  1.00  0.00    -0.206 F 
ATOM     93  C   UNL A   1      47.201  28.161  36.594  1.00  0.00     0.006 A 
ENDBRANCH  69  86
ENDBRANCH  43  44
ENDBRANCH  35  38
ENDBRANCH  33  34
ENDBRANCH  32  33
ENDBRANCH  31  32
ENDBRANCH  29  31
ENDBRANCH  25  27
ENDBRANCH   4  25
TORSDOF 19
ENDMDL
MODEL 3
REMARK VINA RESULT:      -8.2      3.899      9.544
REMARK SMILES CCCCCCOC(=O)Nc1cccc(-c2ccc([C@@H](C)C(=O)NCCCNC(=O)c3ccc(-c4c5nc(c(-c6c(F)cccc6F)c6ccc([nH]6)c(-c6c(F)cccc6F)c6nc(c(-c7c(F)cccc7F)c7ccc4[nH]7)C=C6)C=C5)cc3)cc2F)c1
REMARK SMILES IDX 16 1 17 2 18 3 19 4 85 5 86 6 87 7 15 8 11 9 12 10 88 11
REMARK SMILES IDX 13 12 14 13 10 14 8 15 9 16 7 18 6 19 5 20 4 21 3 22 2 23
REMARK SMILES IDX 1 24 20 25 21 26 22 27 23 28 24 29 25 31 26 32 27 33 28 34
REMARK SMILES IDX 29 35 30 37 31 38 32 39 84 40 33 41 83 42 34 43 35 44 36 45
REMARK SMILES IDX 77 46 37 47 82 48 76 49 78 50 38 51 81 52 75 53 74 54 39 56
REMARK SMILES IDX 65 57 48 58 64 59 49 60 52 61 63 62 79 63 50 64 51 65 62 67
REMARK SMILES IDX 80 68 53 69 40 70 41 71 46 72 42 73 43 74 45 75 47 76 44 77
REMARK SMILES IDX 66 78 67 79 72 80 68 81 69 82 71 83 73 84 70 85 54 86 55 87
REMARK SMILES IDX 60 88 56 89 57 90 59 91 61 92 58 93
REMARK H PARENT 10 17 24 30 28 36 78 55 52 66
REMARK Flexibility Score: inf
ROOT
ATOM      1  C   UNL A   1      44.357  23.748  28.597  1.00  0.00     0.018 A 
ATOM      2  C   UNL A   1      43.707  22.987  29.580  1.00  0.00     0.012 A 
ATOM      3  C   UNL A   1      43.769  23.338  30.935  1.00  0.00     0.005 A 
ATOM      4  C   UNL A   1      44.538  24.421  31.371  1.00  0.00    -0.033 A 
ATOM      5  C   UNL A   1      45.163  25.206  30.394  1.00  0.00     0.044 A 
ATOM      6  C   UNL A   1      45.052  24.885  29.040  1.00  0.00     0.131 A 
ATOM      7  F   UNL A   1      45.642  25.712  28.162  1.00  0.00    -0.206 F 
ENDROOT
BRANCH   1   8
ATOM      8  C   UNL A   1      44.312  23.356  27.172  1.00  0.00    -0.013 A 
ATOM      9  C   UNL A   1      44.954  21.808  25.384  1.00  0.00     0.045 A 
ATOM     10  C   UNL A   1      44.386  22.650  24.433  1.00  0.00     0.026 A 
ATOM     11  C   UNL A   1      44.898  22.154  26.738  1.00  0.00     0.035 A 
ATOM     12  C   UNL A   1      43.733  23.811  24.842  1.00  0.00     0.003 A 
ATOM     13  C   UNL A   1      43.707  24.164  26.195  1.00  0.00     0.009 A 
BRANCH   9  14
ATOM     14  N   UNL A   1      45.678  20.692  24.945  1.00  0.00    -0.291 N 
ATOM     15  C   UNL A   1      45.248  19.393  24.878  1.00  0.00     0.411 C 
ATOM     16  O   UNL A   1      46.030  18.462  24.940  1.00  0.00    -0.224 OA
ATOM     17  H   UNL A   1      46.603  20.860  24.651  1.00  0.00     0.173 HD
BRANCH  15  18
ATOM     18  O   UNL A   1      43.918  19.294  24.609  1.00  0.00    -0.449 OA
BRANCH  18  19
ATOM     19  C   UNL A   1      43.042  18.882  25.670  1.00  0.00     0.235 C 
BRANCH  19  20
ATOM     20  C   UNL A   1      41.973  19.935  25.982  1.00  0.00     0.042 C 
BRANCH  20  21
ATOM     21  C   UNL A   1      41.747  20.235  27.469  1.00  0.00     0.003 C 
BRANCH  21  22
ATOM     22  C   UNL A   1      40.936  21.506  27.759  1.00  0.00    -0.000 C 
BRANCH  22  23
ATOM     23  C   UNL A   1      40.425  22.243  26.522  1.00  0.00    -0.003 C 
ATOM     24  C   UNL A   1      39.093  21.703  26.028  1.00  0.00     0.004 C 
ENDBRANCH  22  23
ENDBRANCH  21  22
ENDBRANCH  20  21
ENDBRANCH  19  20
ENDBRANCH  18  19
ENDBRANCH  15  18
ENDBRANCH   9  14
ENDBRANCH   1   8
BRANCH   4  25
ATOM     25  C   UNL A   1      44.752  24.758  32.838  1.00  0.00     0.105 C 
ATOM     26  C   UNL A   1      43.528  24.604  33.738  1.00  0.00     0.023 C 
BRANCH  25  27
ATOM     27  C   UNL A   1      46.048  24.169  33.415  1.00  0.00     0.227 C 
ATOM     28  O   UNL A   1      46.028  23.070  33.981  1.00  0.00    -0.274 OA
ATOM     29  N   UNL A   1      47.259  24.786  33.350  1.00  0.00    -0.356 N 
ATOM     30  H   UNL A   1      48.001  24.254  33.718  1.00  0.00     0.163 HD
BRANCH  29  31
ATOM     31  C   UNL A   1      47.659  26.082  32.838  1.00  0.00     0.117 C 
BRANCH  31  32
ATOM     32  C   UNL A   1      49.089  26.447  33.230  1.00  0.00     0.042 C 
BRANCH  32  33
ATOM     33  C   UNL A   1      49.198  27.682  34.117  1.00  0.00     0.118 C 
BRANCH  33  34
ATOM     34  N   UNL A   1      48.911  27.384  35.512  1.00  0.00    -0.352 N 
ATOM     35  C   UNL A   1      47.818  27.660  36.293  1.00  0.00     0.251 C 
ATOM     36  H   UNL A   1      49.629  26.898  35.978  1.00  0.00     0.163 HD
ATOM     37  O   UNL A   1      47.912  27.497  37.508  1.00  0.00    -0.269 OA
BRANCH  35  38
ATOM     38  C   UNL A   1      46.541  28.148  35.721  1.00  0.00     0.039 A 
ATOM     39  C   UNL A   1      46.561  29.345  34.995  1.00  0.00     0.014 A 
ATOM     40  C   UNL A   1      45.320  27.507  35.949  1.00  0.00     0.014 A 
ATOM     41  C   UNL A   1      45.378  29.869  34.472  1.00  0.00     0.010 A 
ATOM     42  C   UNL A   1      44.151  27.985  35.354  1.00  0.00     0.010 A 
ATOM     43  C   UNL A   1      44.164  29.180  34.621  1.00  0.00    -0.014 A 
BRANCH  43  44
ATOM     44  C   UNL A   1      42.920  29.710  34.007  1.00  0.00     0.031 A 
ATOM     45  C   UNL A   1      42.160  30.841  34.645  1.00  0.00     0.074 A 
ATOM     46  C   UNL A   1      42.464  29.155  32.865  1.00  0.00     0.049 A 
ATOM     47  N   UNL A   1      41.088  31.460  34.218  1.00  0.00    -0.248 NA
ATOM     48  C   UNL A   1      42.652  31.325  35.944  1.00  0.00     0.031 C 
ATOM     49  C   UNL A   1      43.073  28.011  32.183  1.00  0.00     0.029 A 
ATOM     50  N   UNL A   1      41.393  29.483  32.075  1.00  0.00    -0.354 N 
ATOM     51  C   UNL A   1      40.776  32.400  35.193  1.00  0.00     0.074 A 
ATOM     52  C   UNL A   1      41.737  32.230  36.261  1.00  0.00     0.031 C 
ATOM     53  C   UNL A   1      42.393  27.762  31.053  1.00  0.00     0.029 A 
ATOM     54  C   UNL A   1      41.286  28.707  30.946  1.00  0.00     0.049 A 
ATOM     55  H   UNL A   1      40.761  30.205  32.295  1.00  0.00     0.167 HD
ATOM     56  C   UNL A   1      39.795  33.335  35.189  1.00  0.00     0.037 A 
ATOM     57  C   UNL A   1      40.403  28.757  29.932  1.00  0.00     0.037 A 
ATOM     58  C   UNL A   1      38.850  33.512  34.117  1.00  0.00     0.049 A 
ATOM     59  C   UNL A   1      39.338  29.817  29.940  1.00  0.00     0.074 A 
ATOM     60  C   UNL A   1      37.857  34.468  33.990  1.00  0.00     0.029 A 
ATOM     61  N   UNL A   1      38.777  32.710  32.987  1.00  0.00    -0.354 N 
ATOM     62  N   UNL A   1      39.108  30.752  30.830  1.00  0.00    -0.248 NA
ATOM     63  C   UNL A   1      38.418  29.835  28.795  1.00  0.00     0.031 C 
ATOM     64  C   UNL A   1      37.156  34.218  32.805  1.00  0.00     0.029 A 
ATOM     65  C   UNL A   1      37.742  33.135  32.169  1.00  0.00     0.049 A 
ATOM     66  H   UNL A   1      39.373  31.950  32.795  1.00  0.00     0.167 HD
ATOM     67  C   UNL A   1      38.029  31.480  30.346  1.00  0.00     0.074 A 
ATOM     68  C   UNL A   1      37.671  30.894  29.069  1.00  0.00     0.031 C 
ATOM     69  C   UNL A   1      37.391  32.536  30.907  1.00  0.00     0.037 A 
BRANCH  56  70
ATOM     70  C   UNL A   1      39.700  34.243  36.382  1.00  0.00     0.057 A 
ATOM     71  C   UNL A   1      40.276  35.521  36.386  1.00  0.00     0.134 A 
ATOM     72  C   UNL A   1      38.998  33.850  37.529  1.00  0.00     0.134 A 
ATOM     73  F   UNL A   1      40.972  35.956  35.323  1.00  0.00    -0.206 F 
ATOM     74  C   UNL A   1      40.183  36.364  37.496  1.00  0.00     0.040 A 
ATOM     75  C   UNL A   1      38.874  34.695  38.634  1.00  0.00     0.040 A 
ATOM     76  F   UNL A   1      38.416  32.644  37.593  1.00  0.00    -0.206 F 
ATOM     77  C   UNL A   1      39.474  35.953  38.622  1.00  0.00     0.006 A 
ENDBRANCH  56  70
BRANCH  57  78
ATOM     78  C   UNL A   1      40.517  27.802  28.802  1.00  0.00     0.057 A 
ATOM     79  C   UNL A   1      39.806  26.596  28.801  1.00  0.00     0.134 A 
ATOM     80  C   UNL A   1      41.334  28.070  27.697  1.00  0.00     0.134 A 
ATOM     81  F   UNL A   1      39.019  26.276  29.840  1.00  0.00    -0.206 F 
ATOM     82  C   UNL A   1      39.917  25.682  27.753  1.00  0.00     0.040 A 
ATOM     83  C   UNL A   1      41.434  27.176  26.630  1.00  0.00     0.040 A 
ATOM     84  F   UNL A   1      42.033  29.212  27.633  1.00  0.00    -0.206 F 
ATOM     85  C   UNL A   1      40.729  25.974  26.659  1.00  0.00     0.006 A 
ENDBRANCH  57  78
BRANCH  69  86
ATOM     86  C   UNL A   1      36.250  33.128  30.131  1.00  0.00     0.057 A 
ATOM     87  C   UNL A   1      36.462  34.002  29.057  1.00  0.00     0.134 A 
ATOM     88  C   UNL A   1      34.924  32.820  30.462  1.00  0.00     0.134 A 
ATOM     89  F   UNL A   1      37.707  34.348  28.698  1.00  0.00    -0.206 F 
ATOM     90  C   UNL A   1      35.396  34.576  28.361  1.00  0.00     0.040 A 
ATOM     91  C   UNL A   1      33.851  33.365  29.756  1.00  0.00     0.040 A 
ATOM     92  F   UNL A   1      34.651  31.982  31.474  1.00  0.00    -0.206 F 
ATOM     93  C   UNL A   1      34.086  34.255  28.709  1.00  0.00     0.006 A 
ENDBRANCH  69  86
ENDBRANCH  43  44
ENDBRANCH  35  38
ENDBRANCH  33  34
ENDBRANCH  32  33
ENDBRANCH  31  32
ENDBRANCH  29  31
ENDBRANCH  25  27
ENDBRANCH   4  25
TORSDOF 19
ENDMDL
