MODEL 1
REMARK VINA RESULT:     -12.7      0.000      0.000
REMARK SMILES C[C@]1(c2ccccc2C(=O)NCCCNC(=O)c2ccc(-c3c4nc(c(-c5c(F)cccc5F)c5ccc([nH]5)c(-c5c(F)cccc5F)c5nc(c(-c6c(F)cccc6F)c6ccc3[nH]6)C=C5)C=C4)cc2)NN=C(c2ccccc2)S1
REMARK SMILES IDX 13 1 12 2 11 3 9 4 10 5 8 7 3 8 4 9 5 10 7 11 6 12 2 13 1 14
REMARK SMILES IDX 72 15 81 16 73 17 74 19 75 20 76 21 80 22 77 23 79 24 78 25
REMARK SMILES IDX 14 26 15 27 16 28 17 30 18 31 19 32 71 33 20 34 70 35 21 36
REMARK SMILES IDX 22 37 23 38 64 39 24 40 69 41 63 42 65 43 25 44 68 45 62 46
REMARK SMILES IDX 61 47 26 49 52 50 35 51 51 52 36 53 39 54 50 55 66 56 37 57
REMARK SMILES IDX 38 58 49 60 67 61 40 62 27 63 28 64 33 65 29 66 30 67 32 68
REMARK SMILES IDX 34 69 31 70 53 71 54 72 59 73 55 74 56 75 58 76 60 77 57 78
REMARK SMILES IDX 41 79 42 80 47 81 43 82 44 83 46 84 48 85 45 86
REMARK H PARENT 11 6 72 18 15 29 65 48 39 59
REMARK Flexibility Score: inf
ROOT
ATOM      1  C   UNL A   1      31.391  32.379  26.511  1.00  0.00     0.042 C 
ENDROOT
BRANCH   1   2
ATOM      2  C   UNL A   1      31.240  30.869  26.224  1.00  0.00     0.118 C 
BRANCH   2   3
ATOM      3  N   UNL A   1      32.075  30.342  25.162  1.00  0.00    -0.352 N 
ATOM      4  C   UNL A   1      31.967  29.251  24.341  1.00  0.00     0.251 C 
ATOM      5  O   UNL A   1      32.789  29.129  23.428  1.00  0.00    -0.269 OA
ATOM      6  H   UNL A   1      32.884  30.878  24.998  1.00  0.00     0.163 HD
BRANCH   4   7
ATOM      7  C   UNL A   1      30.872  28.256  24.420  1.00  0.00     0.046 A 
ATOM      8  C   UNL A   1      30.898  27.030  25.126  1.00  0.00     0.002 A 
ATOM      9  C   UNL A   1      29.819  26.131  24.869  1.00  0.00     0.008 A 
ATOM     10  C   UNL A   1      28.804  26.402  23.949  1.00  0.00     0.000 A 
ATOM     11  C   UNL A   1      29.837  28.516  23.488  1.00  0.00     0.014 A 
ATOM     12  C   UNL A   1      28.814  27.599  23.255  1.00  0.00     0.001 A 
BRANCH   8  13
ATOM     13  C   UNL A   1      31.932  26.552  26.159  1.00  0.00     0.129 C 
ATOM     14  C   UNL A   1      31.890  27.523  27.356  1.00  0.00     0.054 C 
ATOM     15  N   UNL A   1      31.636  25.174  26.611  1.00  0.00    -0.288 NA
ATOM     16  S   UNL A   1      33.651  26.438  25.633  1.00  0.00    -0.070 SA
ATOM     17  N   UNL A   1      32.576  24.205  26.371  1.00  0.00    -0.171 NA
ATOM     18  H   UNL A   1      30.792  24.961  27.069  1.00  0.00     0.185 HD
ATOM     19  C   UNL A   1      33.631  24.717  25.820  1.00  0.00     0.126 C 
BRANCH  19  20
ATOM     20  C   UNL A   1      34.783  23.975  25.292  1.00  0.00     0.009 A 
ATOM     21  C   UNL A   1      34.684  23.410  24.019  1.00  0.00     0.011 A 
ATOM     22  C   UNL A   1      36.009  23.961  25.977  1.00  0.00     0.011 A 
ATOM     23  C   UNL A   1      35.825  22.887  23.410  1.00  0.00     0.001 A 
ATOM     24  C   UNL A   1      37.144  23.434  25.365  1.00  0.00     0.001 A 
ATOM     25  C   UNL A   1      37.054  22.911  24.076  1.00  0.00     0.000 A 
ENDBRANCH  19  20
ENDBRANCH   8  13
ENDBRANCH   4   7
ENDBRANCH   2   3
ENDBRANCH   1   2
BRANCH   1  26
ATOM     26  C   UNL A   1      32.668  32.846  27.236  1.00  0.00     0.118 C 
BRANCH  26  27
ATOM     27  N   UNL A   1      32.528  34.212  27.713  1.00  0.00    -0.352 N 
ATOM     28  C   UNL A   1      33.112  34.912  28.735  1.00  0.00     0.251 C 
ATOM     29  H   UNL A   1      31.880  34.743  27.196  1.00  0.00     0.163 HD
ATOM     30  O   UNL A   1      32.574  35.972  29.067  1.00  0.00    -0.269 OA
BRANCH  28  31
ATOM     31  C   UNL A   1      34.358  34.508  29.447  1.00  0.00     0.039 A 
ATOM     32  C   UNL A   1      35.558  34.592  28.721  1.00  0.00     0.014 A 
ATOM     33  C   UNL A   1      34.374  33.863  30.687  1.00  0.00     0.014 A 
ATOM     34  C   UNL A   1      36.741  34.016  29.204  1.00  0.00     0.010 A 
ATOM     35  C   UNL A   1      35.574  33.311  31.188  1.00  0.00     0.010 A 
ATOM     36  C   UNL A   1      36.762  33.351  30.437  1.00  0.00    -0.014 A 
BRANCH  36  37
ATOM     37  C   UNL A   1      38.004  32.643  30.876  1.00  0.00     0.031 A 
ATOM     38  C   UNL A   1      38.790  33.128  32.071  1.00  0.00     0.074 A 
ATOM     39  C   UNL A   1      38.420  31.527  30.244  1.00  0.00     0.049 A 
ATOM     40  N   UNL A   1      39.866  32.614  32.622  1.00  0.00    -0.248 NA
ATOM     41  C   UNL A   1      38.310  34.351  32.728  1.00  0.00     0.031 C 
ATOM     42  C   UNL A   1      37.777  30.926  29.078  1.00  0.00     0.029 A 
ATOM     43  N   UNL A   1      39.484  30.694  30.505  1.00  0.00    -0.354 N 
ATOM     44  C   UNL A   1      40.196  33.455  33.677  1.00  0.00     0.074 A 
ATOM     45  C   UNL A   1      39.222  34.528  33.674  1.00  0.00     0.031 C 
ATOM     46  C   UNL A   1      38.447  29.813  28.733  1.00  0.00     0.029 A 
ATOM     47  C   UNL A   1      39.576  29.627  29.644  1.00  0.00     0.049 A 
ATOM     48  H   UNL A   1      40.120  30.848  31.241  1.00  0.00     0.167 HD
ATOM     49  C   UNL A   1      41.203  33.345  34.579  1.00  0.00     0.037 A 
ATOM     50  C   UNL A   1      40.461  28.612  29.590  1.00  0.00     0.037 A 
ATOM     51  C   UNL A   1      42.162  32.272  34.629  1.00  0.00     0.049 A 
ATOM     52  C   UNL A   1      41.566  28.507  30.604  1.00  0.00     0.074 A 
ATOM     53  C   UNL A   1      43.185  32.070  35.543  1.00  0.00     0.029 A 
ATOM     54  N   UNL A   1      42.217  31.217  33.735  1.00  0.00    -0.354 N 
ATOM     55  N   UNL A   1      41.836  29.292  31.615  1.00  0.00    -0.248 NA
ATOM     56  C   UNL A   1      42.486  27.366  30.468  1.00  0.00     0.031 C 
ATOM     57  C   UNL A   1      43.873  30.905  35.187  1.00  0.00     0.029 A 
ATOM     58  C   UNL A   1      43.262  30.368  34.067  1.00  0.00     0.049 A 
ATOM     59  H   UNL A   1      41.605  31.087  32.975  1.00  0.00     0.167 HD
ATOM     60  C   UNL A   1      42.938  28.730  32.248  1.00  0.00     0.074 A 
ATOM     61  C   UNL A   1      43.284  27.533  31.514  1.00  0.00     0.031 C 
ATOM     62  C   UNL A   1      43.601  29.172  33.344  1.00  0.00     0.037 A 
BRANCH  49  63
ATOM     63  C   UNL A   1      41.327  34.429  35.607  1.00  0.00     0.057 A 
ATOM     64  C   UNL A   1      42.077  35.586  35.364  1.00  0.00     0.134 A 
ATOM     65  C   UNL A   1      40.646  34.339  36.827  1.00  0.00     0.134 A 
ATOM     66  F   UNL A   1      42.755  35.729  34.216  1.00  0.00    -0.206 F 
ATOM     67  C   UNL A   1      42.161  36.610  36.310  1.00  0.00     0.040 A 
ATOM     68  C   UNL A   1      40.709  35.364  37.773  1.00  0.00     0.040 A 
ATOM     69  F   UNL A   1      39.903  33.261  37.115  1.00  0.00    -0.206 F 
ATOM     70  C   UNL A   1      41.471  36.503  37.516  1.00  0.00     0.006 A 
ENDBRANCH  49  63
BRANCH  50  71
ATOM     71  C   UNL A   1      40.328  27.578  28.536  1.00  0.00     0.057 A 
ATOM     72  C   UNL A   1      40.961  27.726  27.297  1.00  0.00     0.134 A 
ATOM     73  C   UNL A   1      39.547  26.435  28.736  1.00  0.00     0.134 A 
ATOM     74  F   UNL A   1      41.699  28.816  27.042  1.00  0.00    -0.206 F 
ATOM     75  C   UNL A   1      40.815  26.774  26.287  1.00  0.00     0.040 A 
ATOM     76  C   UNL A   1      39.406  25.467  27.741  1.00  0.00     0.040 A 
ATOM     77  F   UNL A   1      38.913  26.243  29.902  1.00  0.00    -0.206 F 
ATOM     78  C   UNL A   1      40.038  25.638  26.509  1.00  0.00     0.006 A 
ENDBRANCH  50  71
BRANCH  62  79
ATOM     79  C   UNL A   1      44.750  28.345  33.836  1.00  0.00     0.057 A 
ATOM     80  C   UNL A   1      46.061  28.574  33.400  1.00  0.00     0.134 A 
ATOM     81  C   UNL A   1      44.548  27.327  34.777  1.00  0.00     0.134 A 
ATOM     82  F   UNL A   1      46.318  29.526  32.490  1.00  0.00    -0.206 F 
ATOM     83  C   UNL A   1      47.129  27.808  33.872  1.00  0.00     0.040 A 
ATOM     84  C   UNL A   1      45.611  26.565  35.267  1.00  0.00     0.040 A 
ATOM     85  F   UNL A   1      43.317  27.059  35.237  1.00  0.00    -0.206 F 
ATOM     86  C   UNL A   1      46.906  26.804  34.812  1.00  0.00     0.006 A 
ENDBRANCH  62  79
ENDBRANCH  36  37
ENDBRANCH  28  31
ENDBRANCH  26  27
ENDBRANCH   1  26
TORSDOF 12
ENDMDL
MODEL 2
REMARK VINA RESULT:     -12.7      4.684      9.766
REMARK SMILES C[C@]1(c2ccccc2C(=O)NCCCNC(=O)c2ccc(-c3c4nc(c(-c5c(F)cccc5F)c5ccc([nH]5)c(-c5c(F)cccc5F)c5nc(c(-c6c(F)cccc6F)c6ccc3[nH]6)C=C5)C=C4)cc2)NN=C(c2ccccc2)S1
REMARK SMILES IDX 13 1 12 2 11 3 9 4 10 5 8 7 3 8 4 9 5 10 7 11 6 12 2 13 1 14
REMARK SMILES IDX 72 15 81 16 73 17 74 19 75 20 76 21 80 22 77 23 79 24 78 25
REMARK SMILES IDX 14 26 15 27 16 28 17 30 18 31 19 32 71 33 20 34 70 35 21 36
REMARK SMILES IDX 22 37 23 38 64 39 24 40 69 41 63 42 65 43 25 44 68 45 62 46
REMARK SMILES IDX 61 47 26 49 52 50 35 51 51 52 36 53 39 54 50 55 66 56 37 57
REMARK SMILES IDX 38 58 49 60 67 61 40 62 27 63 28 64 33 65 29 66 30 67 32 68
REMARK SMILES IDX 34 69 31 70 53 71 54 72 59 73 55 74 56 75 58 76 60 77 57 78
REMARK SMILES IDX 41 79 42 80 47 81 43 82 44 83 46 84 48 85 45 86
REMARK H PARENT 11 6 72 18 15 29 65 48 39 59
REMARK Flexibility Score: inf
ROOT
ATOM      1  C   UNL A   1      38.137  19.281  25.110  1.00  0.00     0.042 C 
ENDROOT
BRANCH   1   2
ATOM      2  C   UNL A   1      36.986  20.197  24.637  1.00  0.00     0.118 C 
BRANCH   2   3
ATOM      3  N   UNL A   1      36.093  20.674  25.675  1.00  0.00    -0.352 N 
ATOM      4  C   UNL A   1      34.801  21.129  25.663  1.00  0.00     0.251 C 
ATOM      5  O   UNL A   1      34.253  21.351  26.746  1.00  0.00    -0.269 OA
ATOM      6  H   UNL A   1      36.498  20.670  26.572  1.00  0.00     0.163 HD
BRANCH   4   7
ATOM      7  C   UNL A   1      33.987  21.283  24.434  1.00  0.00     0.046 A 
ATOM      8  C   UNL A   1      33.834  22.463  23.668  1.00  0.00     0.002 A 
ATOM      9  C   UNL A   1      32.820  22.436  22.664  1.00  0.00     0.008 A 
ATOM     10  C   UNL A   1      31.985  21.337  22.453  1.00  0.00     0.000 A 
ATOM     11  C   UNL A   1      33.131  20.177  24.210  1.00  0.00     0.014 A 
ATOM     12  C   UNL A   1      32.140  20.203  23.230  1.00  0.00     0.001 A 
BRANCH   8  13
ATOM     13  C   UNL A   1      34.642  23.768  23.765  1.00  0.00     0.129 C 
ATOM     14  C   UNL A   1      36.115  23.437  23.447  1.00  0.00     0.054 C 
ATOM     15  N   UNL A   1      34.133  24.782  22.815  1.00  0.00    -0.288 NA
ATOM     16  S   UNL A   1      34.627  24.650  25.334  1.00  0.00    -0.070 SA
ATOM     17  N   UNL A   1      33.647  25.956  23.329  1.00  0.00    -0.171 NA
ATOM     18  H   UNL A   1      34.143  24.619  21.844  1.00  0.00     0.185 HD
ATOM     19  C   UNL A   1      33.790  25.984  24.617  1.00  0.00     0.126 C 
BRANCH  19  20
ATOM     20  C   UNL A   1      33.265  27.010  25.528  1.00  0.00     0.009 A 
ATOM     21  C   UNL A   1      31.952  26.884  25.986  1.00  0.00     0.011 A 
ATOM     22  C   UNL A   1      34.101  28.010  26.050  1.00  0.00     0.011 A 
ATOM     23  C   UNL A   1      31.499  27.718  27.009  1.00  0.00     0.001 A 
ATOM     24  C   UNL A   1      33.642  28.841  27.069  1.00  0.00     0.001 A 
ATOM     25  C   UNL A   1      32.346  28.684  27.557  1.00  0.00     0.000 A 
ENDBRANCH  19  20
ENDBRANCH   8  13
ENDBRANCH   4   7
ENDBRANCH   2   3
ENDBRANCH   1   2
BRANCH   1  26
ATOM     26  C   UNL A   1      39.332  19.943  25.821  1.00  0.00     0.118 C 
BRANCH  26  27
ATOM     27  N   UNL A   1      40.454  19.024  25.923  1.00  0.00    -0.352 N 
ATOM     28  C   UNL A   1      41.805  19.205  26.057  1.00  0.00     0.251 C 
ATOM     29  H   UNL A   1      40.188  18.076  25.888  1.00  0.00     0.163 HD
ATOM     30  O   UNL A   1      42.526  18.231  25.826  1.00  0.00    -0.269 OA
BRANCH  28  31
ATOM     31  C   UNL A   1      42.460  20.473  26.489  1.00  0.00     0.039 A 
ATOM     32  C   UNL A   1      42.220  20.892  27.808  1.00  0.00     0.014 A 
ATOM     33  C   UNL A   1      43.104  21.356  25.616  1.00  0.00     0.014 A 
ATOM     34  C   UNL A   1      42.583  22.175  28.240  1.00  0.00     0.010 A 
ATOM     35  C   UNL A   1      43.498  22.636  26.061  1.00  0.00     0.010 A 
ATOM     36  C   UNL A   1      43.211  23.074  27.367  1.00  0.00    -0.014 A 
BRANCH  36  37
ATOM     37  C   UNL A   1      43.480  24.475  27.814  1.00  0.00     0.031 A 
ATOM     38  C   UNL A   1      44.893  25.000  27.905  1.00  0.00     0.074 A 
ATOM     39  C   UNL A   1      42.464  25.314  28.097  1.00  0.00     0.049 A 
ATOM     40  N   UNL A   1      45.314  26.201  28.230  1.00  0.00    -0.248 NA
ATOM     41  C   UNL A   1      45.973  24.053  27.596  1.00  0.00     0.031 C 
ATOM     42  C   UNL A   1      41.045  24.968  28.057  1.00  0.00     0.029 A 
ATOM     43  N   UNL A   1      42.474  26.640  28.465  1.00  0.00    -0.354 N 
ATOM     44  C   UNL A   1      46.701  26.149  28.178  1.00  0.00     0.074 A 
ATOM     45  C   UNL A   1      47.053  24.791  27.816  1.00  0.00     0.031 C 
ATOM     46  C   UNL A   1      40.320  26.056  28.372  1.00  0.00     0.029 A 
ATOM     47  C   UNL A   1      41.221  27.173  28.649  1.00  0.00     0.049 A 
ATOM     48  H   UNL A   1      43.302  27.159  28.586  1.00  0.00     0.167 HD
ATOM     49  C   UNL A   1      47.605  27.137  28.395  1.00  0.00     0.037 A 
ATOM     50  C   UNL A   1      40.835  28.417  28.997  1.00  0.00     0.037 A 
ATOM     51  C   UNL A   1      47.284  28.502  28.720  1.00  0.00     0.049 A 
ATOM     52  C   UNL A   1      41.854  29.497  29.227  1.00  0.00     0.074 A 
ATOM     53  C   UNL A   1      48.148  29.570  28.911  1.00  0.00     0.029 A 
ATOM     54  N   UNL A   1      46.003  28.993  28.899  1.00  0.00    -0.354 N 
ATOM     55  N   UNL A   1      43.158  29.435  29.134  1.00  0.00    -0.248 NA
ATOM     56  C   UNL A   1      41.341  30.825  29.603  1.00  0.00     0.031 C 
ATOM     57  C   UNL A   1      47.388  30.702  29.227  1.00  0.00     0.029 A 
ATOM     58  C   UNL A   1      46.052  30.344  29.208  1.00  0.00     0.049 A 
ATOM     59  H   UNL A   1      45.177  28.463  28.817  1.00  0.00     0.167 HD
ATOM     60  C   UNL A   1      43.620  30.716  29.418  1.00  0.00     0.074 A 
ATOM     61  C   UNL A   1      42.458  31.538  29.677  1.00  0.00     0.031 C 
ATOM     62  C   UNL A   1      44.897  31.165  29.456  1.00  0.00     0.037 A 
BRANCH  49  63
ATOM     63  C   UNL A   1      49.056  26.776  28.287  1.00  0.00     0.057 A 
ATOM     64  C   UNL A   1      49.789  26.348  29.400  1.00  0.00     0.134 A 
ATOM     65  C   UNL A   1      49.710  26.805  27.049  1.00  0.00     0.134 A 
ATOM     66  F   UNL A   1      49.220  26.303  30.613  1.00  0.00    -0.206 F 
ATOM     67  C   UNL A   1      51.132  25.979  29.288  1.00  0.00     0.040 A 
ATOM     68  C   UNL A   1      51.047  26.422  26.922  1.00  0.00     0.040 A 
ATOM     69  F   UNL A   1      49.059  27.196  25.944  1.00  0.00    -0.206 F 
ATOM     70  C   UNL A   1      51.762  26.010  28.045  1.00  0.00     0.006 A 
ENDBRANCH  49  63
BRANCH  50  71
ATOM     71  C   UNL A   1      39.391  28.727  29.130  1.00  0.00     0.057 A 
ATOM     72  C   UNL A   1      38.654  29.210  28.043  1.00  0.00     0.134 A 
ATOM     73  C   UNL A   1      38.725  28.570  30.350  1.00  0.00     0.134 A 
ATOM     74  F   UNL A   1      39.249  29.405  26.858  1.00  0.00    -0.206 F 
ATOM     75  C   UNL A   1      37.303  29.537  28.168  1.00  0.00     0.040 A 
ATOM     76  C   UNL A   1      37.371  28.877  30.484  1.00  0.00     0.040 A 
ATOM     77  F   UNL A   1      39.383  28.116  31.427  1.00  0.00    -0.206 F 
ATOM     78  C   UNL A   1      36.657  29.366  29.391  1.00  0.00     0.006 A 
ENDBRANCH  50  71
BRANCH  62  79
ATOM     79  C   UNL A   1      45.109  32.617  29.762  1.00  0.00     0.057 A 
ATOM     80  C   UNL A   1      45.311  33.071  31.071  1.00  0.00     0.134 A 
ATOM     81  C   UNL A   1      45.139  33.568  28.734  1.00  0.00     0.134 A 
ATOM     82  F   UNL A   1      45.281  32.211  32.101  1.00  0.00    -0.206 F 
ATOM     83  C   UNL A   1      45.522  34.423  31.349  1.00  0.00     0.040 A 
ATOM     84  C   UNL A   1      45.364  34.921  28.998  1.00  0.00     0.040 A 
ATOM     85  F   UNL A   1      44.956  33.197  27.458  1.00  0.00    -0.206 F 
ATOM     86  C   UNL A   1      45.553  35.351  30.310  1.00  0.00     0.006 A 
ENDBRANCH  62  79
ENDBRANCH  36  37
ENDBRANCH  28  31
ENDBRANCH  26  27
ENDBRANCH   1  26
TORSDOF 12
ENDMDL
MODEL 3
REMARK VINA RESULT:     -12.7      2.020      4.101
REMARK SMILES C[C@]1(c2ccccc2C(=O)NCCCNC(=O)c2ccc(-c3c4nc(c(-c5c(F)cccc5F)c5ccc([nH]5)c(-c5c(F)cccc5F)c5nc(c(-c6c(F)cccc6F)c6ccc3[nH]6)C=C5)C=C4)cc2)NN=C(c2ccccc2)S1
REMARK SMILES IDX 13 1 12 2 11 3 9 4 10 5 8 7 3 8 4 9 5 10 7 11 6 12 2 13 1 14
REMARK SMILES IDX 72 15 81 16 73 17 74 19 75 20 76 21 80 22 77 23 79 24 78 25
REMARK SMILES IDX 14 26 15 27 16 28 17 30 18 31 19 32 71 33 20 34 70 35 21 36
REMARK SMILES IDX 22 37 23 38 64 39 24 40 69 41 63 42 65 43 25 44 68 45 62 46
REMARK SMILES IDX 61 47 26 49 52 50 35 51 51 52 36 53 39 54 50 55 66 56 37 57
REMARK SMILES IDX 38 58 49 60 67 61 40 62 27 63 28 64 33 65 29 66 30 67 32 68
REMARK SMILES IDX 34 69 31 70 53 71 54 72 59 73 55 74 56 75 58 76 60 77 57 78
REMARK SMILES IDX 41 79 42 80 47 81 43 82 44 83 46 84 48 85 45 86
REMARK H PARENT 11 6 72 18 15 29 65 48 39 59
REMARK Flexibility Score: inf
ROOT
ATOM      1  C   UNL A   1      32.639  30.299  25.676  1.00  0.00     0.042 C 
ENDROOT
BRANCH   1   2
ATOM      2  C   UNL A   1      33.209  28.870  25.816  1.00  0.00     0.118 C 
BRANCH   2   3
ATOM      3  N   UNL A   1      32.244  27.835  26.132  1.00  0.00    -0.352 N 
ATOM      4  C   UNL A   1      32.212  26.484  25.906  1.00  0.00     0.251 C 
ATOM      5  O   UNL A   1      31.296  25.832  26.414  1.00  0.00    -0.269 OA
ATOM      6  H   UNL A   1      31.450  28.171  26.606  1.00  0.00     0.163 HD
BRANCH   4   7
ATOM      7  C   UNL A   1      33.260  25.741  25.166  1.00  0.00     0.046 A 
ATOM      8  C   UNL A   1      33.173  25.264  23.836  1.00  0.00     0.002 A 
ATOM      9  C   UNL A   1      34.209  24.377  23.415  1.00  0.00     0.008 A 
ATOM     10  C   UNL A   1      35.240  23.955  24.258  1.00  0.00     0.000 A 
ATOM     11  C   UNL A   1      34.309  25.303  26.009  1.00  0.00     0.014 A 
ATOM     12  C   UNL A   1      35.290  24.419  25.560  1.00  0.00     0.001 A 
BRANCH   8  13
ATOM     13  C   UNL A   1      32.112  25.601  22.775  1.00  0.00     0.129 C 
ATOM     14  C   UNL A   1      32.581  25.006  21.431  1.00  0.00     0.054 C 
ATOM     15  N   UNL A   1      30.792  25.044  23.145  1.00  0.00    -0.288 NA
ATOM     16  S   UNL A   1      31.743  27.339  22.481  1.00  0.00    -0.070 SA
ATOM     17  N   UNL A   1      29.757  25.922  23.339  1.00  0.00    -0.171 NA
ATOM     18  H   UNL A   1      30.662  24.074  23.249  1.00  0.00     0.185 HD
ATOM     19  C   UNL A   1      30.134  27.136  23.086  1.00  0.00     0.126 C 
BRANCH  19  20
ATOM     20  C   UNL A   1      29.348  28.356  23.316  1.00  0.00     0.009 A 
ATOM     21  C   UNL A   1      30.029  29.544  23.585  1.00  0.00     0.011 A 
ATOM     22  C   UNL A   1      27.958  28.367  23.119  1.00  0.00     0.011 A 
ATOM     23  C   UNL A   1      29.326  30.750  23.596  1.00  0.00     0.001 A 
ATOM     24  C   UNL A   1      27.262  29.574  23.134  1.00  0.00     0.001 A 
ATOM     25  C   UNL A   1      27.949  30.765  23.358  1.00  0.00     0.000 A 
ENDBRANCH  19  20
ENDBRANCH   8  13
ENDBRANCH   4   7
ENDBRANCH   2   3
ENDBRANCH   1   2
BRANCH   1  26
ATOM     26  C   UNL A   1      31.766  30.837  26.826  1.00  0.00     0.118 C 
BRANCH  26  27
ATOM     27  N   UNL A   1      31.991  32.259  27.033  1.00  0.00    -0.352 N 
ATOM     28  C   UNL A   1      32.995  32.971  27.633  1.00  0.00     0.251 C 
ATOM     29  H   UNL A   1      31.274  32.825  26.666  1.00  0.00     0.163 HD
ATOM     30  O   UNL A   1      32.760  34.151  27.902  1.00  0.00    -0.269 OA
BRANCH  28  31
ATOM     31  C   UNL A   1      34.350  32.438  27.951  1.00  0.00     0.039 A 
ATOM     32  C   UNL A   1      34.416  31.116  28.422  1.00  0.00     0.014 A 
ATOM     33  C   UNL A   1      35.504  33.225  28.012  1.00  0.00     0.014 A 
ATOM     34  C   UNL A   1      35.597  30.600  28.975  1.00  0.00     0.010 A 
ATOM     35  C   UNL A   1      36.702  32.694  28.539  1.00  0.00     0.010 A 
ATOM     36  C   UNL A   1      36.753  31.388  29.058  1.00  0.00    -0.014 A 
BRANCH  36  37
ATOM     37  C   UNL A   1      37.963  30.856  29.757  1.00  0.00     0.031 A 
ATOM     38  C   UNL A   1      38.230  31.191  31.205  1.00  0.00     0.074 A 
ATOM     39  C   UNL A   1      38.814  30.025  29.123  1.00  0.00     0.049 A 
ATOM     40  N   UNL A   1      39.205  30.785  31.985  1.00  0.00    -0.248 NA
ATOM     41  C   UNL A   1      37.285  32.106  31.859  1.00  0.00     0.031 C 
ATOM     42  C   UNL A   1      38.701  29.600  27.729  1.00  0.00     0.029 A 
ATOM     43  N   UNL A   1      39.941  29.380  29.578  1.00  0.00    -0.354 N 
ATOM     44  C   UNL A   1      38.997  31.402  33.212  1.00  0.00     0.074 A 
ATOM     45  C   UNL A   1      37.818  32.232  33.066  1.00  0.00     0.031 C 
ATOM     46  C   UNL A   1      39.707  28.754  27.447  1.00  0.00     0.029 A 
ATOM     47  C   UNL A   1      40.545  28.586  28.633  1.00  0.00     0.049 A 
ATOM     48  H   UNL A   1      40.284  29.479  30.496  1.00  0.00     0.167 HD
ATOM     49  C   UNL A   1      39.705  31.284  34.363  1.00  0.00     0.037 A 
ATOM     50  C   UNL A   1      41.642  27.807  28.707  1.00  0.00     0.037 A 
ATOM     51  C   UNL A   1      40.858  30.440  34.549  1.00  0.00     0.049 A 
ATOM     52  C   UNL A   1      42.409  27.687  29.994  1.00  0.00     0.074 A 
ATOM     53  C   UNL A   1      41.601  30.235  35.701  1.00  0.00     0.029 A 
ATOM     54  N   UNL A   1      41.432  29.657  33.563  1.00  0.00    -0.354 N 
ATOM     55  N   UNL A   1      42.172  28.249  31.152  1.00  0.00    -0.248 NA
ATOM     56  C   UNL A   1      43.594  26.813  29.982  1.00  0.00     0.031 C 
ATOM     57  C   UNL A   1      42.640  29.345  35.405  1.00  0.00     0.029 A 
ATOM     58  C   UNL A   1      42.527  28.978  34.075  1.00  0.00     0.049 A 
ATOM     59  H   UNL A   1      41.112  29.592  32.634  1.00  0.00     0.167 HD
ATOM     60  C   UNL A   1      43.161  27.782  32.009  1.00  0.00     0.074 A 
ATOM     61  C   UNL A   1      43.997  26.884  31.244  1.00  0.00     0.031 C 
ATOM     62  C   UNL A   1      43.353  28.076  33.318  1.00  0.00     0.037 A 
BRANCH  49  63
ATOM     63  C   UNL A   1      39.251  32.099  35.537  1.00  0.00     0.057 A 
ATOM     64  C   UNL A   1      39.675  33.421  35.718  1.00  0.00     0.134 A 
ATOM     65  C   UNL A   1      38.341  31.574  36.463  1.00  0.00     0.134 A 
ATOM     66  F   UNL A   1      40.549  33.978  34.868  1.00  0.00    -0.206 F 
ATOM     67  C   UNL A   1      39.221  34.188  36.794  1.00  0.00     0.040 A 
ATOM     68  C   UNL A   1      37.867  32.337  37.531  1.00  0.00     0.040 A 
ATOM     69  F   UNL A   1      37.890  30.317  36.337  1.00  0.00    -0.206 F 
ATOM     70  C   UNL A   1      38.311  33.648  37.700  1.00  0.00     0.006 A 
ENDBRANCH  49  63
BRANCH  50  71
ATOM     71  C   UNL A   1      42.082  27.044  27.513  1.00  0.00     0.057 A 
ATOM     72  C   UNL A   1      41.687  25.716  27.321  1.00  0.00     0.134 A 
ATOM     73  C   UNL A   1      42.926  27.618  26.557  1.00  0.00     0.134 A 
ATOM     74  F   UNL A   1      40.902  25.108  28.222  1.00  0.00    -0.206 F 
ATOM     75  C   UNL A   1      42.124  24.979  26.219  1.00  0.00     0.040 A 
ATOM     76  C   UNL A   1      43.357  26.898  25.442  1.00  0.00     0.040 A 
ATOM     77  F   UNL A   1      43.341  28.886  26.693  1.00  0.00    -0.206 F 
ATOM     78  C   UNL A   1      42.958  25.572  25.273  1.00  0.00     0.006 A 
ENDBRANCH  50  71
BRANCH  62  79
ATOM     79  C   UNL A   1      44.494  27.400  34.017  1.00  0.00     0.057 A 
ATOM     80  C   UNL A   1      45.759  27.994  34.104  1.00  0.00     0.134 A 
ATOM     81  C   UNL A   1      44.319  26.154  34.633  1.00  0.00     0.134 A 
ATOM     82  F   UNL A   1      45.994  29.180  33.523  1.00  0.00    -0.206 F 
ATOM     83  C   UNL A   1      46.814  27.365  34.768  1.00  0.00     0.040 A 
ATOM     84  C   UNL A   1      45.362  25.523  35.313  1.00  0.00     0.040 A 
ATOM     85  F   UNL A   1      43.130  25.534  34.588  1.00  0.00    -0.206 F 
ATOM     86  C   UNL A   1      46.615  26.128  35.378  1.00  0.00     0.006 A 
ENDBRANCH  62  79
ENDBRANCH  36  37
ENDBRANCH  28  31
ENDBRANCH  26  27
ENDBRANCH   1  26
TORSDOF 12
ENDMDL
