MODEL 1
REMARK VINA RESULT:     -12.7      0.000      0.000
REMARK SMILES C[C@H]1Oc2ccccc2C=C1/C=C/C(=O)N[C@H](C(=O)NCCCNC(=O)c1ccc(-c2c3nc(c(-c4c(F)cccc4F)c4ccc([nH]4)c(-c4c(F)cccc4F)c4nc(c(-c5c(F)cccc5F)c5ccc2[nH]5)C=C4)C=C3)cc1)c1ccccc1
REMARK SMILES IDX 21 1 20 2 18 3 19 4 17 6 16 7 14 8 15 9 13 11 12 12 11 13
REMARK SMILES IDX 1 14 2 15 3 16 4 17 10 18 5 19 9 20 6 21 8 22 7 23 81 24
REMARK SMILES IDX 82 25 86 26 83 27 85 28 84 29 22 30 23 31 24 32 25 33 26 35
REMARK SMILES IDX 27 36 28 37 80 38 29 39 79 40 30 41 31 42 32 43 73 44 33 45
REMARK SMILES IDX 78 46 72 47 74 48 34 49 77 50 71 51 70 52 35 54 61 55 44 56
REMARK SMILES IDX 60 57 45 58 48 59 59 60 75 61 46 62 47 63 58 65 76 66 49 67
REMARK SMILES IDX 36 68 37 69 42 70 38 71 39 72 41 73 43 74 40 75 62 76 63 77
REMARK SMILES IDX 68 78 64 79 65 80 67 81 69 82 66 83 50 84 51 85 56 86 52 87
REMARK SMILES IDX 53 88 55 89 57 90 54 91
REMARK H PARENT 20 5 16 10 24 34 74 53 48 64
REMARK Flexibility Score: inf
ROOT
ATOM      1  C   UNL A   1      36.044  20.656  25.040  1.00  0.00     0.117 C 
ENDROOT
BRANCH   1   2
ATOM      2  N   UNL A   1      35.454  21.155  26.271  1.00  0.00    -0.354 N 
ATOM      3  C   UNL A   1      34.187  21.627  26.480  1.00  0.00     0.247 C 
ATOM      4  O   UNL A   1      33.914  21.983  27.633  1.00  0.00    -0.272 OA
ATOM      5  H   UNL A   1      36.045  21.152  27.058  1.00  0.00     0.163 HD
BRANCH   3   6
ATOM      6  C   UNL A   1      33.199  21.910  25.312  1.00  0.00     0.202 C 
BRANCH   6   7
ATOM      7  N   UNL A   1      31.861  21.578  25.820  1.00  0.00    -0.337 N 
ATOM      8  C   UNL A   1      30.792  22.362  26.125  1.00  0.00     0.244 C 
ATOM      9  O   UNL A   1      29.706  21.858  26.389  1.00  0.00    -0.270 OA
ATOM     10  H   UNL A   1      31.711  20.616  25.968  1.00  0.00     0.164 HD
BRANCH   8  11
ATOM     11  C   UNL A   1      31.000  23.809  26.308  1.00  0.00     0.071 C 
ATOM     12  C   UNL A   1      30.216  24.733  25.736  1.00  0.00     0.013 C 
BRANCH  12  13
ATOM     13  C   UNL A   1      30.565  26.147  25.670  1.00  0.00    -0.007 C 
ATOM     14  C   UNL A   1      28.849  26.785  23.878  1.00  0.00     0.058 C 
ATOM     15  C   UNL A   1      30.305  26.858  24.342  1.00  0.00     0.200 C 
ATOM     16  O   UNL A   1      30.651  28.254  24.270  1.00  0.00    -0.485 OA
ATOM     17  C   UNL A   1      31.335  28.812  25.307  1.00  0.00     0.127 A 
ATOM     18  C   UNL A   1      31.176  26.772  26.686  1.00  0.00     0.019 C 
ATOM     19  C   UNL A   1      31.737  30.136  25.125  1.00  0.00     0.047 A 
ATOM     20  C   UNL A   1      31.622  28.145  26.497  1.00  0.00     0.017 A 
ATOM     21  C   UNL A   1      32.439  30.799  26.130  1.00  0.00     0.004 A 
ATOM     22  C   UNL A   1      32.341  28.808  27.497  1.00  0.00     0.012 A 
ATOM     23  C   UNL A   1      32.748  30.132  27.313  1.00  0.00     0.001 A 
ENDBRANCH  12  13
ENDBRANCH   8  11
ENDBRANCH   6   7
BRANCH   6  24
ATOM     24  C   UNL A   1      33.407  23.265  24.652  1.00  0.00    -0.016 A 
ATOM     25  C   UNL A   1      34.083  24.266  25.380  1.00  0.00     0.006 A 
ATOM     26  C   UNL A   1      32.889  23.599  23.390  1.00  0.00     0.006 A 
ATOM     27  C   UNL A   1      34.204  25.561  24.872  1.00  0.00     0.000 A 
ATOM     28  C   UNL A   1      33.033  24.889  22.875  1.00  0.00     0.000 A 
ATOM     29  C   UNL A   1      33.679  25.871  23.621  1.00  0.00     0.000 A 
ENDBRANCH   6  24
ENDBRANCH   3   6
ENDBRANCH   1   2
BRANCH   1  30
ATOM     30  C   UNL A   1      37.291  21.406  24.601  1.00  0.00     0.042 C 
BRANCH  30  31
ATOM     31  C   UNL A   1      38.383  21.395  25.669  1.00  0.00     0.118 C 
BRANCH  31  32
ATOM     32  N   UNL A   1      39.303  20.263  25.600  1.00  0.00    -0.352 N 
ATOM     33  C   UNL A   1      40.615  20.092  25.978  1.00  0.00     0.251 C 
ATOM     34  H   UNL A   1      38.902  19.457  25.202  1.00  0.00     0.163 HD
ATOM     35  O   UNL A   1      41.160  19.012  25.757  1.00  0.00    -0.269 OA
BRANCH  33  36
ATOM     36  C   UNL A   1      41.411  21.201  26.553  1.00  0.00     0.039 A 
ATOM     37  C   UNL A   1      41.556  21.371  27.924  1.00  0.00     0.014 A 
ATOM     38  C   UNL A   1      41.997  22.134  25.689  1.00  0.00     0.014 A 
ATOM     39  C   UNL A   1      42.017  22.580  28.428  1.00  0.00     0.010 A 
ATOM     40  C   UNL A   1      42.594  23.292  26.201  1.00  0.00     0.010 A 
ATOM     41  C   UNL A   1      42.524  23.570  27.575  1.00  0.00    -0.014 A 
BRANCH  41  42
ATOM     42  C   UNL A   1      42.888  24.905  28.129  1.00  0.00     0.031 A 
ATOM     43  C   UNL A   1      41.814  25.921  28.430  1.00  0.00     0.074 A 
ATOM     44  C   UNL A   1      44.168  25.179  28.456  1.00  0.00     0.049 A 
ATOM     45  N   UNL A   1      41.936  27.156  28.854  1.00  0.00    -0.248 NA
ATOM     46  C   UNL A   1      40.419  25.504  28.214  1.00  0.00     0.031 C 
ATOM     47  C   UNL A   1      45.304  24.278  28.257  1.00  0.00     0.029 A 
ATOM     48  N   UNL A   1      44.722  26.279  29.061  1.00  0.00    -0.354 N 
ATOM     49  C   UNL A   1      40.646  27.674  28.895  1.00  0.00     0.074 A 
ATOM     50  C   UNL A   1      39.757  26.628  28.441  1.00  0.00     0.031 C 
ATOM     51  C   UNL A   1      46.400  24.824  28.802  1.00  0.00     0.029 A 
ATOM     52  C   UNL A   1      46.069  26.155  29.297  1.00  0.00     0.049 A 
ATOM     53  H   UNL A   1      44.203  27.081  29.302  1.00  0.00     0.167 HD
ATOM     54  C   UNL A   1      40.236  28.906  29.281  1.00  0.00     0.037 A 
ATOM     55  C   UNL A   1      46.952  27.023  29.824  1.00  0.00     0.037 A 
ATOM     56  C   UNL A   1      41.112  29.927  29.794  1.00  0.00     0.049 A 
ATOM     57  C   UNL A   1      46.481  28.387  30.234  1.00  0.00     0.074 A 
ATOM     58  C   UNL A   1      40.795  31.205  30.221  1.00  0.00     0.029 A 
ATOM     59  N   UNL A   1      42.479  29.775  29.968  1.00  0.00    -0.354 N 
ATOM     60  N   UNL A   1      45.268  28.883  30.204  1.00  0.00    -0.248 NA
ATOM     61  C   UNL A   1      47.503  29.321  30.722  1.00  0.00     0.031 C 
ATOM     62  C   UNL A   1      41.976  31.836  30.629  1.00  0.00     0.029 A 
ATOM     63  C   UNL A   1      43.022  30.938  30.490  1.00  0.00     0.049 A 
ATOM     64  H   UNL A   1      42.989  28.960  29.753  1.00  0.00     0.167 HD
ATOM     65  C   UNL A   1      45.379  30.185  30.671  1.00  0.00     0.074 A 
ATOM     66  C   UNL A   1      46.775  30.394  30.998  1.00  0.00     0.031 C 
ATOM     67  C   UNL A   1      44.414  31.126  30.807  1.00  0.00     0.037 A 
BRANCH  54  68
ATOM     68  C   UNL A   1      38.776  29.224  29.129  1.00  0.00     0.057 A 
ATOM     69  C   UNL A   1      38.258  29.595  27.881  1.00  0.00     0.134 A 
ATOM     70  C   UNL A   1      37.881  29.167  30.206  1.00  0.00     0.134 A 
ATOM     71  F   UNL A   1      39.061  29.675  26.808  1.00  0.00    -0.206 F 
ATOM     72  C   UNL A   1      36.905  29.890  27.707  1.00  0.00     0.040 A 
ATOM     73  C   UNL A   1      36.520  29.434  30.038  1.00  0.00     0.040 A 
ATOM     74  F   UNL A   1      38.307  28.799  31.424  1.00  0.00    -0.206 F 
ATOM     75  C   UNL A   1      36.030  29.800  28.786  1.00  0.00     0.006 A 
ENDBRANCH  54  68
BRANCH  55  76
ATOM     76  C   UNL A   1      48.377  26.633  29.952  1.00  0.00     0.057 A 
ATOM     77  C   UNL A   1      49.304  26.930  28.945  1.00  0.00     0.134 A 
ATOM     78  C   UNL A   1      48.840  25.926  31.067  1.00  0.00     0.134 A 
ATOM     79  F   UNL A   1      48.921  27.601  27.849  1.00  0.00    -0.206 F 
ATOM     80  C   UNL A   1      50.632  26.514  29.027  1.00  0.00     0.040 A 
ATOM     81  C   UNL A   1      50.174  25.527  31.174  1.00  0.00     0.040 A 
ATOM     82  F   UNL A   1      48.005  25.630  32.073  1.00  0.00    -0.206 F 
ATOM     83  C   UNL A   1      51.072  25.813  30.147  1.00  0.00     0.006 A 
ENDBRANCH  55  76
BRANCH  67  84
ATOM     84  C   UNL A   1      44.837  32.454  31.354  1.00  0.00     0.057 A 
ATOM     85  C   UNL A   1      45.247  33.482  30.497  1.00  0.00     0.134 A 
ATOM     86  C   UNL A   1      44.859  32.708  32.732  1.00  0.00     0.134 A 
ATOM     87  F   UNL A   1      45.252  33.298  29.168  1.00  0.00    -0.206 F 
ATOM     88  C   UNL A   1      45.665  34.718  30.991  1.00  0.00     0.040 A 
ATOM     89  C   UNL A   1      45.257  33.947  33.237  1.00  0.00     0.040 A 
ATOM     90  F   UNL A   1      44.463  31.767  33.602  1.00  0.00    -0.206 F 
ATOM     91  C   UNL A   1      45.666  34.954  32.364  1.00  0.00     0.006 A 
ENDBRANCH  67  84
ENDBRANCH  41  42
ENDBRANCH  33  36
ENDBRANCH  31  32
ENDBRANCH  30  31
ENDBRANCH   1  30
TORSDOF 14
ENDMDL
MODEL 2
REMARK VINA RESULT:     -12.7      2.791      7.798
REMARK SMILES C[C@H]1Oc2ccccc2C=C1/C=C/C(=O)N[C@H](C(=O)NCCCNC(=O)c1ccc(-c2c3nc(c(-c4c(F)cccc4F)c4ccc([nH]4)c(-c4c(F)cccc4F)c4nc(c(-c5c(F)cccc5F)c5ccc2[nH]5)C=C4)C=C3)cc1)c1ccccc1
REMARK SMILES IDX 21 1 20 2 18 3 19 4 17 6 16 7 14 8 15 9 13 11 12 12 11 13
REMARK SMILES IDX 1 14 2 15 3 16 4 17 10 18 5 19 9 20 6 21 8 22 7 23 81 24
REMARK SMILES IDX 82 25 86 26 83 27 85 28 84 29 22 30 23 31 24 32 25 33 26 35
REMARK SMILES IDX 27 36 28 37 80 38 29 39 79 40 30 41 31 42 32 43 73 44 33 45
REMARK SMILES IDX 78 46 72 47 74 48 34 49 77 50 71 51 70 52 35 54 61 55 44 56
REMARK SMILES IDX 60 57 45 58 48 59 59 60 75 61 46 62 47 63 58 65 76 66 49 67
REMARK SMILES IDX 36 68 37 69 42 70 38 71 39 72 41 73 43 74 40 75 62 76 63 77
REMARK SMILES IDX 68 78 64 79 65 80 67 81 69 82 66 83 50 84 51 85 56 86 52 87
REMARK SMILES IDX 53 88 55 89 57 90 54 91
REMARK H PARENT 20 5 16 10 24 34 74 53 48 64
REMARK Flexibility Score: inf
ROOT
ATOM      1  C   UNL A   1      32.328  30.077  25.774  1.00  0.00     0.117 C 
ENDROOT
BRANCH   1   2
ATOM      2  N   UNL A   1      33.230  29.702  24.698  1.00  0.00    -0.354 N 
ATOM      3  C   UNL A   1      33.050  28.759  23.724  1.00  0.00     0.247 C 
ATOM      4  O   UNL A   1      33.966  28.633  22.901  1.00  0.00    -0.272 OA
ATOM      5  H   UNL A   1      34.083  30.192  24.667  1.00  0.00     0.163 HD
BRANCH   3   6
ATOM      6  C   UNL A   1      31.871  27.744  23.753  1.00  0.00     0.202 C 
BRANCH   6   7
ATOM      7  N   UNL A   1      31.585  27.411  22.351  1.00  0.00    -0.337 N 
ATOM      8  C   UNL A   1      31.876  26.309  21.608  1.00  0.00     0.244 C 
ATOM      9  O   UNL A   1      31.400  26.173  20.486  1.00  0.00    -0.270 OA
ATOM     10  H   UNL A   1      31.097  28.112  21.860  1.00  0.00     0.164 HD
BRANCH   8  11
ATOM     11  C   UNL A   1      32.905  25.374  22.095  1.00  0.00     0.071 C 
ATOM     12  C   UNL A   1      32.685  24.059  22.227  1.00  0.00     0.013 C 
BRANCH  12  13
ATOM     13  C   UNL A   1      33.578  23.170  22.964  1.00  0.00    -0.007 C 
ATOM     14  C   UNL A   1      32.153  21.057  22.713  1.00  0.00     0.058 C 
ATOM     15  C   UNL A   1      32.934  21.971  23.658  1.00  0.00     0.200 C 
ATOM     16  O   UNL A   1      33.811  21.092  24.389  1.00  0.00    -0.485 OA
ATOM     17  C   UNL A   1      35.109  21.462  24.564  1.00  0.00     0.127 A 
ATOM     18  C   UNL A   1      34.882  23.443  23.111  1.00  0.00     0.019 C 
ATOM     19  C   UNL A   1      35.874  20.622  25.374  1.00  0.00     0.047 A 
ATOM     20  C   UNL A   1      35.683  22.588  23.975  1.00  0.00     0.017 A 
ATOM     21  C   UNL A   1      37.217  20.911  25.612  1.00  0.00     0.004 A 
ATOM     22  C   UNL A   1      37.027  22.884  24.228  1.00  0.00     0.012 A 
ATOM     23  C   UNL A   1      37.791  22.046  25.044  1.00  0.00     0.001 A 
ENDBRANCH  12  13
ENDBRANCH   8  11
ENDBRANCH   6   7
BRANCH   6  24
ATOM     24  C   UNL A   1      32.071  26.604  24.740  1.00  0.00    -0.016 A 
ATOM     25  C   UNL A   1      33.376  26.352  25.215  1.00  0.00     0.006 A 
ATOM     26  C   UNL A   1      31.042  25.737  25.143  1.00  0.00     0.006 A 
ATOM     27  C   UNL A   1      33.639  25.251  26.033  1.00  0.00     0.000 A 
ATOM     28  C   UNL A   1      31.305  24.652  25.979  1.00  0.00     0.000 A 
ATOM     29  C   UNL A   1      32.603  24.402  26.414  1.00  0.00     0.000 A 
ENDBRANCH   6  24
ENDBRANCH   3   6
ENDBRANCH   1   2
BRANCH   1  30
ATOM     30  C   UNL A   1      32.832  29.715  27.161  1.00  0.00     0.042 C 
BRANCH  30  31
ATOM     31  C   UNL A   1      34.320  30.016  27.337  1.00  0.00     0.118 C 
BRANCH  31  32
ATOM     32  N   UNL A   1      34.658  30.777  28.537  1.00  0.00    -0.352 N 
ATOM     33  C   UNL A   1      35.791  30.856  29.313  1.00  0.00     0.251 C 
ATOM     34  H   UNL A   1      33.924  31.351  28.855  1.00  0.00     0.163 HD
ATOM     35  O   UNL A   1      35.776  31.571  30.314  1.00  0.00    -0.269 OA
BRANCH  33  36
ATOM     36  C   UNL A   1      36.990  30.033  29.028  1.00  0.00     0.039 A 
ATOM     37  C   UNL A   1      37.649  29.321  30.022  1.00  0.00     0.014 A 
ATOM     38  C   UNL A   1      37.500  30.010  27.724  1.00  0.00     0.014 A 
ATOM     39  C   UNL A   1      38.932  28.841  29.794  1.00  0.00     0.010 A 
ATOM     40  C   UNL A   1      38.731  29.397  27.460  1.00  0.00     0.010 A 
ATOM     41  C   UNL A   1      39.504  28.889  28.515  1.00  0.00    -0.014 A 
BRANCH  41  42
ATOM     42  C   UNL A   1      40.927  28.487  28.329  1.00  0.00     0.031 A 
ATOM     43  C   UNL A   1      41.270  27.071  27.933  1.00  0.00     0.074 A 
ATOM     44  C   UNL A   1      41.911  29.405  28.418  1.00  0.00     0.049 A 
ATOM     45  N   UNL A   1      42.447  26.513  27.786  1.00  0.00    -0.248 NA
ATOM     46  C   UNL A   1      40.145  26.156  27.682  1.00  0.00     0.031 C 
ATOM     47  C   UNL A   1      41.723  30.817  28.756  1.00  0.00     0.029 A 
ATOM     48  N   UNL A   1      43.261  29.296  28.194  1.00  0.00    -0.354 N 
ATOM     49  C   UNL A   1      42.202  25.177  27.488  1.00  0.00     0.074 A 
ATOM     50  C   UNL A   1      40.766  25.002  27.487  1.00  0.00     0.031 C 
ATOM     51  C   UNL A   1      42.895  31.458  28.637  1.00  0.00     0.029 A 
ATOM     52  C   UNL A   1      43.934  30.487  28.316  1.00  0.00     0.049 A 
ATOM     53  H   UNL A   1      43.703  28.446  27.967  1.00  0.00     0.167 HD
ATOM     54  C   UNL A   1      43.089  24.186  27.231  1.00  0.00     0.037 A 
ATOM     55  C   UNL A   1      45.247  30.768  28.214  1.00  0.00     0.037 A 
ATOM     56  C   UNL A   1      44.515  24.373  27.167  1.00  0.00     0.049 A 
ATOM     57  C   UNL A   1      46.213  29.654  27.942  1.00  0.00     0.074 A 
ATOM     58  C   UNL A   1      45.499  23.435  26.905  1.00  0.00     0.029 A 
ATOM     59  N   UNL A   1      45.158  25.587  27.348  1.00  0.00    -0.354 N 
ATOM     60  N   UNL A   1      45.969  28.385  27.727  1.00  0.00    -0.248 NA
ATOM     61  C   UNL A   1      47.639  30.006  27.926  1.00  0.00     0.031 C 
ATOM     62  C   UNL A   1      46.741  24.078  26.954  1.00  0.00     0.029 A 
ATOM     63  C   UNL A   1      46.527  25.423  27.212  1.00  0.00     0.049 A 
ATOM     64  H   UNL A   1      44.708  26.441  27.546  1.00  0.00     0.167 HD
ATOM     65  C   UNL A   1      47.207  27.785  27.549  1.00  0.00     0.074 A 
ATOM     66  C   UNL A   1      48.200  28.835  27.658  1.00  0.00     0.031 C 
ATOM     67  C   UNL A   1      47.498  26.480  27.325  1.00  0.00     0.037 A 
BRANCH  54  68
ATOM     68  C   UNL A   1      42.537  22.803  27.032  1.00  0.00     0.057 A 
ATOM     69  C   UNL A   1      42.144  22.033  28.136  1.00  0.00     0.134 A 
ATOM     70  C   UNL A   1      42.392  22.230  25.763  1.00  0.00     0.134 A 
ATOM     71  F   UNL A   1      42.260  22.520  29.381  1.00  0.00    -0.206 F 
ATOM     72  C   UNL A   1      41.620  20.749  27.983  1.00  0.00     0.040 A 
ATOM     73  C   UNL A   1      41.845  20.955  25.596  1.00  0.00     0.040 A 
ATOM     74  F   UNL A   1      42.730  22.920  24.663  1.00  0.00    -0.206 F 
ATOM     75  C   UNL A   1      41.462  20.209  26.709  1.00  0.00     0.006 A 
ENDBRANCH  54  68
BRANCH  55  76
ATOM     76  C   UNL A   1      45.715  32.161  28.413  1.00  0.00     0.057 A 
ATOM     77  C   UNL A   1      45.822  33.052  27.337  1.00  0.00     0.134 A 
ATOM     78  C   UNL A   1      46.097  32.626  29.675  1.00  0.00     0.134 A 
ATOM     79  F   UNL A   1      45.475  32.664  26.100  1.00  0.00    -0.206 F 
ATOM     80  C   UNL A   1      46.319  34.344  27.503  1.00  0.00     0.040 A 
ATOM     81  C   UNL A   1      46.572  33.926  29.861  1.00  0.00     0.040 A 
ATOM     82  F   UNL A   1      45.999  31.827  30.748  1.00  0.00    -0.206 F 
ATOM     83  C   UNL A   1      46.692  34.786  28.770  1.00  0.00     0.006 A 
ENDBRANCH  55  76
BRANCH  67  84
ATOM     84  C   UNL A   1      48.943  26.128  27.160  1.00  0.00     0.057 A 
ATOM     85  C   UNL A   1      49.728  25.793  28.270  1.00  0.00     0.134 A 
ATOM     86  C   UNL A   1      49.565  26.141  25.905  1.00  0.00     0.134 A 
ATOM     87  F   UNL A   1      49.191  25.768  29.500  1.00  0.00    -0.206 F 
ATOM     88  C   UNL A   1      51.082  25.484  28.138  1.00  0.00     0.040 A 
ATOM     89  C   UNL A   1      50.913  25.814  25.757  1.00  0.00     0.040 A 
ATOM     90  F   UNL A   1      48.861  26.439  24.802  1.00  0.00    -0.206 F 
ATOM     91  C   UNL A   1      51.676  25.489  26.878  1.00  0.00     0.006 A 
ENDBRANCH  67  84
ENDBRANCH  41  42
ENDBRANCH  33  36
ENDBRANCH  31  32
ENDBRANCH  30  31
ENDBRANCH   1  30
TORSDOF 14
ENDMDL
MODEL 3
REMARK VINA RESULT:     -12.7      2.344      7.456
REMARK SMILES C[C@H]1Oc2ccccc2C=C1/C=C/C(=O)N[C@H](C(=O)NCCCNC(=O)c1ccc(-c2c3nc(c(-c4c(F)cccc4F)c4ccc([nH]4)c(-c4c(F)cccc4F)c4nc(c(-c5c(F)cccc5F)c5ccc2[nH]5)C=C4)C=C3)cc1)c1ccccc1
REMARK SMILES IDX 21 1 20 2 18 3 19 4 17 6 16 7 14 8 15 9 13 11 12 12 11 13
REMARK SMILES IDX 1 14 2 15 3 16 4 17 10 18 5 19 9 20 6 21 8 22 7 23 81 24
REMARK SMILES IDX 82 25 86 26 83 27 85 28 84 29 22 30 23 31 24 32 25 33 26 35
REMARK SMILES IDX 27 36 28 37 80 38 29 39 79 40 30 41 31 42 32 43 73 44 33 45
REMARK SMILES IDX 78 46 72 47 74 48 34 49 77 50 71 51 70 52 35 54 61 55 44 56
REMARK SMILES IDX 60 57 45 58 48 59 59 60 75 61 46 62 47 63 58 65 76 66 49 67
REMARK SMILES IDX 36 68 37 69 42 70 38 71 39 72 41 73 43 74 40 75 62 76 63 77
REMARK SMILES IDX 68 78 64 79 65 80 67 81 69 82 66 83 50 84 51 85 56 86 52 87
REMARK SMILES IDX 53 88 55 89 57 90 54 91
REMARK H PARENT 20 5 16 10 24 34 74 53 48 64
REMARK Flexibility Score: inf
ROOT
ATOM      1  C   UNL A   1      31.787  30.042  25.380  1.00  0.00     0.117 C 
ENDROOT
BRANCH   1   2
ATOM      2  N   UNL A   1      32.793  29.710  24.386  1.00  0.00    -0.354 N 
ATOM      3  C   UNL A   1      32.765  28.722  23.441  1.00  0.00     0.247 C 
ATOM      4  O   UNL A   1      33.745  28.646  22.690  1.00  0.00    -0.272 OA
ATOM      5  H   UNL A   1      33.602  30.270  24.394  1.00  0.00     0.163 HD
BRANCH   3   6
ATOM      6  C   UNL A   1      31.675  27.610  23.428  1.00  0.00     0.202 C 
BRANCH   6   7
ATOM      7  N   UNL A   1      31.485  27.241  22.018  1.00  0.00    -0.337 N 
ATOM      8  C   UNL A   1      31.865  26.141  21.315  1.00  0.00     0.244 C 
ATOM      9  O   UNL A   1      31.461  25.964  20.171  1.00  0.00    -0.270 OA
ATOM     10  H   UNL A   1      30.996  27.911  21.488  1.00  0.00     0.164 HD
BRANCH   8  11
ATOM     11  C   UNL A   1      32.904  25.260  21.877  1.00  0.00     0.071 C 
ATOM     12  C   UNL A   1      32.742  23.936  22.003  1.00  0.00     0.013 C 
BRANCH  12  13
ATOM     13  C   UNL A   1      33.625  23.096  22.805  1.00  0.00    -0.007 C 
ATOM     14  C   UNL A   1      32.220  20.961  22.640  1.00  0.00     0.058 C 
ATOM     15  C   UNL A   1      32.975  21.931  23.550  1.00  0.00     0.200 C 
ATOM     16  O   UNL A   1      33.842  21.100  24.345  1.00  0.00    -0.485 OA
ATOM     17  C   UNL A   1      35.134  21.489  24.526  1.00  0.00     0.127 A 
ATOM     18  C   UNL A   1      34.924  23.386  22.963  1.00  0.00     0.019 C 
ATOM     19  C   UNL A   1      35.888  20.701  25.396  1.00  0.00     0.047 A 
ATOM     20  C   UNL A   1      35.712  22.586  23.889  1.00  0.00     0.017 A 
ATOM     21  C   UNL A   1      37.223  21.012  25.645  1.00  0.00     0.004 A 
ATOM     22  C   UNL A   1      37.049  22.905  24.153  1.00  0.00     0.012 A 
ATOM     23  C   UNL A   1      37.802  22.119  25.029  1.00  0.00     0.001 A 
ENDBRANCH  12  13
ENDBRANCH   8  11
ENDBRANCH   6   7
BRANCH   6  24
ATOM     24  C   UNL A   1      31.924  26.500  24.439  1.00  0.00    -0.016 A 
ATOM     25  C   UNL A   1      33.227  26.350  24.959  1.00  0.00     0.006 A 
ATOM     26  C   UNL A   1      30.947  25.566  24.820  1.00  0.00     0.006 A 
ATOM     27  C   UNL A   1      33.541  25.282  25.802  1.00  0.00     0.000 A 
ATOM     28  C   UNL A   1      31.260  24.513  25.681  1.00  0.00     0.000 A 
ATOM     29  C   UNL A   1      32.558  24.365  26.162  1.00  0.00     0.000 A 
ENDBRANCH   6  24
ENDBRANCH   3   6
ENDBRANCH   1   2
BRANCH   1  30
ATOM     30  C   UNL A   1      31.939  29.292  26.693  1.00  0.00     0.042 C 
BRANCH  30  31
ATOM     31  C   UNL A   1      33.367  29.347  27.233  1.00  0.00     0.118 C 
BRANCH  31  32
ATOM     32  N   UNL A   1      33.681  30.531  28.027  1.00  0.00    -0.352 N 
ATOM     33  C   UNL A   1      34.832  30.981  28.633  1.00  0.00     0.251 C 
ATOM     34  H   UNL A   1      32.911  31.132  28.155  1.00  0.00     0.163 HD
ATOM     35  O   UNL A   1      34.791  32.022  29.286  1.00  0.00    -0.269 OA
BRANCH  33  36
ATOM     36  C   UNL A   1      36.088  30.196  28.598  1.00  0.00     0.039 A 
ATOM     37  C   UNL A   1      36.518  29.442  29.682  1.00  0.00     0.014 A 
ATOM     38  C   UNL A   1      36.890  30.252  27.451  1.00  0.00     0.014 A 
ATOM     39  C   UNL A   1      37.833  28.998  29.740  1.00  0.00     0.010 A 
ATOM     40  C   UNL A   1      38.166  29.677  27.454  1.00  0.00     0.010 A 
ATOM     41  C   UNL A   1      38.686  29.126  28.635  1.00  0.00    -0.014 A 
BRANCH  41  42
ATOM     42  C   UNL A   1      40.124  28.760  28.769  1.00  0.00     0.031 A 
ATOM     43  C   UNL A   1      41.090  29.706  29.441  1.00  0.00     0.074 A 
ATOM     44  C   UNL A   1      40.556  27.543  28.379  1.00  0.00     0.049 A 
ATOM     45  N   UNL A   1      42.387  29.596  29.596  1.00  0.00    -0.248 NA
ATOM     46  C   UNL A   1      40.529  30.946  30.001  1.00  0.00     0.031 C 
ATOM     47  C   UNL A   1      39.727  26.513  27.749  1.00  0.00     0.029 A 
ATOM     48  N   UNL A   1      41.789  26.952  28.489  1.00  0.00    -0.354 N 
ATOM     49  C   UNL A   1      42.799  30.773  30.212  1.00  0.00     0.074 A 
ATOM     50  C   UNL A   1      41.619  31.590  30.391  1.00  0.00     0.031 C 
ATOM     51  C   UNL A   1      40.451  25.394  27.604  1.00  0.00     0.029 A 
ATOM     52  C   UNL A   1      41.819  25.656  28.035  1.00  0.00     0.049 A 
ATOM     53  H   UNL A   1      42.577  27.413  28.859  1.00  0.00     0.167 HD
ATOM     54  C   UNL A   1      44.044  31.139  30.599  1.00  0.00     0.037 A 
ATOM     55  C   UNL A   1      42.837  24.781  27.942  1.00  0.00     0.037 A 
ATOM     56  C   UNL A   1      45.208  30.301  30.481  1.00  0.00     0.049 A 
ATOM     57  C   UNL A   1      44.211  25.211  28.365  1.00  0.00     0.074 A 
ATOM     58  C   UNL A   1      46.513  30.576  30.852  1.00  0.00     0.029 A 
ATOM     59  N   UNL A   1      45.201  29.014  29.967  1.00  0.00    -0.354 N 
ATOM     60  N   UNL A   1      44.594  26.351  28.885  1.00  0.00    -0.248 NA
ATOM     61  C   UNL A   1      45.297  24.244  28.162  1.00  0.00     0.031 C 
ATOM     62  C   UNL A   1      47.301  29.462  30.537  1.00  0.00     0.029 A 
ATOM     63  C   UNL A   1      46.480  28.482  30.003  1.00  0.00     0.049 A 
ATOM     64  H   UNL A   1      44.404  28.546  29.625  1.00  0.00     0.167 HD
ATOM     65  C   UNL A   1      45.964  26.240  29.074  1.00  0.00     0.074 A 
ATOM     66  C   UNL A   1      46.341  24.912  28.633  1.00  0.00     0.031 C 
ATOM     67  C   UNL A   1      46.834  27.159  29.559  1.00  0.00     0.037 A 
BRANCH  54  68
ATOM     68  C   UNL A   1      44.210  32.523  31.160  1.00  0.00     0.057 A 
ATOM     69  C   UNL A   1      44.459  33.607  30.306  1.00  0.00     0.134 A 
ATOM     70  C   UNL A   1      44.127  32.791  32.532  1.00  0.00     0.134 A 
ATOM     71  F   UNL A   1      44.555  33.420  28.981  1.00  0.00    -0.206 F 
ATOM     72  C   UNL A   1      44.611  34.905  30.795  1.00  0.00     0.040 A 
ATOM     73  C   UNL A   1      44.252  34.089  33.031  1.00  0.00     0.040 A 
ATOM     74  F   UNL A   1      43.871  31.802  33.402  1.00  0.00    -0.206 F 
ATOM     75  C   UNL A   1      44.499  35.150  32.162  1.00  0.00     0.006 A 
ENDBRANCH  54  68
BRANCH  55  76
ATOM     76  C   UNL A   1      42.593  23.427  27.388  1.00  0.00     0.057 A 
ATOM     77  C   UNL A   1      42.705  23.174  26.015  1.00  0.00     0.134 A 
ATOM     78  C   UNL A   1      42.210  22.363  28.211  1.00  0.00     0.134 A 
ATOM     79  F   UNL A   1      43.064  24.155  25.173  1.00  0.00    -0.206 F 
ATOM     80  C   UNL A   1      42.418  21.921  25.476  1.00  0.00     0.040 A 
ATOM     81  C   UNL A   1      41.945  21.096  27.688  1.00  0.00     0.040 A 
ATOM     82  F   UNL A   1      42.105  22.538  29.536  1.00  0.00    -0.206 F 
ATOM     83  C   UNL A   1      42.040  20.875  26.315  1.00  0.00     0.006 A 
ENDBRANCH  55  76
BRANCH  67  84
ATOM     84  C   UNL A   1      48.269  26.745  29.658  1.00  0.00     0.057 A 
ATOM     85  C   UNL A   1      49.175  27.059  28.638  1.00  0.00     0.134 A 
ATOM     86  C   UNL A   1      48.750  26.017  30.754  1.00  0.00     0.134 A 
ATOM     87  F   UNL A   1      48.774  27.750  27.560  1.00  0.00    -0.206 F 
ATOM     88  C   UNL A   1      50.511  26.662  28.703  1.00  0.00     0.040 A 
ATOM     89  C   UNL A   1      50.088  25.631  30.840  1.00  0.00     0.040 A 
ATOM     90  F   UNL A   1      47.933  25.700  31.770  1.00  0.00    -0.206 F 
ATOM     91  C   UNL A   1      50.971  25.950  29.810  1.00  0.00     0.006 A 
ENDBRANCH  67  84
ENDBRANCH  41  42
ENDBRANCH  33  36
ENDBRANCH  31  32
ENDBRANCH  30  31
ENDBRANCH   1  30
TORSDOF 14
ENDMDL
