MODEL 1
REMARK VINA RESULT:     -11.0      0.000      0.000
REMARK SMILES CCS(=O)(=O)N1CCC[C@@H](C(=O)NCCCNC(=O)c2ccc(-c3c4nc(c(-c5c(F)cccc5F)c5ccc([nH]5)c(-c5c(F)cccc5F)c5nc(c(-c6c(F)cccc6F)c6ccc3[nH]6)C=C5)C=C4)cc2)C1
REMARK SMILES IDX 15 1 14 2 13 3 11 4 12 5 10 7 6 8 7 9 74 10 8 11 9 12 3 13
REMARK SMILES IDX 4 14 5 15 2 16 1 17 16 18 17 19 18 20 19 22 20 23 21 24
REMARK SMILES IDX 73 25 22 26 72 27 23 28 24 29 25 30 66 31 26 32 71 33 65 34
REMARK SMILES IDX 67 35 27 36 70 37 64 38 63 39 28 41 54 42 37 43 53 44 38 45
REMARK SMILES IDX 41 46 52 47 68 48 39 49 40 50 51 52 69 53 42 54 29 55 30 56
REMARK SMILES IDX 35 57 31 58 32 59 34 60 36 61 33 62 55 63 56 64 61 65 57 66
REMARK SMILES IDX 58 67 60 68 62 69 59 70 43 71 44 72 49 73 45 74 46 75 48 76
REMARK SMILES IDX 50 77 47 78
REMARK H PARENT 13 6 17 21 67 40 41 51
REMARK Flexibility Score: inf
ROOT
ATOM      1  C   UNL A   1      38.338  20.303  24.891  1.00  0.00     0.042 C 
ENDROOT
BRANCH   1   2
ATOM      2  C   UNL A   1      37.646  21.654  24.792  1.00  0.00     0.117 C 
BRANCH   2   3
ATOM      3  N   UNL A   1      36.654  21.847  25.840  1.00  0.00    -0.356 N 
ATOM      4  C   UNL A   1      35.347  21.475  25.919  1.00  0.00     0.224 C 
ATOM      5  O   UNL A   1      34.734  21.763  26.950  1.00  0.00    -0.275 OA
ATOM      6  H   UNL A   1      36.987  22.330  26.630  1.00  0.00     0.163 HD
BRANCH   4   7
ATOM      7  C   UNL A   1      34.656  20.726  24.790  1.00  0.00     0.093 C 
ATOM      8  N   UNL A   1      33.918  18.411  24.096  1.00  0.00    -0.201 NA
ATOM      9  C   UNL A   1      32.508  18.873  24.216  1.00  0.00     0.102 C 
ATOM     10  C   UNL A   1      34.826  19.216  24.981  1.00  0.00     0.115 C 
ATOM     11  C   UNL A   1      32.415  20.301  23.697  1.00  0.00     0.018 C 
ATOM     12  C   UNL A   1      33.227  21.237  24.575  1.00  0.00     0.016 C 
BRANCH   8  13
ATOM     13  S   UNL A   1      34.137  16.722  24.315  1.00  0.00     0.213 S 
ATOM     14  O   UNL A   1      35.375  16.530  25.036  1.00  0.00    -0.212 OA
ATOM     15  O   UNL A   1      33.934  16.090  23.025  1.00  0.00    -0.212 OA
BRANCH  13  16
ATOM     16  C   UNL A   1      32.753  16.226  25.337  1.00  0.00     0.151 C 
ATOM     17  C   UNL A   1      32.529  14.736  25.453  1.00  0.00     0.022 C 
ENDBRANCH  13  16
ENDBRANCH   8  13
ENDBRANCH   4   7
ENDBRANCH   2   3
ENDBRANCH   1   2
BRANCH   1  18
ATOM     18  C   UNL A   1      39.171  20.130  26.153  1.00  0.00     0.118 C 
BRANCH  18  19
ATOM     19  N   UNL A   1      40.349  19.297  25.941  1.00  0.00    -0.352 N 
ATOM     20  C   UNL A   1      41.682  19.620  26.002  1.00  0.00     0.251 C 
ATOM     21  H   UNL A   1      40.159  18.357  25.719  1.00  0.00     0.163 HD
ATOM     22  O   UNL A   1      42.522  18.816  25.608  1.00  0.00    -0.269 OA
BRANCH  20  23
ATOM     23  C   UNL A   1      42.106  20.938  26.519  1.00  0.00     0.039 A 
ATOM     24  C   UNL A   1      42.424  21.950  25.609  1.00  0.00     0.014 A 
ATOM     25  C   UNL A   1      42.197  21.177  27.892  1.00  0.00     0.014 A 
ATOM     26  C   UNL A   1      42.761  23.221  26.078  1.00  0.00     0.010 A 
ATOM     27  C   UNL A   1      42.439  22.466  28.355  1.00  0.00     0.010 A 
ATOM     28  C   UNL A   1      42.729  23.501  27.454  1.00  0.00    -0.014 A 
BRANCH  28  29
ATOM     29  C   UNL A   1      42.991  24.868  27.971  1.00  0.00     0.031 A 
ATOM     30  C   UNL A   1      44.383  25.273  28.370  1.00  0.00     0.074 A 
ATOM     31  C   UNL A   1      41.964  25.720  28.150  1.00  0.00     0.049 A 
ATOM     32  N   UNL A   1      44.797  26.396  28.902  1.00  0.00    -0.248 NA
ATOM     33  C   UNL A   1      45.445  24.274  28.174  1.00  0.00     0.031 C 
ATOM     34  C   UNL A   1      40.560  25.427  27.854  1.00  0.00     0.029 A 
ATOM     35  N   UNL A   1      41.939  27.003  28.636  1.00  0.00    -0.354 N 
ATOM     36  C   UNL A   1      46.160  26.231  29.118  1.00  0.00     0.074 A 
ATOM     37  C   UNL A   1      46.490  24.880  28.718  1.00  0.00     0.031 C 
ATOM     38  C   UNL A   1      39.817  26.507  28.141  1.00  0.00     0.029 A 
ATOM     39  C   UNL A   1      40.681  27.551  28.682  1.00  0.00     0.049 A 
ATOM     40  H   UNL A   1      42.748  27.485  28.926  1.00  0.00     0.167 HD
ATOM     41  C   UNL A   1      47.058  27.130  29.585  1.00  0.00     0.037 A 
ATOM     42  C   UNL A   1      40.266  28.755  29.118  1.00  0.00     0.037 A 
ATOM     43  C   UNL A   1      46.727  28.477  29.970  1.00  0.00     0.049 A 
ATOM     44  C   UNL A   1      41.279  29.733  29.645  1.00  0.00     0.074 A 
ATOM     45  C   UNL A   1      47.574  29.485  30.395  1.00  0.00     0.029 A 
ATOM     46  N   UNL A   1      45.442  28.999  29.988  1.00  0.00    -0.354 N 
ATOM     47  N   UNL A   1      42.577  29.593  29.769  1.00  0.00    -0.248 NA
ATOM     48  C   UNL A   1      40.771  31.039  30.084  1.00  0.00     0.031 C 
ATOM     49  C   UNL A   1      46.795  30.598  30.726  1.00  0.00     0.029 A 
ATOM     50  C   UNL A   1      45.469  30.307  30.447  1.00  0.00     0.049 A 
ATOM     51  H   UNL A   1      44.630  28.513  29.715  1.00  0.00     0.167 HD
ATOM     52  C   UNL A   1      43.044  30.799  30.275  1.00  0.00     0.074 A 
ATOM     53  C   UNL A   1      41.891  31.664  30.420  1.00  0.00     0.031 C 
ATOM     54  C   UNL A   1      44.314  31.158  30.588  1.00  0.00     0.037 A 
BRANCH  41  55
ATOM     55  C   UNL A   1      48.486  26.675  29.714  1.00  0.00     0.057 A 
ATOM     56  C   UNL A   1      48.976  26.088  30.889  1.00  0.00     0.134 A 
ATOM     57  C   UNL A   1      49.379  26.814  28.644  1.00  0.00     0.134 A 
ATOM     58  F   UNL A   1      48.179  25.934  31.957  1.00  0.00    -0.206 F 
ATOM     59  C   UNL A   1      50.311  25.696  31.009  1.00  0.00     0.040 A 
ATOM     60  C   UNL A   1      50.707  26.393  28.741  1.00  0.00     0.040 A 
ATOM     61  F   UNL A   1      48.977  27.358  27.485  1.00  0.00    -0.206 F 
ATOM     62  C   UNL A   1      51.179  25.843  29.930  1.00  0.00     0.006 A 
ENDBRANCH  41  55
BRANCH  42  63
ATOM     63  C   UNL A   1      38.825  29.106  29.054  1.00  0.00     0.057 A 
ATOM     64  C   UNL A   1      38.243  29.555  27.863  1.00  0.00     0.134 A 
ATOM     65  C   UNL A   1      37.992  28.984  30.173  1.00  0.00     0.134 A 
ATOM     66  F   UNL A   1      38.993  29.709  26.762  1.00  0.00    -0.206 F 
ATOM     67  C   UNL A   1      36.890  29.884  27.789  1.00  0.00     0.040 A 
ATOM     68  C   UNL A   1      36.631  29.283  30.106  1.00  0.00     0.040 A 
ATOM     69  F   UNL A   1      38.486  28.550  31.341  1.00  0.00    -0.206 F 
ATOM     70  C   UNL A   1      36.077  29.741  28.912  1.00  0.00     0.006 A 
ENDBRANCH  42  63
BRANCH  54  71
ATOM     71  C   UNL A   1      44.531  32.558  31.085  1.00  0.00     0.057 A 
ATOM     72  C   UNL A   1      44.540  32.871  32.450  1.00  0.00     0.134 A 
ATOM     73  C   UNL A   1      44.776  33.603  30.183  1.00  0.00     0.134 A 
ATOM     74  F   UNL A   1      44.299  31.920  33.367  1.00  0.00    -0.206 F 
ATOM     75  C   UNL A   1      44.761  34.174  32.900  1.00  0.00     0.040 A 
ATOM     76  C   UNL A   1      45.029  34.903  30.621  1.00  0.00     0.040 A 
ATOM     77  F   UNL A   1      44.791  33.373  28.861  1.00  0.00    -0.206 F 
ATOM     78  C   UNL A   1      45.015  35.193  31.985  1.00  0.00     0.006 A 
ENDBRANCH  54  71
ENDBRANCH  28  29
ENDBRANCH  20  23
ENDBRANCH  18  19
ENDBRANCH   1  18
TORSDOF 12
ENDMDL
MODEL 2
REMARK VINA RESULT:     -11.0      0.416      6.485
REMARK SMILES CCS(=O)(=O)N1CCC[C@@H](C(=O)NCCCNC(=O)c2ccc(-c3c4nc(c(-c5c(F)cccc5F)c5ccc([nH]5)c(-c5c(F)cccc5F)c5nc(c(-c6c(F)cccc6F)c6ccc3[nH]6)C=C5)C=C4)cc2)C1
REMARK SMILES IDX 15 1 14 2 13 3 11 4 12 5 10 7 6 8 7 9 74 10 8 11 9 12 3 13
REMARK SMILES IDX 4 14 5 15 2 16 1 17 16 18 17 19 18 20 19 22 20 23 21 24
REMARK SMILES IDX 73 25 22 26 72 27 23 28 24 29 25 30 66 31 26 32 71 33 65 34
REMARK SMILES IDX 67 35 27 36 70 37 64 38 63 39 28 41 54 42 37 43 53 44 38 45
REMARK SMILES IDX 41 46 52 47 68 48 39 49 40 50 51 52 69 53 42 54 29 55 30 56
REMARK SMILES IDX 35 57 31 58 32 59 34 60 36 61 33 62 55 63 56 64 61 65 57 66
REMARK SMILES IDX 58 67 60 68 62 69 59 70 43 71 44 72 49 73 45 74 46 75 48 76
REMARK SMILES IDX 50 77 47 78
REMARK H PARENT 13 6 17 21 67 40 41 51
REMARK Flexibility Score: inf
ROOT
ATOM      1  C   UNL A   1      38.201  20.333  24.726  1.00  0.00     0.042 C 
ENDROOT
BRANCH   1   2
ATOM      2  C   UNL A   1      37.626  21.734  24.875  1.00  0.00     0.117 C 
BRANCH   2   3
ATOM      3  N   UNL A   1      36.639  21.817  25.941  1.00  0.00    -0.356 N 
ATOM      4  C   UNL A   1      35.343  21.402  26.000  1.00  0.00     0.224 C 
ATOM      5  O   UNL A   1      34.732  21.593  27.053  1.00  0.00    -0.275 OA
ATOM      6  H   UNL A   1      36.965  22.248  26.763  1.00  0.00     0.163 HD
BRANCH   4   7
ATOM      7  C   UNL A   1      34.665  20.721  24.821  1.00  0.00     0.093 C 
ATOM      8  N   UNL A   1      33.928  18.452  23.988  1.00  0.00    -0.201 NA
ATOM      9  C   UNL A   1      32.518  18.912  24.116  1.00  0.00     0.102 C 
ATOM     10  C   UNL A   1      34.827  19.202  24.929  1.00  0.00     0.115 C 
ATOM     11  C   UNL A   1      32.436  20.367  23.678  1.00  0.00     0.018 C 
ATOM     12  C   UNL A   1      33.241  21.249  24.618  1.00  0.00     0.016 C 
BRANCH   8  13
ATOM     13  S   UNL A   1      34.138  16.752  24.114  1.00  0.00     0.213 S 
ATOM     14  O   UNL A   1      35.268  16.513  24.984  1.00  0.00    -0.212 OA
ATOM     15  O   UNL A   1      34.124  16.214  22.766  1.00  0.00    -0.212 OA
BRANCH  13  16
ATOM     16  C   UNL A   1      32.634  16.178  24.897  1.00  0.00     0.151 C 
ATOM     17  C   UNL A   1      32.736  14.847  25.607  1.00  0.00     0.022 C 
ENDBRANCH  13  16
ENDBRANCH   8  13
ENDBRANCH   4   7
ENDBRANCH   2   3
ENDBRANCH   1   2
BRANCH   1  18
ATOM     18  C   UNL A   1      38.766  19.760  26.017  1.00  0.00     0.118 C 
BRANCH  18  19
ATOM     19  N   UNL A   1      40.046  19.089  25.825  1.00  0.00    -0.352 N 
ATOM     20  C   UNL A   1      41.325  19.575  25.945  1.00  0.00     0.251 C 
ATOM     21  H   UNL A   1      39.984  18.141  25.568  1.00  0.00     0.163 HD
ATOM     22  O   UNL A   1      42.272  18.897  25.558  1.00  0.00    -0.269 OA
BRANCH  20  23
ATOM     23  C   UNL A   1      41.562  20.917  26.515  1.00  0.00     0.039 A 
ATOM     24  C   UNL A   1      41.563  21.070  27.904  1.00  0.00     0.014 A 
ATOM     25  C   UNL A   1      41.776  22.022  25.689  1.00  0.00     0.014 A 
ATOM     26  C   UNL A   1      41.852  22.317  28.463  1.00  0.00     0.010 A 
ATOM     27  C   UNL A   1      42.157  23.238  26.245  1.00  0.00     0.010 A 
ATOM     28  C   UNL A   1      42.193  23.401  27.638  1.00  0.00    -0.014 A 
BRANCH  28  29
ATOM     29  C   UNL A   1      42.596  24.710  28.212  1.00  0.00     0.031 A 
ATOM     30  C   UNL A   1      41.571  25.789  28.431  1.00  0.00     0.074 A 
ATOM     31  C   UNL A   1      43.896  24.955  28.465  1.00  0.00     0.049 A 
ATOM     32  N   UNL A   1      41.740  27.014  28.858  1.00  0.00    -0.248 NA
ATOM     33  C   UNL A   1      40.177  25.454  28.099  1.00  0.00     0.031 C 
ATOM     34  C   UNL A   1      44.993  24.012  28.242  1.00  0.00     0.029 A 
ATOM     35  N   UNL A   1      44.517  26.076  28.955  1.00  0.00    -0.354 N 
ATOM     36  C   UNL A   1      40.480  27.601  28.830  1.00  0.00     0.074 A 
ATOM     37  C   UNL A   1      39.570  26.616  28.286  1.00  0.00     0.031 C 
ATOM     38  C   UNL A   1      46.147  24.584  28.617  1.00  0.00     0.029 A 
ATOM     39  C   UNL A   1      45.880  25.947  29.064  1.00  0.00     0.049 A 
ATOM     40  H   UNL A   1      44.031  26.895  29.203  1.00  0.00     0.167 HD
ATOM     41  C   UNL A   1      40.111  28.837  29.241  1.00  0.00     0.037 A 
ATOM     42  C   UNL A   1      46.812  26.830  29.469  1.00  0.00     0.037 A 
ATOM     43  C   UNL A   1      41.019  29.808  29.793  1.00  0.00     0.049 A 
ATOM     44  C   UNL A   1      46.382  28.201  29.909  1.00  0.00     0.074 A 
ATOM     45  C   UNL A   1      40.734  31.064  30.298  1.00  0.00     0.029 A 
ATOM     46  N   UNL A   1      42.391  29.634  29.901  1.00  0.00    -0.354 N 
ATOM     47  N   UNL A   1      45.177  28.715  29.952  1.00  0.00    -0.248 NA
ATOM     48  C   UNL A   1      47.441  29.112  30.364  1.00  0.00     0.031 C 
ATOM     49  C   UNL A   1      41.941  31.673  30.657  1.00  0.00     0.029 A 
ATOM     50  C   UNL A   1      42.972  30.773  30.436  1.00  0.00     0.049 A 
ATOM     51  H   UNL A   1      42.881  28.822  29.637  1.00  0.00     0.167 HD
ATOM     52  C   UNL A   1      45.327  29.998  30.463  1.00  0.00     0.074 A 
ATOM     53  C   UNL A   1      46.740  30.178  30.728  1.00  0.00     0.031 C 
ATOM     54  C   UNL A   1      44.380  30.940  30.694  1.00  0.00     0.037 A 
BRANCH  41  55
ATOM     55  C   UNL A   1      38.661  29.208  29.096  1.00  0.00     0.057 A 
ATOM     56  C   UNL A   1      37.772  29.172  30.179  1.00  0.00     0.134 A 
ATOM     57  C   UNL A   1      38.149  29.618  27.858  1.00  0.00     0.134 A 
ATOM     58  F   UNL A   1      38.192  28.779  31.392  1.00  0.00    -0.206 F 
ATOM     59  C   UNL A   1      36.421  29.490  30.029  1.00  0.00     0.040 A 
ATOM     60  C   UNL A   1      36.807  29.971  27.703  1.00  0.00     0.040 A 
ATOM     61  F   UNL A   1      38.943  29.684  26.779  1.00  0.00    -0.206 F 
ATOM     62  C   UNL A   1      35.937  29.897  28.788  1.00  0.00     0.006 A 
ENDBRANCH  41  55
BRANCH  42  63
ATOM     63  C   UNL A   1      48.242  26.430  29.496  1.00  0.00     0.057 A 
ATOM     64  C   UNL A   1      49.085  26.686  28.408  1.00  0.00     0.134 A 
ATOM     65  C   UNL A   1      48.804  25.801  30.613  1.00  0.00     0.134 A 
ATOM     66  F   UNL A   1      48.600  27.270  27.303  1.00  0.00    -0.206 F 
ATOM     67  C   UNL A   1      50.430  26.319  28.424  1.00  0.00     0.040 A 
ATOM     68  C   UNL A   1      50.155  25.453  30.654  1.00  0.00     0.040 A 
ATOM     69  F   UNL A   1      48.053  25.537  31.692  1.00  0.00    -0.206 F 
ATOM     70  C   UNL A   1      50.971  25.707  29.553  1.00  0.00     0.006 A 
ENDBRANCH  42  63
BRANCH  54  71
ATOM     71  C   UNL A   1      44.834  32.240  31.295  1.00  0.00     0.057 A 
ATOM     72  C   UNL A   1      45.191  33.341  30.507  1.00  0.00     0.134 A 
ATOM     73  C   UNL A   1      44.873  32.403  32.687  1.00  0.00     0.134 A 
ATOM     74  F   UNL A   1      45.187  33.248  29.168  1.00  0.00    -0.206 F 
ATOM     75  C   UNL A   1      45.594  34.549  31.079  1.00  0.00     0.040 A 
ATOM     76  C   UNL A   1      45.244  33.615  33.270  1.00  0.00     0.040 A 
ATOM     77  F   UNL A   1      44.535  31.393  33.502  1.00  0.00    -0.206 F 
ATOM     78  C   UNL A   1      45.613  34.691  32.465  1.00  0.00     0.006 A 
ENDBRANCH  54  71
ENDBRANCH  28  29
ENDBRANCH  20  23
ENDBRANCH  18  19
ENDBRANCH   1  18
TORSDOF 12
ENDMDL
MODEL 3
REMARK VINA RESULT:     -11.0      1.707      6.699
REMARK SMILES CCS(=O)(=O)N1CCC[C@@H](C(=O)NCCCNC(=O)c2ccc(-c3c4nc(c(-c5c(F)cccc5F)c5ccc([nH]5)c(-c5c(F)cccc5F)c5nc(c(-c6c(F)cccc6F)c6ccc3[nH]6)C=C5)C=C4)cc2)C1
REMARK SMILES IDX 15 1 14 2 13 3 11 4 12 5 10 7 6 8 7 9 74 10 8 11 9 12 3 13
REMARK SMILES IDX 4 14 5 15 2 16 1 17 16 18 17 19 18 20 19 22 20 23 21 24
REMARK SMILES IDX 73 25 22 26 72 27 23 28 24 29 25 30 66 31 26 32 71 33 65 34
REMARK SMILES IDX 67 35 27 36 70 37 64 38 63 39 28 41 54 42 37 43 53 44 38 45
REMARK SMILES IDX 41 46 52 47 68 48 39 49 40 50 51 52 69 53 42 54 29 55 30 56
REMARK SMILES IDX 35 57 31 58 32 59 34 60 36 61 33 62 55 63 56 64 61 65 57 66
REMARK SMILES IDX 58 67 60 68 62 69 59 70 43 71 44 72 49 73 45 74 46 75 48 76
REMARK SMILES IDX 50 77 47 78
REMARK H PARENT 13 6 17 21 67 40 41 51
REMARK Flexibility Score: inf
ROOT
ATOM      1  C   UNL A   1      38.338  20.411  25.001  1.00  0.00     0.042 C 
ENDROOT
BRANCH   1   2
ATOM      2  C   UNL A   1      37.658  21.768  24.903  1.00  0.00     0.117 C 
BRANCH   2   3
ATOM      3  N   UNL A   1      36.649  21.957  25.935  1.00  0.00    -0.356 N 
ATOM      4  C   UNL A   1      35.340  21.584  25.990  1.00  0.00     0.224 C 
ATOM      5  O   UNL A   1      34.710  21.869  27.011  1.00  0.00    -0.275 OA
ATOM      6  H   UNL A   1      36.968  22.438  26.731  1.00  0.00     0.163 HD
BRANCH   4   7
ATOM      7  C   UNL A   1      34.670  20.838  24.848  1.00  0.00     0.093 C 
ATOM      8  N   UNL A   1      33.967  18.521  24.124  1.00  0.00    -0.201 NA
ATOM      9  C   UNL A   1      32.549  18.965  24.235  1.00  0.00     0.102 C 
ATOM     10  C   UNL A   1      34.856  19.328  25.026  1.00  0.00     0.115 C 
ATOM     11  C   UNL A   1      32.444  20.396  23.729  1.00  0.00     0.018 C 
ATOM     12  C   UNL A   1      33.237  21.334  24.624  1.00  0.00     0.016 C 
BRANCH   8  13
ATOM     13  S   UNL A   1      34.203  16.832  24.329  1.00  0.00     0.213 S 
ATOM     14  O   UNL A   1      35.470  16.646  25.002  1.00  0.00    -0.212 OA
ATOM     15  O   UNL A   1      33.955  16.203  23.046  1.00  0.00    -0.212 OA
BRANCH  13  16
ATOM     16  C   UNL A   1      32.864  16.325  25.403  1.00  0.00     0.151 C 
ATOM     17  C   UNL A   1      32.528  14.852  25.376  1.00  0.00     0.022 C 
ENDBRANCH  13  16
ENDBRANCH   8  13
ENDBRANCH   4   7
ENDBRANCH   2   3
ENDBRANCH   1   2
BRANCH   1  18
ATOM     18  C   UNL A   1      39.161  20.224  26.267  1.00  0.00     0.118 C 
BRANCH  18  19
ATOM     19  N   UNL A   1      40.192  19.203  26.125  1.00  0.00    -0.352 N 
ATOM     20  C   UNL A   1      41.559  19.327  26.084  1.00  0.00     0.251 C 
ATOM     21  H   UNL A   1      39.856  18.281  26.044  1.00  0.00     0.163 HD
ATOM     22  O   UNL A   1      42.249  18.362  25.772  1.00  0.00    -0.269 OA
BRANCH  20  23
ATOM     23  C   UNL A   1      42.199  20.623  26.393  1.00  0.00     0.039 A 
ATOM     24  C   UNL A   1      42.613  21.441  25.338  1.00  0.00     0.014 A 
ATOM     25  C   UNL A   1      42.395  21.031  27.714  1.00  0.00     0.014 A 
ATOM     26  C   UNL A   1      43.157  22.697  25.610  1.00  0.00     0.010 A 
ATOM     27  C   UNL A   1      42.847  22.319  27.980  1.00  0.00     0.010 A 
ATOM     28  C   UNL A   1      43.239  23.164  26.932  1.00  0.00    -0.014 A 
BRANCH  28  29
ATOM     29  C   UNL A   1      43.726  24.533  27.238  1.00  0.00     0.031 A 
ATOM     30  C   UNL A   1      42.758  25.608  27.649  1.00  0.00     0.074 A 
ATOM     31  C   UNL A   1      45.030  24.828  27.075  1.00  0.00     0.049 A 
ATOM     32  N   UNL A   1      42.983  26.874  27.892  1.00  0.00    -0.248 NA
ATOM     33  C   UNL A   1      41.346  25.215  27.773  1.00  0.00     0.031 C 
ATOM     34  C   UNL A   1      46.060  23.888  26.627  1.00  0.00     0.029 A 
ATOM     35  N   UNL A   1      45.711  26.005  27.255  1.00  0.00    -0.354 N 
ATOM     36  C   UNL A   1      41.742  27.430  28.180  1.00  0.00     0.074 A 
ATOM     37  C   UNL A   1      40.762  26.377  28.021  1.00  0.00     0.031 C 
ATOM     38  C   UNL A   1      47.244  24.518  26.593  1.00  0.00     0.029 A 
ATOM     39  C   UNL A   1      47.052  25.915  26.970  1.00  0.00     0.049 A 
ATOM     40  H   UNL A   1      45.279  26.836  27.558  1.00  0.00     0.167 HD
ATOM     41  C   UNL A   1      41.449  28.694  28.565  1.00  0.00     0.037 A 
ATOM     42  C   UNL A   1      48.017  26.853  27.000  1.00  0.00     0.037 A 
ATOM     43  C   UNL A   1      42.429  29.735  28.734  1.00  0.00     0.049 A 
ATOM     44  C   UNL A   1      47.667  28.253  27.419  1.00  0.00     0.074 A 
ATOM     45  C   UNL A   1      42.242  31.030  29.182  1.00  0.00     0.029 A 
ATOM     46  N   UNL A   1      43.780  29.600  28.450  1.00  0.00    -0.354 N 
ATOM     47  N   UNL A   1      46.503  28.746  27.766  1.00  0.00    -0.248 NA
ATOM     48  C   UNL A   1      48.766  29.227  27.456  1.00  0.00     0.031 C 
ATOM     49  C   UNL A   1      43.470  31.696  29.113  1.00  0.00     0.029 A 
ATOM     50  C   UNL A   1      44.435  30.799  28.683  1.00  0.00     0.049 A 
ATOM     51  H   UNL A   1      44.211  28.774  28.130  1.00  0.00     0.167 HD
ATOM     52  C   UNL A   1      46.732  30.077  28.089  1.00  0.00     0.074 A 
ATOM     53  C   UNL A   1      48.150  30.310  27.909  1.00  0.00     0.031 C 
ATOM     54  C   UNL A   1      45.848  31.019  28.500  1.00  0.00     0.037 A 
BRANCH  41  55
ATOM     55  C   UNL A   1      40.002  29.020  28.819  1.00  0.00     0.057 A 
ATOM     56  C   UNL A   1      39.116  29.328  27.777  1.00  0.00     0.134 A 
ATOM     57  C   UNL A   1      39.486  29.013  30.121  1.00  0.00     0.134 A 
ATOM     58  F   UNL A   1      39.545  29.363  26.506  1.00  0.00    -0.206 F 
ATOM     59  C   UNL A   1      37.782  29.657  28.025  1.00  0.00     0.040 A 
ATOM     60  C   UNL A   1      38.145  29.308  30.377  1.00  0.00     0.040 A 
ATOM     61  F   UNL A   1      40.274  28.719  31.166  1.00  0.00    -0.206 F 
ATOM     62  C   UNL A   1      37.292  29.642  29.328  1.00  0.00     0.006 A 
ENDBRANCH  41  55
BRANCH  42  63
ATOM     63  C   UNL A   1      49.411  26.486  26.644  1.00  0.00     0.057 A 
ATOM     64  C   UNL A   1      50.278  25.930  27.592  1.00  0.00     0.134 A 
ATOM     65  C   UNL A   1      49.904  26.665  25.345  1.00  0.00     0.134 A 
ATOM     66  F   UNL A   1      49.869  25.751  28.856  1.00  0.00    -0.206 F 
ATOM     67  C   UNL A   1      51.588  25.579  27.267  1.00  0.00     0.040 A 
ATOM     68  C   UNL A   1      51.204  26.292  25.000  1.00  0.00     0.040 A 
ATOM     69  F   UNL A   1      49.121  27.183  24.388  1.00  0.00    -0.206 F 
ATOM     70  C   UNL A   1      52.052  25.753  25.965  1.00  0.00     0.006 A 
ENDBRANCH  42  63
BRANCH  54  71
ATOM     71  C   UNL A   1      46.393  32.382  28.819  1.00  0.00     0.057 A 
ATOM     72  C   UNL A   1      46.870  32.714  30.093  1.00  0.00     0.134 A 
ATOM     73  C   UNL A   1      46.478  33.364  27.822  1.00  0.00     0.134 A 
ATOM     74  F   UNL A   1      46.806  31.824  31.096  1.00  0.00    -0.206 F 
ATOM     75  C   UNL A   1      47.390  33.979  30.371  1.00  0.00     0.040 A 
ATOM     76  C   UNL A   1      47.024  34.622  28.080  1.00  0.00     0.040 A 
ATOM     77  F   UNL A   1      46.048  33.111  26.577  1.00  0.00    -0.206 F 
ATOM     78  C   UNL A   1      47.476  34.935  29.361  1.00  0.00     0.006 A 
ENDBRANCH  54  71
ENDBRANCH  28  29
ENDBRANCH  20  23
ENDBRANCH  18  19
ENDBRANCH   1  18
TORSDOF 12
ENDMDL
