MODEL 1
REMARK VINA RESULT:     -11.3      0.000      0.000
REMARK SMILES CC(C)[NH2+][C@@]1(C(=O)NCCCNC(=O)c2ccc(-c3c4nc(c(-c5c(F)cccc5F)c5ccc([nH]5)c(-c5c(F)cccc5F)c5nc(c(-c6c(F)cccc6F)c6ccc3[nH]6)C=C5)C=C4)cc2)CCC[C@@H]1CCOC1CCOCC1
REMARK SMILES IDX 9 1 8 2 6 3 7 4 5 6 69 7 72 8 70 9 71 10 4 11 2 14 1 15 3 16
REMARK SMILES IDX 73 17 74 18 75 19 76 20 77 21 81 22 78 23 80 24 79 25 10 26
REMARK SMILES IDX 11 27 12 28 13 29 14 31 15 32 16 33 68 34 17 35 67 36 18 37
REMARK SMILES IDX 19 38 20 39 61 40 21 41 66 42 60 43 62 44 22 45 65 46 59 47
REMARK SMILES IDX 58 48 23 50 49 51 32 52 48 53 33 54 36 55 47 56 63 57 34 58
REMARK SMILES IDX 35 59 46 61 64 62 37 63 24 64 25 65 30 66 26 67 27 68 29 69
REMARK SMILES IDX 31 70 28 71 50 72 51 73 56 74 52 75 53 76 55 77 57 78 54 79
REMARK SMILES IDX 38 80 39 81 44 82 40 83 41 84 43 85 45 86 42 87
REMARK H PARENT 8 5 4 12 4 13 12 30 62 49 36 60
REMARK Flexibility Score: inf
ROOT
ATOM      1  C   UNL A   1      31.478  30.487  25.373  1.00  0.00     0.118 C 
ENDROOT
BRANCH   1   2
ATOM      2  N   UNL A   1      31.407  29.225  26.085  1.00  0.00    -0.351 N 
ATOM      3  C   UNL A   1      31.750  27.937  25.825  1.00  0.00     0.281 C 
ATOM      4  O   UNL A   1      31.405  27.150  26.725  1.00  0.00    -0.268 OA
ATOM      5  H   UNL A   1      31.012  29.327  26.981  1.00  0.00     0.163 HD
BRANCH   3   6
ATOM      6  C   UNL A   1      32.467  27.360  24.513  1.00  0.00     0.178 C 
ATOM      7  C   UNL A   1      33.875  27.965  24.353  1.00  0.00     0.079 C 
ATOM      8  C   UNL A   1      31.724  27.668  23.176  1.00  0.00     0.063 C 
ATOM      9  C   UNL A   1      33.821  28.942  23.189  1.00  0.00     0.008 C 
ATOM     10  C   UNL A   1      32.390  28.955  22.673  1.00  0.00     0.011 C 
BRANCH   6  11
ATOM     11  N   UNL A   1      32.622  25.907  24.807  1.00  0.00    -0.331 N 
ATOM     12  H   UNL A   1      32.761  25.832  25.815  1.00  0.00     0.347 HD
ATOM     13  H   UNL A   1      31.777  25.513  24.393  1.00  0.00     0.347 HD
BRANCH  11  14
ATOM     14  C   UNL A   1      33.671  25.105  24.190  1.00  0.00     0.176 C 
ATOM     15  C   UNL A   1      34.325  24.276  25.300  1.00  0.00     0.075 C 
ATOM     16  C   UNL A   1      33.121  24.135  23.140  1.00  0.00     0.075 C 
ENDBRANCH  11  14
ENDBRANCH   6  11
BRANCH   8  17
ATOM     17  C   UNL A   1      30.172  27.558  23.278  1.00  0.00     0.039 C 
BRANCH  17  18
ATOM     18  C   UNL A   1      29.256  28.790  23.135  1.00  0.00     0.161 C 
BRANCH  18  19
ATOM     19  O   UNL A   1      29.027  29.257  21.800  1.00  0.00    -0.378 OA
BRANCH  19  20
ATOM     20  C   UNL A   1      28.960  30.668  21.717  1.00  0.00     0.122 C 
ATOM     21  C   UNL A   1      28.712  31.382  23.036  1.00  0.00     0.060 C 
ATOM     22  C   UNL A   1      27.907  31.093  20.708  1.00  0.00     0.060 C 
ATOM     23  C   UNL A   1      28.804  32.883  22.750  1.00  0.00     0.163 C 
ATOM     24  C   UNL A   1      28.033  32.591  20.502  1.00  0.00     0.163 C 
ATOM     25  O   UNL A   1      27.868  33.282  21.743  1.00  0.00    -0.381 OA
ENDBRANCH  19  20
ENDBRANCH  18  19
ENDBRANCH  17  18
ENDBRANCH   8  17
ENDBRANCH   3   6
ENDBRANCH   1   2
BRANCH   1  26
ATOM     26  C   UNL A   1      31.213  31.684  26.288  1.00  0.00     0.042 C 
BRANCH  26  27
ATOM     27  C   UNL A   1      32.427  32.174  27.059  1.00  0.00     0.118 C 
BRANCH  27  28
ATOM     28  N   UNL A   1      32.297  33.580  27.414  1.00  0.00    -0.352 N 
ATOM     29  C   UNL A   1      32.967  34.320  28.354  1.00  0.00     0.251 C 
ATOM     30  H   UNL A   1      31.620  34.077  26.900  1.00  0.00     0.163 HD
ATOM     31  O   UNL A   1      32.528  35.430  28.666  1.00  0.00    -0.269 OA
BRANCH  29  32
ATOM     32  C   UNL A   1      34.198  33.814  29.007  1.00  0.00     0.039 A 
ATOM     33  C   UNL A   1      34.080  32.916  30.075  1.00  0.00     0.014 A 
ATOM     34  C   UNL A   1      35.466  34.255  28.620  1.00  0.00     0.014 A 
ATOM     35  C   UNL A   1      35.224  32.432  30.717  1.00  0.00     0.010 A 
ATOM     36  C   UNL A   1      36.607  33.706  29.199  1.00  0.00     0.010 A 
ATOM     37  C   UNL A   1      36.500  32.802  30.266  1.00  0.00    -0.014 A 
BRANCH  37  38
ATOM     38  C   UNL A   1      37.738  32.294  30.913  1.00  0.00     0.031 A 
ATOM     39  C   UNL A   1      38.447  31.098  30.334  1.00  0.00     0.074 A 
ATOM     40  C   UNL A   1      38.181  32.855  32.054  1.00  0.00     0.049 A 
ATOM     41  N   UNL A   1      39.464  30.425  30.813  1.00  0.00    -0.248 NA
ATOM     42  C   UNL A   1      37.921  30.566  29.067  1.00  0.00     0.031 C 
ATOM     43  C   UNL A   1      37.563  33.993  32.736  1.00  0.00     0.029 A 
ATOM     44  N   UNL A   1      39.250  32.529  32.853  1.00  0.00    -0.354 N 
ATOM     45  C   UNL A   1      39.678  29.380  29.922  1.00  0.00     0.074 A 
ATOM     46  C   UNL A   1      38.657  29.478  28.902  1.00  0.00     0.031 C 
ATOM     47  C   UNL A   1      38.271  34.281  33.840  1.00  0.00     0.029 A 
ATOM     48  C   UNL A   1      39.366  33.325  33.967  1.00  0.00     0.049 A 
ATOM     49  H   UNL A   1      39.873  31.796  32.647  1.00  0.00     0.167 HD
ATOM     50  C   UNL A   1      40.651  28.439  29.939  1.00  0.00     0.037 A 
ATOM     51  C   UNL A   1      40.247  33.279  34.984  1.00  0.00     0.037 A 
ATOM     52  C   UNL A   1      41.690  28.370  30.932  1.00  0.00     0.049 A 
ATOM     53  C   UNL A   1      41.317  32.223  34.983  1.00  0.00     0.074 A 
ATOM     54  C   UNL A   1      42.765  27.501  30.996  1.00  0.00     0.029 A 
ATOM     55  N   UNL A   1      41.784  29.208  32.033  1.00  0.00    -0.354 N 
ATOM     56  N   UNL A   1      41.544  31.278  34.101  1.00  0.00    -0.248 NA
ATOM     57  C   UNL A   1      42.253  32.225  36.116  1.00  0.00     0.031 C 
ATOM     58  C   UNL A   1      43.487  27.787  32.160  1.00  0.00     0.029 A 
ATOM     59  C   UNL A   1      42.886  28.862  32.797  1.00  0.00     0.049 A 
ATOM     60  H   UNL A   1      41.160  29.940  32.241  1.00  0.00     0.167 HD
ATOM     61  C   UNL A   1      42.658  30.590  34.561  1.00  0.00     0.074 A 
ATOM     62  C   UNL A   1      43.072  31.233  35.791  1.00  0.00     0.031 C 
ATOM     63  C   UNL A   1      43.284  29.518  34.015  1.00  0.00     0.037 A 
BRANCH  50  64
ATOM     64  C   UNL A   1      40.640  27.409  28.846  1.00  0.00     0.057 A 
ATOM     65  C   UNL A   1      41.522  27.477  27.758  1.00  0.00     0.134 A 
ATOM     66  C   UNL A   1      39.759  26.322  28.894  1.00  0.00     0.134 A 
ATOM     67  F   UNL A   1      42.384  28.499  27.644  1.00  0.00    -0.206 F 
ATOM     68  C   UNL A   1      41.507  26.517  26.746  1.00  0.00     0.040 A 
ATOM     69  C   UNL A   1      39.754  25.340  27.902  1.00  0.00     0.040 A 
ATOM     70  F   UNL A   1      38.893  26.193  29.911  1.00  0.00    -0.206 F 
ATOM     71  C   UNL A   1      40.626  25.440  26.820  1.00  0.00     0.006 A 
ENDBRANCH  50  64
BRANCH  51  72
ATOM     72  C   UNL A   1      40.165  34.273  36.084  1.00  0.00     0.057 A 
ATOM     73  C   UNL A   1      39.395  34.022  37.226  1.00  0.00     0.134 A 
ATOM     74  C   UNL A   1      40.850  35.492  36.024  1.00  0.00     0.134 A 
ATOM     75  F   UNL A   1      38.701  32.879  37.333  1.00  0.00    -0.206 F 
ATOM     76  C   UNL A   1      39.295  34.953  38.261  1.00  0.00     0.040 A 
ATOM     77  C   UNL A   1      40.778  36.423  37.062  1.00  0.00     0.040 A 
ATOM     78  F   UNL A   1      41.610  35.790  34.960  1.00  0.00    -0.206 F 
ATOM     79  C   UNL A   1      39.994  36.157  38.182  1.00  0.00     0.006 A 
ENDBRANCH  51  72
BRANCH  63  80
ATOM     80  C   UNL A   1      44.493  28.991  34.727  1.00  0.00     0.057 A 
ATOM     81  C   UNL A   1      44.399  27.968  35.678  1.00  0.00     0.134 A 
ATOM     82  C   UNL A   1      45.771  29.475  34.418  1.00  0.00     0.134 A 
ATOM     83  F   UNL A   1      43.202  27.472  36.027  1.00  0.00    -0.206 F 
ATOM     84  C   UNL A   1      45.533  27.453  36.308  1.00  0.00     0.040 A 
ATOM     85  C   UNL A   1      46.914  28.952  35.023  1.00  0.00     0.040 A 
ATOM     86  F   UNL A   1      45.929  30.448  33.509  1.00  0.00    -0.206 F 
ATOM     87  C   UNL A   1      46.796  27.941  35.974  1.00  0.00     0.006 A 
ENDBRANCH  63  80
ENDBRANCH  37  38
ENDBRANCH  29  32
ENDBRANCH  27  28
ENDBRANCH  26  27
ENDBRANCH   1  26
TORSDOF 16
ENDMDL
MODEL 2
REMARK VINA RESULT:     -11.2      5.700     10.882
REMARK SMILES CC(C)[NH2+][C@@]1(C(=O)NCCCNC(=O)c2ccc(-c3c4nc(c(-c5c(F)cccc5F)c5ccc([nH]5)c(-c5c(F)cccc5F)c5nc(c(-c6c(F)cccc6F)c6ccc3[nH]6)C=C5)C=C4)cc2)CCC[C@@H]1CCOC1CCOCC1
REMARK SMILES IDX 9 1 8 2 6 3 7 4 5 6 69 7 72 8 70 9 71 10 4 11 2 14 1 15 3 16
REMARK SMILES IDX 73 17 74 18 75 19 76 20 77 21 81 22 78 23 80 24 79 25 10 26
REMARK SMILES IDX 11 27 12 28 13 29 14 31 15 32 16 33 68 34 17 35 67 36 18 37
REMARK SMILES IDX 19 38 20 39 61 40 21 41 66 42 60 43 62 44 22 45 65 46 59 47
REMARK SMILES IDX 58 48 23 50 49 51 32 52 48 53 33 54 36 55 47 56 63 57 34 58
REMARK SMILES IDX 35 59 46 61 64 62 37 63 24 64 25 65 30 66 26 67 27 68 29 69
REMARK SMILES IDX 31 70 28 71 50 72 51 73 56 74 52 75 53 76 55 77 57 78 54 79
REMARK SMILES IDX 38 80 39 81 44 82 40 83 41 84 43 85 45 86 42 87
REMARK H PARENT 8 5 4 12 4 13 12 30 62 49 36 60
REMARK Flexibility Score: inf
ROOT
ATOM      1  C   UNL A   1      36.398  20.330  24.985  1.00  0.00     0.118 C 
ENDROOT
BRANCH   1   2
ATOM      2  N   UNL A   1      36.544  21.481  24.113  1.00  0.00    -0.351 N 
ATOM      3  C   UNL A   1      35.891  22.658  23.936  1.00  0.00     0.281 C 
ATOM      4  O   UNL A   1      36.329  23.317  22.975  1.00  0.00    -0.268 OA
ATOM      5  H   UNL A   1      37.306  21.385  23.498  1.00  0.00     0.163 HD
BRANCH   3   6
ATOM      6  C   UNL A   1      34.642  23.221  24.767  1.00  0.00     0.178 C 
ATOM      7  C   UNL A   1      35.048  23.518  26.224  1.00  0.00     0.079 C 
ATOM      8  C   UNL A   1      33.429  22.245  24.861  1.00  0.00     0.063 C 
ATOM      9  C   UNL A   1      34.410  22.452  27.100  1.00  0.00     0.008 C 
ATOM     10  C   UNL A   1      33.656  21.501  26.182  1.00  0.00     0.011 C 
BRANCH   6  11
ATOM     11  N   UNL A   1      34.334  24.519  24.103  1.00  0.00    -0.331 N 
ATOM     12  H   UNL A   1      35.143  25.120  24.258  1.00  0.00     0.347 HD
ATOM     13  H   UNL A   1      34.110  24.226  23.151  1.00  0.00     0.347 HD
BRANCH  11  14
ATOM     14  C   UNL A   1      33.163  25.310  24.464  1.00  0.00     0.176 C 
ATOM     15  C   UNL A   1      33.649  26.730  24.774  1.00  0.00     0.075 C 
ATOM     16  C   UNL A   1      32.146  25.400  23.322  1.00  0.00     0.075 C 
ENDBRANCH  11  14
ENDBRANCH   6  11
BRANCH   8  17
ATOM     17  C   UNL A   1      33.146  21.464  23.542  1.00  0.00     0.039 C 
BRANCH  17  18
ATOM     18  C   UNL A   1      32.155  20.282  23.491  1.00  0.00     0.161 C 
BRANCH  18  19
ATOM     19  O   UNL A   1      32.114  19.441  24.651  1.00  0.00    -0.378 OA
BRANCH  19  20
ATOM     20  C   UNL A   1      32.969  18.319  24.543  1.00  0.00     0.122 C 
ATOM     21  C   UNL A   1      33.026  17.679  23.166  1.00  0.00     0.060 C 
ATOM     22  C   UNL A   1      32.599  17.267  25.574  1.00  0.00     0.060 C 
ATOM     23  C   UNL A   1      34.090  16.580  23.232  1.00  0.00     0.163 C 
ATOM     24  C   UNL A   1      33.675  16.197  25.559  1.00  0.00     0.163 C 
ATOM     25  O   UNL A   1      33.792  15.624  24.255  1.00  0.00    -0.381 OA
ENDBRANCH  19  20
ENDBRANCH  18  19
ENDBRANCH  17  18
ENDBRANCH   8  17
ENDBRANCH   3   6
ENDBRANCH   1   2
BRANCH   1  26
ATOM     26  C   UNL A   1      37.653  19.454  25.001  1.00  0.00     0.042 C 
BRANCH  26  27
ATOM     27  C   UNL A   1      38.868  20.100  25.646  1.00  0.00     0.118 C 
BRANCH  27  28
ATOM     28  N   UNL A   1      39.959  19.147  25.793  1.00  0.00    -0.352 N 
ATOM     29  C   UNL A   1      41.301  19.361  25.979  1.00  0.00     0.251 C 
ATOM     30  H   UNL A   1      39.692  18.200  25.750  1.00  0.00     0.163 HD
ATOM     31  O   UNL A   1      42.084  18.420  25.827  1.00  0.00    -0.269 OA
BRANCH  29  32
ATOM     32  C   UNL A   1      41.829  20.695  26.352  1.00  0.00     0.039 A 
ATOM     33  C   UNL A   1      42.039  20.988  27.705  1.00  0.00     0.014 A 
ATOM     34  C   UNL A   1      42.066  21.682  25.392  1.00  0.00     0.014 A 
ATOM     35  C   UNL A   1      42.525  22.242  28.086  1.00  0.00     0.010 A 
ATOM     36  C   UNL A   1      42.634  22.899  25.763  1.00  0.00     0.010 A 
ATOM     37  C   UNL A   1      42.853  23.200  27.115  1.00  0.00    -0.014 A 
BRANCH  37  38
ATOM     38  C   UNL A   1      43.388  24.537  27.482  1.00  0.00     0.031 A 
ATOM     39  C   UNL A   1      42.447  25.624  27.928  1.00  0.00     0.074 A 
ATOM     40  C   UNL A   1      44.702  24.798  27.344  1.00  0.00     0.049 A 
ATOM     41  N   UNL A   1      42.693  26.887  28.172  1.00  0.00    -0.248 NA
ATOM     42  C   UNL A   1      41.032  25.249  28.089  1.00  0.00     0.031 C 
ATOM     43  C   UNL A   1      45.713  23.843  26.885  1.00  0.00     0.029 A 
ATOM     44  N   UNL A   1      45.412  25.954  27.559  1.00  0.00    -0.354 N 
ATOM     45  C   UNL A   1      41.465  27.458  28.485  1.00  0.00     0.074 A 
ATOM     46  C   UNL A   1      40.470  26.418  28.353  1.00  0.00     0.031 C 
ATOM     47  C   UNL A   1      46.913  24.446  26.869  1.00  0.00     0.029 A 
ATOM     48  C   UNL A   1      46.751  25.838  27.275  1.00  0.00     0.049 A 
ATOM     49  H   UNL A   1      45.000  26.786  27.886  1.00  0.00     0.167 HD
ATOM     50  C   UNL A   1      41.196  28.728  28.869  1.00  0.00     0.037 A 
ATOM     51  C   UNL A   1      47.735  26.756  27.323  1.00  0.00     0.037 A 
ATOM     52  C   UNL A   1      42.195  29.749  29.040  1.00  0.00     0.049 A 
ATOM     53  C   UNL A   1      47.411  28.161  27.751  1.00  0.00     0.074 A 
ATOM     54  C   UNL A   1      42.034  31.045  29.498  1.00  0.00     0.029 A 
ATOM     55  N   UNL A   1      43.544  29.586  28.762  1.00  0.00    -0.354 N 
ATOM     56  N   UNL A   1      46.255  28.671  28.103  1.00  0.00    -0.248 NA
ATOM     57  C   UNL A   1      48.526  29.117  27.789  1.00  0.00     0.031 C 
ATOM     58  C   UNL A   1      43.280  31.679  29.458  1.00  0.00     0.029 A 
ATOM     59  C   UNL A   1      44.224  30.765  29.016  1.00  0.00     0.049 A 
ATOM     60  H   UNL A   1      43.957  28.755  28.432  1.00  0.00     0.167 HD
ATOM     61  C   UNL A   1      46.507  29.998  28.424  1.00  0.00     0.074 A 
ATOM     62  C   UNL A   1      47.928  30.211  28.240  1.00  0.00     0.031 C 
ATOM     63  C   UNL A   1      45.639  30.956  28.833  1.00  0.00     0.037 A 
BRANCH  50  64
ATOM     64  C   UNL A   1      39.761  29.082  29.139  1.00  0.00     0.057 A 
ATOM     65  C   UNL A   1      38.889  29.467  28.111  1.00  0.00     0.134 A 
ATOM     66  C   UNL A   1      39.238  29.010  30.436  1.00  0.00     0.134 A 
ATOM     67  F   UNL A   1      39.329  29.568  26.848  1.00  0.00    -0.206 F 
ATOM     68  C   UNL A   1      37.557  29.794  28.369  1.00  0.00     0.040 A 
ATOM     69  C   UNL A   1      37.900  29.308  30.702  1.00  0.00     0.040 A 
ATOM     70  F   UNL A   1      40.016  28.642  31.465  1.00  0.00    -0.206 F 
ATOM     71  C   UNL A   1      37.057  29.709  29.666  1.00  0.00     0.006 A 
ENDBRANCH  50  64
BRANCH  51  72
ATOM     72  C   UNL A   1      49.125  26.374  26.969  1.00  0.00     0.057 A 
ATOM     73  C   UNL A   1      50.021  25.928  27.948  1.00  0.00     0.134 A 
ATOM     74  C   UNL A   1      49.593  26.444  25.652  1.00  0.00     0.134 A 
ATOM     75  F   UNL A   1      49.637  25.857  29.232  1.00  0.00    -0.206 F 
ATOM     76  C   UNL A   1      51.336  25.580  27.634  1.00  0.00     0.040 A 
ATOM     77  C   UNL A   1      50.898  26.076  25.318  1.00  0.00     0.040 A 
ATOM     78  F   UNL A   1      48.782  26.857  24.666  1.00  0.00    -0.206 F 
ATOM     79  C   UNL A   1      51.776  25.649  26.313  1.00  0.00     0.006 A 
ENDBRANCH  51  72
BRANCH  63  80
ATOM     80  C   UNL A   1      46.203  32.312  29.133  1.00  0.00     0.057 A 
ATOM     81  C   UNL A   1      46.238  33.325  28.167  1.00  0.00     0.134 A 
ATOM     82  C   UNL A   1      46.668  32.623  30.418  1.00  0.00     0.134 A 
ATOM     83  F   UNL A   1      45.820  33.085  26.915  1.00  0.00    -0.206 F 
ATOM     84  C   UNL A   1      46.727  34.597  28.465  1.00  0.00     0.040 A 
ATOM     85  C   UNL A   1      47.137  33.899  30.734  1.00  0.00     0.040 A 
ATOM     86  F   UNL A   1      46.653  31.698  31.389  1.00  0.00    -0.206 F 
ATOM     87  C   UNL A   1      47.171  34.889  29.755  1.00  0.00     0.006 A 
ENDBRANCH  63  80
ENDBRANCH  37  38
ENDBRANCH  29  32
ENDBRANCH  27  28
ENDBRANCH  26  27
ENDBRANCH   1  26
TORSDOF 16
ENDMDL
MODEL 3
REMARK VINA RESULT:     -11.1      4.385      9.191
REMARK SMILES CC(C)[NH2+][C@@]1(C(=O)NCCCNC(=O)c2ccc(-c3c4nc(c(-c5c(F)cccc5F)c5ccc([nH]5)c(-c5c(F)cccc5F)c5nc(c(-c6c(F)cccc6F)c6ccc3[nH]6)C=C5)C=C4)cc2)CCC[C@@H]1CCOC1CCOCC1
REMARK SMILES IDX 9 1 8 2 6 3 7 4 5 6 69 7 72 8 70 9 71 10 4 11 2 14 1 15 3 16
REMARK SMILES IDX 73 17 74 18 75 19 76 20 77 21 81 22 78 23 80 24 79 25 10 26
REMARK SMILES IDX 11 27 12 28 13 29 14 31 15 32 16 33 68 34 17 35 67 36 18 37
REMARK SMILES IDX 19 38 20 39 61 40 21 41 66 42 60 43 62 44 22 45 65 46 59 47
REMARK SMILES IDX 58 48 23 50 49 51 32 52 48 53 33 54 36 55 47 56 63 57 34 58
REMARK SMILES IDX 35 59 46 61 64 62 37 63 24 64 25 65 30 66 26 67 27 68 29 69
REMARK SMILES IDX 31 70 28 71 50 72 51 73 56 74 52 75 53 76 55 77 57 78 54 79
REMARK SMILES IDX 38 80 39 81 44 82 40 83 41 84 43 85 45 86 42 87
REMARK H PARENT 8 5 4 12 4 13 12 30 62 49 36 60
REMARK Flexibility Score: inf
ROOT
ATOM      1  C   UNL A   1      35.832  20.775  24.854  1.00  0.00     0.118 C 
ENDROOT
BRANCH   1   2
ATOM      2  N   UNL A   1      35.223  21.065  26.139  1.00  0.00    -0.351 N 
ATOM      3  C   UNL A   1      34.050  21.600  26.563  1.00  0.00     0.281 C 
ATOM      4  O   UNL A   1      33.999  21.745  27.798  1.00  0.00    -0.268 OA
ATOM      5  H   UNL A   1      35.805  20.808  26.890  1.00  0.00     0.163 HD
BRANCH   3   6
ATOM      6  C   UNL A   1      32.815  22.089  25.667  1.00  0.00     0.178 C 
ATOM      7  C   UNL A   1      32.152  20.894  24.955  1.00  0.00     0.079 C 
ATOM      8  C   UNL A   1      33.190  23.095  24.535  1.00  0.00     0.063 C 
ATOM      9  C   UNL A   1      32.511  20.987  23.481  1.00  0.00     0.008 C 
ATOM     10  C   UNL A   1      33.407  22.203  23.307  1.00  0.00     0.011 C 
BRANCH   6  11
ATOM     11  N   UNL A   1      31.846  22.624  26.665  1.00  0.00    -0.331 N 
ATOM     12  H   UNL A   1      31.684  21.875  27.337  1.00  0.00     0.347 HD
ATOM     13  H   UNL A   1      32.308  23.479  26.977  1.00  0.00     0.347 HD
BRANCH  11  14
ATOM     14  C   UNL A   1      30.529  23.113  26.274  1.00  0.00     0.176 C 
ATOM     15  C   UNL A   1      29.529  22.622  27.327  1.00  0.00     0.075 C 
ATOM     16  C   UNL A   1      30.462  24.643  26.240  1.00  0.00     0.075 C 
ENDBRANCH  11  14
ENDBRANCH   6  11
BRANCH   8  17
ATOM     17  C   UNL A   1      34.258  24.149  24.957  1.00  0.00     0.039 C 
BRANCH  17  18
ATOM     18  C   UNL A   1      33.866  25.496  25.599  1.00  0.00     0.161 C 
BRANCH  18  19
ATOM     19  O   UNL A   1      33.792  26.620  24.714  1.00  0.00    -0.378 OA
BRANCH  19  20
ATOM     20  C   UNL A   1      32.668  26.569  23.856  1.00  0.00     0.122 C 
ATOM     21  C   UNL A   1      32.991  26.483  22.373  1.00  0.00     0.060 C 
ATOM     22  C   UNL A   1      31.753  27.754  24.105  1.00  0.00     0.060 C 
ATOM     23  C   UNL A   1      31.658  26.308  21.640  1.00  0.00     0.163 C 
ATOM     24  C   UNL A   1      30.471  27.530  23.323  1.00  0.00     0.163 C 
ATOM     25  O   UNL A   1      30.756  27.381  21.930  1.00  0.00    -0.381 OA
ENDBRANCH  19  20
ENDBRANCH  18  19
ENDBRANCH  17  18
ENDBRANCH   8  17
ENDBRANCH   3   6
ENDBRANCH   1   2
BRANCH   1  26
ATOM     26  C   UNL A   1      37.016  19.814  24.978  1.00  0.00     0.042 C 
BRANCH  26  27
ATOM     27  C   UNL A   1      38.350  20.485  25.258  1.00  0.00     0.118 C 
BRANCH  27  28
ATOM     28  N   UNL A   1      39.393  19.502  25.514  1.00  0.00    -0.352 N 
ATOM     29  C   UNL A   1      40.678  19.674  25.964  1.00  0.00     0.251 C 
ATOM     30  H   UNL A   1      39.138  18.569  25.334  1.00  0.00     0.163 HD
ATOM     31  O   UNL A   1      41.475  18.736  25.871  1.00  0.00    -0.269 OA
BRANCH  29  32
ATOM     32  C   UNL A   1      41.129  20.959  26.550  1.00  0.00     0.039 A 
ATOM     33  C   UNL A   1      41.656  21.942  25.704  1.00  0.00     0.014 A 
ATOM     34  C   UNL A   1      41.095  21.186  27.928  1.00  0.00     0.014 A 
ATOM     35  C   UNL A   1      42.101  23.159  26.231  1.00  0.00     0.010 A 
ATOM     36  C   UNL A   1      41.455  22.430  28.443  1.00  0.00     0.010 A 
ATOM     37  C   UNL A   1      41.979  23.424  27.603  1.00  0.00    -0.014 A 
BRANCH  37  38
ATOM     38  C   UNL A   1      42.425  24.711  28.196  1.00  0.00     0.031 A 
ATOM     39  C   UNL A   1      41.425  25.812  28.434  1.00  0.00     0.074 A 
ATOM     40  C   UNL A   1      43.731  24.920  28.450  1.00  0.00     0.049 A 
ATOM     41  N   UNL A   1      41.626  27.046  28.823  1.00  0.00    -0.248 NA
ATOM     42  C   UNL A   1      40.013  25.492  28.166  1.00  0.00     0.031 C 
ATOM     43  C   UNL A   1      44.804  23.949  28.228  1.00  0.00     0.029 A 
ATOM     44  N   UNL A   1      44.382  26.028  28.935  1.00  0.00    -0.354 N 
ATOM     45  C   UNL A   1      40.376  27.652  28.818  1.00  0.00     0.074 A 
ATOM     46  C   UNL A   1      39.430  26.668  28.341  1.00  0.00     0.031 C 
ATOM     47  C   UNL A   1      45.975  24.498  28.591  1.00  0.00     0.029 A 
ATOM     48  C   UNL A   1      45.743  25.870  29.030  1.00  0.00     0.049 A 
ATOM     49  H   UNL A   1      43.916  26.857  29.189  1.00  0.00     0.167 HD
ATOM     50  C   UNL A   1      40.043  28.908  29.198  1.00  0.00     0.037 A 
ATOM     51  C   UNL A   1      46.697  26.738  29.415  1.00  0.00     0.037 A 
ATOM     52  C   UNL A   1      40.979  29.872  29.712  1.00  0.00     0.049 A 
ATOM     53  C   UNL A   1      46.303  28.129  29.830  1.00  0.00     0.074 A 
ATOM     54  C   UNL A   1      40.731  31.145  30.194  1.00  0.00     0.029 A 
ATOM     55  N   UNL A   1      42.347  29.664  29.812  1.00  0.00    -0.354 N 
ATOM     56  N   UNL A   1      45.109  28.669  29.878  1.00  0.00    -0.248 NA
ATOM     57  C   UNL A   1      47.387  29.030  30.245  1.00  0.00     0.031 C 
ATOM     58  C   UNL A   1      41.954  31.723  30.548  1.00  0.00     0.029 A 
ATOM     59  C   UNL A   1      42.959  30.795  30.327  1.00  0.00     0.049 A 
ATOM     60  H   UNL A   1      42.814  28.836  29.555  1.00  0.00     0.167 HD
ATOM     61  C   UNL A   1      45.295  29.962  30.347  1.00  0.00     0.074 A 
ATOM     62  C   UNL A   1      46.715  30.122  30.584  1.00  0.00     0.031 C 
ATOM     63  C   UNL A   1      44.373  30.932  30.561  1.00  0.00     0.037 A 
BRANCH  50  64
ATOM     64  C   UNL A   1      38.600  29.310  29.078  1.00  0.00     0.057 A 
ATOM     65  C   UNL A   1      38.046  29.721  27.858  1.00  0.00     0.134 A 
ATOM     66  C   UNL A   1      37.749  29.259  30.189  1.00  0.00     0.134 A 
ATOM     67  F   UNL A   1      38.810  29.804  26.758  1.00  0.00    -0.206 F 
ATOM     68  C   UNL A   1      36.705  30.093  27.754  1.00  0.00     0.040 A 
ATOM     69  C   UNL A   1      36.399  29.602  30.091  1.00  0.00     0.040 A 
ATOM     70  F   UNL A   1      38.213  28.868  31.385  1.00  0.00    -0.206 F 
ATOM     71  C   UNL A   1      35.875  30.027  28.871  1.00  0.00     0.006 A 
ENDBRANCH  50  64
BRANCH  51  72
ATOM     72  C   UNL A   1      48.120  26.315  29.439  1.00  0.00     0.057 A 
ATOM     73  C   UNL A   1      48.675  25.720  30.578  1.00  0.00     0.134 A 
ATOM     74  C   UNL A   1      48.958  26.492  28.332  1.00  0.00     0.134 A 
ATOM     75  F   UNL A   1      47.927  25.541  31.678  1.00  0.00    -0.206 F 
ATOM     76  C   UNL A   1      50.015  25.332  30.623  1.00  0.00     0.040 A 
ATOM     77  C   UNL A   1      50.294  26.087  28.353  1.00  0.00     0.040 A 
ATOM     78  F   UNL A   1      48.485  27.050  27.208  1.00  0.00    -0.206 F 
ATOM     79  C   UNL A   1      50.827  25.510  29.504  1.00  0.00     0.006 A 
ENDBRANCH  51  72
BRANCH  63  80
ATOM     80  C   UNL A   1      44.865  32.242  31.100  1.00  0.00     0.057 A 
ATOM     81  C   UNL A   1      45.212  33.302  30.254  1.00  0.00     0.134 A 
ATOM     82  C   UNL A   1      44.943  32.461  32.481  1.00  0.00     0.134 A 
ATOM     83  F   UNL A   1      45.171  33.150  28.922  1.00  0.00    -0.206 F 
ATOM     84  C   UNL A   1      45.630  34.532  30.763  1.00  0.00     0.040 A 
ATOM     85  C   UNL A   1      45.337  33.694  33.002  1.00  0.00     0.040 A 
ATOM     86  F   UNL A   1      44.617  31.488  33.345  1.00  0.00    -0.206 F 
ATOM     87  C   UNL A   1      45.686  34.733  32.142  1.00  0.00     0.006 A 
ENDBRANCH  63  80
ENDBRANCH  37  38
ENDBRANCH  29  32
ENDBRANCH  27  28
ENDBRANCH  26  27
ENDBRANCH   1  26
TORSDOF 16
ENDMDL
