MODEL 1
REMARK VINA RESULT:     -12.3      0.000      0.000
REMARK SMILES O=C(CCC(=O)N1CCC[C@@]2(CCC(=O)N(Cc3ccncc3)C2)C1)NCCCNC(=O)c1ccc(-c2c3nc(c(-c4c(F)cccc4F)c4ccc([nH]4)c(-c4c(F)cccc4F)c4nc(c(-c5c(F)cccc5F)c5ccc2[nH]5)C=C4)C=C3)cc1
REMARK SMILES IDX 1 1 2 2 26 3 3 5 4 6 5 7 6 8 7 9 8 10 25 11 9 12 11 13 10 14
REMARK SMILES IDX 12 15 24 16 13 17 16 18 14 19 15 20 17 21 18 22 19 23 23 24
REMARK SMILES IDX 20 25 22 26 21 27 27 28 28 29 29 30 30 31 31 32 32 34 33 35
REMARK SMILES IDX 34 36 86 37 35 38 85 39 36 40 37 41 38 42 79 43 39 44 84 45
REMARK SMILES IDX 78 46 80 47 40 48 83 49 77 50 76 51 41 53 67 54 50 55 66 56
REMARK SMILES IDX 51 57 54 58 65 59 81 60 52 61 53 62 64 64 82 65 55 66 42 67
REMARK SMILES IDX 43 68 48 69 44 70 45 71 47 72 49 73 46 74 68 75 69 76 74 77
REMARK SMILES IDX 70 78 71 79 73 80 75 81 72 82 56 83 57 84 62 85 58 86 59 87
REMARK SMILES IDX 61 88 63 89 60 90
REMARK H PARENT 26 4 30 33 80 52 54 63
REMARK Flexibility Score: inf
ROOT
ATOM      1  O   UNL A   1      34.549  29.552  27.497  1.00  0.00    -0.275 OA
ATOM      2  C   UNL A   1      33.413  30.016  27.416  1.00  0.00     0.220 C 
ATOM      3  N   UNL A   1      33.141  31.365  27.604  1.00  0.00    -0.356 N 
ATOM      4  H   UNL A   1      32.228  31.710  27.480  1.00  0.00     0.163 HD
ENDROOT
BRANCH   2   5
ATOM      5  C   UNL A   1      32.221  29.131  27.097  1.00  0.00     0.110 C 
BRANCH   5   6
ATOM      6  C   UNL A   1      32.522  28.187  25.915  1.00  0.00     0.110 C 
BRANCH   6   7
ATOM      7  C   UNL A   1      31.838  26.869  26.188  1.00  0.00     0.223 C 
ATOM      8  O   UNL A   1      30.707  26.859  26.680  1.00  0.00    -0.275 OA
BRANCH   7   9
ATOM      9  N   UNL A   1      32.634  25.739  26.168  1.00  0.00    -0.342 N 
ATOM     10  C   UNL A   1      33.993  25.962  25.753  1.00  0.00     0.119 C 
ATOM     11  C   UNL A   1      32.264  24.354  26.584  1.00  0.00     0.128 C 
ATOM     12  C   UNL A   1      34.295  25.016  24.612  1.00  0.00     0.022 C 
ATOM     13  C   UNL A   1      33.198  23.254  25.962  1.00  0.00     0.006 C 
ATOM     14  C   UNL A   1      33.495  23.743  24.548  1.00  0.00     0.012 C 
ATOM     15  C   UNL A   1      34.468  23.012  26.817  1.00  0.00     0.020 C 
ATOM     16  C   UNL A   1      32.566  21.860  25.847  1.00  0.00     0.128 C 
ATOM     17  C   UNL A   1      35.461  22.092  26.125  1.00  0.00     0.101 C 
ATOM     18  N   UNL A   1      33.482  20.925  25.165  1.00  0.00    -0.338 N 
ATOM     19  C   UNL A   1      34.864  20.937  25.349  1.00  0.00     0.222 C 
ATOM     20  O   UNL A   1      35.623  20.130  24.810  1.00  0.00    -0.275 OA
BRANCH  18  21
ATOM     21  C   UNL A   1      32.962  20.098  24.079  1.00  0.00     0.155 C 
BRANCH  21  22
ATOM     22  C   UNL A   1      33.025  18.619  24.349  1.00  0.00    -0.026 A 
ATOM     23  C   UNL A   1      32.545  18.081  25.542  1.00  0.00     0.025 A 
ATOM     24  C   UNL A   1      33.595  17.753  23.409  1.00  0.00     0.025 A 
ATOM     25  C   UNL A   1      32.655  16.714  25.741  1.00  0.00     0.111 A 
ATOM     26  C   UNL A   1      33.661  16.401  23.702  1.00  0.00     0.111 A 
ATOM     27  N   UNL A   1      33.192  15.858  24.845  1.00  0.00    -0.265 NA
ENDBRANCH  21  22
ENDBRANCH  18  21
ENDBRANCH   7   9
ENDBRANCH   6   7
ENDBRANCH   5   6
ENDBRANCH   2   5
BRANCH   3  28
ATOM     28  C   UNL A   1      34.224  32.258  27.985  1.00  0.00     0.117 C 
BRANCH  28  29
ATOM     29  C   UNL A   1      33.988  33.259  29.121  1.00  0.00     0.042 C 
BRANCH  29  30
ATOM     30  C   UNL A   1      34.328  34.744  28.953  1.00  0.00     0.118 C 
BRANCH  30  31
ATOM     31  N   UNL A   1      33.579  35.663  29.797  1.00  0.00    -0.352 N 
ATOM     32  C   UNL A   1      33.218  35.640  31.124  1.00  0.00     0.251 C 
ATOM     33  H   UNL A   1      33.267  36.465  29.320  1.00  0.00     0.163 HD
ATOM     34  O   UNL A   1      32.313  36.318  31.578  1.00  0.00    -0.269 OA
BRANCH  32  35
ATOM     35  C   UNL A   1      34.088  34.909  32.037  1.00  0.00     0.039 A 
ATOM     36  C   UNL A   1      33.614  33.830  32.781  1.00  0.00     0.014 A 
ATOM     37  C   UNL A   1      35.404  35.359  32.135  1.00  0.00     0.014 A 
ATOM     38  C   UNL A   1      34.528  33.083  33.514  1.00  0.00     0.010 A 
ATOM     39  C   UNL A   1      36.319  34.570  32.778  1.00  0.00     0.010 A 
ATOM     40  C   UNL A   1      35.890  33.407  33.434  1.00  0.00    -0.014 A 
BRANCH  40  41
ATOM     41  C   UNL A   1      36.961  32.516  33.904  1.00  0.00     0.031 A 
ATOM     42  C   UNL A   1      37.662  32.856  35.180  1.00  0.00     0.074 A 
ATOM     43  C   UNL A   1      37.450  31.623  33.025  1.00  0.00     0.049 A 
ATOM     44  N   UNL A   1      38.836  32.474  35.600  1.00  0.00    -0.248 NA
ATOM     45  C   UNL A   1      36.985  33.828  36.057  1.00  0.00     0.031 C 
ATOM     46  C   UNL A   1      36.880  31.321  31.707  1.00  0.00     0.029 A 
ATOM     47  N   UNL A   1      38.577  30.849  33.081  1.00  0.00    -0.354 N 
ATOM     48  C   UNL A   1      39.062  33.194  36.764  1.00  0.00     0.074 A 
ATOM     49  C   UNL A   1      37.926  34.069  36.958  1.00  0.00     0.031 C 
ATOM     50  C   UNL A   1      37.656  30.423  31.084  1.00  0.00     0.029 A 
ATOM     51  C   UNL A   1      38.798  30.126  31.935  1.00  0.00     0.049 A 
ATOM     52  H   UNL A   1      39.171  30.814  33.866  1.00  0.00     0.167 HD
ATOM     53  C   UNL A   1      40.126  33.115  37.595  1.00  0.00     0.037 A 
ATOM     54  C   UNL A   1      39.828  29.327  31.608  1.00  0.00     0.037 A 
ATOM     55  C   UNL A   1      41.214  32.200  37.386  1.00  0.00     0.049 A 
ATOM     56  C   UNL A   1      40.942  29.174  32.599  1.00  0.00     0.074 A 
ATOM     57  C   UNL A   1      42.308  31.955  38.194  1.00  0.00     0.029 A 
ATOM     58  N   UNL A   1      41.332  31.365  36.281  1.00  0.00    -0.354 N 
ATOM     59  N   UNL A   1      41.122  29.805  33.736  1.00  0.00    -0.248 NA
ATOM     60  C   UNL A   1      41.986  28.197  32.275  1.00  0.00     0.031 C 
ATOM     61  C   UNL A   1      43.093  30.978  37.572  1.00  0.00     0.029 A 
ATOM     62  C   UNL A   1      42.474  30.594  36.393  1.00  0.00     0.049 A 
ATOM     63  H   UNL A   1      40.695  31.328  35.531  1.00  0.00     0.167 HD
ATOM     64  C   UNL A   1      42.281  29.278  34.282  1.00  0.00     0.074 A 
ATOM     65  C   UNL A   1      42.761  28.275  33.350  1.00  0.00     0.031 C 
ATOM     66  C   UNL A   1      42.896  29.590  35.449  1.00  0.00     0.037 A 
BRANCH  53  67
ATOM     67  C   UNL A   1      40.137  34.019  38.791  1.00  0.00     0.057 A 
ATOM     68  C   UNL A   1      39.533  33.648  40.001  1.00  0.00     0.134 A 
ATOM     69  C   UNL A   1      40.755  35.274  38.739  1.00  0.00     0.134 A 
ATOM     70  F   UNL A   1      38.907  32.467  40.114  1.00  0.00    -0.206 F 
ATOM     71  C   UNL A   1      39.513  34.505  41.102  1.00  0.00     0.040 A 
ATOM     72  C   UNL A   1      40.767  36.128  39.844  1.00  0.00     0.040 A 
ATOM     73  F   UNL A   1      41.353  35.694  37.614  1.00  0.00    -0.206 F 
ATOM     74  C   UNL A   1      40.136  35.748  41.027  1.00  0.00     0.006 A 
ENDBRANCH  53  67
BRANCH  54  75
ATOM     75  C   UNL A   1      39.806  28.579  30.330  1.00  0.00     0.057 A 
ATOM     76  C   UNL A   1      39.126  27.359  30.237  1.00  0.00     0.134 A 
ATOM     77  C   UNL A   1      40.407  29.073  29.167  1.00  0.00     0.134 A 
ATOM     78  F   UNL A   1      38.531  26.837  31.320  1.00  0.00    -0.206 F 
ATOM     79  C   UNL A   1      39.061  26.646  29.041  1.00  0.00     0.040 A 
ATOM     80  C   UNL A   1      40.334  28.379  27.957  1.00  0.00     0.040 A 
ATOM     81  F   UNL A   1      41.051  30.249  29.183  1.00  0.00    -0.206 F 
ATOM     82  C   UNL A   1      39.663  27.158  27.893  1.00  0.00     0.006 A 
ENDBRANCH  54  75
BRANCH  66  83
ATOM     83  C   UNL A   1      44.115  28.798  35.797  1.00  0.00     0.057 A 
ATOM     84  C   UNL A   1      44.032  27.584  36.487  1.00  0.00     0.134 A 
ATOM     85  C   UNL A   1      45.380  29.234  35.384  1.00  0.00     0.134 A 
ATOM     86  F   UNL A   1      42.847  27.127  36.918  1.00  0.00    -0.206 F 
ATOM     87  C   UNL A   1      45.172  26.831  36.764  1.00  0.00     0.040 A 
ATOM     88  C   UNL A   1      46.524  28.481  35.637  1.00  0.00     0.040 A 
ATOM     89  F   UNL A   1      45.517  30.389  34.715  1.00  0.00    -0.206 F 
ATOM     90  C   UNL A   1      46.421  27.276  36.331  1.00  0.00     0.006 A 
ENDBRANCH  66  83
ENDBRANCH  40  41
ENDBRANCH  32  35
ENDBRANCH  30  31
ENDBRANCH  29  30
ENDBRANCH  28  29
ENDBRANCH   3  28
TORSDOF 15
ENDMDL
MODEL 2
REMARK VINA RESULT:     -12.2      1.840      2.918
REMARK SMILES O=C(CCC(=O)N1CCC[C@@]2(CCC(=O)N(Cc3ccncc3)C2)C1)NCCCNC(=O)c1ccc(-c2c3nc(c(-c4c(F)cccc4F)c4ccc([nH]4)c(-c4c(F)cccc4F)c4nc(c(-c5c(F)cccc5F)c5ccc2[nH]5)C=C4)C=C3)cc1
REMARK SMILES IDX 1 1 2 2 26 3 3 5 4 6 5 7 6 8 7 9 8 10 25 11 9 12 11 13 10 14
REMARK SMILES IDX 12 15 24 16 13 17 16 18 14 19 15 20 17 21 18 22 19 23 23 24
REMARK SMILES IDX 20 25 22 26 21 27 27 28 28 29 29 30 30 31 31 32 32 34 33 35
REMARK SMILES IDX 34 36 86 37 35 38 85 39 36 40 37 41 38 42 79 43 39 44 84 45
REMARK SMILES IDX 78 46 80 47 40 48 83 49 77 50 76 51 41 53 67 54 50 55 66 56
REMARK SMILES IDX 51 57 54 58 65 59 81 60 52 61 53 62 64 64 82 65 55 66 42 67
REMARK SMILES IDX 43 68 48 69 44 70 45 71 47 72 49 73 46 74 68 75 69 76 74 77
REMARK SMILES IDX 70 78 71 79 73 80 75 81 72 82 56 83 57 84 62 85 58 86 59 87
REMARK SMILES IDX 61 88 63 89 60 90
REMARK H PARENT 26 4 30 33 80 52 54 63
REMARK Flexibility Score: inf
ROOT
ATOM      1  O   UNL A   1      36.424  30.694  27.759  1.00  0.00    -0.275 OA
ATOM      2  C   UNL A   1      35.212  30.886  27.679  1.00  0.00     0.220 C 
ATOM      3  N   UNL A   1      34.635  32.129  27.903  1.00  0.00    -0.356 N 
ATOM      4  H   UNL A   1      33.667  32.258  27.780  1.00  0.00     0.163 HD
ENDROOT
BRANCH   2   5
ATOM      5  C   UNL A   1      34.258  29.760  27.320  1.00  0.00     0.110 C 
BRANCH   5   6
ATOM      6  C   UNL A   1      32.801  30.258  27.243  1.00  0.00     0.110 C 
BRANCH   6   7
ATOM      7  C   UNL A   1      31.927  29.084  26.874  1.00  0.00     0.223 C 
ATOM      8  O   UNL A   1      31.235  28.543  27.739  1.00  0.00    -0.275 OA
BRANCH   7   9
ATOM      9  N   UNL A   1      32.183  28.474  25.660  1.00  0.00    -0.342 N 
ATOM     10  C   UNL A   1      31.187  28.699  24.647  1.00  0.00     0.119 C 
ATOM     11  C   UNL A   1      33.385  27.678  25.273  1.00  0.00     0.128 C 
ATOM     12  C   UNL A   1      30.732  27.352  24.130  1.00  0.00     0.022 C 
ATOM     13  C   UNL A   1      33.126  26.726  24.050  1.00  0.00     0.006 C 
ATOM     14  C   UNL A   1      31.704  26.210  24.248  1.00  0.00     0.012 C 
ATOM     15  C   UNL A   1      33.347  27.442  22.693  1.00  0.00     0.020 C 
ATOM     16  C   UNL A   1      34.055  25.506  23.974  1.00  0.00     0.128 C 
ATOM     17  C   UNL A   1      32.915  26.585  21.514  1.00  0.00     0.101 C 
ATOM     18  N   UNL A   1      33.671  24.626  22.854  1.00  0.00    -0.338 N 
ATOM     19  C   UNL A   1      33.217  25.105  21.625  1.00  0.00     0.222 C 
ATOM     20  O   UNL A   1      32.936  24.370  20.678  1.00  0.00    -0.275 OA
BRANCH  18  21
ATOM     21  C   UNL A   1      33.539  23.192  23.100  1.00  0.00     0.155 C 
BRANCH  21  22
ATOM     22  C   UNL A   1      34.662  22.602  23.910  1.00  0.00    -0.026 A 
ATOM     23  C   UNL A   1      34.416  21.953  25.120  1.00  0.00     0.025 A 
ATOM     24  C   UNL A   1      35.986  22.718  23.472  1.00  0.00     0.025 A 
ATOM     25  C   UNL A   1      35.495  21.453  25.831  1.00  0.00     0.111 A 
ATOM     26  C   UNL A   1      36.996  22.187  24.256  1.00  0.00     0.111 A 
ATOM     27  N   UNL A   1      36.780  21.544  25.423  1.00  0.00    -0.265 NA
ENDBRANCH  21  22
ENDBRANCH  18  21
ENDBRANCH   7   9
ENDBRANCH   6   7
ENDBRANCH   5   6
ENDBRANCH   2   5
BRANCH   3  28
ATOM     28  C   UNL A   1      35.480  33.235  28.323  1.00  0.00     0.117 C 
BRANCH  28  29
ATOM     29  C   UNL A   1      34.815  34.545  28.761  1.00  0.00     0.042 C 
BRANCH  29  30
ATOM     30  C   UNL A   1      33.370  34.568  29.271  1.00  0.00     0.118 C 
BRANCH  30  31
ATOM     31  N   UNL A   1      33.006  35.717  30.086  1.00  0.00    -0.352 N 
ATOM     32  C   UNL A   1      32.920  35.918  31.445  1.00  0.00     0.251 C 
ATOM     33  H   UNL A   1      32.772  36.513  29.558  1.00  0.00     0.163 HD
ATOM     34  O   UNL A   1      32.279  36.826  31.944  1.00  0.00    -0.269 OA
BRANCH  32  35
ATOM     35  C   UNL A   1      33.790  35.110  32.291  1.00  0.00     0.039 A 
ATOM     36  C   UNL A   1      33.347  33.913  32.852  1.00  0.00     0.014 A 
ATOM     37  C   UNL A   1      35.071  35.610  32.521  1.00  0.00     0.014 A 
ATOM     38  C   UNL A   1      34.270  33.119  33.521  1.00  0.00     0.010 A 
ATOM     39  C   UNL A   1      36.002  34.786  33.095  1.00  0.00     0.010 A 
ATOM     40  C   UNL A   1      35.613  33.521  33.560  1.00  0.00    -0.014 A 
BRANCH  40  41
ATOM     41  C   UNL A   1      36.712  32.630  33.956  1.00  0.00     0.031 A 
ATOM     42  C   UNL A   1      37.445  32.924  35.225  1.00  0.00     0.074 A 
ATOM     43  C   UNL A   1      37.190  31.786  33.024  1.00  0.00     0.049 A 
ATOM     44  N   UNL A   1      38.638  32.545  35.593  1.00  0.00    -0.248 NA
ATOM     45  C   UNL A   1      36.779  33.843  36.165  1.00  0.00     0.031 C 
ATOM     46  C   UNL A   1      36.584  31.534  31.710  1.00  0.00     0.029 A 
ATOM     47  N   UNL A   1      38.330  31.031  33.012  1.00  0.00    -0.354 N 
ATOM     48  C   UNL A   1      38.887  33.217  36.781  1.00  0.00     0.074 A 
ATOM     49  C   UNL A   1      37.742  34.061  37.048  1.00  0.00     0.031 C 
ATOM     50  C   UNL A   1      37.357  30.678  31.025  1.00  0.00     0.029 A 
ATOM     51  C   UNL A   1      38.529  30.364  31.827  1.00  0.00     0.049 A 
ATOM     52  H   UNL A   1      38.948  30.971  33.776  1.00  0.00     0.167 HD
ATOM     53  C   UNL A   1      39.976  33.119  37.575  1.00  0.00     0.037 A 
ATOM     54  C   UNL A   1      39.562  29.600  31.435  1.00  0.00     0.037 A 
ATOM     55  C   UNL A   1      41.073  32.235  37.294  1.00  0.00     0.049 A 
ATOM     56  C   UNL A   1      40.707  29.422  32.384  1.00  0.00     0.074 A 
ATOM     57  C   UNL A   1      42.195  31.973  38.057  1.00  0.00     0.029 A 
ATOM     58  N   UNL A   1      41.171  31.452  36.149  1.00  0.00    -0.354 N 
ATOM     59  N   UNL A   1      40.911  30.005  33.542  1.00  0.00    -0.248 NA
ATOM     60  C   UNL A   1      41.757  28.480  31.986  1.00  0.00     0.031 C 
ATOM     61  C   UNL A   1      42.977  31.039  37.369  1.00  0.00     0.029 A 
ATOM     62  C   UNL A   1      42.329  30.698  36.192  1.00  0.00     0.049 A 
ATOM     63  H   UNL A   1      40.513  31.437  35.417  1.00  0.00     0.167 HD
ATOM     64  C   UNL A   1      42.095  29.475  34.030  1.00  0.00     0.074 A 
ATOM     65  C   UNL A   1      42.562  28.524  33.040  1.00  0.00     0.031 C 
ATOM     66  C   UNL A   1      42.739  29.745  35.191  1.00  0.00     0.037 A 
BRANCH  53  67
ATOM     67  C   UNL A   1      40.009  33.968  38.811  1.00  0.00     0.057 A 
ATOM     68  C   UNL A   1      40.649  35.215  38.832  1.00  0.00     0.134 A 
ATOM     69  C   UNL A   1      39.400  33.539  39.996  1.00  0.00     0.134 A 
ATOM     70  F   UNL A   1      41.270  35.679  37.736  1.00  0.00    -0.206 F 
ATOM     71  C   UNL A   1      40.711  35.988  39.993  1.00  0.00     0.040 A 
ATOM     72  C   UNL A   1      39.429  34.316  41.156  1.00  0.00     0.040 A 
ATOM     73  F   UNL A   1      38.769  32.355  40.048  1.00  0.00    -0.206 F 
ATOM     74  C   UNL A   1      40.094  35.540  41.158  1.00  0.00     0.006 A 
ENDBRANCH  53  67
BRANCH  54  75
ATOM     75  C   UNL A   1      39.513  28.909  30.125  1.00  0.00     0.057 A 
ATOM     76  C   UNL A   1      40.026  29.528  28.980  1.00  0.00     0.134 A 
ATOM     77  C   UNL A   1      39.009  27.611  29.986  1.00  0.00     0.134 A 
ATOM     78  F   UNL A   1      40.522  30.773  29.054  1.00  0.00    -0.206 F 
ATOM     79  C   UNL A   1      40.023  28.893  27.739  1.00  0.00     0.040 A 
ATOM     80  C   UNL A   1      39.016  26.954  28.753  1.00  0.00     0.040 A 
ATOM     81  F   UNL A   1      38.527  26.953  31.050  1.00  0.00    -0.206 F 
ATOM     82  C   UNL A   1      39.520  27.598  27.623  1.00  0.00     0.006 A 
ENDBRANCH  54  75
BRANCH  66  83
ATOM     83  C   UNL A   1      43.982  28.961  35.467  1.00  0.00     0.057 A 
ATOM     84  C   UNL A   1      45.246  29.429  35.093  1.00  0.00     0.134 A 
ATOM     85  C   UNL A   1      43.910  27.751  36.168  1.00  0.00     0.134 A 
ATOM     86  F   UNL A   1      45.372  30.574  34.408  1.00  0.00    -0.206 F 
ATOM     87  C   UNL A   1      46.401  28.711  35.399  1.00  0.00     0.040 A 
ATOM     88  C   UNL A   1      45.058  27.035  36.498  1.00  0.00     0.040 A 
ATOM     89  F   UNL A   1      42.723  27.259  36.556  1.00  0.00    -0.206 F 
ATOM     90  C   UNL A   1      46.309  27.514  36.111  1.00  0.00     0.006 A 
ENDBRANCH  66  83
ENDBRANCH  40  41
ENDBRANCH  32  35
ENDBRANCH  30  31
ENDBRANCH  29  30
ENDBRANCH  28  29
ENDBRANCH   3  28
TORSDOF 15
ENDMDL
MODEL 3
REMARK VINA RESULT:     -12.1      4.797      6.558
REMARK SMILES O=C(CCC(=O)N1CCC[C@@]2(CCC(=O)N(Cc3ccncc3)C2)C1)NCCCNC(=O)c1ccc(-c2c3nc(c(-c4c(F)cccc4F)c4ccc([nH]4)c(-c4c(F)cccc4F)c4nc(c(-c5c(F)cccc5F)c5ccc2[nH]5)C=C4)C=C3)cc1
REMARK SMILES IDX 1 1 2 2 26 3 3 5 4 6 5 7 6 8 7 9 8 10 25 11 9 12 11 13 10 14
REMARK SMILES IDX 12 15 24 16 13 17 16 18 14 19 15 20 17 21 18 22 19 23 23 24
REMARK SMILES IDX 20 25 22 26 21 27 27 28 28 29 29 30 30 31 31 32 32 34 33 35
REMARK SMILES IDX 34 36 86 37 35 38 85 39 36 40 37 41 38 42 79 43 39 44 84 45
REMARK SMILES IDX 78 46 80 47 40 48 83 49 77 50 76 51 41 53 67 54 50 55 66 56
REMARK SMILES IDX 51 57 54 58 65 59 81 60 52 61 53 62 64 64 82 65 55 66 42 67
REMARK SMILES IDX 43 68 48 69 44 70 45 71 47 72 49 73 46 74 68 75 69 76 74 77
REMARK SMILES IDX 70 78 71 79 73 80 75 81 72 82 56 83 57 84 62 85 58 86 59 87
REMARK SMILES IDX 61 88 63 89 60 90
REMARK H PARENT 26 4 30 33 80 52 54 63
REMARK Flexibility Score: inf
ROOT
ATOM      1  O   UNL A   1      32.891  28.964  22.903  1.00  0.00    -0.275 OA
ATOM      2  C   UNL A   1      31.730  28.724  23.229  1.00  0.00     0.220 C 
ATOM      3  N   UNL A   1      31.208  29.094  24.461  1.00  0.00    -0.356 N 
ATOM      4  H   UNL A   1      30.260  28.932  24.669  1.00  0.00     0.163 HD
ENDROOT
BRANCH   2   5
ATOM      5  C   UNL A   1      30.781  28.003  22.288  1.00  0.00     0.110 C 
BRANCH   5   6
ATOM      6  C   UNL A   1      31.295  26.590  21.943  1.00  0.00     0.110 C 
BRANCH   6   7
ATOM      7  C   UNL A   1      31.120  25.721  23.165  1.00  0.00     0.223 C 
ATOM      8  O   UNL A   1      30.199  25.953  23.952  1.00  0.00    -0.275 OA
BRANCH   7   9
ATOM      9  N   UNL A   1      32.184  24.909  23.509  1.00  0.00    -0.342 N 
ATOM     10  C   UNL A   1      33.125  24.662  22.450  1.00  0.00     0.119 C 
ATOM     11  C   UNL A   1      32.492  24.324  24.847  1.00  0.00     0.128 C 
ATOM     12  C   UNL A   1      33.282  23.165  22.301  1.00  0.00     0.022 C 
ATOM     13  C   UNL A   1      33.440  23.074  24.771  1.00  0.00     0.006 C 
ATOM     14  C   UNL A   1      33.000  22.323  23.517  1.00  0.00     0.012 C 
ATOM     15  C   UNL A   1      34.937  23.473  24.765  1.00  0.00     0.020 C 
ATOM     16  C   UNL A   1      33.326  22.103  25.954  1.00  0.00     0.128 C 
ATOM     17  C   UNL A   1      35.849  22.285  24.500  1.00  0.00     0.101 C 
ATOM     18  N   UNL A   1      34.179  20.918  25.743  1.00  0.00    -0.338 N 
ATOM     19  C   UNL A   1      35.436  20.978  25.143  1.00  0.00     0.222 C 
ATOM     20  O   UNL A   1      36.164  19.994  25.004  1.00  0.00    -0.275 OA
BRANCH  18  21
ATOM     21  C   UNL A   1      33.606  19.591  25.958  1.00  0.00     0.155 C 
BRANCH  21  22
ATOM     22  C   UNL A   1      33.359  18.817  24.692  1.00  0.00    -0.026 A 
ATOM     23  C   UNL A   1      34.014  17.612  24.442  1.00  0.00     0.025 A 
ATOM     24  C   UNL A   1      32.478  19.309  23.722  1.00  0.00     0.025 A 
ATOM     25  C   UNL A   1      33.762  16.958  23.246  1.00  0.00     0.111 A 
ATOM     26  C   UNL A   1      32.295  18.584  22.558  1.00  0.00     0.111 A 
ATOM     27  N   UNL A   1      32.909  17.410  22.301  1.00  0.00    -0.265 NA
ENDBRANCH  21  22
ENDBRANCH  18  21
ENDBRANCH   7   9
ENDBRANCH   6   7
ENDBRANCH   5   6
ENDBRANCH   2   5
BRANCH   3  28
ATOM     28  C   UNL A   1      32.081  29.722  25.440  1.00  0.00     0.117 C 
BRANCH  28  29
ATOM     29  C   UNL A   1      33.143  28.866  26.137  1.00  0.00     0.042 C 
BRANCH  29  30
ATOM     30  C   UNL A   1      33.497  29.087  27.612  1.00  0.00     0.118 C 
BRANCH  30  31
ATOM     31  N   UNL A   1      33.853  30.449  27.980  1.00  0.00    -0.352 N 
ATOM     32  C   UNL A   1      34.895  30.987  28.700  1.00  0.00     0.251 C 
ATOM     33  H   UNL A   1      33.219  31.123  27.645  1.00  0.00     0.163 HD
ATOM     34  O   UNL A   1      34.855  32.100  29.195  1.00  0.00    -0.269 OA
BRANCH  32  35
ATOM     35  C   UNL A   1      36.152  30.251  28.700  1.00  0.00     0.039 A 
ATOM     36  C   UNL A   1      36.981  30.232  27.579  1.00  0.00     0.014 A 
ATOM     37  C   UNL A   1      36.467  29.558  29.868  1.00  0.00     0.014 A 
ATOM     38  C   UNL A   1      38.233  29.640  27.696  1.00  0.00     0.010 A 
ATOM     39  C   UNL A   1      37.734  29.060  30.014  1.00  0.00     0.010 A 
ATOM     40  C   UNL A   1      38.634  29.137  28.942  1.00  0.00    -0.014 A 
BRANCH  40  41
ATOM     41  C   UNL A   1      40.024  28.780  29.259  1.00  0.00     0.031 A 
ATOM     42  C   UNL A   1      40.954  29.863  29.700  1.00  0.00     0.074 A 
ATOM     43  C   UNL A   1      40.459  27.572  28.856  1.00  0.00     0.049 A 
ATOM     44  N   UNL A   1      42.258  29.890  29.673  1.00  0.00    -0.248 NA
ATOM     45  C   UNL A   1      40.327  31.121  30.146  1.00  0.00     0.031 C 
ATOM     46  C   UNL A   1      39.618  26.502  28.306  1.00  0.00     0.029 A 
ATOM     47  N   UNL A   1      41.727  27.064  28.787  1.00  0.00    -0.354 N 
ATOM     48  C   UNL A   1      42.608  31.178  30.051  1.00  0.00     0.074 A 
ATOM     49  C   UNL A   1      41.381  31.917  30.255  1.00  0.00     0.031 C 
ATOM     50  C   UNL A   1      40.394  25.463  27.963  1.00  0.00     0.029 A 
ATOM     51  C   UNL A   1      41.782  25.813  28.221  1.00  0.00     0.049 A 
ATOM     52  H   UNL A   1      42.522  27.548  29.110  1.00  0.00     0.167 HD
ATOM     53  C   UNL A   1      43.850  31.684  30.218  1.00  0.00     0.037 A 
ATOM     54  C   UNL A   1      42.848  25.049  27.930  1.00  0.00     0.037 A 
ATOM     55  C   UNL A   1      45.044  30.902  30.045  1.00  0.00     0.049 A 
ATOM     56  C   UNL A   1      44.210  25.596  28.229  1.00  0.00     0.074 A 
ATOM     57  C   UNL A   1      46.358  31.265  30.268  1.00  0.00     0.029 A 
ATOM     58  N   UNL A   1      45.055  29.580  29.615  1.00  0.00    -0.354 N 
ATOM     59  N   UNL A   1      44.538  26.794  28.653  1.00  0.00    -0.248 NA
ATOM     60  C   UNL A   1      45.346  24.692  28.024  1.00  0.00     0.031 C 
ATOM     61  C   UNL A   1      47.167  30.164  29.961  1.00  0.00     0.029 A 
ATOM     62  C   UNL A   1      46.354  29.109  29.577  1.00  0.00     0.049 A 
ATOM     63  H   UNL A   1      44.257  29.058  29.374  1.00  0.00     0.167 HD
ATOM     64  C   UNL A   1      45.917  26.779  28.800  1.00  0.00     0.074 A 
ATOM     65  C   UNL A   1      46.360  25.452  28.419  1.00  0.00     0.031 C 
ATOM     66  C   UNL A   1      46.743  27.770  29.214  1.00  0.00     0.037 A 
BRANCH  53  67
ATOM     67  C   UNL A   1      43.962  33.124  30.621  1.00  0.00     0.057 A 
ATOM     68  C   UNL A   1      44.045  34.152  29.671  1.00  0.00     0.134 A 
ATOM     69  C   UNL A   1      43.990  33.493  31.971  1.00  0.00     0.134 A 
ATOM     70  F   UNL A   1      44.042  33.867  28.360  1.00  0.00    -0.206 F 
ATOM     71  C   UNL A   1      44.185  35.488  30.049  1.00  0.00     0.040 A 
ATOM     72  C   UNL A   1      44.101  34.829  32.362  1.00  0.00     0.040 A 
ATOM     73  F   UNL A   1      43.915  32.562  32.935  1.00  0.00    -0.206 F 
ATOM     74  C   UNL A   1      44.208  35.831  31.398  1.00  0.00     0.006 A 
ENDBRANCH  53  67
BRANCH  54  75
ATOM     75  C   UNL A   1      42.651  23.683  27.391  1.00  0.00     0.057 A 
ATOM     76  C   UNL A   1      42.787  23.437  26.021  1.00  0.00     0.134 A 
ATOM     77  C   UNL A   1      42.376  22.589  28.219  1.00  0.00     0.134 A 
ATOM     78  F   UNL A   1      43.049  24.448  25.179  1.00  0.00    -0.206 F 
ATOM     79  C   UNL A   1      42.637  22.157  25.487  1.00  0.00     0.040 A 
ATOM     80  C   UNL A   1      42.243  21.298  27.703  1.00  0.00     0.040 A 
ATOM     81  F   UNL A   1      42.261  22.753  29.545  1.00  0.00    -0.206 F 
ATOM     82  C   UNL A   1      42.369  21.080  26.330  1.00  0.00     0.006 A 
ENDBRANCH  54  75
BRANCH  66  83
ATOM     83  C   UNL A   1      48.195  27.429  29.325  1.00  0.00     0.057 A 
ATOM     84  C   UNL A   1      49.092  27.683  28.283  1.00  0.00     0.134 A 
ATOM     85  C   UNL A   1      48.704  26.894  30.515  1.00  0.00     0.134 A 
ATOM     86  F   UNL A   1      48.657  28.181  27.116  1.00  0.00    -0.206 F 
ATOM     87  C   UNL A   1      50.452  27.405  28.417  1.00  0.00     0.040 A 
ATOM     88  C   UNL A   1      50.063  26.632  30.668  1.00  0.00     0.040 A 
ATOM     89  F   UNL A   1      47.888  26.636  31.549  1.00  0.00    -0.206 F 
ATOM     90  C   UNL A   1      50.941  26.886  29.616  1.00  0.00     0.006 A 
ENDBRANCH  66  83
ENDBRANCH  40  41
ENDBRANCH  32  35
ENDBRANCH  30  31
ENDBRANCH  29  30
ENDBRANCH  28  29
ENDBRANCH   3  28
TORSDOF 15
ENDMDL
