MODEL 1
REMARK VINA RESULT:     -10.9      0.000      0.000
REMARK SMILES CC(C)(C)N(CC(=O)NCCCNC(=O)c1ccc(-c2c3nc(c(-c4c(F)cccc4F)c4ccc([nH]4)c(-c4c(F)cccc4F)c4nc(c(-c5c(F)cccc5F)c5ccc2[nH]5)C=C4)C=C3)cc1)C(=O)NCCc1cnc[nH]1
REMARK SMILES IDX 7 1 8 2 9 3 6 5 5 6 2 7 1 8 3 9 4 10 70 11 71 12 72 13 73 15
REMARK SMILES IDX 74 16 75 17 76 18 79 19 77 20 78 21 10 23 11 24 12 25 13 26
REMARK SMILES IDX 14 27 15 29 16 30 17 31 69 32 18 33 68 34 19 35 20 36 21 37
REMARK SMILES IDX 62 38 22 39 67 40 61 41 63 42 23 43 66 44 60 45 59 46 24 48
REMARK SMILES IDX 50 49 33 50 49 51 34 52 37 53 48 54 64 55 35 56 36 57 47 59
REMARK SMILES IDX 65 60 38 61 25 62 26 63 31 64 27 65 28 66 30 67 32 68 29 69
REMARK SMILES IDX 51 70 52 71 57 72 53 73 54 74 56 75 58 76 55 77 39 78 40 79
REMARK SMILES IDX 45 80 41 81 42 82 44 83 46 84 43 85
REMARK H PARENT 9 4 72 14 79 22 13 28 63 47 37 58
REMARK Flexibility Score: inf
ROOT
ATOM      1  C   UNL A   1      36.222  22.580  25.109  1.00  0.00     0.239 C 
ATOM      2  O   UNL A   1      36.597  23.585  25.721  1.00  0.00    -0.273 OA
ATOM      3  N   UNL A   1      37.106  21.548  25.030  1.00  0.00    -0.354 N 
ATOM      4  H   UNL A   1      38.046  21.780  25.206  1.00  0.00     0.163 HD
ENDROOT
BRANCH   1   5
ATOM      5  C   UNL A   1      34.765  22.452  24.629  1.00  0.00     0.221 C 
BRANCH   5   6
ATOM      6  N   UNL A   1      33.702  22.334  25.642  1.00  0.00    -0.311 N 
BRANCH   6   7
ATOM      7  C   UNL A   1      32.473  23.238  25.538  1.00  0.00     0.037 C 
ATOM      8  C   UNL A   1      31.193  22.683  26.221  1.00  0.00     0.034 C 
ATOM      9  C   UNL A   1      32.069  23.511  24.068  1.00  0.00     0.034 C 
ATOM     10  C   UNL A   1      32.751  24.589  26.245  1.00  0.00     0.034 C 
ENDBRANCH   6   7
BRANCH   6  11
ATOM     11  C   UNL A   1      33.611  21.266  26.506  1.00  0.00     0.318 C 
ATOM     12  O   UNL A   1      33.934  21.343  27.698  1.00  0.00    -0.249 OA
ATOM     13  N   UNL A   1      33.147  20.048  26.199  1.00  0.00    -0.338 N 
ATOM     14  H   UNL A   1      33.238  19.455  26.979  1.00  0.00     0.165 HD
BRANCH  13  15
ATOM     15  C   UNL A   1      32.549  19.306  25.091  1.00  0.00     0.124 C 
BRANCH  15  16
ATOM     16  C   UNL A   1      33.570  18.380  24.411  1.00  0.00     0.077 C 
BRANCH  16  17
ATOM     17  C   UNL A   1      33.489  16.941  24.812  1.00  0.00     0.036 A 
ATOM     18  C   UNL A   1      34.498  16.025  25.043  1.00  0.00     0.134 A 
ATOM     19  N   UNL A   1      32.336  16.237  25.058  1.00  0.00    -0.348 N 
ATOM     20  N   UNL A   1      33.988  14.802  25.388  1.00  0.00    -0.245 NA
ATOM     21  C   UNL A   1      32.687  14.957  25.382  1.00  0.00     0.196 A 
ATOM     22  H   UNL A   1      31.418  16.591  25.010  1.00  0.00     0.167 HD
ENDBRANCH  16  17
ENDBRANCH  15  16
ENDBRANCH  13  15
ENDBRANCH   6  11
ENDBRANCH   5   6
ENDBRANCH   1   5
BRANCH   3  23
ATOM     23  C   UNL A   1      36.852  20.159  24.723  1.00  0.00     0.117 C 
BRANCH  23  24
ATOM     24  C   UNL A   1      38.047  19.257  24.996  1.00  0.00     0.042 C 
BRANCH  24  25
ATOM     25  C   UNL A   1      39.102  19.874  25.906  1.00  0.00     0.118 C 
BRANCH  25  26
ATOM     26  N   UNL A   1      40.365  19.149  25.863  1.00  0.00    -0.352 N 
ATOM     27  C   UNL A   1      41.662  19.569  25.990  1.00  0.00     0.251 C 
ATOM     28  H   UNL A   1      40.269  18.181  25.715  1.00  0.00     0.163 HD
ATOM     29  O   UNL A   1      42.565  18.792  25.668  1.00  0.00    -0.269 OA
BRANCH  27  30
ATOM     30  C   UNL A   1      42.014  20.913  26.503  1.00  0.00     0.039 A 
ATOM     31  C   UNL A   1      42.022  21.118  27.889  1.00  0.00     0.014 A 
ATOM     32  C   UNL A   1      42.237  21.997  25.651  1.00  0.00     0.014 A 
ATOM     33  C   UNL A   1      42.281  22.389  28.412  1.00  0.00     0.010 A 
ATOM     34  C   UNL A   1      42.584  23.243  26.173  1.00  0.00     0.010 A 
ATOM     35  C   UNL A   1      42.584  23.459  27.558  1.00  0.00    -0.014 A 
BRANCH  35  36
ATOM     36  C   UNL A   1      42.846  24.821  28.091  1.00  0.00     0.031 A 
ATOM     37  C   UNL A   1      44.243  25.222  28.485  1.00  0.00     0.074 A 
ATOM     38  C   UNL A   1      41.825  25.682  28.267  1.00  0.00     0.049 A 
ATOM     39  N   UNL A   1      44.662  26.335  29.033  1.00  0.00    -0.248 NA
ATOM     40  C   UNL A   1      45.306  24.229  28.262  1.00  0.00     0.031 C 
ATOM     41  C   UNL A   1      40.419  25.404  27.969  1.00  0.00     0.029 A 
ATOM     42  N   UNL A   1      41.815  26.968  28.748  1.00  0.00    -0.354 N 
ATOM     43  C   UNL A   1      46.025  26.165  29.243  1.00  0.00     0.074 A 
ATOM     44  C   UNL A   1      46.355  24.825  28.808  1.00  0.00     0.031 C 
ATOM     45  C   UNL A   1      39.687  26.494  28.247  1.00  0.00     0.029 A 
ATOM     46  C   UNL A   1      40.564  27.536  28.773  1.00  0.00     0.049 A 
ATOM     47  H   UNL A   1      42.626  27.438  29.047  1.00  0.00     0.167 HD
ATOM     48  C   UNL A   1      46.928  27.049  29.730  1.00  0.00     0.037 A 
ATOM     49  C   UNL A   1      40.171  28.759  29.173  1.00  0.00     0.037 A 
ATOM     50  C   UNL A   1      46.611  28.399  30.118  1.00  0.00     0.049 A 
ATOM     51  C   UNL A   1      41.194  29.732  29.685  1.00  0.00     0.074 A 
ATOM     52  C   UNL A   1      47.466  29.393  30.560  1.00  0.00     0.029 A 
ATOM     53  N   UNL A   1      45.336  28.943  30.101  1.00  0.00    -0.354 N 
ATOM     54  N   UNL A   1      42.487  29.575  29.827  1.00  0.00    -0.248 NA
ATOM     55  C   UNL A   1      40.703  31.058  30.088  1.00  0.00     0.031 C 
ATOM     56  C   UNL A   1      46.704  30.533  30.837  1.00  0.00     0.029 A 
ATOM     57  C   UNL A   1      45.380  30.258  30.536  1.00  0.00     0.049 A 
ATOM     58  H   UNL A   1      44.522  28.467  29.822  1.00  0.00     0.167 HD
ATOM     59  C   UNL A   1      42.967  30.783  30.313  1.00  0.00     0.074 A 
ATOM     60  C   UNL A   1      41.828  31.670  30.428  1.00  0.00     0.031 C 
ATOM     61  C   UNL A   1      44.237  31.127  30.638  1.00  0.00     0.037 A 
BRANCH  48  62
ATOM     62  C   UNL A   1      48.349  26.586  29.859  1.00  0.00     0.057 A 
ATOM     63  C   UNL A   1      49.299  26.834  28.859  1.00  0.00     0.134 A 
ATOM     64  C   UNL A   1      48.780  25.906  31.004  1.00  0.00     0.134 A 
ATOM     65  F   UNL A   1      48.947  27.469  27.731  1.00  0.00    -0.206 F 
ATOM     66  C   UNL A   1      50.619  26.399  28.982  1.00  0.00     0.040 A 
ATOM     67  C   UNL A   1      50.104  25.488  31.150  1.00  0.00     0.040 A 
ATOM     68  F   UNL A   1      47.923  25.642  32.002  1.00  0.00    -0.206 F 
ATOM     69  C   UNL A   1      51.026  25.728  30.133  1.00  0.00     0.006 A 
ENDBRANCH  48  62
BRANCH  49  70
ATOM     70  C   UNL A   1      38.742  29.146  29.074  1.00  0.00     0.057 A 
ATOM     71  C   UNL A   1      37.906  29.097  30.196  1.00  0.00     0.134 A 
ATOM     72  C   UNL A   1      38.179  29.568  27.865  1.00  0.00     0.134 A 
ATOM     73  F   UNL A   1      38.387  28.682  31.377  1.00  0.00    -0.206 F 
ATOM     74  C   UNL A   1      36.556  29.440  30.116  1.00  0.00     0.040 A 
ATOM     75  C   UNL A   1      36.834  29.934  27.776  1.00  0.00     0.040 A 
ATOM     76  F   UNL A   1      38.929  29.641  26.757  1.00  0.00    -0.206 F 
ATOM     77  C   UNL A   1      36.018  29.863  28.903  1.00  0.00     0.006 A 
ENDBRANCH  49  70
BRANCH  61  78
ATOM     78  C   UNL A   1      44.462  32.527  31.122  1.00  0.00     0.057 A 
ATOM     79  C   UNL A   1      44.717  33.579  30.233  1.00  0.00     0.134 A 
ATOM     80  C   UNL A   1      44.390  32.832  32.486  1.00  0.00     0.134 A 
ATOM     81  F   UNL A   1      44.811  33.349  28.915  1.00  0.00    -0.206 F 
ATOM     82  C   UNL A   1      44.914  34.884  30.689  1.00  0.00     0.040 A 
ATOM     83  C   UNL A   1      44.564  34.135  32.952  1.00  0.00     0.040 A 
ATOM     84  F   UNL A   1      44.143  31.868  33.386  1.00  0.00    -0.206 F 
ATOM     85  C   UNL A   1      44.831  35.165  32.052  1.00  0.00     0.006 A 
ENDBRANCH  61  78
ENDBRANCH  35  36
ENDBRANCH  27  30
ENDBRANCH  25  26
ENDBRANCH  24  25
ENDBRANCH  23  24
ENDBRANCH   3  23
TORSDOF 16
ENDMDL
MODEL 2
REMARK VINA RESULT:     -10.8      1.693      6.425
REMARK SMILES CC(C)(C)N(CC(=O)NCCCNC(=O)c1ccc(-c2c3nc(c(-c4c(F)cccc4F)c4ccc([nH]4)c(-c4c(F)cccc4F)c4nc(c(-c5c(F)cccc5F)c5ccc2[nH]5)C=C4)C=C3)cc1)C(=O)NCCc1cnc[nH]1
REMARK SMILES IDX 7 1 8 2 9 3 6 5 5 6 2 7 1 8 3 9 4 10 70 11 71 12 72 13 73 15
REMARK SMILES IDX 74 16 75 17 76 18 79 19 77 20 78 21 10 23 11 24 12 25 13 26
REMARK SMILES IDX 14 27 15 29 16 30 17 31 69 32 18 33 68 34 19 35 20 36 21 37
REMARK SMILES IDX 62 38 22 39 67 40 61 41 63 42 23 43 66 44 60 45 59 46 24 48
REMARK SMILES IDX 50 49 33 50 49 51 34 52 37 53 48 54 64 55 35 56 36 57 47 59
REMARK SMILES IDX 65 60 38 61 25 62 26 63 31 64 27 65 28 66 30 67 32 68 29 69
REMARK SMILES IDX 51 70 52 71 57 72 53 73 54 74 56 75 58 76 55 77 39 78 40 79
REMARK SMILES IDX 45 80 41 81 42 82 44 83 46 84 43 85
REMARK H PARENT 9 4 72 14 79 22 13 28 63 47 37 58
REMARK Flexibility Score: inf
ROOT
ATOM      1  C   UNL A   1      36.386  22.597  24.696  1.00  0.00     0.239 C 
ATOM      2  O   UNL A   1      36.873  23.686  25.018  1.00  0.00    -0.273 OA
ATOM      3  N   UNL A   1      37.208  21.514  24.772  1.00  0.00    -0.354 N 
ATOM      4  H   UNL A   1      38.171  21.713  24.796  1.00  0.00     0.163 HD
ENDROOT
BRANCH   1   5
ATOM      5  C   UNL A   1      34.879  22.466  24.405  1.00  0.00     0.221 C 
BRANCH   5   6
ATOM      6  N   UNL A   1      33.946  22.457  25.544  1.00  0.00    -0.311 N 
BRANCH   6   7
ATOM      7  C   UNL A   1      32.825  23.496  25.593  1.00  0.00     0.037 C 
ATOM      8  C   UNL A   1      33.304  24.973  25.633  1.00  0.00     0.034 C 
ATOM      9  C   UNL A   1      31.920  23.324  26.839  1.00  0.00     0.034 C 
ATOM     10  C   UNL A   1      31.952  23.392  24.316  1.00  0.00     0.034 C 
ENDBRANCH   6   7
BRANCH   6  11
ATOM     11  C   UNL A   1      33.841  21.394  26.414  1.00  0.00     0.318 C 
ATOM     12  O   UNL A   1      34.243  21.449  27.582  1.00  0.00    -0.249 OA
ATOM     13  N   UNL A   1      33.281  20.210  26.139  1.00  0.00    -0.338 N 
ATOM     14  H   UNL A   1      33.383  19.611  26.912  1.00  0.00     0.165 HD
BRANCH  13  15
ATOM     15  C   UNL A   1      32.568  19.511  25.072  1.00  0.00     0.124 C 
BRANCH  15  16
ATOM     16  C   UNL A   1      33.489  18.544  24.312  1.00  0.00     0.077 C 
BRANCH  16  17
ATOM     17  C   UNL A   1      33.412  17.114  24.749  1.00  0.00     0.036 A 
ATOM     18  C   UNL A   1      34.423  16.206  24.998  1.00  0.00     0.134 A 
ATOM     19  N   UNL A   1      32.261  16.416  25.019  1.00  0.00    -0.348 N 
ATOM     20  N   UNL A   1      33.917  14.992  25.376  1.00  0.00    -0.245 NA
ATOM     21  C   UNL A   1      32.614  15.145  25.373  1.00  0.00     0.196 A 
ATOM     22  H   UNL A   1      31.342  16.768  24.965  1.00  0.00     0.167 HD
ENDBRANCH  16  17
ENDBRANCH  15  16
ENDBRANCH  13  15
ENDBRANCH   6  11
ENDBRANCH   5   6
ENDBRANCH   1   5
BRANCH   3  23
ATOM     23  C   UNL A   1      36.857  20.113  24.822  1.00  0.00     0.117 C 
BRANCH  23  24
ATOM     24  C   UNL A   1      38.061  19.202  25.009  1.00  0.00     0.042 C 
BRANCH  24  25
ATOM     25  C   UNL A   1      39.226  19.846  25.750  1.00  0.00     0.118 C 
BRANCH  25  26
ATOM     26  N   UNL A   1      40.337  18.924  25.949  1.00  0.00    -0.352 N 
ATOM     27  C   UNL A   1      41.681  19.136  26.101  1.00  0.00     0.251 C 
ATOM     28  H   UNL A   1      40.073  17.976  25.978  1.00  0.00     0.163 HD
ATOM     29  O   UNL A   1      42.442  18.169  26.006  1.00  0.00    -0.269 OA
BRANCH  27  30
ATOM     30  C   UNL A   1      42.246  20.476  26.380  1.00  0.00     0.039 A 
ATOM     31  C   UNL A   1      42.280  20.924  27.706  1.00  0.00     0.014 A 
ATOM     32  C   UNL A   1      42.650  21.338  25.358  1.00  0.00     0.014 A 
ATOM     33  C   UNL A   1      42.742  22.210  28.006  1.00  0.00     0.010 A 
ATOM     34  C   UNL A   1      43.194  22.585  25.662  1.00  0.00     0.010 A 
ATOM     35  C   UNL A   1      43.221  23.045  26.986  1.00  0.00    -0.014 A 
BRANCH  35  36
ATOM     36  C   UNL A   1      43.701  24.421  27.278  1.00  0.00     0.031 A 
ATOM     37  C   UNL A   1      42.732  25.477  27.741  1.00  0.00     0.074 A 
ATOM     38  C   UNL A   1      44.996  24.736  27.085  1.00  0.00     0.049 A 
ATOM     39  N   UNL A   1      42.942  26.747  27.980  1.00  0.00    -0.248 NA
ATOM     40  C   UNL A   1      41.335  25.056  27.931  1.00  0.00     0.031 C 
ATOM     41  C   UNL A   1      46.029  23.821  26.598  1.00  0.00     0.029 A 
ATOM     42  N   UNL A   1      45.663  25.922  27.270  1.00  0.00    -0.354 N 
ATOM     43  C   UNL A   1      41.704  27.278  28.320  1.00  0.00     0.074 A 
ATOM     44  C   UNL A   1      40.740  26.206  28.212  1.00  0.00     0.031 C 
ATOM     45  C   UNL A   1      47.203  24.470  26.549  1.00  0.00     0.029 A 
ATOM     46  C   UNL A   1      47.001  25.853  26.968  1.00  0.00     0.049 A 
ATOM     47  H   UNL A   1      45.224  26.743  27.588  1.00  0.00     0.167 HD
ATOM     48  C   UNL A   1      41.398  28.539  28.712  1.00  0.00     0.037 A 
ATOM     49  C   UNL A   1      47.958  26.799  27.025  1.00  0.00     0.037 A 
ATOM     50  C   UNL A   1      42.364  29.595  28.867  1.00  0.00     0.049 A 
ATOM     51  C   UNL A   1      47.600  28.182  27.488  1.00  0.00     0.074 A 
ATOM     52  C   UNL A   1      42.164  30.886  29.323  1.00  0.00     0.029 A 
ATOM     53  N   UNL A   1      43.714  29.475  28.578  1.00  0.00    -0.354 N 
ATOM     54  N   UNL A   1      46.435  28.655  27.858  1.00  0.00    -0.248 NA
ATOM     55  C   UNL A   1      48.692  29.164  27.546  1.00  0.00     0.031 C 
ATOM     56  C   UNL A   1      43.391  31.557  29.283  1.00  0.00     0.029 A 
ATOM     57  C   UNL A   1      44.359  30.674  28.834  1.00  0.00     0.049 A 
ATOM     58  H   UNL A   1      44.150  28.660  28.240  1.00  0.00     0.167 HD
ATOM     59  C   UNL A   1      46.657  29.979  28.213  1.00  0.00     0.074 A 
ATOM     60  C   UNL A   1      48.071  30.230  28.029  1.00  0.00     0.031 C 
ATOM     61  C   UNL A   1      45.769  30.904  28.651  1.00  0.00     0.037 A 
BRANCH  48  62
ATOM     62  C   UNL A   1      39.959  28.839  29.012  1.00  0.00     0.057 A 
ATOM     63  C   UNL A   1      39.060  29.217  28.006  1.00  0.00     0.134 A 
ATOM     64  C   UNL A   1      39.461  28.727  30.316  1.00  0.00     0.134 A 
ATOM     65  F   UNL A   1      39.477  29.355  26.739  1.00  0.00    -0.206 F 
ATOM     66  C   UNL A   1      37.722  29.497  28.291  1.00  0.00     0.040 A 
ATOM     67  C   UNL A   1      38.119  28.981  30.608  1.00  0.00     0.040 A 
ATOM     68  F   UNL A   1      40.267  28.363  31.324  1.00  0.00    -0.206 F 
ATOM     69  C   UNL A   1      37.248  29.374  29.595  1.00  0.00     0.006 A 
ENDBRANCH  48  62
BRANCH  49  70
ATOM     70  C   UNL A   1      49.356  26.460  26.665  1.00  0.00     0.057 A 
ATOM     71  C   UNL A   1      49.826  26.650  25.360  1.00  0.00     0.134 A 
ATOM     72  C   UNL A   1      50.250  25.939  27.607  1.00  0.00     0.134 A 
ATOM     73  F   UNL A   1      49.008  27.127  24.411  1.00  0.00    -0.206 F 
ATOM     74  C   UNL A   1      51.134  26.319  25.000  1.00  0.00     0.040 A 
ATOM     75  C   UNL A   1      51.567  25.624  27.265  1.00  0.00     0.040 A 
ATOM     76  F   UNL A   1      49.860  25.741  28.873  1.00  0.00    -0.206 F 
ATOM     77  C   UNL A   1      52.009  25.807  25.956  1.00  0.00     0.006 A 
ENDBRANCH  49  70
BRANCH  61  78
ATOM     78  C   UNL A   1      46.306  32.262  28.984  1.00  0.00     0.057 A 
ATOM     79  C   UNL A   1      46.357  33.286  28.030  1.00  0.00     0.134 A 
ATOM     80  C   UNL A   1      46.747  32.558  30.279  1.00  0.00     0.134 A 
ATOM     81  F   UNL A   1      45.962  33.060  26.767  1.00  0.00    -0.206 F 
ATOM     82  C   UNL A   1      46.848  34.554  28.349  1.00  0.00     0.040 A 
ATOM     83  C   UNL A   1      47.218  33.827  30.616  1.00  0.00     0.040 A 
ATOM     84  F   UNL A   1      46.717  31.621  31.239  1.00  0.00    -0.206 F 
ATOM     85  C   UNL A   1      47.274  34.828  29.648  1.00  0.00     0.006 A 
ENDBRANCH  61  78
ENDBRANCH  35  36
ENDBRANCH  27  30
ENDBRANCH  25  26
ENDBRANCH  24  25
ENDBRANCH  23  24
ENDBRANCH   3  23
TORSDOF 16
ENDMDL
MODEL 3
REMARK VINA RESULT:     -10.7      0.836      6.391
REMARK SMILES CC(C)(C)N(CC(=O)NCCCNC(=O)c1ccc(-c2c3nc(c(-c4c(F)cccc4F)c4ccc([nH]4)c(-c4c(F)cccc4F)c4nc(c(-c5c(F)cccc5F)c5ccc2[nH]5)C=C4)C=C3)cc1)C(=O)NCCc1cnc[nH]1
REMARK SMILES IDX 7 1 8 2 9 3 6 5 5 6 2 7 1 8 3 9 4 10 70 11 71 12 72 13 73 15
REMARK SMILES IDX 74 16 75 17 76 18 79 19 77 20 78 21 10 23 11 24 12 25 13 26
REMARK SMILES IDX 14 27 15 29 16 30 17 31 69 32 18 33 68 34 19 35 20 36 21 37
REMARK SMILES IDX 62 38 22 39 67 40 61 41 63 42 23 43 66 44 60 45 59 46 24 48
REMARK SMILES IDX 50 49 33 50 49 51 34 52 37 53 48 54 64 55 35 56 36 57 47 59
REMARK SMILES IDX 65 60 38 61 25 62 26 63 31 64 27 65 28 66 30 67 32 68 29 69
REMARK SMILES IDX 51 70 52 71 57 72 53 73 54 74 56 75 58 76 55 77 39 78 40 79
REMARK SMILES IDX 45 80 41 81 42 82 44 83 46 84 43 85
REMARK H PARENT 9 4 72 14 79 22 13 28 63 47 37 58
REMARK Flexibility Score: inf
ROOT
ATOM      1  C   UNL A   1      35.013  22.205  26.298  1.00  0.00     0.239 C 
ATOM      2  O   UNL A   1      34.623  22.369  27.459  1.00  0.00    -0.273 OA
ATOM      3  N   UNL A   1      35.889  21.184  26.088  1.00  0.00    -0.354 N 
ATOM      4  H   UNL A   1      36.354  20.852  26.889  1.00  0.00     0.163 HD
ENDROOT
BRANCH   1   5
ATOM      5  C   UNL A   1      34.388  23.003  25.139  1.00  0.00     0.221 C 
BRANCH   5   6
ATOM      6  N   UNL A   1      32.966  22.782  24.824  1.00  0.00    -0.311 N 
BRANCH   6   7
ATOM      7  C   UNL A   1      32.417  23.277  23.486  1.00  0.00     0.037 C 
ATOM      8  C   UNL A   1      30.907  23.644  23.493  1.00  0.00     0.034 C 
ATOM      9  C   UNL A   1      32.578  22.225  22.360  1.00  0.00     0.034 C 
ATOM     10  C   UNL A   1      33.144  24.581  23.067  1.00  0.00     0.034 C 
ENDBRANCH   6   7
BRANCH   6  11
ATOM     11  C   UNL A   1      32.174  21.904  25.530  1.00  0.00     0.318 C 
ATOM     12  O   UNL A   1      31.317  22.283  26.337  1.00  0.00    -0.249 OA
ATOM     13  N   UNL A   1      32.195  20.570  25.421  1.00  0.00    -0.338 N 
ATOM     14  H   UNL A   1      31.570  20.178  26.072  1.00  0.00     0.165 HD
BRANCH  13  15
ATOM     15  C   UNL A   1      32.838  19.502  24.658  1.00  0.00     0.124 C 
BRANCH  15  16
ATOM     16  C   UNL A   1      32.317  18.117  25.072  1.00  0.00     0.077 C 
BRANCH  16  17
ATOM     17  C   UNL A   1      33.355  17.040  25.137  1.00  0.00     0.036 A 
ATOM     18  C   UNL A   1      33.208  15.672  25.252  1.00  0.00     0.134 A 
ATOM     19  N   UNL A   1      34.714  17.226  25.069  1.00  0.00    -0.348 N 
ATOM     20  N   UNL A   1      34.424  15.043  25.282  1.00  0.00    -0.245 NA
ATOM     21  C   UNL A   1      35.311  16.003  25.178  1.00  0.00     0.196 A 
ATOM     22  H   UNL A   1      35.177  18.089  24.961  1.00  0.00     0.167 HD
ENDBRANCH  16  17
ENDBRANCH  15  16
ENDBRANCH  13  15
ENDBRANCH   6  11
ENDBRANCH   5   6
ENDBRANCH   1   5
BRANCH   3  23
ATOM     23  C   UNL A   1      36.229  20.524  24.848  1.00  0.00     0.117 C 
BRANCH  23  24
ATOM     24  C   UNL A   1      37.450  19.624  24.965  1.00  0.00     0.042 C 
BRANCH  24  25
ATOM     25  C   UNL A   1      38.698  20.327  25.484  1.00  0.00     0.118 C 
BRANCH  25  26
ATOM     26  N   UNL A   1      39.794  19.399  25.735  1.00  0.00    -0.352 N 
ATOM     27  C   UNL A   1      41.097  19.606  26.102  1.00  0.00     0.251 C 
ATOM     28  H   UNL A   1      39.555  18.452  25.619  1.00  0.00     0.163 HD
ATOM     29  O   UNL A   1      41.890  18.665  26.009  1.00  0.00    -0.269 OA
BRANCH  27  30
ATOM     30  C   UNL A   1      41.581  20.911  26.609  1.00  0.00     0.039 A 
ATOM     31  C   UNL A   1      41.525  21.154  27.987  1.00  0.00     0.014 A 
ATOM     32  C   UNL A   1      41.994  21.933  25.751  1.00  0.00     0.014 A 
ATOM     33  C   UNL A   1      41.907  22.398  28.500  1.00  0.00     0.010 A 
ATOM     34  C   UNL A   1      42.460  23.141  26.268  1.00  0.00     0.010 A 
ATOM     35  C   UNL A   1      42.397  23.397  27.645  1.00  0.00    -0.014 A 
BRANCH  35  36
ATOM     36  C   UNL A   1      42.793  24.731  28.166  1.00  0.00     0.031 A 
ATOM     37  C   UNL A   1      41.749  25.790  28.403  1.00  0.00     0.074 A 
ATOM     38  C   UNL A   1      44.093  25.009  28.383  1.00  0.00     0.049 A 
ATOM     39  N   UNL A   1      41.901  27.033  28.786  1.00  0.00    -0.248 NA
ATOM     40  C   UNL A   1      40.350  25.411  28.145  1.00  0.00     0.031 C 
ATOM     41  C   UNL A   1      45.207  24.089  28.151  1.00  0.00     0.029 A 
ATOM     42  N   UNL A   1      44.697  26.153  28.841  1.00  0.00    -0.354 N 
ATOM     43  C   UNL A   1      40.628  27.588  28.789  1.00  0.00     0.074 A 
ATOM     44  C   UNL A   1      39.719  26.562  28.325  1.00  0.00     0.031 C 
ATOM     45  C   UNL A   1      46.355  24.694  28.495  1.00  0.00     0.029 A 
ATOM     46  C   UNL A   1      46.063  26.053  28.939  1.00  0.00     0.049 A 
ATOM     47  H   UNL A   1      44.197  26.968  29.077  1.00  0.00     0.167 HD
ATOM     48  C   UNL A   1      40.242  28.830  29.166  1.00  0.00     0.037 A 
ATOM     49  C   UNL A   1      46.976  26.956  29.342  1.00  0.00     0.037 A 
ATOM     50  C   UNL A   1      41.137  29.836  29.674  1.00  0.00     0.049 A 
ATOM     51  C   UNL A   1      46.522  28.319  29.782  1.00  0.00     0.074 A 
ATOM     52  C   UNL A   1      40.835  31.101  30.146  1.00  0.00     0.029 A 
ATOM     53  N   UNL A   1      42.511  29.685  29.783  1.00  0.00    -0.354 N 
ATOM     54  N   UNL A   1      45.308  28.811  29.830  1.00  0.00    -0.248 NA
ATOM     55  C   UNL A   1      47.566  29.252  30.229  1.00  0.00     0.031 C 
ATOM     56  C   UNL A   1      42.030  31.727  30.516  1.00  0.00     0.029 A 
ATOM     57  C   UNL A   1      43.072  30.838  30.305  1.00  0.00     0.049 A 
ATOM     58  H   UNL A   1      43.012  28.878  29.528  1.00  0.00     0.167 HD
ATOM     59  C   UNL A   1      45.439  30.098  30.331  1.00  0.00     0.074 A 
ATOM     60  C   UNL A   1      46.848  30.308  30.587  1.00  0.00     0.031 C 
ATOM     61  C   UNL A   1      44.477  31.026  30.558  1.00  0.00     0.037 A 
BRANCH  48  62
ATOM     62  C   UNL A   1      38.784  29.165  29.055  1.00  0.00     0.057 A 
ATOM     63  C   UNL A   1      37.919  29.070  30.153  1.00  0.00     0.134 A 
ATOM     64  C   UNL A   1      38.241  29.609  27.842  1.00  0.00     0.134 A 
ATOM     65  F   UNL A   1      38.373  28.638  31.339  1.00  0.00    -0.206 F 
ATOM     66  C   UNL A   1      36.563  29.380  30.044  1.00  0.00     0.040 A 
ATOM     67  C   UNL A   1      36.891  29.946  27.727  1.00  0.00     0.040 A 
ATOM     68  F   UNL A   1      39.015  29.729  26.753  1.00  0.00    -0.206 F 
ATOM     69  C   UNL A   1      36.047  29.825  28.828  1.00  0.00     0.006 A 
ENDBRANCH  48  62
BRANCH  49  70
ATOM     70  C   UNL A   1      48.413  26.589  29.381  1.00  0.00     0.057 A 
ATOM     71  C   UNL A   1      49.251  26.854  28.292  1.00  0.00     0.134 A 
ATOM     72  C   UNL A   1      48.980  25.966  30.498  1.00  0.00     0.134 A 
ATOM     73  F   UNL A   1      48.758  27.431  27.187  1.00  0.00    -0.206 F 
ATOM     74  C   UNL A   1      50.600  26.498  28.305  1.00  0.00     0.040 A 
ATOM     75  C   UNL A   1      50.334  25.623  30.533  1.00  0.00     0.040 A 
ATOM     76  F   UNL A   1      48.230  25.692  31.575  1.00  0.00    -0.206 F 
ATOM     77  C   UNL A   1      51.145  25.884  29.431  1.00  0.00     0.006 A 
ENDBRANCH  49  70
BRANCH  61  78
ATOM     78  C   UNL A   1      44.917  32.338  31.133  1.00  0.00     0.057 A 
ATOM     79  C   UNL A   1      45.262  33.420  30.314  1.00  0.00     0.134 A 
ATOM     80  C   UNL A   1      44.963  32.531  32.519  1.00  0.00     0.134 A 
ATOM     81  F   UNL A   1      45.251  33.293  28.978  1.00  0.00    -0.206 F 
ATOM     82  C   UNL A   1      45.659  34.644  30.855  1.00  0.00     0.040 A 
ATOM     83  C   UNL A   1      45.336  33.756  33.072  1.00  0.00     0.040 A 
ATOM     84  F   UNL A   1      44.637  31.534  33.356  1.00  0.00    -0.206 F 
ATOM     85  C   UNL A   1      45.690  34.816  32.238  1.00  0.00     0.006 A 
ENDBRANCH  61  78
ENDBRANCH  35  36
ENDBRANCH  27  30
ENDBRANCH  25  26
ENDBRANCH  24  25
ENDBRANCH  23  24
ENDBRANCH   3  23
TORSDOF 16
ENDMDL
