MODEL 1
REMARK VINA RESULT:     -10.7      0.000      0.000
REMARK SMILES CCCCSc1ccccc1C(=O)NCCCNC(=O)c1ccc(-c2c3nc(c(-c4c(F)cccc4F)c4ccc([nH]4)c(-c4c(F)cccc4F)c4nc(c(-c5c(F)cccc5F)c5ccc2[nH]5)C=C4)C=C3)cc1
REMARK SMILES IDX 15 1 14 2 12 3 13 4 11 6 6 7 7 8 8 9 10 10 9 11 5 12 4 13
REMARK SMILES IDX 3 14 2 15 1 16 16 17 17 18 18 19 19 20 20 22 21 23 22 24
REMARK SMILES IDX 74 25 23 26 73 27 24 28 25 29 26 30 67 31 27 32 72 33 66 34
REMARK SMILES IDX 68 35 28 36 71 37 65 38 64 39 29 41 55 42 38 43 54 44 39 45
REMARK SMILES IDX 42 46 53 47 69 48 40 49 41 50 52 52 70 53 43 54 30 55 31 56
REMARK SMILES IDX 36 57 32 58 33 59 35 60 37 61 34 62 56 63 57 64 62 65 58 66
REMARK SMILES IDX 59 67 61 68 63 69 60 70 44 71 45 72 50 73 46 74 47 75 49 76
REMARK SMILES IDX 51 77 48 78
REMARK H PARENT 14 5 18 21 68 40 42 51
REMARK Flexibility Score: inf
ROOT
ATOM      1  C   UNL A   1      31.307  30.822  26.416  1.00  0.00     0.118 C 
ENDROOT
BRANCH   1   2
ATOM      2  N   UNL A   1      32.199  30.367  25.366  1.00  0.00    -0.352 N 
ATOM      3  C   UNL A   1      32.287  29.207  24.648  1.00  0.00     0.252 C 
ATOM      4  O   UNL A   1      33.351  29.031  24.045  1.00  0.00    -0.269 OA
ATOM      5  H   UNL A   1      32.882  31.032  25.120  1.00  0.00     0.163 HD
BRANCH   3   6
ATOM      6  C   UNL A   1      31.184  28.233  24.404  1.00  0.00     0.053 A 
ATOM      7  C   UNL A   1      30.104  28.289  23.504  1.00  0.00     0.020 A 
ATOM      8  C   UNL A   1      29.171  27.224  23.500  1.00  0.00     0.016 A 
ATOM      9  C   UNL A   1      29.238  26.174  24.415  1.00  0.00     0.001 A 
ATOM     10  C   UNL A   1      31.230  27.150  25.320  1.00  0.00     0.015 A 
ATOM     11  C   UNL A   1      30.265  26.143  25.339  1.00  0.00     0.001 A 
BRANCH   7  12
ATOM     12  S   UNL A   1      29.669  29.563  22.330  1.00  0.00    -0.125 SA
BRANCH  12  13
ATOM     13  C   UNL A   1      27.931  29.923  22.756  1.00  0.00     0.075 C 
BRANCH  13  14
ATOM     14  C   UNL A   1      27.673  31.373  23.154  1.00  0.00     0.011 C 
BRANCH  14  15
ATOM     15  C   UNL A   1      28.370  32.439  22.308  1.00  0.00    -0.003 C 
ATOM     16  C   UNL A   1      29.154  33.453  23.127  1.00  0.00     0.004 C 
ENDBRANCH  14  15
ENDBRANCH  13  14
ENDBRANCH  12  13
ENDBRANCH   7  12
ENDBRANCH   3   6
ENDBRANCH   1   2
BRANCH   1  17
ATOM     17  C   UNL A   1      31.392  32.347  26.511  1.00  0.00     0.042 C 
BRANCH  17  18
ATOM     18  C   UNL A   1      32.666  32.862  27.172  1.00  0.00     0.118 C 
BRANCH  18  19
ATOM     19  N   UNL A   1      32.510  34.233  27.627  1.00  0.00    -0.352 N 
ATOM     20  C   UNL A   1      33.054  34.868  28.714  1.00  0.00     0.251 C 
ATOM     21  H   UNL A   1      31.925  34.793  27.068  1.00  0.00     0.163 HD
ATOM     22  O   UNL A   1      32.565  35.946  29.075  1.00  0.00    -0.269 OA
BRANCH  20  23
ATOM     23  C   UNL A   1      34.203  34.309  29.467  1.00  0.00     0.039 A 
ATOM     24  C   UNL A   1      35.496  34.529  28.977  1.00  0.00     0.014 A 
ATOM     25  C   UNL A   1      34.030  33.489  30.586  1.00  0.00     0.014 A 
ATOM     26  C   UNL A   1      36.603  33.954  29.612  1.00  0.00     0.010 A 
ATOM     27  C   UNL A   1      35.139  32.979  31.266  1.00  0.00     0.010 A 
ATOM     28  C   UNL A   1      36.436  33.185  30.774  1.00  0.00    -0.014 A 
BRANCH  28  29
ATOM     29  C   UNL A   1      37.598  32.547  31.452  1.00  0.00     0.031 A 
ATOM     30  C   UNL A   1      38.309  31.385  30.805  1.00  0.00     0.074 A 
ATOM     31  C   UNL A   1      37.989  32.973  32.669  1.00  0.00     0.049 A 
ATOM     32  N   UNL A   1      39.288  30.648  31.269  1.00  0.00    -0.248 NA
ATOM     33  C   UNL A   1      37.841  30.982  29.469  1.00  0.00     0.031 C 
ATOM     34  C   UNL A   1      37.370  34.063  33.425  1.00  0.00     0.029 A 
ATOM     35  N   UNL A   1      38.998  32.532  33.489  1.00  0.00    -0.354 N 
ATOM     36  C   UNL A   1      39.527  29.680  30.301  1.00  0.00     0.074 A 
ATOM     37  C   UNL A   1      38.569  29.900  29.240  1.00  0.00     0.031 C 
ATOM     38  C   UNL A   1      38.024  34.219  34.587  1.00  0.00     0.029 A 
ATOM     39  C   UNL A   1      39.087  33.220  34.676  1.00  0.00     0.049 A 
ATOM     40  H   UNL A   1      39.603  31.792  33.250  1.00  0.00     0.167 HD
ATOM     41  C   UNL A   1      40.470  28.708  30.286  1.00  0.00     0.037 A 
ATOM     42  C   UNL A   1      39.922  33.061  35.719  1.00  0.00     0.037 A 
ATOM     43  C   UNL A   1      41.460  28.521  31.314  1.00  0.00     0.049 A 
ATOM     44  C   UNL A   1      40.973  31.986  35.669  1.00  0.00     0.074 A 
ATOM     45  C   UNL A   1      42.509  27.618  31.346  1.00  0.00     0.029 A 
ATOM     46  N   UNL A   1      41.527  29.255  32.487  1.00  0.00    -0.354 N 
ATOM     47  N   UNL A   1      41.225  31.120  34.719  1.00  0.00    -0.248 NA
ATOM     48  C   UNL A   1      41.857  31.870  36.838  1.00  0.00     0.031 C 
ATOM     49  C   UNL A   1      43.190  27.781  32.557  1.00  0.00     0.029 A 
ATOM     50  C   UNL A   1      42.588  28.812  33.260  1.00  0.00     0.049 A 
ATOM     51  H   UNL A   1      40.913  29.984  32.734  1.00  0.00     0.167 HD
ATOM     52  C   UNL A   1      42.312  30.377  35.160  1.00  0.00     0.074 A 
ATOM     53  C   UNL A   1      42.678  30.900  36.460  1.00  0.00     0.031 C 
ATOM     54  C   UNL A   1      42.949  29.352  34.545  1.00  0.00     0.037 A 
BRANCH  41  55
ATOM     55  C   UNL A   1      40.482  27.767  29.116  1.00  0.00     0.057 A 
ATOM     56  C   UNL A   1      41.297  27.987  27.998  1.00  0.00     0.134 A 
ATOM     57  C   UNL A   1      39.701  26.605  29.128  1.00  0.00     0.134 A 
ATOM     58  F   UNL A   1      42.061  29.087  27.920  1.00  0.00    -0.206 F 
ATOM     59  C   UNL A   1      41.316  27.096  26.924  1.00  0.00     0.040 A 
ATOM     60  C   UNL A   1      39.731  25.694  28.071  1.00  0.00     0.040 A 
ATOM     61  F   UNL A   1      38.904  26.329  30.172  1.00  0.00    -0.206 F 
ATOM     62  C   UNL A   1      40.537  25.942  26.960  1.00  0.00     0.006 A 
ENDBRANCH  41  55
BRANCH  42  63
ATOM     63  C   UNL A   1      39.820  33.958  36.898  1.00  0.00     0.057 A 
ATOM     64  C   UNL A   1      40.572  35.136  36.972  1.00  0.00     0.134 A 
ATOM     65  C   UNL A   1      38.987  33.653  37.980  1.00  0.00     0.134 A 
ATOM     66  F   UNL A   1      41.404  35.469  35.974  1.00  0.00    -0.206 F 
ATOM     67  C   UNL A   1      40.514  35.971  38.088  1.00  0.00     0.040 A 
ATOM     68  C   UNL A   1      38.902  34.491  39.093  1.00  0.00     0.040 A 
ATOM     69  F   UNL A   1      38.238  32.541  37.967  1.00  0.00    -0.206 F 
ATOM     70  C   UNL A   1      39.672  35.651  39.152  1.00  0.00     0.006 A 
ENDBRANCH  42  63
BRANCH  54  71
ATOM     71  C   UNL A   1      44.129  28.755  35.250  1.00  0.00     0.057 A 
ATOM     72  C   UNL A   1      45.426  29.251  35.069  1.00  0.00     0.134 A 
ATOM     73  C   UNL A   1      43.960  27.695  36.151  1.00  0.00     0.134 A 
ATOM     74  F   UNL A   1      45.655  30.256  34.210  1.00  0.00    -0.206 F 
ATOM     75  C   UNL A   1      46.516  28.702  35.745  1.00  0.00     0.040 A 
ATOM     76  C   UNL A   1      45.038  27.153  36.849  1.00  0.00     0.040 A 
ATOM     77  F   UNL A   1      42.741  27.180  36.375  1.00  0.00    -0.206 F 
ATOM     78  C   UNL A   1      46.323  27.653  36.642  1.00  0.00     0.006 A 
ENDBRANCH  54  71
ENDBRANCH  28  29
ENDBRANCH  20  23
ENDBRANCH  18  19
ENDBRANCH  17  18
ENDBRANCH   1  17
TORSDOF 14
ENDMDL
MODEL 2
REMARK VINA RESULT:     -10.6      5.772     10.440
REMARK SMILES CCCCSc1ccccc1C(=O)NCCCNC(=O)c1ccc(-c2c3nc(c(-c4c(F)cccc4F)c4ccc([nH]4)c(-c4c(F)cccc4F)c4nc(c(-c5c(F)cccc5F)c5ccc2[nH]5)C=C4)C=C3)cc1
REMARK SMILES IDX 15 1 14 2 12 3 13 4 11 6 6 7 7 8 8 9 10 10 9 11 5 12 4 13
REMARK SMILES IDX 3 14 2 15 1 16 16 17 17 18 18 19 19 20 20 22 21 23 22 24
REMARK SMILES IDX 74 25 23 26 73 27 24 28 25 29 26 30 67 31 27 32 72 33 66 34
REMARK SMILES IDX 68 35 28 36 71 37 65 38 64 39 29 41 55 42 38 43 54 44 39 45
REMARK SMILES IDX 42 46 53 47 69 48 40 49 41 50 52 52 70 53 43 54 30 55 31 56
REMARK SMILES IDX 36 57 32 58 33 59 35 60 37 61 34 62 56 63 57 64 62 65 58 66
REMARK SMILES IDX 59 67 61 68 63 69 60 70 44 71 45 72 50 73 46 74 47 75 49 76
REMARK SMILES IDX 51 77 48 78
REMARK H PARENT 14 5 18 21 68 40 42 51
REMARK Flexibility Score: inf
ROOT
ATOM      1  C   UNL A   1      36.391  20.537  25.084  1.00  0.00     0.118 C 
ENDROOT
BRANCH   1   2
ATOM      2  N   UNL A   1      36.538  21.693  24.221  1.00  0.00    -0.352 N 
ATOM      3  C   UNL A   1      35.682  22.686  23.830  1.00  0.00     0.252 C 
ATOM      4  O   UNL A   1      36.042  23.345  22.847  1.00  0.00    -0.269 OA
ATOM      5  H   UNL A   1      37.441  21.782  23.838  1.00  0.00     0.163 HD
BRANCH   3   6
ATOM      6  C   UNL A   1      34.461  23.138  24.557  1.00  0.00     0.053 A 
ATOM      7  C   UNL A   1      33.196  22.533  24.674  1.00  0.00     0.020 A 
ATOM      8  C   UNL A   1      32.192  23.205  25.412  1.00  0.00     0.016 A 
ATOM      9  C   UNL A   1      32.387  24.478  25.946  1.00  0.00     0.001 A 
ATOM     10  C   UNL A   1      34.634  24.432  25.115  1.00  0.00     0.015 A 
ATOM     11  C   UNL A   1      33.610  25.101  25.786  1.00  0.00     0.001 A 
BRANCH   7  12
ATOM     12  S   UNL A   1      32.603  20.998  23.980  1.00  0.00    -0.125 SA
BRANCH  12  13
ATOM     13  C   UNL A   1      32.840  19.821  25.355  1.00  0.00     0.075 C 
BRANCH  13  14
ATOM     14  C   UNL A   1      32.817  18.355  24.933  1.00  0.00     0.011 C 
BRANCH  14  15
ATOM     15  C   UNL A   1      34.105  17.810  24.315  1.00  0.00    -0.003 C 
ATOM     16  C   UNL A   1      33.881  17.021  23.035  1.00  0.00     0.004 C 
ENDBRANCH  14  15
ENDBRANCH  13  14
ENDBRANCH  12  13
ENDBRANCH   7  12
ENDBRANCH   3   6
ENDBRANCH   1   2
BRANCH   1  17
ATOM     17  C   UNL A   1      37.651  19.674  24.973  1.00  0.00     0.042 C 
BRANCH  17  18
ATOM     18  C   UNL A   1      38.921  20.359  25.467  1.00  0.00     0.118 C 
BRANCH  18  19
ATOM     19  N   UNL A   1      39.974  19.394  25.735  1.00  0.00    -0.352 N 
ATOM     20  C   UNL A   1      41.284  19.594  26.085  1.00  0.00     0.251 C 
ATOM     21  H   UNL A   1      39.704  18.451  25.655  1.00  0.00     0.163 HD
ATOM     22  O   UNL A   1      42.074  18.647  25.984  1.00  0.00    -0.269 OA
BRANCH  20  23
ATOM     23  C   UNL A   1      41.784  20.901  26.579  1.00  0.00     0.039 A 
ATOM     24  C   UNL A   1      41.749  21.155  27.956  1.00  0.00     0.014 A 
ATOM     25  C   UNL A   1      42.190  21.917  25.710  1.00  0.00     0.014 A 
ATOM     26  C   UNL A   1      42.136  22.402  28.457  1.00  0.00     0.010 A 
ATOM     27  C   UNL A   1      42.651  23.136  26.216  1.00  0.00     0.010 A 
ATOM     28  C   UNL A   1      42.606  23.402  27.592  1.00  0.00    -0.014 A 
BRANCH  28  29
ATOM     29  C   UNL A   1      43.003  24.743  28.103  1.00  0.00     0.031 A 
ATOM     30  C   UNL A   1      41.954  25.792  28.372  1.00  0.00     0.074 A 
ATOM     31  C   UNL A   1      44.304  25.041  28.281  1.00  0.00     0.049 A 
ATOM     32  N   UNL A   1      42.103  27.039  28.745  1.00  0.00    -0.248 NA
ATOM     33  C   UNL A   1      40.551  25.393  28.173  1.00  0.00     0.031 C 
ATOM     34  C   UNL A   1      45.425  24.135  28.026  1.00  0.00     0.029 A 
ATOM     35  N   UNL A   1      44.906  26.199  28.709  1.00  0.00    -0.354 N 
ATOM     36  C   UNL A   1      40.823  27.579  28.790  1.00  0.00     0.074 A 
ATOM     37  C   UNL A   1      39.911  26.535  28.374  1.00  0.00     0.031 C 
ATOM     38  C   UNL A   1      46.574  24.762  28.323  1.00  0.00     0.029 A 
ATOM     39  C   UNL A   1      46.278  26.125  28.755  1.00  0.00     0.049 A 
ATOM     40  H   UNL A   1      44.402  27.007  28.961  1.00  0.00     0.167 HD
ATOM     41  C   UNL A   1      40.438  28.822  29.163  1.00  0.00     0.037 A 
ATOM     42  C   UNL A   1      47.192  27.051  29.098  1.00  0.00     0.037 A 
ATOM     43  C   UNL A   1      41.337  29.846  29.630  1.00  0.00     0.049 A 
ATOM     44  C   UNL A   1      46.737  28.419  29.526  1.00  0.00     0.074 A 
ATOM     45  C   UNL A   1      41.031  31.108  30.109  1.00  0.00     0.029 A 
ATOM     46  N   UNL A   1      42.715  29.720  29.682  1.00  0.00    -0.354 N 
ATOM     47  N   UNL A   1      45.519  28.892  29.624  1.00  0.00    -0.248 NA
ATOM     48  C   UNL A   1      47.787  29.381  29.895  1.00  0.00     0.031 C 
ATOM     49  C   UNL A   1      42.229  31.760  30.418  1.00  0.00     0.029 A 
ATOM     50  C   UNL A   1      43.277  30.890  30.167  1.00  0.00     0.049 A 
ATOM     51  H   UNL A   1      43.221  28.918  29.414  1.00  0.00     0.167 HD
ATOM     52  C   UNL A   1      45.653  30.193  30.091  1.00  0.00     0.074 A 
ATOM     53  C   UNL A   1      47.071  30.432  30.268  1.00  0.00     0.031 C 
ATOM     54  C   UNL A   1      44.688  31.108  30.350  1.00  0.00     0.037 A 
BRANCH  41  55
ATOM     55  C   UNL A   1      38.975  29.151  29.085  1.00  0.00     0.057 A 
ATOM     56  C   UNL A   1      38.364  29.527  27.882  1.00  0.00     0.134 A 
ATOM     57  C   UNL A   1      38.160  29.045  30.219  1.00  0.00     0.134 A 
ATOM     58  F   UNL A   1      39.091  29.657  26.762  1.00  0.00    -0.206 F 
ATOM     59  C   UNL A   1      36.999  29.811  27.816  1.00  0.00     0.040 A 
ATOM     60  C   UNL A   1      36.789  29.302  30.159  1.00  0.00     0.040 A 
ATOM     61  F   UNL A   1      38.680  28.681  31.401  1.00  0.00    -0.206 F 
ATOM     62  C   UNL A   1      36.206  29.692  28.955  1.00  0.00     0.006 A 
ENDBRANCH  41  55
BRANCH  42  63
ATOM     63  C   UNL A   1      48.638  26.713  29.078  1.00  0.00     0.057 A 
ATOM     64  C   UNL A   1      49.258  26.137  30.194  1.00  0.00     0.134 A 
ATOM     65  C   UNL A   1      49.434  26.969  27.956  1.00  0.00     0.134 A 
ATOM     66  F   UNL A   1      48.550  25.889  31.305  1.00  0.00    -0.206 F 
ATOM     67  C   UNL A   1      50.623  25.846  30.202  1.00  0.00     0.040 A 
ATOM     68  C   UNL A   1      50.796  26.661  27.943  1.00  0.00     0.040 A 
ATOM     69  F   UNL A   1      48.899  27.514  26.855  1.00  0.00    -0.206 F 
ATOM     70  C   UNL A   1      51.395  26.104  29.071  1.00  0.00     0.006 A 
ENDBRANCH  42  63
BRANCH  54  71
ATOM     71  C   UNL A   1      45.129  32.436  30.887  1.00  0.00     0.057 A 
ATOM     72  C   UNL A   1      45.410  33.517  30.043  1.00  0.00     0.134 A 
ATOM     73  C   UNL A   1      45.236  32.646  32.268  1.00  0.00     0.134 A 
ATOM     74  F   UNL A   1      45.338  33.375  28.711  1.00  0.00    -0.206 F 
ATOM     75  C   UNL A   1      45.800  34.756  30.552  1.00  0.00     0.040 A 
ATOM     76  C   UNL A   1      45.603  33.887  32.789  1.00  0.00     0.040 A 
ATOM     77  F   UNL A   1      44.972  31.653  33.131  1.00  0.00    -0.206 F 
ATOM     78  C   UNL A   1      45.892  34.945  31.930  1.00  0.00     0.006 A 
ENDBRANCH  54  71
ENDBRANCH  28  29
ENDBRANCH  20  23
ENDBRANCH  18  19
ENDBRANCH  17  18
ENDBRANCH   1  17
TORSDOF 14
ENDMDL
MODEL 3
REMARK VINA RESULT:     -10.5      5.324      7.584
REMARK SMILES CCCCSc1ccccc1C(=O)NCCCNC(=O)c1ccc(-c2c3nc(c(-c4c(F)cccc4F)c4ccc([nH]4)c(-c4c(F)cccc4F)c4nc(c(-c5c(F)cccc5F)c5ccc2[nH]5)C=C4)C=C3)cc1
REMARK SMILES IDX 15 1 14 2 12 3 13 4 11 6 6 7 7 8 8 9 10 10 9 11 5 12 4 13
REMARK SMILES IDX 3 14 2 15 1 16 16 17 17 18 18 19 19 20 20 22 21 23 22 24
REMARK SMILES IDX 74 25 23 26 73 27 24 28 25 29 26 30 67 31 27 32 72 33 66 34
REMARK SMILES IDX 68 35 28 36 71 37 65 38 64 39 29 41 55 42 38 43 54 44 39 45
REMARK SMILES IDX 42 46 53 47 69 48 40 49 41 50 52 52 70 53 43 54 30 55 31 56
REMARK SMILES IDX 36 57 32 58 33 59 35 60 37 61 34 62 56 63 57 64 62 65 58 66
REMARK SMILES IDX 59 67 61 68 63 69 60 70 44 71 45 72 50 73 46 74 47 75 49 76
REMARK SMILES IDX 51 77 48 78
REMARK H PARENT 14 5 18 21 68 40 42 51
REMARK Flexibility Score: inf
ROOT
ATOM      1  C   UNL A   1      32.709  30.075  26.089  1.00  0.00     0.118 C 
ENDROOT
BRANCH   1   2
ATOM      2  N   UNL A   1      33.120  29.704  24.748  1.00  0.00    -0.352 N 
ATOM      3  C   UNL A   1      32.777  28.676  23.914  1.00  0.00     0.252 C 
ATOM      4  O   UNL A   1      33.540  28.484  22.961  1.00  0.00    -0.269 OA
ATOM      5  H   UNL A   1      33.782  30.320  24.359  1.00  0.00     0.163 HD
BRANCH   3   6
ATOM      6  C   UNL A   1      31.512  27.886  23.958  1.00  0.00     0.053 A 
ATOM      7  C   UNL A   1      30.272  28.120  23.336  1.00  0.00     0.020 A 
ATOM      8  C   UNL A   1      29.214  27.210  23.575  1.00  0.00     0.016 A 
ATOM      9  C   UNL A   1      29.334  26.150  24.472  1.00  0.00     0.001 A 
ATOM     10  C   UNL A   1      31.608  26.796  24.862  1.00  0.00     0.015 A 
ATOM     11  C   UNL A   1      30.533  25.949  25.129  1.00  0.00     0.001 A 
BRANCH   7  12
ATOM     12  S   UNL A   1      29.772  29.462  22.268  1.00  0.00    -0.125 SA
BRANCH  12  13
ATOM     13  C   UNL A   1      28.063  29.792  22.816  1.00  0.00     0.075 C 
BRANCH  13  14
ATOM     14  C   UNL A   1      27.767  31.264  23.085  1.00  0.00     0.011 C 
BRANCH  14  15
ATOM     15  C   UNL A   1      28.909  32.083  23.687  1.00  0.00    -0.003 C 
ATOM     16  C   UNL A   1      28.990  33.504  23.152  1.00  0.00     0.004 C 
ENDBRANCH  14  15
ENDBRANCH  13  14
ENDBRANCH  12  13
ENDBRANCH   7  12
ENDBRANCH   3   6
ENDBRANCH   1   2
BRANCH   1  17
ATOM     17  C   UNL A   1      33.256  29.041  27.077  1.00  0.00     0.042 C 
BRANCH  17  18
ATOM     18  C   UNL A   1      34.723  29.241  27.441  1.00  0.00     0.118 C 
BRANCH  18  19
ATOM     19  N   UNL A   1      34.870  30.128  28.583  1.00  0.00    -0.352 N 
ATOM     20  C   UNL A   1      35.935  30.308  29.427  1.00  0.00     0.251 C 
ATOM     21  H   UNL A   1      34.084  30.685  28.781  1.00  0.00     0.163 HD
ATOM     22  O   UNL A   1      35.748  30.897  30.500  1.00  0.00    -0.269 OA
BRANCH  20  23
ATOM     23  C   UNL A   1      37.299  29.826  29.099  1.00  0.00     0.039 A 
ATOM     24  C   UNL A   1      38.090  29.300  30.129  1.00  0.00     0.014 A 
ATOM     25  C   UNL A   1      37.853  29.972  27.824  1.00  0.00     0.014 A 
ATOM     26  C   UNL A   1      39.409  28.907  29.880  1.00  0.00     0.010 A 
ATOM     27  C   UNL A   1      39.144  29.507  27.557  1.00  0.00     0.010 A 
ATOM     28  C   UNL A   1      39.945  28.992  28.587  1.00  0.00    -0.014 A 
BRANCH  28  29
ATOM     29  C   UNL A   1      41.353  28.599  28.305  1.00  0.00     0.031 A 
ATOM     30  C   UNL A   1      41.682  27.176  27.933  1.00  0.00     0.074 A 
ATOM     31  C   UNL A   1      42.346  29.502  28.429  1.00  0.00     0.049 A 
ATOM     32  N   UNL A   1      42.851  26.620  27.726  1.00  0.00    -0.248 NA
ATOM     33  C   UNL A   1      40.549  26.246  27.799  1.00  0.00     0.031 C 
ATOM     34  C   UNL A   1      42.174  30.903  28.816  1.00  0.00     0.029 A 
ATOM     35  N   UNL A   1      43.701  29.371  28.251  1.00  0.00    -0.354 N 
ATOM     36  C   UNL A   1      42.596  25.279  27.473  1.00  0.00     0.074 A 
ATOM     37  C   UNL A   1      41.166  25.093  27.586  1.00  0.00     0.031 C 
ATOM     38  C   UNL A   1      43.373  31.507  28.826  1.00  0.00     0.029 A 
ATOM     39  C   UNL A   1      44.403  30.530  28.480  1.00  0.00     0.049 A 
ATOM     40  H   UNL A   1      44.131  28.526  27.984  1.00  0.00     0.167 HD
ATOM     41  C   UNL A   1      43.468  24.292  27.156  1.00  0.00     0.037 A 
ATOM     42  C   UNL A   1      45.725  30.777  28.426  1.00  0.00     0.037 A 
ATOM     43  C   UNL A   1      44.885  24.484  26.988  1.00  0.00     0.049 A 
ATOM     44  C   UNL A   1      46.671  29.669  28.053  1.00  0.00     0.074 A 
ATOM     45  C   UNL A   1      45.837  23.563  26.585  1.00  0.00     0.029 A 
ATOM     46  N   UNL A   1      45.550  25.679  27.208  1.00  0.00    -0.354 N 
ATOM     47  N   UNL A   1      46.406  28.421  27.756  1.00  0.00    -0.248 NA
ATOM     48  C   UNL A   1      48.102  30.007  28.006  1.00  0.00     0.031 C 
ATOM     49  C   UNL A   1      47.086  24.193  26.595  1.00  0.00     0.029 A 
ATOM     50  C   UNL A   1      46.905  25.515  26.968  1.00  0.00     0.049 A 
ATOM     51  H   UNL A   1      45.124  26.520  27.492  1.00  0.00     0.167 HD
ATOM     52  C   UNL A   1      47.629  27.833  27.459  1.00  0.00     0.074 A 
ATOM     53  C   UNL A   1      48.636  28.864  27.602  1.00  0.00     0.031 C 
ATOM     54  C   UNL A   1      47.893  26.554  27.100  1.00  0.00     0.037 A 
BRANCH  41  55
ATOM     55  C   UNL A   1      42.916  22.909  26.964  1.00  0.00     0.057 A 
ATOM     56  C   UNL A   1      42.748  22.349  25.692  1.00  0.00     0.134 A 
ATOM     57  C   UNL A   1      42.591  22.113  28.070  1.00  0.00     0.134 A 
ATOM     58  F   UNL A   1      43.032  23.063  24.592  1.00  0.00    -0.206 F 
ATOM     59  C   UNL A   1      42.253  21.055  25.525  1.00  0.00     0.040 A 
ATOM     60  C   UNL A   1      42.118  20.808  27.916  1.00  0.00     0.040 A 
ATOM     61  F   UNL A   1      42.735  22.585  29.317  1.00  0.00    -0.206 F 
ATOM     62  C   UNL A   1      41.942  20.277  26.638  1.00  0.00     0.006 A 
ENDBRANCH  41  55
BRANCH  42  63
ATOM     63  C   UNL A   1      46.240  32.141  28.709  1.00  0.00     0.057 A 
ATOM     64  C   UNL A   1      46.551  32.536  30.016  1.00  0.00     0.134 A 
ATOM     65  C   UNL A   1      46.418  33.083  27.690  1.00  0.00     0.134 A 
ATOM     66  F   UNL A   1      46.380  31.682  31.037  1.00  0.00    -0.206 F 
ATOM     67  C   UNL A   1      47.003  33.824  30.302  1.00  0.00     0.040 A 
ATOM     68  C   UNL A   1      46.891  34.368  27.959  1.00  0.00     0.040 A 
ATOM     69  F   UNL A   1      46.142  32.764  26.417  1.00  0.00    -0.206 F 
ATOM     70  C   UNL A   1      47.178  34.744  29.270  1.00  0.00     0.006 A 
ENDBRANCH  42  63
BRANCH  54  71
ATOM     71  C   UNL A   1      49.320  26.206  26.801  1.00  0.00     0.057 A 
ATOM     72  C   UNL A   1      50.168  25.667  27.776  1.00  0.00     0.134 A 
ATOM     73  C   UNL A   1      49.840  26.378  25.511  1.00  0.00     0.134 A 
ATOM     74  F   UNL A   1      49.734  25.490  29.032  1.00  0.00    -0.206 F 
ATOM     75  C   UNL A   1      51.490  25.327  27.484  1.00  0.00     0.040 A 
ATOM     76  C   UNL A   1      51.152  26.022  25.202  1.00  0.00     0.040 A 
ATOM     77  F   UNL A   1      49.076  26.883  24.531  1.00  0.00    -0.206 F 
ATOM     78  C   UNL A   1      51.983  25.500  26.191  1.00  0.00     0.006 A 
ENDBRANCH  54  71
ENDBRANCH  28  29
ENDBRANCH  20  23
ENDBRANCH  18  19
ENDBRANCH  17  18
ENDBRANCH   1  17
TORSDOF 14
ENDMDL
