MODEL 1
REMARK VINA RESULT:     -10.8      0.000      0.000
REMARK SMILES Cn1cccc1C(=O)N[C@](C)(C(=O)NCCCNC(=O)c1ccc(-c2c3nc(c(-c4c(F)cccc4F)c4ccc([nH]4)c(-c4c(F)cccc4F)c4nc(c(-c5c(F)cccc5F)c5ccc2[nH]5)C=C4)C=C3)cc1)C(F)(F)F
REMARK SMILES IDX 16 1 15 2 14 3 12 4 13 5 10 7 11 8 9 9 7 10 8 11 6 13 1 14
REMARK SMILES IDX 2 15 3 16 4 17 5 18 75 19 76 20 77 21 78 22 17 23 18 24
REMARK SMILES IDX 19 25 20 27 21 28 22 29 74 30 23 31 73 32 24 33 25 34 26 35
REMARK SMILES IDX 67 36 27 37 72 38 66 39 68 40 28 41 71 42 65 43 64 44 29 46
REMARK SMILES IDX 55 47 38 48 54 49 39 50 42 51 53 52 69 53 40 54 41 55 52 57
REMARK SMILES IDX 70 58 43 59 30 60 31 61 36 62 32 63 33 64 35 65 37 66 34 67
REMARK SMILES IDX 56 68 57 69 62 70 58 71 59 72 61 73 63 74 60 75 44 76 45 77
REMARK SMILES IDX 50 78 46 79 47 80 49 81 51 82 48 83
REMARK H PARENT 14 6 9 12 18 26 68 45 42 56
REMARK Flexibility Score: inf
ROOT
ATOM      1  C   UNL A   1      35.702  23.440  25.756  1.00  0.00     0.042 C 
ENDROOT
BRANCH   1   2
ATOM      2  C   UNL A   1      34.588  24.442  25.433  1.00  0.00     0.117 C 
BRANCH   2   3
ATOM      3  N   UNL A   1      33.396  24.167  26.230  1.00  0.00    -0.354 N 
ATOM      4  C   UNL A   1      32.114  24.627  26.214  1.00  0.00     0.254 C 
ATOM      5  O   UNL A   1      31.464  24.354  27.232  1.00  0.00    -0.272 OA
ATOM      6  H   UNL A   1      33.553  23.499  26.937  1.00  0.00     0.163 HD
BRANCH   4   7
ATOM      7  C   UNL A   1      31.413  25.328  25.020  1.00  0.00     0.212 C 
ATOM      8  C   UNL A   1      30.045  25.945  25.382  1.00  0.00     0.056 C 
BRANCH   7   9
ATOM      9  N   UNL A   1      32.183  26.304  24.212  1.00  0.00    -0.329 N 
ATOM     10  C   UNL A   1      32.746  27.536  24.270  1.00  0.00     0.268 C 
ATOM     11  O   UNL A   1      33.112  27.885  23.137  1.00  0.00    -0.268 OA
ATOM     12  H   UNL A   1      32.340  25.924  23.318  1.00  0.00     0.165 HD
BRANCH  10  13
ATOM     13  C   UNL A   1      33.035  28.394  25.415  1.00  0.00     0.106 A 
ATOM     14  C   UNL A   1      31.481  30.449  25.551  1.00  0.00     0.150 C 
ATOM     15  N   UNL A   1      32.555  29.578  25.957  1.00  0.00    -0.347 N 
ATOM     16  C   UNL A   1      33.253  29.895  27.110  1.00  0.00     0.086 A 
ATOM     17  C   UNL A   1      34.192  28.930  27.343  1.00  0.00     0.020 A 
ATOM     18  C   UNL A   1      34.066  28.012  26.292  1.00  0.00     0.033 A 
ENDBRANCH  10  13
ENDBRANCH   7   9
BRANCH   7  19
ATOM     19  C   UNL A   1      31.077  24.087  24.128  1.00  0.00     0.420 C 
ATOM     20  F   UNL A   1      30.678  23.006  24.829  1.00  0.00    -0.168 F 
ATOM     21  F   UNL A   1      30.058  24.397  23.279  1.00  0.00    -0.168 F 
ATOM     22  F   UNL A   1      32.118  23.726  23.344  1.00  0.00    -0.168 F 
ENDBRANCH   7  19
ENDBRANCH   4   7
ENDBRANCH   2   3
ENDBRANCH   1   2
BRANCH   1  23
ATOM     23  C   UNL A   1      37.018  23.695  25.022  1.00  0.00     0.118 C 
BRANCH  23  24
ATOM     24  N   UNL A   1      38.070  22.792  25.464  1.00  0.00    -0.352 N 
ATOM     25  C   UNL A   1      39.224  23.034  26.171  1.00  0.00     0.251 C 
ATOM     26  H   UNL A   1      37.933  21.850  25.215  1.00  0.00     0.163 HD
ATOM     27  O   UNL A   1      40.078  22.147  26.229  1.00  0.00    -0.269 OA
BRANCH  25  28
ATOM     28  C   UNL A   1      39.478  24.322  26.869  1.00  0.00     0.039 A 
ATOM     29  C   UNL A   1      40.217  25.313  26.207  1.00  0.00     0.014 A 
ATOM     30  C   UNL A   1      39.098  24.534  28.196  1.00  0.00     0.014 A 
ATOM     31  C   UNL A   1      40.536  26.516  26.852  1.00  0.00     0.010 A 
ATOM     32  C   UNL A   1      39.350  25.762  28.814  1.00  0.00     0.010 A 
ATOM     33  C   UNL A   1      40.088  26.761  28.158  1.00  0.00    -0.014 A 
BRANCH  33  34
ATOM     34  C   UNL A   1      40.422  28.015  28.892  1.00  0.00     0.031 A 
ATOM     35  C   UNL A   1      41.750  28.136  29.594  1.00  0.00     0.074 A 
ATOM     36  C   UNL A   1      39.520  29.009  29.005  1.00  0.00     0.049 A 
ATOM     37  N   UNL A   1      42.161  29.040  30.448  1.00  0.00    -0.248 NA
ATOM     38  C   UNL A   1      42.736  27.079  29.322  1.00  0.00     0.031 C 
ATOM     39  C   UNL A   1      38.195  29.030  28.386  1.00  0.00     0.029 A 
ATOM     40  N   UNL A   1      39.576  30.190  29.708  1.00  0.00    -0.354 N 
ATOM     41  C   UNL A   1      43.430  28.636  30.847  1.00  0.00     0.074 A 
ATOM     42  C   UNL A   1      43.710  27.392  30.164  1.00  0.00     0.031 C 
ATOM     43  C   UNL A   1      37.566  30.165  28.732  1.00  0.00     0.029 A 
ATOM     44  C   UNL A   1      38.421  30.931  29.635  1.00  0.00     0.049 A 
ATOM     45  H   UNL A   1      40.369  30.477  30.215  1.00  0.00     0.167 HD
ATOM     46  C   UNL A   1      44.292  29.250  31.693  1.00  0.00     0.037 A 
ATOM     47  C   UNL A   1      38.078  32.082  30.246  1.00  0.00     0.037 A 
ATOM     48  C   UNL A   1      44.041  30.516  32.330  1.00  0.00     0.049 A 
ATOM     49  C   UNL A   1      39.052  32.750  31.179  1.00  0.00     0.074 A 
ATOM     50  C   UNL A   1      44.876  31.243  33.162  1.00  0.00     0.029 A 
ATOM     51  N   UNL A   1      42.873  31.250  32.194  1.00  0.00    -0.354 N 
ATOM     52  N   UNL A   1      40.255  32.365  31.531  1.00  0.00    -0.248 NA
ATOM     53  C   UNL A   1      38.621  34.012  31.801  1.00  0.00     0.031 C 
ATOM     54  C   UNL A   1      44.202  32.403  33.553  1.00  0.00     0.029 A 
ATOM     55  C   UNL A   1      42.962  32.417  32.932  1.00  0.00     0.049 A 
ATOM     56  H   UNL A   1      42.096  30.981  31.652  1.00  0.00     0.167 HD
ATOM     57  C   UNL A   1      40.736  33.353  32.383  1.00  0.00     0.074 A 
ATOM     58  C   UNL A   1      39.698  34.354  32.495  1.00  0.00     0.031 C 
ATOM     59  C   UNL A   1      41.934  33.422  33.011  1.00  0.00     0.037 A 
BRANCH  46  60
ATOM     60  C   UNL A   1      45.592  28.560  31.984  1.00  0.00     0.057 A 
ATOM     61  C   UNL A   1      45.725  27.639  33.031  1.00  0.00     0.134 A 
ATOM     62  C   UNL A   1      46.716  28.790  31.180  1.00  0.00     0.134 A 
ATOM     63  F   UNL A   1      44.689  27.381  33.845  1.00  0.00    -0.206 F 
ATOM     64  C   UNL A   1      46.935  26.992  33.285  1.00  0.00     0.040 A 
ATOM     65  C   UNL A   1      47.924  28.128  31.407  1.00  0.00     0.040 A 
ATOM     66  F   UNL A   1      46.656  29.651  30.153  1.00  0.00    -0.206 F 
ATOM     67  C   UNL A   1      48.038  27.232  32.467  1.00  0.00     0.006 A 
ENDBRANCH  46  60
BRANCH  47  68
ATOM     68  C   UNL A   1      36.746  32.689  29.993  1.00  0.00     0.057 A 
ATOM     69  C   UNL A   1      36.550  33.573  28.925  1.00  0.00     0.134 A 
ATOM     70  C   UNL A   1      35.646  32.415  30.815  1.00  0.00     0.134 A 
ATOM     71  F   UNL A   1      37.572  33.892  28.117  1.00  0.00    -0.206 F 
ATOM     72  C   UNL A   1      35.313  34.175  28.692  1.00  0.00     0.040 A 
ATOM     73  C   UNL A   1      34.397  32.991  30.579  1.00  0.00     0.040 A 
ATOM     74  F   UNL A   1      35.769  31.574  31.852  1.00  0.00    -0.206 F 
ATOM     75  C   UNL A   1      34.230  33.881  29.519  1.00  0.00     0.006 A 
ENDBRANCH  47  68
BRANCH  59  76
ATOM     76  C   UNL A   1      42.221  34.644  33.830  1.00  0.00     0.057 A 
ATOM     77  C   UNL A   1      42.018  34.673  35.215  1.00  0.00     0.134 A 
ATOM     78  C   UNL A   1      42.776  35.782  33.231  1.00  0.00     0.134 A 
ATOM     79  F   UNL A   1      41.479  33.619  35.845  1.00  0.00    -0.206 F 
ATOM     80  C   UNL A   1      42.351  35.796  35.975  1.00  0.00     0.040 A 
ATOM     81  C   UNL A   1      43.131  36.903  33.983  1.00  0.00     0.040 A 
ATOM     82  F   UNL A   1      43.002  35.815  31.908  1.00  0.00    -0.206 F 
ATOM     83  C   UNL A   1      42.918  36.911  35.359  1.00  0.00     0.006 A 
ENDBRANCH  59  76
ENDBRANCH  33  34
ENDBRANCH  25  28
ENDBRANCH  23  24
ENDBRANCH   1  23
TORSDOF 13
ENDMDL
MODEL 2
REMARK VINA RESULT:     -10.7      2.797      6.232
REMARK SMILES Cn1cccc1C(=O)N[C@](C)(C(=O)NCCCNC(=O)c1ccc(-c2c3nc(c(-c4c(F)cccc4F)c4ccc([nH]4)c(-c4c(F)cccc4F)c4nc(c(-c5c(F)cccc5F)c5ccc2[nH]5)C=C4)C=C3)cc1)C(F)(F)F
REMARK SMILES IDX 16 1 15 2 14 3 12 4 13 5 10 7 11 8 9 9 7 10 8 11 6 13 1 14
REMARK SMILES IDX 2 15 3 16 4 17 5 18 75 19 76 20 77 21 78 22 17 23 18 24
REMARK SMILES IDX 19 25 20 27 21 28 22 29 74 30 23 31 73 32 24 33 25 34 26 35
REMARK SMILES IDX 67 36 27 37 72 38 66 39 68 40 28 41 71 42 65 43 64 44 29 46
REMARK SMILES IDX 55 47 38 48 54 49 39 50 42 51 53 52 69 53 40 54 41 55 52 57
REMARK SMILES IDX 70 58 43 59 30 60 31 61 36 62 32 63 33 64 35 65 37 66 34 67
REMARK SMILES IDX 56 68 57 69 62 70 58 71 59 72 61 73 63 74 60 75 44 76 45 77
REMARK SMILES IDX 50 78 46 79 47 80 49 81 51 82 48 83
REMARK H PARENT 14 6 9 12 18 26 68 45 42 56
REMARK Flexibility Score: inf
ROOT
ATOM      1  C   UNL A   1      32.992  28.783  23.284  1.00  0.00     0.042 C 
ENDROOT
BRANCH   1   2
ATOM      2  C   UNL A   1      32.383  27.402  23.019  1.00  0.00     0.117 C 
BRANCH   2   3
ATOM      3  N   UNL A   1      31.528  26.991  24.128  1.00  0.00    -0.354 N 
ATOM      4  C   UNL A   1      31.354  25.826  24.814  1.00  0.00     0.254 C 
ATOM      5  O   UNL A   1      30.331  25.796  25.512  1.00  0.00    -0.272 OA
ATOM      6  H   UNL A   1      30.946  27.716  24.454  1.00  0.00     0.163 HD
BRANCH   4   7
ATOM      7  C   UNL A   1      32.358  24.645  24.872  1.00  0.00     0.212 C 
ATOM      8  C   UNL A   1      31.887  23.476  25.763  1.00  0.00     0.056 C 
BRANCH   7   9
ATOM      9  N   UNL A   1      32.892  24.097  23.602  1.00  0.00    -0.329 N 
ATOM     10  C   UNL A   1      33.933  23.394  23.091  1.00  0.00     0.268 C 
ATOM     11  O   UNL A   1      33.889  23.418  21.852  1.00  0.00    -0.268 OA
ATOM     12  H   UNL A   1      32.272  24.323  22.871  1.00  0.00     0.165 HD
BRANCH  10  13
ATOM     13  C   UNL A   1      34.961  22.602  23.759  1.00  0.00     0.106 A 
ATOM     14  C   UNL A   1      34.000  20.581  25.042  1.00  0.00     0.150 C 
ATOM     15  N   UNL A   1      35.027  21.471  24.560  1.00  0.00    -0.347 N 
ATOM     16  C   UNL A   1      36.342  21.186  24.881  1.00  0.00     0.086 A 
ATOM     17  C   UNL A   1      37.156  22.115  24.296  1.00  0.00     0.020 A 
ATOM     18  C   UNL A   1      36.304  22.995  23.615  1.00  0.00     0.033 A 
ENDBRANCH  10  13
ENDBRANCH   7   9
BRANCH   7  19
ATOM     19  C   UNL A   1      33.529  25.315  25.664  1.00  0.00     0.420 C 
ATOM     20  F   UNL A   1      33.128  26.280  26.516  1.00  0.00    -0.168 F 
ATOM     21  F   UNL A   1      34.169  24.376  26.417  1.00  0.00    -0.168 F 
ATOM     22  F   UNL A   1      34.469  25.836  24.843  1.00  0.00    -0.168 F 
ENDBRANCH   7  19
ENDBRANCH   4   7
ENDBRANCH   2   3
ENDBRANCH   1   2
BRANCH   1  23
ATOM     23  C   UNL A   1      33.379  29.038  24.740  1.00  0.00     0.118 C 
BRANCH  23  24
ATOM     24  N   UNL A   1      32.605  30.120  25.328  1.00  0.00    -0.352 N 
ATOM     25  C   UNL A   1      32.766  30.803  26.510  1.00  0.00     0.251 C 
ATOM     26  H   UNL A   1      31.835  30.414  24.788  1.00  0.00     0.163 HD
ATOM     27  O   UNL A   1      31.848  31.525  26.904  1.00  0.00    -0.269 OA
BRANCH  25  28
ATOM     28  C   UNL A   1      34.004  30.703  27.327  1.00  0.00     0.039 A 
ATOM     29  C   UNL A   1      34.724  31.874  27.605  1.00  0.00     0.014 A 
ATOM     30  C   UNL A   1      34.527  29.474  27.734  1.00  0.00     0.014 A 
ATOM     31  C   UNL A   1      35.932  31.818  28.315  1.00  0.00     0.010 A 
ATOM     32  C   UNL A   1      35.691  29.424  28.506  1.00  0.00     0.010 A 
ATOM     33  C   UNL A   1      36.418  30.592  28.791  1.00  0.00    -0.014 A 
BRANCH  33  34
ATOM     34  C   UNL A   1      37.707  30.481  29.530  1.00  0.00     0.031 A 
ATOM     35  C   UNL A   1      38.852  29.711  28.922  1.00  0.00     0.074 A 
ATOM     36  C   UNL A   1      37.837  30.989  30.771  1.00  0.00     0.049 A 
ATOM     37  N   UNL A   1      39.976  29.320  29.467  1.00  0.00    -0.248 NA
ATOM     38  C   UNL A   1      38.693  29.299  27.518  1.00  0.00     0.031 C 
ATOM     39  C   UNL A   1      36.816  31.751  31.489  1.00  0.00     0.029 A 
ATOM     40  N   UNL A   1      38.883  30.916  31.661  1.00  0.00    -0.354 N 
ATOM     41  C   UNL A   1      40.635  28.581  28.491  1.00  0.00     0.074 A 
ATOM     42  C   UNL A   1      39.773  28.554  27.330  1.00  0.00     0.031 C 
ATOM     43  C   UNL A   1      37.285  32.078  32.705  1.00  0.00     0.029 A 
ATOM     44  C   UNL A   1      38.619  31.509  32.873  1.00  0.00     0.049 A 
ATOM     45  H   UNL A   1      39.739  30.479  31.450  1.00  0.00     0.167 HD
ATOM     46  C   UNL A   1      41.852  27.990  28.550  1.00  0.00     0.037 A 
ATOM     47  C   UNL A   1      39.356  31.566  34.000  1.00  0.00     0.037 A 
ATOM     48  C   UNL A   1      42.738  28.063  29.682  1.00  0.00     0.049 A 
ATOM     49  C   UNL A   1      40.708  30.906  34.041  1.00  0.00     0.074 A 
ATOM     50  C   UNL A   1      44.013  27.541  29.814  1.00  0.00     0.029 A 
ATOM     51  N   UNL A   1      42.444  28.710  30.872  1.00  0.00    -0.354 N 
ATOM     52  N   UNL A   1      41.324  30.227  33.104  1.00  0.00    -0.248 NA
ATOM     53  C   UNL A   1      41.467  31.019  35.296  1.00  0.00     0.031 C 
ATOM     54  C   UNL A   1      44.481  27.847  31.095  1.00  0.00     0.029 A 
ATOM     55  C   UNL A   1      43.512  28.594  31.746  1.00  0.00     0.049 A 
ATOM     56  H   UNL A   1      41.603  29.182  31.066  1.00  0.00     0.167 HD
ATOM     57  C   UNL A   1      42.554  29.865  33.643  1.00  0.00     0.074 A 
ATOM     58  C   UNL A   1      42.598  30.399  34.987  1.00  0.00     0.031 C 
ATOM     59  C   UNL A   1      43.556  29.157  33.071  1.00  0.00     0.037 A 
BRANCH  46  60
ATOM     60  C   UNL A   1      42.303  27.206  27.351  1.00  0.00     0.057 A 
ATOM     61  C   UNL A   1      42.996  27.805  26.292  1.00  0.00     0.134 A 
ATOM     62  C   UNL A   1      42.075  25.826  27.276  1.00  0.00     0.134 A 
ATOM     63  F   UNL A   1      43.238  29.125  26.299  1.00  0.00    -0.206 F 
ATOM     64  C   UNL A   1      43.423  27.066  25.187  1.00  0.00     0.040 A 
ATOM     65  C   UNL A   1      42.520  25.070  26.190  1.00  0.00     0.040 A 
ATOM     66  F   UNL A   1      41.426  25.187  28.260  1.00  0.00    -0.206 F 
ATOM     67  C   UNL A   1      43.190  25.693  25.138  1.00  0.00     0.006 A 
ENDBRANCH  46  60
BRANCH  47  68
ATOM     68  C   UNL A   1      38.835  32.283  35.192  1.00  0.00     0.057 A 
ATOM     69  C   UNL A   1      38.937  33.675  35.295  1.00  0.00     0.134 A 
ATOM     70  C   UNL A   1      38.239  31.598  36.258  1.00  0.00     0.134 A 
ATOM     71  F   UNL A   1      39.520  34.383  34.316  1.00  0.00    -0.206 F 
ATOM     72  C   UNL A   1      38.481  34.360  36.422  1.00  0.00     0.040 A 
ATOM     73  C   UNL A   1      37.756  32.273  37.380  1.00  0.00     0.040 A 
ATOM     74  F   UNL A   1      38.108  30.264  36.218  1.00  0.00    -0.206 F 
ATOM     75  C   UNL A   1      37.884  33.658  37.467  1.00  0.00     0.006 A 
ENDBRANCH  47  68
BRANCH  59  76
ATOM     76  C   UNL A   1      44.814  28.965  33.863  1.00  0.00     0.057 A 
ATOM     77  C   UNL A   1      45.018  27.837  34.666  1.00  0.00     0.134 A 
ATOM     78  C   UNL A   1      45.861  29.889  33.761  1.00  0.00     0.134 A 
ATOM     79  F   UNL A   1      44.048  26.922  34.813  1.00  0.00    -0.206 F 
ATOM     80  C   UNL A   1      46.220  27.638  35.349  1.00  0.00     0.040 A 
ATOM     81  C   UNL A   1      47.075  29.691  34.422  1.00  0.00     0.040 A 
ATOM     82  F   UNL A   1      45.731  30.987  33.001  1.00  0.00    -0.206 F 
ATOM     83  C   UNL A   1      47.255  28.563  35.219  1.00  0.00     0.006 A 
ENDBRANCH  59  76
ENDBRANCH  33  34
ENDBRANCH  25  28
ENDBRANCH  23  24
ENDBRANCH   1  23
TORSDOF 13
ENDMDL
MODEL 3
REMARK VINA RESULT:     -10.7      4.375      9.559
REMARK SMILES Cn1cccc1C(=O)N[C@](C)(C(=O)NCCCNC(=O)c1ccc(-c2c3nc(c(-c4c(F)cccc4F)c4ccc([nH]4)c(-c4c(F)cccc4F)c4nc(c(-c5c(F)cccc5F)c5ccc2[nH]5)C=C4)C=C3)cc1)C(F)(F)F
REMARK SMILES IDX 16 1 15 2 14 3 12 4 13 5 10 7 11 8 9 9 7 10 8 11 6 13 1 14
REMARK SMILES IDX 2 15 3 16 4 17 5 18 75 19 76 20 77 21 78 22 17 23 18 24
REMARK SMILES IDX 19 25 20 27 21 28 22 29 74 30 23 31 73 32 24 33 25 34 26 35
REMARK SMILES IDX 67 36 27 37 72 38 66 39 68 40 28 41 71 42 65 43 64 44 29 46
REMARK SMILES IDX 55 47 38 48 54 49 39 50 42 51 53 52 69 53 40 54 41 55 52 57
REMARK SMILES IDX 70 58 43 59 30 60 31 61 36 62 32 63 33 64 35 65 37 66 34 67
REMARK SMILES IDX 56 68 57 69 62 70 58 71 59 72 61 73 63 74 60 75 44 76 45 77
REMARK SMILES IDX 50 78 46 79 47 80 49 81 51 82 48 83
REMARK H PARENT 14 6 9 12 18 26 68 45 42 56
REMARK Flexibility Score: inf
ROOT
ATOM      1  C   UNL A   1      36.481  33.071  28.966  1.00  0.00     0.042 C 
ENDROOT
BRANCH   1   2
ATOM      2  C   UNL A   1      36.008  33.846  30.200  1.00  0.00     0.117 C 
BRANCH   2   3
ATOM      3  N   UNL A   1      37.129  34.144  31.087  1.00  0.00    -0.354 N 
ATOM      4  C   UNL A   1      37.344  34.013  32.426  1.00  0.00     0.254 C 
ATOM      5  O   UNL A   1      38.328  34.637  32.845  1.00  0.00    -0.272 OA
ATOM      6  H   UNL A   1      37.903  34.526  30.612  1.00  0.00     0.163 HD
BRANCH   4   7
ATOM      7  C   UNL A   1      36.554  33.087  33.388  1.00  0.00     0.212 C 
ATOM      8  C   UNL A   1      36.906  33.297  34.877  1.00  0.00     0.056 C 
BRANCH   7   9
ATOM      9  N   UNL A   1      35.080  33.002  33.250  1.00  0.00    -0.329 N 
ATOM     10  C   UNL A   1      33.972  33.769  33.094  1.00  0.00     0.268 C 
ATOM     11  O   UNL A   1      32.955  33.072  33.235  1.00  0.00    -0.268 OA
ATOM     12  H   UNL A   1      34.810  32.056  33.282  1.00  0.00     0.165 HD
BRANCH  10  13
ATOM     13  C   UNL A   1      33.835  35.174  32.722  1.00  0.00     0.106 A 
ATOM     14  C   UNL A   1      32.866  35.497  30.353  1.00  0.00     0.150 C 
ATOM     15  N   UNL A   1      33.403  35.908  31.626  1.00  0.00    -0.347 N 
ATOM     16  C   UNL A   1      33.499  37.263  31.889  1.00  0.00     0.086 A 
ATOM     17  C   UNL A   1      33.986  37.439  33.153  1.00  0.00     0.020 A 
ATOM     18  C   UNL A   1      34.205  36.152  33.662  1.00  0.00     0.033 A 
ENDBRANCH  10  13
ENDBRANCH   7   9
BRANCH   7  19
ATOM     19  C   UNL A   1      37.176  31.701  33.014  1.00  0.00     0.420 C 
ATOM     20  F   UNL A   1      38.075  31.762  32.010  1.00  0.00    -0.168 F 
ATOM     21  F   UNL A   1      37.833  31.188  34.091  1.00  0.00    -0.168 F 
ATOM     22  F   UNL A   1      36.232  30.790  32.685  1.00  0.00    -0.168 F 
ENDBRANCH   7  19
ENDBRANCH   4   7
ENDBRANCH   2   3
ENDBRANCH   1   2
BRANCH   1  23
ATOM     23  C   UNL A   1      35.465  33.009  27.826  1.00  0.00     0.118 C 
BRANCH  23  24
ATOM     24  N   UNL A   1      34.580  31.861  27.949  1.00  0.00    -0.352 N 
ATOM     25  C   UNL A   1      34.856  30.516  28.017  1.00  0.00     0.251 C 
ATOM     26  H   UNL A   1      33.622  32.085  27.992  1.00  0.00     0.163 HD
ATOM     27  O   UNL A   1      33.927  29.715  27.886  1.00  0.00    -0.269 OA
BRANCH  25  28
ATOM     28  C   UNL A   1      36.228  29.992  28.242  1.00  0.00     0.039 A 
ATOM     29  C   UNL A   1      36.559  29.492  29.510  1.00  0.00     0.014 A 
ATOM     30  C   UNL A   1      37.225  30.081  27.268  1.00  0.00     0.014 A 
ATOM     31  C   UNL A   1      37.861  29.050  29.785  1.00  0.00     0.010 A 
ATOM     32  C   UNL A   1      38.502  29.571  27.518  1.00  0.00     0.010 A 
ATOM     33  C   UNL A   1      38.842  29.066  28.784  1.00  0.00    -0.014 A 
BRANCH  33  34
ATOM     34  C   UNL A   1      40.244  28.628  29.037  1.00  0.00     0.031 A 
ATOM     35  C   UNL A   1      41.233  29.598  29.631  1.00  0.00     0.074 A 
ATOM     36  C   UNL A   1      40.661  27.402  28.665  1.00  0.00     0.049 A 
ATOM     37  N   UNL A   1      42.533  29.496  29.746  1.00  0.00    -0.248 NA
ATOM     38  C   UNL A   1      40.686  30.867  30.136  1.00  0.00     0.031 C 
ATOM     39  C   UNL A   1      39.821  26.361  28.074  1.00  0.00     0.029 A 
ATOM     40  N   UNL A   1      41.913  26.833  28.709  1.00  0.00    -0.354 N 
ATOM     41  C   UNL A   1      42.962  30.701  30.291  1.00  0.00     0.074 A 
ATOM     42  C   UNL A   1      41.787  31.529  30.458  1.00  0.00     0.031 C 
ATOM     43  C   UNL A   1      40.577  25.281  27.813  1.00  0.00     0.029 A 
ATOM     44  C   UNL A   1      41.963  25.568  28.173  1.00  0.00     0.049 A 
ATOM     45  H   UNL A   1      42.698  27.289  29.088  1.00  0.00     0.167 HD
ATOM     46  C   UNL A   1      44.216  31.081  30.635  1.00  0.00     0.037 A 
ATOM     47  C   UNL A   1      43.009  24.743  27.970  1.00  0.00     0.037 A 
ATOM     48  C   UNL A   1      45.378  30.240  30.524  1.00  0.00     0.049 A 
ATOM     49  C   UNL A   1      44.394  25.183  28.364  1.00  0.00     0.074 A 
ATOM     50  C   UNL A   1      46.682  30.518  30.898  1.00  0.00     0.029 A 
ATOM     51  N   UNL A   1      45.374  28.951  30.014  1.00  0.00    -0.354 N 
ATOM     52  N   UNL A   1      44.779  26.318  28.895  1.00  0.00    -0.248 NA
ATOM     53  C   UNL A   1      45.489  24.229  28.129  1.00  0.00     0.031 C 
ATOM     54  C   UNL A   1      47.473  29.408  30.586  1.00  0.00     0.029 A 
ATOM     55  C   UNL A   1      46.654  28.424  30.056  1.00  0.00     0.049 A 
ATOM     56  H   UNL A   1      44.579  28.481  29.674  1.00  0.00     0.167 HD
ATOM     57  C   UNL A   1      46.150  26.200  29.091  1.00  0.00     0.074 A 
ATOM     58  C   UNL A   1      46.530  24.884  28.623  1.00  0.00     0.031 C 
ATOM     59  C   UNL A   1      47.014  27.101  29.616  1.00  0.00     0.037 A 
BRANCH  46  60
ATOM     60  C   UNL A   1      44.400  32.473  31.165  1.00  0.00     0.057 A 
ATOM     61  C   UNL A   1      44.355  32.756  32.536  1.00  0.00     0.134 A 
ATOM     62  C   UNL A   1      44.666  33.537  30.294  1.00  0.00     0.134 A 
ATOM     63  F   UNL A   1      44.095  31.782  33.423  1.00  0.00    -0.206 F 
ATOM     64  C   UNL A   1      44.541  34.052  33.021  1.00  0.00     0.040 A 
ATOM     65  C   UNL A   1      44.880  34.833  30.768  1.00  0.00     0.040 A 
ATOM     66  F   UNL A   1      44.733  33.335  28.970  1.00  0.00    -0.206 F 
ATOM     67  C   UNL A   1      44.810  35.093  32.136  1.00  0.00     0.006 A 
ENDBRANCH  46  60
BRANCH  47  68
ATOM     68  C   UNL A   1      42.792  23.404  27.365  1.00  0.00     0.057 A 
ATOM     69  C   UNL A   1      42.970  23.198  25.992  1.00  0.00     0.134 A 
ATOM     70  C   UNL A   1      42.392  22.306  28.137  1.00  0.00     0.134 A 
ATOM     71  F   UNL A   1      43.331  24.217  25.198  1.00  0.00    -0.206 F 
ATOM     72  C   UNL A   1      42.740  21.954  25.403  1.00  0.00     0.040 A 
ATOM     73  C   UNL A   1      42.182  21.050  27.565  1.00  0.00     0.040 A 
ATOM     74  F   UNL A   1      42.208  22.438  29.458  1.00  0.00    -0.206 F 
ATOM     75  C   UNL A   1      42.350  20.874  26.193  1.00  0.00     0.006 A 
ENDBRANCH  47  68
BRANCH  59  76
ATOM     76  C   UNL A   1      48.445  26.685  29.773  1.00  0.00     0.057 A 
ATOM     77  C   UNL A   1      48.882  25.935  30.871  1.00  0.00     0.134 A 
ATOM     78  C   UNL A   1      49.381  26.979  28.773  1.00  0.00     0.134 A 
ATOM     79  F   UNL A   1      48.036  25.630  31.866  1.00  0.00    -0.206 F 
ATOM     80  C   UNL A   1      50.204  25.498  30.973  1.00  0.00     0.040 A 
ATOM     81  C   UNL A   1      50.700  26.531  28.854  1.00  0.00     0.040 A 
ATOM     82  F   UNL A   1      49.023  27.688  27.692  1.00  0.00    -0.206 F 
ATOM     83  C   UNL A   1      51.114  25.788  29.958  1.00  0.00     0.006 A 
ENDBRANCH  59  76
ENDBRANCH  33  34
ENDBRANCH  25  28
ENDBRANCH  23  24
ENDBRANCH   1  23
TORSDOF 13
ENDMDL
