MODEL 1
REMARK VINA RESULT:     -13.9      0.000      0.000
REMARK SMILES O=C(NCCCNC(=O)c1cc(Cl)c2c(c1)[C@H]1C=CC[C@H]1[C@H](c1ccc(S(=O)(=O)N3CCOCC3)cc1)N2)c1ccc(-c2c3nc(c(-c4c(F)cccc4F)c4ccc([nH]4)c(-c4c(F)cccc4F)c4nc(c(-c5c(F)cccc5F)c5ccc2[nH]5)C=C4)C=C3)cc1
REMARK SMILES IDX 5 1 4 2 3 3 1 4 2 5 39 7 40 8 92 9 41 10 91 11 42 12 43 13
REMARK SMILES IDX 44 14 85 15 45 16 90 17 84 18 86 19 46 20 89 21 83 22 82 23
REMARK SMILES IDX 47 25 73 26 56 27 72 28 57 29 60 30 71 31 87 32 58 33 59 34
REMARK SMILES IDX 70 36 88 37 61 38 48 39 49 40 54 41 50 42 51 43 53 44 55 45
REMARK SMILES IDX 52 46 74 47 75 48 80 49 76 50 77 51 79 52 81 53 78 54 62 55
REMARK SMILES IDX 63 56 68 57 64 58 65 59 67 60 69 61 66 62 6 63 7 64 8 65
REMARK SMILES IDX 9 67 10 68 11 69 16 70 12 71 15 72 13 73 14 74 17 75 38 76
REMARK SMILES IDX 18 77 21 78 22 79 19 81 20 82 23 83 24 84 37 85 25 86 36 87
REMARK SMILES IDX 26 88 27 89 28 90 29 91 30 92 31 93 35 94 32 95 34 96 33 97
REMARK H PARENT 3 6 86 24 60 35 7 66 38 80
REMARK Flexibility Score: inf
ROOT
ATOM      1  C   UNL A   1      43.281  21.967  25.907  1.00  0.00     0.042 C 
ENDROOT
BRANCH   1   2
ATOM      2  C   UNL A   1      43.026  23.271  25.165  1.00  0.00     0.118 C 
BRANCH   2   3
ATOM      3  N   UNL A   1      44.261  23.947  24.797  1.00  0.00    -0.352 N 
ATOM      4  O   UNL A   1      45.704  25.666  24.615  1.00  0.00    -0.269 OA
ATOM      5  C   UNL A   1      44.756  25.159  25.207  1.00  0.00     0.251 C 
ATOM      6  H   UNL A   1      44.829  23.461  24.157  1.00  0.00     0.163 HD
BRANCH   5   7
ATOM      7  C   UNL A   1      44.146  25.858  26.354  1.00  0.00     0.039 A 
ATOM      8  C   UNL A   1      44.365  27.224  26.555  1.00  0.00     0.014 A 
ATOM      9  C   UNL A   1      43.304  25.146  27.215  1.00  0.00     0.014 A 
ATOM     10  C   UNL A   1      43.840  27.850  27.680  1.00  0.00     0.010 A 
ATOM     11  C   UNL A   1      42.725  25.792  28.308  1.00  0.00     0.010 A 
ATOM     12  C   UNL A   1      43.010  27.142  28.561  1.00  0.00    -0.014 A 
BRANCH  12  13
ATOM     13  C   UNL A   1      42.407  27.851  29.712  1.00  0.00     0.031 A 
ATOM     14  C   UNL A   1      43.061  27.829  31.061  1.00  0.00     0.074 A 
ATOM     15  C   UNL A   1      41.275  28.551  29.515  1.00  0.00     0.049 A 
ATOM     16  N   UNL A   1      42.709  28.450  32.158  1.00  0.00    -0.248 NA
ATOM     17  C   UNL A   1      44.269  27.001  31.200  1.00  0.00     0.031 C 
ATOM     18  C   UNL A   1      40.546  28.637  28.247  1.00  0.00     0.029 A 
ATOM     19  N   UNL A   1      40.547  29.333  30.372  1.00  0.00    -0.354 N 
ATOM     20  C   UNL A   1      43.652  28.099  33.114  1.00  0.00     0.074 A 
ATOM     21  C   UNL A   1      44.570  27.174  32.480  1.00  0.00     0.031 C 
ATOM     22  C   UNL A   1      39.491  29.452  28.402  1.00  0.00     0.029 A 
ATOM     23  C   UNL A   1      39.451  29.914  29.784  1.00  0.00     0.049 A 
ATOM     24  H   UNL A   1      40.786  29.466  31.318  1.00  0.00     0.167 HD
ATOM     25  C   UNL A   1      43.751  28.520  34.398  1.00  0.00     0.037 A 
ATOM     26  C   UNL A   1      38.514  30.726  30.306  1.00  0.00     0.037 A 
ATOM     27  C   UNL A   1      42.827  29.429  35.028  1.00  0.00     0.049 A 
ATOM     28  C   UNL A   1      38.616  31.128  31.748  1.00  0.00     0.074 A 
ATOM     29  C   UNL A   1      42.855  29.936  36.316  1.00  0.00     0.029 A 
ATOM     30  N   UNL A   1      41.699  29.956  34.417  1.00  0.00    -0.354 N 
ATOM     31  N   UNL A   1      39.542  30.830  32.627  1.00  0.00    -0.248 NA
ATOM     32  C   UNL A   1      37.541  31.981  32.270  1.00  0.00     0.031 C 
ATOM     33  C   UNL A   1      41.721  30.736  36.498  1.00  0.00     0.029 A 
ATOM     34  C   UNL A   1      41.008  30.762  35.309  1.00  0.00     0.049 A 
ATOM     35  H   UNL A   1      41.428  29.783  33.486  1.00  0.00     0.167 HD
ATOM     36  C   UNL A   1      39.172  31.470  33.800  1.00  0.00     0.074 A 
ATOM     37  C   UNL A   1      37.949  32.193  33.513  1.00  0.00     0.031 C 
ATOM     38  C   UNL A   1      39.785  31.461  35.008  1.00  0.00     0.037 A 
BRANCH  25  39
ATOM     39  C   UNL A   1      44.898  27.993  35.208  1.00  0.00     0.057 A 
ATOM     40  C   UNL A   1      44.765  26.822  35.964  1.00  0.00     0.134 A 
ATOM     41  C   UNL A   1      46.129  28.661  35.263  1.00  0.00     0.134 A 
ATOM     42  F   UNL A   1      43.612  26.136  35.961  1.00  0.00    -0.206 F 
ATOM     43  C   UNL A   1      45.814  26.334  36.746  1.00  0.00     0.040 A 
ATOM     44  C   UNL A   1      47.192  28.172  36.024  1.00  0.00     0.040 A 
ATOM     45  F   UNL A   1      46.326  29.781  34.550  1.00  0.00    -0.206 F 
ATOM     46  C   UNL A   1      47.034  27.007  36.772  1.00  0.00     0.006 A 
ENDBRANCH  25  39
BRANCH  26  47
ATOM     47  C   UNL A   1      37.400  31.215  29.460  1.00  0.00     0.057 A 
ATOM     48  C   UNL A   1      37.428  32.493  28.888  1.00  0.00     0.134 A 
ATOM     49  C   UNL A   1      36.289  30.408  29.189  1.00  0.00     0.134 A 
ATOM     50  F   UNL A   1      38.462  33.314  29.116  1.00  0.00    -0.206 F 
ATOM     51  C   UNL A   1      36.388  32.952  28.079  1.00  0.00     0.040 A 
ATOM     52  C   UNL A   1      35.254  30.846  28.362  1.00  0.00     0.040 A 
ATOM     53  F   UNL A   1      36.217  29.168  29.696  1.00  0.00    -0.206 F 
ATOM     54  C   UNL A   1      35.301  32.124  27.809  1.00  0.00     0.006 A 
ENDBRANCH  26  47
BRANCH  38  55
ATOM     55  C   UNL A   1      39.141  32.270  36.095  1.00  0.00     0.057 A 
ATOM     56  C   UNL A   1      38.177  31.701  36.935  1.00  0.00     0.134 A 
ATOM     57  C   UNL A   1      39.485  33.610  36.317  1.00  0.00     0.134 A 
ATOM     58  F   UNL A   1      37.799  30.424  36.774  1.00  0.00    -0.206 F 
ATOM     59  C   UNL A   1      37.582  32.434  37.963  1.00  0.00     0.040 A 
ATOM     60  C   UNL A   1      38.916  34.346  37.356  1.00  0.00     0.040 A 
ATOM     61  F   UNL A   1      40.417  34.207  35.558  1.00  0.00    -0.206 F 
ATOM     62  C   UNL A   1      37.958  33.758  38.182  1.00  0.00     0.006 A 
ENDBRANCH  38  55
ENDBRANCH  12  13
ENDBRANCH   5   7
ENDBRANCH   2   3
ENDBRANCH   1   2
BRANCH   1  63
ATOM     63  C   UNL A   1      42.108  21.504  26.758  1.00  0.00     0.118 C 
BRANCH  63  64
ATOM     64  N   UNL A   1      41.550  20.239  26.297  1.00  0.00    -0.352 N 
ATOM     65  C   UNL A   1      40.262  19.939  25.940  1.00  0.00     0.251 C 
ATOM     66  H   UNL A   1      42.191  19.494  26.232  1.00  0.00     0.163 HD
ATOM     67  O   UNL A   1      39.918  18.777  25.750  1.00  0.00    -0.269 OA
BRANCH  65  68
ATOM     68  C   UNL A   1      39.280  21.029  25.818  1.00  0.00     0.041 A 
ATOM     69  C   UNL A   1      39.547  22.287  26.354  1.00  0.00     0.036 A 
ATOM     70  C   UNL A   1      38.076  20.777  25.165  1.00  0.00     0.020 A 
ATOM     71  C   UNL A   1      38.543  23.246  26.357  1.00  0.00     0.065 A 
ATOM     72  C   UNL A   1      37.081  21.764  25.125  1.00  0.00    -0.015 A 
ATOM     73  Cl  UNL A   1      38.868  24.762  27.129  1.00  0.00    -0.082 Cl
ATOM     74  C   UNL A   1      37.282  22.985  25.786  1.00  0.00     0.057 A 
ATOM     75  C   UNL A   1      35.831  21.514  24.332  1.00  0.00     0.049 C 
ATOM     76  N   UNL A   1      36.286  23.949  25.803  1.00  0.00    -0.376 N 
ATOM     77  C   UNL A   1      34.878  20.511  24.930  1.00  0.00    -0.023 C 
ATOM     78  C   UNL A   1      34.919  22.748  24.137  1.00  0.00     0.031 C 
ATOM     79  C   UNL A   1      34.922  23.620  25.422  1.00  0.00     0.114 C 
ATOM     80  H   UNL A   1      36.505  24.868  26.079  1.00  0.00     0.161 HD
ATOM     81  C   UNL A   1      33.612  20.827  24.630  1.00  0.00    -0.030 C 
ATOM     82  C   UNL A   1      33.564  22.081  23.814  1.00  0.00     0.034 C 
BRANCH  79  83
ATOM     83  C   UNL A   1      34.127  24.913  25.276  1.00  0.00    -0.025 A 
ATOM     84  C   UNL A   1      33.236  25.399  26.254  1.00  0.00     0.007 A 
ATOM     85  C   UNL A   1      34.279  25.655  24.103  1.00  0.00     0.007 A 
ATOM     86  C   UNL A   1      32.526  26.592  26.060  1.00  0.00     0.022 A 
ATOM     87  C   UNL A   1      33.618  26.864  23.935  1.00  0.00     0.022 A 
ATOM     88  C   UNL A   1      32.734  27.332  24.897  1.00  0.00     0.082 A 
BRANCH  88  89
ATOM     89  S   UNL A   1      31.861  28.865  24.667  1.00  0.00     0.243 S 
ATOM     90  O   UNL A   1      31.354  29.239  25.974  1.00  0.00    -0.207 OA
ATOM     91  O   UNL A   1      32.740  29.727  23.913  1.00  0.00    -0.207 OA
BRANCH  89  92
ATOM     92  N   UNL A   1      30.552  28.482  23.691  1.00  0.00    -0.193 NA
ATOM     93  C   UNL A   1      29.782  29.505  22.953  1.00  0.00     0.131 C 
ATOM     94  C   UNL A   1      30.060  27.099  23.556  1.00  0.00     0.131 C 
ATOM     95  C   UNL A   1      28.264  29.305  23.109  1.00  0.00     0.177 C 
ATOM     96  C   UNL A   1      28.551  27.050  23.798  1.00  0.00     0.177 C 
ATOM     97  O   UNL A   1      27.855  27.944  22.918  1.00  0.00    -0.379 OA
ENDBRANCH  89  92
ENDBRANCH  88  89
ENDBRANCH  79  83
ENDBRANCH  65  68
ENDBRANCH  63  64
ENDBRANCH   1  63
TORSDOF 13
ENDMDL
MODEL 2
REMARK VINA RESULT:     -13.8      0.887      5.858
REMARK SMILES O=C(NCCCNC(=O)c1cc(Cl)c2c(c1)[C@H]1C=CC[C@H]1[C@H](c1ccc(S(=O)(=O)N3CCOCC3)cc1)N2)c1ccc(-c2c3nc(c(-c4c(F)cccc4F)c4ccc([nH]4)c(-c4c(F)cccc4F)c4nc(c(-c5c(F)cccc5F)c5ccc2[nH]5)C=C4)C=C3)cc1
REMARK SMILES IDX 5 1 4 2 3 3 1 4 2 5 39 7 40 8 92 9 41 10 91 11 42 12 43 13
REMARK SMILES IDX 44 14 85 15 45 16 90 17 84 18 86 19 46 20 89 21 83 22 82 23
REMARK SMILES IDX 47 25 73 26 56 27 72 28 57 29 60 30 71 31 87 32 58 33 59 34
REMARK SMILES IDX 70 36 88 37 61 38 48 39 49 40 54 41 50 42 51 43 53 44 55 45
REMARK SMILES IDX 52 46 74 47 75 48 80 49 76 50 77 51 79 52 81 53 78 54 62 55
REMARK SMILES IDX 63 56 68 57 64 58 65 59 67 60 69 61 66 62 6 63 7 64 8 65
REMARK SMILES IDX 9 67 10 68 11 69 16 70 12 71 15 72 13 73 14 74 17 75 38 76
REMARK SMILES IDX 18 77 21 78 22 79 19 81 20 82 23 83 24 84 37 85 25 86 36 87
REMARK SMILES IDX 26 88 27 89 28 90 29 91 30 92 31 93 35 94 32 95 34 96 33 97
REMARK H PARENT 3 6 86 24 60 35 7 66 38 80
REMARK Flexibility Score: inf
ROOT
ATOM      1  C   UNL A   1      43.501  22.785  25.936  1.00  0.00     0.042 C 
ENDROOT
BRANCH   1   2
ATOM      2  C   UNL A   1      43.323  24.110  25.209  1.00  0.00     0.118 C 
BRANCH   2   3
ATOM      3  N   UNL A   1      44.597  24.738  24.890  1.00  0.00    -0.352 N 
ATOM      4  O   UNL A   1      46.111  26.400  24.768  1.00  0.00    -0.269 OA
ATOM      5  C   UNL A   1      45.124  25.929  25.322  1.00  0.00     0.251 C 
ATOM      6  H   UNL A   1      45.168  24.232  24.268  1.00  0.00     0.163 HD
BRANCH   5   7
ATOM      7  C   UNL A   1      44.500  26.648  26.450  1.00  0.00     0.039 A 
ATOM      8  C   UNL A   1      43.919  25.945  27.509  1.00  0.00     0.014 A 
ATOM      9  C   UNL A   1      44.539  28.046  26.470  1.00  0.00     0.014 A 
ATOM     10  C   UNL A   1      43.274  26.638  28.528  1.00  0.00     0.010 A 
ATOM     11  C   UNL A   1      43.947  28.741  27.526  1.00  0.00     0.010 A 
ATOM     12  C   UNL A   1      43.289  28.040  28.548  1.00  0.00    -0.014 A 
BRANCH  12  13
ATOM     13  C   UNL A   1      42.656  28.753  29.681  1.00  0.00     0.031 A 
ATOM     14  C   UNL A   1      41.296  29.369  29.542  1.00  0.00     0.074 A 
ATOM     15  C   UNL A   1      43.311  28.805  30.855  1.00  0.00     0.049 A 
ATOM     16  N   UNL A   1      40.566  29.966  30.450  1.00  0.00    -0.248 NA
ATOM     17  C   UNL A   1      40.672  29.308  28.212  1.00  0.00     0.031 C 
ATOM     18  C   UNL A   1      44.643  28.248  31.103  1.00  0.00     0.029 A 
ATOM     19  N   UNL A   1      42.943  29.338  32.062  1.00  0.00    -0.354 N 
ATOM     20  C   UNL A   1      39.395  30.344  29.806  1.00  0.00     0.074 A 
ATOM     21  C   UNL A   1      39.528  29.946  28.420  1.00  0.00     0.031 C 
ATOM     22  C   UNL A   1      44.967  28.443  32.391  1.00  0.00     0.029 A 
ATOM     23  C   UNL A   1      43.884  29.167  33.046  1.00  0.00     0.049 A 
ATOM     24  H   UNL A   1      42.085  29.799  32.210  1.00  0.00     0.167 HD
ATOM     25  C   UNL A   1      38.304  30.954  30.329  1.00  0.00     0.037 A 
ATOM     26  C   UNL A   1      43.876  29.557  34.333  1.00  0.00     0.037 A 
ATOM     27  C   UNL A   1      38.181  31.360  31.706  1.00  0.00     0.049 A 
ATOM     28  C   UNL A   1      42.677  30.284  34.868  1.00  0.00     0.074 A 
ATOM     29  C   UNL A   1      37.106  31.961  32.338  1.00  0.00     0.029 A 
ATOM     30  N   UNL A   1      39.176  31.218  32.662  1.00  0.00    -0.354 N 
ATOM     31  N   UNL A   1      41.555  30.589  34.263  1.00  0.00    -0.248 NA
ATOM     32  C   UNL A   1      42.745  30.720  36.269  1.00  0.00     0.031 C 
ATOM     33  C   UNL A   1      37.467  32.222  33.666  1.00  0.00     0.029 A 
ATOM     34  C   UNL A   1      38.751  31.744  33.872  1.00  0.00     0.049 A 
ATOM     35  H   UNL A   1      40.055  30.804  32.504  1.00  0.00     0.167 HD
ATOM     36  C   UNL A   1      40.777  31.237  35.210  1.00  0.00     0.074 A 
ATOM     37  C   UNL A   1      41.547  31.261  36.438  1.00  0.00     0.031 C 
ATOM     38  C   UNL A   1      39.538  31.770  35.079  1.00  0.00     0.037 A 
BRANCH  25  39
ATOM     39  C   UNL A   1      37.156  31.224  29.401  1.00  0.00     0.057 A 
ATOM     40  C   UNL A   1      37.000  32.478  28.800  1.00  0.00     0.134 A 
ATOM     41  C   UNL A   1      36.189  30.248  29.123  1.00  0.00     0.134 A 
ATOM     42  F   UNL A   1      37.887  33.458  29.026  1.00  0.00    -0.206 F 
ATOM     43  C   UNL A   1      35.922  32.754  27.956  1.00  0.00     0.040 A 
ATOM     44  C   UNL A   1      35.118  30.505  28.264  1.00  0.00     0.040 A 
ATOM     45  F   UNL A   1      36.289  29.021  29.656  1.00  0.00    -0.206 F 
ATOM     46  C   UNL A   1      34.980  31.764  27.682  1.00  0.00     0.006 A 
ENDBRANCH  25  39
BRANCH  26  47
ATOM     47  C   UNL A   1      45.038  29.266  35.205  1.00  0.00     0.057 A 
ATOM     48  C   UNL A   1      46.078  30.189  35.364  1.00  0.00     0.134 A 
ATOM     49  C   UNL A   1      45.126  28.062  35.914  1.00  0.00     0.134 A 
ATOM     50  F   UNL A   1      46.054  31.357  34.706  1.00  0.00    -0.206 F 
ATOM     51  C   UNL A   1      47.167  29.925  36.196  1.00  0.00     0.040 A 
ATOM     52  C   UNL A   1      46.198  27.796  36.767  1.00  0.00     0.040 A 
ATOM     53  F   UNL A   1      44.150  27.148  35.814  1.00  0.00    -0.206 F 
ATOM     54  C   UNL A   1      47.224  28.728  36.906  1.00  0.00     0.006 A 
ENDBRANCH  26  47
BRANCH  38  55
ATOM     55  C   UNL A   1      38.946  32.405  36.301  1.00  0.00     0.057 A 
ATOM     56  C   UNL A   1      38.099  31.680  37.147  1.00  0.00     0.134 A 
ATOM     57  C   UNL A   1      39.225  33.734  36.647  1.00  0.00     0.134 A 
ATOM     58  F   UNL A   1      37.789  30.404  36.871  1.00  0.00    -0.206 F 
ATOM     59  C   UNL A   1      37.556  32.250  38.299  1.00  0.00     0.040 A 
ATOM     60  C   UNL A   1      38.707  34.309  37.809  1.00  0.00     0.040 A 
ATOM     61  F   UNL A   1      40.045  34.476  35.888  1.00  0.00    -0.206 F 
ATOM     62  C   UNL A   1      37.867  33.566  38.637  1.00  0.00     0.006 A 
ENDBRANCH  38  55
ENDBRANCH  12  13
ENDBRANCH   5   7
ENDBRANCH   2   3
ENDBRANCH   1   2
BRANCH   1  63
ATOM     63  C   UNL A   1      42.715  21.635  25.322  1.00  0.00     0.118 C 
BRANCH  63  64
ATOM     64  N   UNL A   1      42.225  20.697  26.323  1.00  0.00    -0.352 N 
ATOM     65  C   UNL A   1      41.048  20.715  27.025  1.00  0.00     0.251 C 
ATOM     66  H   UNL A   1      42.825  19.943  26.524  1.00  0.00     0.163 HD
ATOM     67  O   UNL A   1      40.868  19.952  27.967  1.00  0.00    -0.269 OA
BRANCH  65  68
ATOM     68  C   UNL A   1      40.009  21.689  26.654  1.00  0.00     0.041 A 
ATOM     69  C   UNL A   1      40.090  23.011  27.085  1.00  0.00     0.036 A 
ATOM     70  C   UNL A   1      38.938  21.262  25.872  1.00  0.00     0.020 A 
ATOM     71  C   UNL A   1      39.020  23.865  26.848  1.00  0.00     0.065 A 
ATOM     72  C   UNL A   1      37.881  22.141  25.591  1.00  0.00    -0.015 A 
ATOM     73  Cl  UNL A   1      39.104  25.471  27.492  1.00  0.00    -0.082 Cl
ATOM     74  C   UNL A   1      37.883  23.432  26.140  1.00  0.00     0.057 A 
ATOM     75  C   UNL A   1      36.786  21.698  24.665  1.00  0.00     0.049 C 
ATOM     76  N   UNL A   1      36.819  24.292  25.918  1.00  0.00    -0.376 N 
ATOM     77  C   UNL A   1      35.842  20.668  25.230  1.00  0.00    -0.023 C 
ATOM     78  C   UNL A   1      35.815  22.814  24.217  1.00  0.00     0.031 C 
ATOM     79  C   UNL A   1      35.557  23.799  25.389  1.00  0.00     0.114 C 
ATOM     80  H   UNL A   1      36.918  25.249  26.121  1.00  0.00     0.161 HD
ATOM     81  C   UNL A   1      34.611  20.831  24.727  1.00  0.00    -0.030 C 
ATOM     82  C   UNL A   1      34.581  21.993  23.783  1.00  0.00     0.034 C 
BRANCH  79  83
ATOM     83  C   UNL A   1      34.689  24.990  25.000  1.00  0.00    -0.025 A 
ATOM     84  C   UNL A   1      34.101  25.869  25.932  1.00  0.00     0.007 A 
ATOM     85  C   UNL A   1      34.449  25.218  23.643  1.00  0.00     0.007 A 
ATOM     86  C   UNL A   1      33.305  26.944  25.513  1.00  0.00     0.022 A 
ATOM     87  C   UNL A   1      33.706  26.314  23.227  1.00  0.00     0.022 A 
ATOM     88  C   UNL A   1      33.121  27.170  24.150  1.00  0.00     0.082 A 
BRANCH  88  89
ATOM     89  S   UNL A   1      32.140  28.556  23.617  1.00  0.00     0.243 S 
ATOM     90  O   UNL A   1      31.965  29.397  24.786  1.00  0.00    -0.207 OA
ATOM     91  O   UNL A   1      32.752  29.049  22.406  1.00  0.00    -0.207 OA
BRANCH  89  92
ATOM     92  N   UNL A   1      30.647  27.908  23.214  1.00  0.00    -0.193 NA
ATOM     93  C   UNL A   1      29.579  28.704  22.575  1.00  0.00     0.131 C 
ATOM     94  C   UNL A   1      30.297  26.510  23.525  1.00  0.00     0.131 C 
ATOM     95  C   UNL A   1      28.214  28.479  23.250  1.00  0.00     0.177 C 
ATOM     96  C   UNL A   1      28.949  26.453  24.247  1.00  0.00     0.177 C 
ATOM     97  O   UNL A   1      27.921  27.095  23.478  1.00  0.00    -0.379 OA
ENDBRANCH  89  92
ENDBRANCH  88  89
ENDBRANCH  79  83
ENDBRANCH  65  68
ENDBRANCH  63  64
ENDBRANCH   1  63
TORSDOF 13
ENDMDL
MODEL 3
REMARK VINA RESULT:     -13.5      1.627      2.838
REMARK SMILES O=C(NCCCNC(=O)c1cc(Cl)c2c(c1)[C@H]1C=CC[C@H]1[C@H](c1ccc(S(=O)(=O)N3CCOCC3)cc1)N2)c1ccc(-c2c3nc(c(-c4c(F)cccc4F)c4ccc([nH]4)c(-c4c(F)cccc4F)c4nc(c(-c5c(F)cccc5F)c5ccc2[nH]5)C=C4)C=C3)cc1
REMARK SMILES IDX 5 1 4 2 3 3 1 4 2 5 39 7 40 8 92 9 41 10 91 11 42 12 43 13
REMARK SMILES IDX 44 14 85 15 45 16 90 17 84 18 86 19 46 20 89 21 83 22 82 23
REMARK SMILES IDX 47 25 73 26 56 27 72 28 57 29 60 30 71 31 87 32 58 33 59 34
REMARK SMILES IDX 70 36 88 37 61 38 48 39 49 40 54 41 50 42 51 43 53 44 55 45
REMARK SMILES IDX 52 46 74 47 75 48 80 49 76 50 77 51 79 52 81 53 78 54 62 55
REMARK SMILES IDX 63 56 68 57 64 58 65 59 67 60 69 61 66 62 6 63 7 64 8 65
REMARK SMILES IDX 9 67 10 68 11 69 16 70 12 71 15 72 13 73 14 74 17 75 38 76
REMARK SMILES IDX 18 77 21 78 22 79 19 81 20 82 23 83 24 84 37 85 25 86 36 87
REMARK SMILES IDX 26 88 27 89 28 90 29 91 30 92 31 93 35 94 32 95 34 96 33 97
REMARK H PARENT 3 6 86 24 60 35 7 66 38 80
REMARK Flexibility Score: inf
ROOT
ATOM      1  C   UNL A   1      44.612  22.103  25.741  1.00  0.00     0.042 C 
ENDROOT
BRANCH   1   2
ATOM      2  C   UNL A   1      44.067  23.500  25.481  1.00  0.00     0.118 C 
BRANCH   2   3
ATOM      3  N   UNL A   1      45.083  24.397  24.949  1.00  0.00    -0.352 N 
ATOM      4  O   UNL A   1      46.078  26.369  24.513  1.00  0.00    -0.269 OA
ATOM      5  C   UNL A   1      45.322  25.718  25.228  1.00  0.00     0.251 C 
ATOM      6  H   UNL A   1      45.690  23.995  24.287  1.00  0.00     0.163 HD
BRANCH   5   7
ATOM      7  C   UNL A   1      44.667  26.362  26.384  1.00  0.00     0.039 A 
ATOM      8  C   UNL A   1      44.036  25.591  27.364  1.00  0.00     0.014 A 
ATOM      9  C   UNL A   1      44.727  27.753  26.511  1.00  0.00     0.014 A 
ATOM     10  C   UNL A   1      43.363  26.217  28.408  1.00  0.00     0.010 A 
ATOM     11  C   UNL A   1      44.106  28.377  27.595  1.00  0.00     0.010 A 
ATOM     12  C   UNL A   1      43.399  27.613  28.536  1.00  0.00    -0.014 A 
BRANCH  12  13
ATOM     13  C   UNL A   1      42.734  28.249  29.696  1.00  0.00     0.031 A 
ATOM     14  C   UNL A   1      43.384  28.262  31.047  1.00  0.00     0.074 A 
ATOM     15  C   UNL A   1      41.546  28.852  29.505  1.00  0.00     0.049 A 
ATOM     16  N   UNL A   1      42.977  28.833  32.152  1.00  0.00    -0.248 NA
ATOM     17  C   UNL A   1      44.658  27.539  31.178  1.00  0.00     0.031 C 
ATOM     18  C   UNL A   1      40.816  28.895  28.236  1.00  0.00     0.029 A 
ATOM     19  N   UNL A   1      40.751  29.554  30.372  1.00  0.00    -0.354 N 
ATOM     20  C   UNL A   1      43.945  28.549  33.105  1.00  0.00     0.074 A 
ATOM     21  C   UNL A   1      44.940  27.717  32.461  1.00  0.00     0.031 C 
ATOM     22  C   UNL A   1      39.695  29.613  28.400  1.00  0.00     0.029 A 
ATOM     23  C   UNL A   1      39.611  30.048  29.789  1.00  0.00     0.049 A 
ATOM     24  H   UNL A   1      40.976  29.693  31.321  1.00  0.00     0.167 HD
ATOM     25  C   UNL A   1      44.003  28.956  34.396  1.00  0.00     0.037 A 
ATOM     26  C   UNL A   1      38.606  30.767  30.320  1.00  0.00     0.037 A 
ATOM     27  C   UNL A   1      43.003  29.772  35.037  1.00  0.00     0.049 A 
ATOM     28  C   UNL A   1      38.670  31.154  31.768  1.00  0.00     0.074 A 
ATOM     29  C   UNL A   1      42.984  30.259  36.333  1.00  0.00     0.029 A 
ATOM     30  N   UNL A   1      41.835  30.209  34.431  1.00  0.00    -0.354 N 
ATOM     31  N   UNL A   1      39.616  30.923  32.646  1.00  0.00    -0.248 NA
ATOM     32  C   UNL A   1      37.524  31.903  32.299  1.00  0.00     0.031 C 
ATOM     33  C   UNL A   1      41.785  30.956  36.523  1.00  0.00     0.029 A 
ATOM     34  C   UNL A   1      41.076  30.938  35.332  1.00  0.00     0.049 A 
ATOM     35  H   UNL A   1      41.583  30.029  33.496  1.00  0.00     0.167 HD
ATOM     36  C   UNL A   1      39.189  31.511  33.827  1.00  0.00     0.074 A 
ATOM     37  C   UNL A   1      37.909  32.129  33.547  1.00  0.00     0.031 C 
ATOM     38  C   UNL A   1      39.798  31.535  35.038  1.00  0.00     0.037 A 
BRANCH  25  39
ATOM     39  C   UNL A   1      45.190  28.517  35.203  1.00  0.00     0.057 A 
ATOM     40  C   UNL A   1      46.365  29.278  35.224  1.00  0.00     0.134 A 
ATOM     41  C   UNL A   1      45.178  27.324  35.940  1.00  0.00     0.134 A 
ATOM     42  F   UNL A   1      46.445  30.427  34.538  1.00  0.00    -0.206 F 
ATOM     43  C   UNL A   1      47.487  28.868  35.947  1.00  0.00     0.040 A 
ATOM     44  C   UNL A   1      46.286  26.915  36.683  1.00  0.00     0.040 A 
ATOM     45  F   UNL A   1      44.078  26.557  35.973  1.00  0.00    -0.206 F 
ATOM     46  C   UNL A   1      47.447  27.685  36.684  1.00  0.00     0.006 A 
ENDBRANCH  25  39
BRANCH  26  47
ATOM     47  C   UNL A   1      37.456  31.173  29.477  1.00  0.00     0.057 A 
ATOM     48  C   UNL A   1      37.402  32.438  28.880  1.00  0.00     0.134 A 
ATOM     49  C   UNL A   1      36.392  30.296  29.235  1.00  0.00     0.134 A 
ATOM     50  F   UNL A   1      38.388  33.324  29.078  1.00  0.00    -0.206 F 
ATOM     51  C   UNL A   1      36.328  32.818  28.073  1.00  0.00     0.040 A 
ATOM     52  C   UNL A   1      35.325  30.655  28.412  1.00  0.00     0.040 A 
ATOM     53  F   UNL A   1      36.399  29.065  29.768  1.00  0.00    -0.206 F 
ATOM     54  C   UNL A   1      35.290  31.922  27.832  1.00  0.00     0.006 A 
ENDBRANCH  26  47
BRANCH  38  55
ATOM     55  C   UNL A   1      39.084  32.267  36.134  1.00  0.00     0.057 A 
ATOM     56  C   UNL A   1      38.149  31.611  36.944  1.00  0.00     0.134 A 
ATOM     57  C   UNL A   1      39.331  33.621  36.396  1.00  0.00     0.134 A 
ATOM     58  F   UNL A   1      37.863  30.316  36.743  1.00  0.00    -0.206 F 
ATOM     59  C   UNL A   1      37.490  32.274  37.980  1.00  0.00     0.040 A 
ATOM     60  C   UNL A   1      38.697  34.289  37.445  1.00  0.00     0.040 A 
ATOM     61  F   UNL A   1      40.229  34.302  35.668  1.00  0.00    -0.206 F 
ATOM     62  C   UNL A   1      37.770  33.614  38.239  1.00  0.00     0.006 A 
ENDBRANCH  38  55
ENDBRANCH  12  13
ENDBRANCH   5   7
ENDBRANCH   2   3
ENDBRANCH   1   2
BRANCH   1  63
ATOM     63  C   UNL A   1      43.873  21.004  24.992  1.00  0.00     0.118 C 
BRANCH  63  64
ATOM     64  N   UNL A   1      43.815  19.758  25.745  1.00  0.00    -0.352 N 
ATOM     65  C   UNL A   1      42.779  19.231  26.470  1.00  0.00     0.251 C 
ATOM     66  H   UNL A   1      44.638  19.218  25.731  1.00  0.00     0.163 HD
ATOM     67  O   UNL A   1      42.953  18.260  27.199  1.00  0.00    -0.269 OA
BRANCH  65  68
ATOM     68  C   UNL A   1      41.454  19.866  26.391  1.00  0.00     0.041 A 
ATOM     69  C   UNL A   1      40.367  19.175  25.858  1.00  0.00     0.036 A 
ATOM     70  C   UNL A   1      41.307  21.172  26.851  1.00  0.00     0.020 A 
ATOM     71  C   UNL A   1      39.171  19.851  25.657  1.00  0.00     0.065 A 
ATOM     72  C   UNL A   1      40.083  21.838  26.693  1.00  0.00    -0.015 A 
ATOM     73  Cl  UNL A   1      37.874  18.997  24.891  1.00  0.00    -0.082 Cl
ATOM     74  C   UNL A   1      39.024  21.202  26.027  1.00  0.00     0.057 A 
ATOM     75  C   UNL A   1      39.911  23.207  27.283  1.00  0.00     0.049 C 
ATOM     76  N   UNL A   1      37.827  21.867  25.813  1.00  0.00    -0.376 N 
ATOM     77  C   UNL A   1      40.655  24.311  26.578  1.00  0.00    -0.023 C 
ATOM     78  C   UNL A   1      38.461  23.745  27.282  1.00  0.00     0.031 C 
ATOM     79  C   UNL A   1      37.732  23.307  25.983  1.00  0.00     0.114 C 
ATOM     80  H   UNL A   1      37.031  21.357  25.542  1.00  0.00     0.161 HD
ATOM     81  C   UNL A   1      39.977  25.463  26.658  1.00  0.00    -0.030 C 
ATOM     82  C   UNL A   1      38.697  25.265  27.408  1.00  0.00     0.034 C 
BRANCH  79  83
ATOM     83  C   UNL A   1      36.262  23.710  25.949  1.00  0.00    -0.025 A 
ATOM     84  C   UNL A   1      35.771  24.825  25.238  1.00  0.00     0.007 A 
ATOM     85  C   UNL A   1      35.348  22.942  26.673  1.00  0.00     0.007 A 
ATOM     86  C   UNL A   1      34.408  25.150  25.252  1.00  0.00     0.022 A 
ATOM     87  C   UNL A   1      33.991  23.232  26.642  1.00  0.00     0.022 A 
ATOM     88  C   UNL A   1      33.515  24.336  25.948  1.00  0.00     0.082 A 
BRANCH  88  89
ATOM     89  S   UNL A   1      31.780  24.728  25.935  1.00  0.00     0.243 S 
ATOM     90  O   UNL A   1      31.245  24.144  24.720  1.00  0.00    -0.207 OA
ATOM     91  O   UNL A   1      31.271  24.377  27.239  1.00  0.00    -0.207 OA
BRANCH  89  92
ATOM     92  N   UNL A   1      31.708  26.397  25.784  1.00  0.00    -0.193 NA
ATOM     93  C   UNL A   1      31.497  27.071  24.486  1.00  0.00     0.131 C 
ATOM     94  C   UNL A   1      31.905  27.291  26.939  1.00  0.00     0.131 C 
ATOM     95  C   UNL A   1      32.477  28.241  24.282  1.00  0.00     0.177 C 
ATOM     96  C   UNL A   1      32.948  28.360  26.606  1.00  0.00     0.177 C 
ATOM     97  O   UNL A   1      32.581  29.094  25.429  1.00  0.00    -0.379 OA
ENDBRANCH  89  92
ENDBRANCH  88  89
ENDBRANCH  79  83
ENDBRANCH  65  68
ENDBRANCH  63  64
ENDBRANCH   1  63
TORSDOF 13
ENDMDL
