MODEL 1
REMARK VINA RESULT:     -12.9      0.000      0.000
REMARK SMILES Cc1ccc2[nH]cc([C@@H](C(=O)NCCCNC(=O)c3ccc(-c4c5nc(c(-c6c(F)cccc6F)c6ccc([nH]6)c(-c6c(F)cccc6F)c6nc(c(-c7c(F)cccc7F)c7ccc4[nH]7)C=C6)C=C5)cc3)[NH+]3CCN(c4ccc(F)cc4)CC3)c2c1
REMARK SMILES IDX 14 1 13 2 12 3 10 4 11 5 9 7 8 8 1 9 2 10 3 11 87 12 4 13
REMARK SMILES IDX 86 14 5 15 6 16 7 17 73 19 74 20 85 21 75 23 84 24 76 25
REMARK SMILES IDX 77 26 78 27 83 28 79 29 82 30 80 31 81 32 15 33 16 34 17 35
REMARK SMILES IDX 18 37 19 38 20 39 72 40 21 41 71 42 22 43 23 44 24 45 65 46
REMARK SMILES IDX 25 47 70 48 64 49 66 50 26 51 69 52 63 53 62 54 27 56 53 57
REMARK SMILES IDX 36 58 52 59 37 60 40 61 51 62 67 63 38 64 39 65 50 67 68 68
REMARK SMILES IDX 41 69 28 70 29 71 34 72 30 73 31 74 33 75 35 76 32 77 54 78
REMARK SMILES IDX 55 79 60 80 56 81 57 82 59 83 61 84 58 85 42 86 43 87 48 88
REMARK SMILES IDX 44 89 45 90 47 91 49 92 46 93
REMARK H PARENT 12 6 6 18 73 22 16 36 66 55 40 66
REMARK Flexibility Score: inf
ROOT
ATOM      1  C   UNL A   1      32.702  28.050  25.727  1.00  0.00     0.042 C 
ENDROOT
BRANCH   1   2
ATOM      2  C   UNL A   1      33.701  26.897  25.761  1.00  0.00     0.118 C 
BRANCH   2   3
ATOM      3  N   UNL A   1      33.950  26.337  24.447  1.00  0.00    -0.351 N 
ATOM      4  C   UNL A   1      33.905  25.032  24.019  1.00  0.00     0.283 C 
ATOM      5  O   UNL A   1      34.220  24.852  22.839  1.00  0.00    -0.268 OA
ATOM      6  H   UNL A   1      34.189  26.993  23.754  1.00  0.00     0.163 HD
BRANCH   4   7
ATOM      7  C   UNL A   1      33.436  23.904  24.997  1.00  0.00     0.307 C 
BRANCH   7   8
ATOM      8  C   UNL A   1      34.340  22.698  24.959  1.00  0.00     0.044 A 
ATOM      9  C   UNL A   1      38.972  24.387  26.389  1.00  0.00     0.044 C 
ATOM     10  C   UNL A   1      37.988  23.313  26.021  1.00  0.00    -0.050 A 
ATOM     11  C   UNL A   1      38.401  21.988  25.863  1.00  0.00     0.005 A 
ATOM     12  C   UNL A   1      36.645  23.654  25.789  1.00  0.00     0.014 A 
ATOM     13  C   UNL A   1      37.512  20.993  25.445  1.00  0.00     0.027 A 
ATOM     14  C   UNL A   1      35.731  22.675  25.340  1.00  0.00     0.009 A 
ATOM     15  C   UNL A   1      36.195  21.373  25.164  1.00  0.00     0.046 A 
ATOM     16  N   UNL A   1      35.147  20.631  24.677  1.00  0.00    -0.361 N 
ATOM     17  C   UNL A   1      34.057  21.432  24.476  1.00  0.00     0.094 A 
ATOM     18  H   UNL A   1      35.176  19.663  24.500  1.00  0.00     0.166 HD
ENDBRANCH   7   8
BRANCH   7  19
ATOM     19  N   UNL A   1      31.994  23.581  24.865  1.00  0.00    -0.318 N 
ATOM     20  C   UNL A   1      31.040  24.152  25.829  1.00  0.00     0.284 C 
ATOM     21  C   UNL A   1      31.455  23.677  23.497  1.00  0.00     0.284 C 
ATOM     22  H   UNL A   1      32.056  22.598  25.132  1.00  0.00     0.349 HD
ATOM     23  C   UNL A   1      30.385  25.504  25.478  1.00  0.00     0.178 C 
ATOM     24  C   UNL A   1      30.879  25.050  23.073  1.00  0.00     0.178 C 
ATOM     25  N   UNL A   1      29.945  25.576  24.080  1.00  0.00    -0.360 N 
BRANCH  25  26
ATOM     26  C   UNL A   1      29.261  26.731  23.698  1.00  0.00     0.037 A 
ATOM     27  C   UNL A   1      29.912  27.848  23.148  1.00  0.00     0.029 A 
ATOM     28  C   UNL A   1      27.871  26.787  23.863  1.00  0.00     0.029 A 
ATOM     29  C   UNL A   1      29.200  28.999  22.806  1.00  0.00     0.041 A 
ATOM     30  C   UNL A   1      27.154  27.937  23.527  1.00  0.00     0.041 A 
ATOM     31  C   UNL A   1      27.827  29.036  23.007  1.00  0.00     0.123 A 
ATOM     32  F   UNL A   1      27.143  30.144  22.693  1.00  0.00    -0.207 F 
ENDBRANCH  25  26
ENDBRANCH   7  19
ENDBRANCH   4   7
ENDBRANCH   2   3
ENDBRANCH   1   2
BRANCH   1  33
ATOM     33  C   UNL A   1      33.250  29.342  25.132  1.00  0.00     0.118 C 
BRANCH  33  34
ATOM     34  N   UNL A   1      32.627  30.523  25.701  1.00  0.00    -0.352 N 
ATOM     35  C   UNL A   1      32.957  31.250  26.815  1.00  0.00     0.251 C 
ATOM     36  H   UNL A   1      31.842  30.855  25.208  1.00  0.00     0.163 HD
ATOM     37  O   UNL A   1      32.170  32.094  27.235  1.00  0.00    -0.269 OA
BRANCH  35  38
ATOM     38  C   UNL A   1      34.238  31.029  27.527  1.00  0.00     0.039 A 
ATOM     39  C   UNL A   1      34.493  29.757  28.049  1.00  0.00     0.014 A 
ATOM     40  C   UNL A   1      35.153  32.063  27.745  1.00  0.00     0.014 A 
ATOM     41  C   UNL A   1      35.675  29.514  28.752  1.00  0.00     0.010 A 
ATOM     42  C   UNL A   1      36.366  31.802  28.382  1.00  0.00     0.010 A 
ATOM     43  C   UNL A   1      36.632  30.529  28.906  1.00  0.00    -0.014 A 
BRANCH  43  44
ATOM     44  C   UNL A   1      37.907  30.259  29.620  1.00  0.00     0.031 A 
ATOM     45  C   UNL A   1      38.123  30.756  31.022  1.00  0.00     0.074 A 
ATOM     46  C   UNL A   1      38.886  29.583  28.988  1.00  0.00     0.049 A 
ATOM     47  N   UNL A   1      39.157  30.588  31.808  1.00  0.00    -0.248 NA
ATOM     48  C   UNL A   1      37.050  31.571  31.612  1.00  0.00     0.031 C 
ATOM     49  C   UNL A   1      38.826  29.106  27.605  1.00  0.00     0.029 A 
ATOM     50  N   UNL A   1      40.123  29.181  29.426  1.00  0.00    -0.354 N 
ATOM     51  C   UNL A   1      38.865  31.285  32.973  1.00  0.00     0.074 A 
ATOM     52  C   UNL A   1      37.581  31.920  32.774  1.00  0.00     0.031 C 
ATOM     53  C   UNL A   1      39.960  28.446  27.319  1.00  0.00     0.029 A 
ATOM     54  C   UNL A   1      40.834  28.472  28.489  1.00  0.00     0.049 A 
ATOM     55  H   UNL A   1      40.466  29.380  30.326  1.00  0.00     0.167 HD
ATOM     56  C   UNL A   1      39.590  31.367  34.115  1.00  0.00     0.037 A 
ATOM     57  C   UNL A   1      42.048  27.897  28.567  1.00  0.00     0.037 A 
ATOM     58  C   UNL A   1      40.854  30.711  34.322  1.00  0.00     0.049 A 
ATOM     59  C   UNL A   1      42.813  27.963  29.857  1.00  0.00     0.074 A 
ATOM     60  C   UNL A   1      41.632  30.676  35.467  1.00  0.00     0.029 A 
ATOM     61  N   UNL A   1      41.526  29.972  33.360  1.00  0.00    -0.354 N 
ATOM     62  N   UNL A   1      42.486  28.553  30.981  1.00  0.00    -0.248 NA
ATOM     63  C   UNL A   1      44.107  27.269  29.896  1.00  0.00     0.031 C 
ATOM     64  C   UNL A   1      42.794  29.947  35.185  1.00  0.00     0.029 A 
ATOM     65  C   UNL A   1      42.717  29.491  33.879  1.00  0.00     0.049 A 
ATOM     66  H   UNL A   1      41.205  29.813  32.443  1.00  0.00     0.167 HD
ATOM     67  C   UNL A   1      43.519  28.281  31.868  1.00  0.00     0.074 A 
ATOM     68  C   UNL A   1      44.477  27.462  31.155  1.00  0.00     0.031 C 
ATOM     69  C   UNL A   1      43.660  28.674  33.158  1.00  0.00     0.037 A 
BRANCH  56  70
ATOM     70  C   UNL A   1      39.026  32.199  35.231  1.00  0.00     0.057 A 
ATOM     71  C   UNL A   1      38.278  31.630  36.270  1.00  0.00     0.134 A 
ATOM     72  C   UNL A   1      39.257  33.580  35.283  1.00  0.00     0.134 A 
ATOM     73  F   UNL A   1      38.012  30.315  36.276  1.00  0.00    -0.206 F 
ATOM     74  C   UNL A   1      37.754  32.408  37.304  1.00  0.00     0.040 A 
ATOM     75  C   UNL A   1      38.760  34.364  36.325  1.00  0.00     0.040 A 
ATOM     76  F   UNL A   1      39.970  34.187  34.324  1.00  0.00    -0.206 F 
ATOM     77  C   UNL A   1      37.999  33.779  37.336  1.00  0.00     0.006 A 
ENDBRANCH  56  70
BRANCH  57  78
ATOM     78  C   UNL A   1      42.588  27.162  27.397  1.00  0.00     0.057 A 
ATOM     79  C   UNL A   1      43.315  27.824  26.403  1.00  0.00     0.134 A 
ATOM     80  C   UNL A   1      42.408  25.781  27.256  1.00  0.00     0.134 A 
ATOM     81  F   UNL A   1      43.508  29.150  26.476  1.00  0.00    -0.206 F 
ATOM     82  C   UNL A   1      43.834  27.144  25.300  1.00  0.00     0.040 A 
ATOM     83  C   UNL A   1      42.938  25.084  26.169  1.00  0.00     0.040 A 
ATOM     84  F   UNL A   1      41.729  25.088  28.182  1.00  0.00    -0.206 F 
ATOM     85  C   UNL A   1      43.650  25.766  25.184  1.00  0.00     0.006 A 
ENDBRANCH  57  78
BRANCH  69  86
ATOM     86  C   UNL A   1      44.880  28.197  33.888  1.00  0.00     0.057 A 
ATOM     87  C   UNL A   1      46.066  28.941  33.911  1.00  0.00     0.134 A 
ATOM     88  C   UNL A   1      44.858  26.990  34.597  1.00  0.00     0.134 A 
ATOM     89  F   UNL A   1      46.154  30.100  33.241  1.00  0.00    -0.206 F 
ATOM     90  C   UNL A   1      47.195  28.489  34.595  1.00  0.00     0.040 A 
ATOM     91  C   UNL A   1      45.974  26.539  35.304  1.00  0.00     0.040 A 
ATOM     92  F   UNL A   1      43.750  26.233  34.621  1.00  0.00    -0.206 F 
ATOM     93  C   UNL A   1      47.149  27.287  35.299  1.00  0.00     0.006 A 
ENDBRANCH  69  86
ENDBRANCH  43  44
ENDBRANCH  35  38
ENDBRANCH  33  34
ENDBRANCH   1  33
TORSDOF 13
ENDMDL
MODEL 2
REMARK VINA RESULT:     -12.8      2.504      6.937
REMARK SMILES Cc1ccc2[nH]cc([C@@H](C(=O)NCCCNC(=O)c3ccc(-c4c5nc(c(-c6c(F)cccc6F)c6ccc([nH]6)c(-c6c(F)cccc6F)c6nc(c(-c7c(F)cccc7F)c7ccc4[nH]7)C=C6)C=C5)cc3)[NH+]3CCN(c4ccc(F)cc4)CC3)c2c1
REMARK SMILES IDX 14 1 13 2 12 3 10 4 11 5 9 7 8 8 1 9 2 10 3 11 87 12 4 13
REMARK SMILES IDX 86 14 5 15 6 16 7 17 73 19 74 20 85 21 75 23 84 24 76 25
REMARK SMILES IDX 77 26 78 27 83 28 79 29 82 30 80 31 81 32 15 33 16 34 17 35
REMARK SMILES IDX 18 37 19 38 20 39 72 40 21 41 71 42 22 43 23 44 24 45 65 46
REMARK SMILES IDX 25 47 70 48 64 49 66 50 26 51 69 52 63 53 62 54 27 56 53 57
REMARK SMILES IDX 36 58 52 59 37 60 40 61 51 62 67 63 38 64 39 65 50 67 68 68
REMARK SMILES IDX 41 69 28 70 29 71 34 72 30 73 31 74 33 75 35 76 32 77 54 78
REMARK SMILES IDX 55 79 60 80 56 81 57 82 59 83 61 84 58 85 42 86 43 87 48 88
REMARK SMILES IDX 44 89 45 90 47 91 49 92 46 93
REMARK H PARENT 12 6 6 18 73 22 16 36 66 55 40 66
REMARK Flexibility Score: inf
ROOT
ATOM      1  C   UNL A   1      36.839  23.337  25.389  1.00  0.00     0.042 C 
ENDROOT
BRANCH   1   2
ATOM      2  C   UNL A   1      35.519  24.057  25.125  1.00  0.00     0.118 C 
BRANCH   2   3
ATOM      3  N   UNL A   1      34.902  23.651  23.877  1.00  0.00    -0.351 N 
ATOM      4  C   UNL A   1      34.033  24.331  23.058  1.00  0.00     0.283 C 
ATOM      5  O   UNL A   1      33.631  23.700  22.076  1.00  0.00    -0.268 OA
ATOM      6  H   UNL A   1      35.143  22.748  23.569  1.00  0.00     0.163 HD
BRANCH   4   7
ATOM      7  C   UNL A   1      33.653  25.814  23.381  1.00  0.00     0.307 C 
BRANCH   7   8
ATOM      8  C   UNL A   1      32.742  25.926  24.579  1.00  0.00     0.044 A 
ATOM      9  C   UNL A   1      34.450  29.961  27.254  1.00  0.00     0.044 C 
ATOM     10  C   UNL A   1      33.474  28.857  26.964  1.00  0.00    -0.050 A 
ATOM     11  C   UNL A   1      32.424  28.582  27.843  1.00  0.00     0.005 A 
ATOM     12  C   UNL A   1      33.647  28.061  25.819  1.00  0.00     0.014 A 
ATOM     13  C   UNL A   1      31.555  27.508  27.626  1.00  0.00     0.027 A 
ATOM     14  C   UNL A   1      32.801  26.953  25.589  1.00  0.00     0.009 A 
ATOM     15  C   UNL A   1      31.787  26.698  26.510  1.00  0.00     0.046 A 
ATOM     16  N   UNL A   1      31.145  25.554  26.100  1.00  0.00    -0.361 N 
ATOM     17  C   UNL A   1      31.761  25.041  24.992  1.00  0.00     0.094 A 
ATOM     18  H   UNL A   1      30.358  25.161  26.541  1.00  0.00     0.166 HD
ENDBRANCH   7   8
BRANCH   7  19
ATOM     19  N   UNL A   1      33.181  26.566  22.193  1.00  0.00    -0.318 N 
ATOM     20  C   UNL A   1      31.828  26.312  21.676  1.00  0.00     0.284 C 
ATOM     21  C   UNL A   1      33.451  28.014  22.222  1.00  0.00     0.284 C 
ATOM     22  H   UNL A   1      33.794  26.124  21.508  1.00  0.00     0.349 HD
ATOM     23  C   UNL A   1      30.674  27.182  22.218  1.00  0.00     0.178 C 
ATOM     24  C   UNL A   1      32.359  28.912  22.852  1.00  0.00     0.178 C 
ATOM     25  N   UNL A   1      31.029  28.603  22.307  1.00  0.00    -0.360 N 
BRANCH  25  26
ATOM     26  C   UNL A   1      30.015  29.476  22.705  1.00  0.00     0.037 A 
ATOM     27  C   UNL A   1      30.170  30.378  23.770  1.00  0.00     0.029 A 
ATOM     28  C   UNL A   1      28.794  29.461  22.018  1.00  0.00     0.029 A 
ATOM     29  C   UNL A   1      29.123  31.216  24.160  1.00  0.00     0.041 A 
ATOM     30  C   UNL A   1      27.742  30.294  22.407  1.00  0.00     0.041 A 
ATOM     31  C   UNL A   1      27.915  31.159  23.479  1.00  0.00     0.123 A 
ATOM     32  F   UNL A   1      26.905  31.952  23.860  1.00  0.00    -0.207 F 
ENDBRANCH  25  26
ENDBRANCH   7  19
ENDBRANCH   4   7
ENDBRANCH   2   3
ENDBRANCH   1   2
BRANCH   1  33
ATOM     33  C   UNL A   1      37.791  24.084  26.314  1.00  0.00     0.118 C 
BRANCH  33  34
ATOM     34  N   UNL A   1      39.174  23.684  26.128  1.00  0.00    -0.352 N 
ATOM     35  C   UNL A   1      40.334  24.273  26.558  1.00  0.00     0.251 C 
ATOM     36  H   UNL A   1      39.299  22.856  25.609  1.00  0.00     0.163 HD
ATOM     37  O   UNL A   1      41.408  23.880  26.111  1.00  0.00    -0.269 OA
BRANCH  35  38
ATOM     38  C   UNL A   1      40.315  25.382  27.541  1.00  0.00     0.039 A 
ATOM     39  C   UNL A   1      39.412  25.306  28.606  1.00  0.00     0.014 A 
ATOM     40  C   UNL A   1      41.117  26.517  27.394  1.00  0.00     0.014 A 
ATOM     41  C   UNL A   1      39.341  26.344  29.538  1.00  0.00     0.010 A 
ATOM     42  C   UNL A   1      41.099  27.519  28.364  1.00  0.00     0.010 A 
ATOM     43  C   UNL A   1      40.200  27.450  29.438  1.00  0.00    -0.014 A 
BRANCH  43  44
ATOM     44  C   UNL A   1      40.152  28.534  30.452  1.00  0.00     0.031 A 
ATOM     45  C   UNL A   1      39.145  29.645  30.341  1.00  0.00     0.074 A 
ATOM     46  C   UNL A   1      41.040  28.531  31.464  1.00  0.00     0.049 A 
ATOM     47  N   UNL A   1      38.937  30.655  31.149  1.00  0.00    -0.248 NA
ATOM     48  C   UNL A   1      38.273  29.638  29.157  1.00  0.00     0.031 C 
ATOM     49  C   UNL A   1      42.110  27.547  31.646  1.00  0.00     0.029 A 
ATOM     50  N   UNL A   1      41.186  29.382  32.530  1.00  0.00    -0.354 N 
ATOM     51  C   UNL A   1      37.925  31.406  30.565  1.00  0.00     0.074 A 
ATOM     52  C   UNL A   1      37.595  30.765  29.311  1.00  0.00     0.031 C 
ATOM     53  C   UNL A   1      42.778  27.831  32.774  1.00  0.00     0.029 A 
ATOM     54  C   UNL A   1      42.201  29.025  33.383  1.00  0.00     0.049 A 
ATOM     55  H   UNL A   1      40.615  30.171  32.671  1.00  0.00     0.167 HD
ATOM     56  C   UNL A   1      37.310  32.515  31.042  1.00  0.00     0.037 A 
ATOM     57  C   UNL A   1      42.612  29.590  34.534  1.00  0.00     0.037 A 
ATOM     58  C   UNL A   1      37.620  33.135  32.303  1.00  0.00     0.049 A 
ATOM     59  C   UNL A   1      41.886  30.791  35.066  1.00  0.00     0.074 A 
ATOM     60  C   UNL A   1      37.006  34.219  32.907  1.00  0.00     0.029 A 
ATOM     61  N   UNL A   1      38.632  32.723  33.157  1.00  0.00    -0.354 N 
ATOM     62  N   UNL A   1      40.874  31.441  34.545  1.00  0.00    -0.248 NA
ATOM     63  C   UNL A   1      42.348  31.328  36.354  1.00  0.00     0.031 C 
ATOM     64  C   UNL A   1      37.673  34.487  34.109  1.00  0.00     0.029 A 
ATOM     65  C   UNL A   1      38.672  33.542  34.274  1.00  0.00     0.049 A 
ATOM     66  H   UNL A   1      39.235  31.962  32.993  1.00  0.00     0.167 HD
ATOM     67  C   UNL A   1      40.560  32.445  35.451  1.00  0.00     0.074 A 
ATOM     68  C   UNL A   1      41.482  32.311  36.560  1.00  0.00     0.031 C 
ATOM     69  C   UNL A   1      39.594  33.393  35.371  1.00  0.00     0.037 A 
BRANCH  56  70
ATOM     70  C   UNL A   1      36.234  33.127  30.191  1.00  0.00     0.057 A 
ATOM     71  C   UNL A   1      36.534  34.005  29.141  1.00  0.00     0.134 A 
ATOM     72  C   UNL A   1      34.886  32.814  30.406  1.00  0.00     0.134 A 
ATOM     73  F   UNL A   1      37.804  34.354  28.888  1.00  0.00    -0.206 F 
ATOM     74  C   UNL A   1      35.530  34.573  28.355  1.00  0.00     0.040 A 
ATOM     75  C   UNL A   1      33.876  33.356  29.610  1.00  0.00     0.040 A 
ATOM     76  F   UNL A   1      34.530  31.976  31.390  1.00  0.00    -0.206 F 
ATOM     77  C   UNL A   1      34.196  34.245  28.585  1.00  0.00     0.006 A 
ENDBRANCH  56  70
BRANCH  57  78
ATOM     78  C   UNL A   1      43.740  28.986  35.285  1.00  0.00     0.057 A 
ATOM     79  C   UNL A   1      43.514  28.016  36.268  1.00  0.00     0.134 A 
ATOM     80  C   UNL A   1      45.067  29.347  35.025  1.00  0.00     0.134 A 
ATOM     81  F   UNL A   1      42.263  27.641  36.571  1.00  0.00    -0.206 F 
ATOM     82  C   UNL A   1      44.566  27.435  36.977  1.00  0.00     0.040 A 
ATOM     83  C   UNL A   1      46.131  28.759  35.712  1.00  0.00     0.040 A 
ATOM     84  F   UNL A   1      45.349  30.262  34.086  1.00  0.00    -0.206 F 
ATOM     85  C   UNL A   1      45.881  27.804  36.695  1.00  0.00     0.006 A 
ENDBRANCH  57  78
BRANCH  69  86
ATOM     86  C   UNL A   1      39.467  34.338  36.529  1.00  0.00     0.057 A 
ATOM     87  C   UNL A   1      38.708  34.020  37.663  1.00  0.00     0.134 A 
ATOM     88  C   UNL A   1      40.133  35.570  36.519  1.00  0.00     0.134 A 
ATOM     89  F   UNL A   1      38.037  32.861  37.728  1.00  0.00    -0.206 F 
ATOM     90  C   UNL A   1      38.597  34.906  38.736  1.00  0.00     0.040 A 
ATOM     91  C   UNL A   1      40.048  36.453  37.596  1.00  0.00     0.040 A 
ATOM     92  F   UNL A   1      40.881  35.931  35.466  1.00  0.00    -0.206 F 
ATOM     93  C   UNL A   1      39.273  36.124  38.707  1.00  0.00     0.006 A 
ENDBRANCH  69  86
ENDBRANCH  43  44
ENDBRANCH  35  38
ENDBRANCH  33  34
ENDBRANCH   1  33
TORSDOF 13
ENDMDL
MODEL 3
REMARK VINA RESULT:     -12.8      1.761      2.683
REMARK SMILES Cc1ccc2[nH]cc([C@@H](C(=O)NCCCNC(=O)c3ccc(-c4c5nc(c(-c6c(F)cccc6F)c6ccc([nH]6)c(-c6c(F)cccc6F)c6nc(c(-c7c(F)cccc7F)c7ccc4[nH]7)C=C6)C=C5)cc3)[NH+]3CCN(c4ccc(F)cc4)CC3)c2c1
REMARK SMILES IDX 14 1 13 2 12 3 10 4 11 5 9 7 8 8 1 9 2 10 3 11 87 12 4 13
REMARK SMILES IDX 86 14 5 15 6 16 7 17 73 19 74 20 85 21 75 23 84 24 76 25
REMARK SMILES IDX 77 26 78 27 83 28 79 29 82 30 80 31 81 32 15 33 16 34 17 35
REMARK SMILES IDX 18 37 19 38 20 39 72 40 21 41 71 42 22 43 23 44 24 45 65 46
REMARK SMILES IDX 25 47 70 48 64 49 66 50 26 51 69 52 63 53 62 54 27 56 53 57
REMARK SMILES IDX 36 58 52 59 37 60 40 61 51 62 67 63 38 64 39 65 50 67 68 68
REMARK SMILES IDX 41 69 28 70 29 71 34 72 30 73 31 74 33 75 35 76 32 77 54 78
REMARK SMILES IDX 55 79 60 80 56 81 57 82 59 83 61 84 58 85 42 86 43 87 48 88
REMARK SMILES IDX 44 89 45 90 47 91 49 92 46 93
REMARK H PARENT 12 6 6 18 73 22 16 36 66 55 40 66
REMARK Flexibility Score: inf
ROOT
ATOM      1  C   UNL A   1      33.039  28.436  26.120  1.00  0.00     0.042 C 
ENDROOT
BRANCH   1   2
ATOM      2  C   UNL A   1      33.435  26.962  26.096  1.00  0.00     0.118 C 
BRANCH   2   3
ATOM      3  N   UNL A   1      33.733  26.486  24.759  1.00  0.00    -0.351 N 
ATOM      4  C   UNL A   1      33.643  25.221  24.231  1.00  0.00     0.283 C 
ATOM      5  O   UNL A   1      34.020  25.110  23.060  1.00  0.00    -0.268 OA
ATOM      6  H   UNL A   1      34.048  27.177  24.133  1.00  0.00     0.163 HD
BRANCH   4   7
ATOM      7  C   UNL A   1      33.056  24.054  25.092  1.00  0.00     0.307 C 
BRANCH   7   8
ATOM      8  C   UNL A   1      33.861  22.784  24.964  1.00  0.00     0.044 A 
ATOM      9  C   UNL A   1      38.682  24.066  26.172  1.00  0.00     0.044 C 
ATOM     10  C   UNL A   1      37.599  23.084  25.830  1.00  0.00    -0.050 A 
ATOM     11  C   UNL A   1      37.898  21.738  25.607  1.00  0.00     0.005 A 
ATOM     12  C   UNL A   1      36.275  23.533  25.687  1.00  0.00     0.014 A 
ATOM     13  C   UNL A   1      36.912  20.829  25.211  1.00  0.00     0.027 A 
ATOM     14  C   UNL A   1      35.264  22.643  25.262  1.00  0.00     0.009 A 
ATOM     15  C   UNL A   1      35.615  21.316  25.020  1.00  0.00     0.046 A 
ATOM     16  N   UNL A   1      34.487  20.673  24.573  1.00  0.00    -0.361 N 
ATOM     17  C   UNL A   1      33.453  21.561  24.460  1.00  0.00     0.094 A 
ATOM     18  H   UNL A   1      34.431  19.713  24.364  1.00  0.00     0.166 HD
ENDBRANCH   7   8
BRANCH   7  19
ATOM     19  N   UNL A   1      31.597  23.865  24.898  1.00  0.00    -0.318 N 
ATOM     20  C   UNL A   1      30.661  24.518  25.827  1.00  0.00     0.284 C 
ATOM     21  C   UNL A   1      31.125  24.015  23.511  1.00  0.00     0.284 C 
ATOM     22  H   UNL A   1      31.558  22.880  25.161  1.00  0.00     0.349 HD
ATOM     23  C   UNL A   1      30.147  25.926  25.460  1.00  0.00     0.178 C 
ATOM     24  C   UNL A   1      30.696  25.437  23.074  1.00  0.00     0.178 C 
ATOM     25  N   UNL A   1      29.774  26.042  24.045  1.00  0.00    -0.360 N 
BRANCH  25  26
ATOM     26  C   UNL A   1      29.215  27.257  23.644  1.00  0.00     0.037 A 
ATOM     27  C   UNL A   1      29.997  28.361  23.269  1.00  0.00     0.029 A 
ATOM     28  C   UNL A   1      27.821  27.387  23.609  1.00  0.00     0.029 A 
ATOM     29  C   UNL A   1      29.404  29.571  22.903  1.00  0.00     0.041 A 
ATOM     30  C   UNL A   1      27.222  28.596  23.247  1.00  0.00     0.041 A 
ATOM     31  C   UNL A   1      28.020  29.680  22.904  1.00  0.00     0.123 A 
ATOM     32  F   UNL A   1      27.449  30.843  22.567  1.00  0.00    -0.207 F 
ENDBRANCH  25  26
ENDBRANCH   7  19
ENDBRANCH   4   7
ENDBRANCH   2   3
ENDBRANCH   1   2
BRANCH   1  33
ATOM     33  C   UNL A   1      34.214  29.404  26.145  1.00  0.00     0.118 C 
BRANCH  33  34
ATOM     34  N   UNL A   1      33.920  30.615  26.891  1.00  0.00    -0.352 N 
ATOM     35  C   UNL A   1      34.546  31.159  27.982  1.00  0.00     0.251 C 
ATOM     36  H   UNL A   1      33.146  31.127  26.560  1.00  0.00     0.163 HD
ATOM     37  O   UNL A   1      34.005  32.082  28.585  1.00  0.00    -0.269 OA
BRANCH  35  38
ATOM     38  C   UNL A   1      35.854  30.647  28.453  1.00  0.00     0.039 A 
ATOM     39  C   UNL A   1      35.862  29.691  29.474  1.00  0.00     0.014 A 
ATOM     40  C   UNL A   1      37.065  31.137  27.955  1.00  0.00     0.014 A 
ATOM     41  C   UNL A   1      37.074  29.204  29.967  1.00  0.00     0.010 A 
ATOM     42  C   UNL A   1      38.274  30.597  28.395  1.00  0.00     0.010 A 
ATOM     43  C   UNL A   1      38.291  29.637  29.416  1.00  0.00    -0.014 A 
BRANCH  43  44
ATOM     44  C   UNL A   1      39.579  29.089  29.914  1.00  0.00     0.031 A 
ATOM     45  C   UNL A   1      40.220  29.641  31.156  1.00  0.00     0.074 A 
ATOM     46  C   UNL A   1      40.188  28.105  29.223  1.00  0.00     0.049 A 
ATOM     47  N   UNL A   1      41.324  29.265  31.753  1.00  0.00    -0.248 NA
ATOM     48  C   UNL A   1      39.550  30.780  31.802  1.00  0.00     0.031 C 
ATOM     49  C   UNL A   1      39.703  27.530  27.967  1.00  0.00     0.029 A 
ATOM     50  N   UNL A   1      41.345  27.414  29.481  1.00  0.00    -0.354 N 
ATOM     51  C   UNL A   1      41.486  30.127  32.830  1.00  0.00     0.074 A 
ATOM     52  C   UNL A   1      40.395  31.076  32.777  1.00  0.00     0.031 C 
ATOM     53  C   UNL A   1      40.538  26.552  27.582  1.00  0.00     0.029 A 
ATOM     54  C   UNL A   1      41.625  26.445  28.550  1.00  0.00     0.049 A 
ATOM     55  H   UNL A   1      41.919  27.596  30.260  1.00  0.00     0.167 HD
ATOM     56  C   UNL A   1      42.441  30.113  33.791  1.00  0.00     0.037 A 
ATOM     57  C   UNL A   1      42.638  25.560  28.490  1.00  0.00     0.037 A 
ATOM     58  C   UNL A   1      43.509  29.150  33.859  1.00  0.00     0.049 A 
ATOM     59  C   UNL A   1      43.660  25.534  29.589  1.00  0.00     0.074 A 
ATOM     60  C   UNL A   1      44.485  29.009  34.830  1.00  0.00     0.029 A 
ATOM     61  N   UNL A   1      43.739  28.160  32.915  1.00  0.00    -0.354 N 
ATOM     62  N   UNL A   1      43.752  26.300  30.648  1.00  0.00    -0.248 NA
ATOM     63  C   UNL A   1      44.709  24.509  29.494  1.00  0.00     0.031 C 
ATOM     64  C   UNL A   1      45.329  27.957  34.454  1.00  0.00     0.029 A 
ATOM     65  C   UNL A   1      44.851  27.415  33.272  1.00  0.00     0.049 A 
ATOM     66  H   UNL A   1      43.193  28.009  32.110  1.00  0.00     0.167 HD
ATOM     67  C   UNL A   1      44.851  25.836  31.359  1.00  0.00     0.074 A 
ATOM     68  C   UNL A   1      45.384  24.713  30.617  1.00  0.00     0.031 C 
ATOM     69  C   UNL A   1      45.369  26.298  32.524  1.00  0.00     0.037 A 
BRANCH  56  70
ATOM     70  C   UNL A   1      42.371  31.176  34.849  1.00  0.00     0.057 A 
ATOM     71  C   UNL A   1      43.024  32.406  34.704  1.00  0.00     0.134 A 
ATOM     72  C   UNL A   1      41.618  30.978  36.014  1.00  0.00     0.134 A 
ATOM     73  F   UNL A   1      43.771  32.656  33.618  1.00  0.00    -0.206 F 
ATOM     74  C   UNL A   1      42.958  33.390  35.692  1.00  0.00     0.040 A 
ATOM     75  C   UNL A   1      41.523  31.965  36.997  1.00  0.00     0.040 A 
ATOM     76  F   UNL A   1      40.962  29.826  36.214  1.00  0.00    -0.206 F 
ATOM     77  C   UNL A   1      42.200  33.172  36.841  1.00  0.00     0.006 A 
ENDBRANCH  56  70
BRANCH  57  78
ATOM     78  C   UNL A   1      42.699  24.591  27.368  1.00  0.00     0.057 A 
ATOM     79  C   UNL A   1      43.335  24.919  26.166  1.00  0.00     0.134 A 
ATOM     80  C   UNL A   1      42.143  23.311  27.478  1.00  0.00     0.134 A 
ATOM     81  F   UNL A   1      43.873  26.135  25.997  1.00  0.00    -0.206 F 
ATOM     82  C   UNL A   1      43.405  24.014  25.105  1.00  0.00     0.040 A 
ATOM     83  C   UNL A   1      42.223  22.389  26.434  1.00  0.00     0.040 A 
ATOM     84  F   UNL A   1      41.530  22.934  28.610  1.00  0.00    -0.206 F 
ATOM     85  C   UNL A   1      42.851  22.741  25.241  1.00  0.00     0.006 A 
ENDBRANCH  57  78
BRANCH  69  86
ATOM     86  C   UNL A   1      46.556  25.569  33.080  1.00  0.00     0.057 A 
ATOM     87  C   UNL A   1      46.414  24.495  33.968  1.00  0.00     0.134 A 
ATOM     88  C   UNL A   1      47.855  25.931  32.701  1.00  0.00     0.134 A 
ATOM     89  F   UNL A   1      45.198  24.109  34.378  1.00  0.00    -0.206 F 
ATOM     90  C   UNL A   1      47.525  23.822  34.479  1.00  0.00     0.040 A 
ATOM     91  C   UNL A   1      48.972  25.250  33.188  1.00  0.00     0.040 A 
ATOM     92  F   UNL A   1      48.058  26.946  31.848  1.00  0.00    -0.206 F 
ATOM     93  C   UNL A   1      48.809  24.196  34.084  1.00  0.00     0.006 A 
ENDBRANCH  69  86
ENDBRANCH  43  44
ENDBRANCH  35  38
ENDBRANCH  33  34
ENDBRANCH   1  33
TORSDOF 13
ENDMDL
