MODEL 1
REMARK VINA RESULT:     -12.2      0.000      0.000
REMARK SMILES C=C[C@@H]1[C@@H](O)C[C@@H]2[C@@]3(CC[C@@]4(C)[C@@H]([C@H](C)CCC=C(C)C)CC[C@@]24C)C[C@@]13CCC(=O)NCCCNC(=O)c1ccc(-c2c3nc(c(-c4c(F)cccc4F)c4ccc([nH]4)c(-c4c(F)cccc4F)c4nc(c(-c5c(F)cccc5F)c5ccc2[nH]5)C=C4)C=C3)cc1
REMARK SMILES IDX 30 1 31 2 32 3 29 5 28 6 27 7 3 8 4 9 6 10 8 11 26 12 7 13
REMARK SMILES IDX 9 14 24 15 10 16 11 17 23 18 25 19 12 20 13 21 22 22 2 23
REMARK SMILES IDX 1 24 5 25 14 27 15 28 16 29 17 30 18 31 19 32 20 33 21 34
REMARK SMILES IDX 33 35 34 36 35 37 36 38 37 39 38 41 39 42 40 43 92 44 41 45
REMARK SMILES IDX 91 46 42 47 43 48 44 49 85 50 45 51 90 52 84 53 86 54 46 55
REMARK SMILES IDX 89 56 83 57 82 58 47 60 73 61 56 62 72 63 57 64 60 65 71 66
REMARK SMILES IDX 87 67 58 68 59 69 70 71 88 72 61 73 48 74 49 75 54 76 50 77
REMARK SMILES IDX 51 78 53 79 55 80 52 81 74 82 75 83 80 84 76 85 77 86 79 87
REMARK SMILES IDX 81 88 78 89 62 90 63 91 68 92 64 93 65 94 67 95 69 96 66 97
REMARK H PARENT 32 4 5 26 36 40 86 59 60 70
REMARK Flexibility Score: inf
ROOT
ATOM      1  C   UNL A   1      42.746  41.812  24.641  1.00  0.00     0.220 C 
ATOM      2  O   UNL A   1      42.969  42.058  23.476  1.00  0.00    -0.275 OA
ATOM      3  N   UNL A   1      41.498  41.432  25.037  1.00  0.00    -0.356 N 
ATOM      4  H   UNL A   1      40.799  41.599  24.365  1.00  0.00     0.163 HD
ENDROOT
BRANCH   1   5
ATOM      5  C   UNL A   1      43.807  41.844  25.690  1.00  0.00     0.100 C 
BRANCH   5   6
ATOM      6  C   UNL A   1      44.402  43.234  25.804  1.00  0.00     0.018 C 
BRANCH   6   7
ATOM      7  C   UNL A   1      45.943  43.304  25.666  1.00  0.00    -0.014 C 
ATOM      8  C   UNL A   1      46.706  44.337  27.089  1.00  0.00     0.047 C 
ATOM      9  C   UNL A   1      47.993  45.673  26.616  1.00  0.00     0.122 C 
ATOM     10  C   UNL A   1      48.723  45.848  24.846  1.00  0.00     0.037 C 
ATOM     11  C   UNL A   1      46.821  43.187  23.921  1.00  0.00    -0.019 C 
ATOM     12  C   UNL A   1      46.547  42.071  25.149  1.00  0.00     0.016 C 
ATOM     13  C   UNL A   1      48.029  44.690  23.396  1.00  0.00     0.005 C 
ATOM     14  C   UNL A   1      46.356  42.489  22.677  1.00  0.00     0.008 C 
ATOM     15  C   UNL A   1      48.967  44.586  22.140  1.00  0.00    -0.023 C 
ATOM     16  C   UNL A   1      47.402  42.356  21.597  1.00  0.00     0.008 C 
ATOM     17  C   UNL A   1      48.273  43.544  21.072  1.00  0.00    -0.024 C 
ATOM     18  C   UNL A   1      49.211  45.732  21.090  1.00  0.00     0.008 C 
ATOM     19  C   UNL A   1      50.328  45.019  22.826  1.00  0.00     0.012 C 
ATOM     20  C   UNL A   1      49.286  42.821  20.145  1.00  0.00     0.012 C 
ATOM     21  C   UNL A   1      47.419  44.475  20.049  1.00  0.00    -0.002 C 
ATOM     22  C   UNL A   1      48.310  45.695  19.910  1.00  0.00     0.005 C 
BRANCH   8  23
ATOM     23  C   UNL A   1      45.653  44.967  28.024  1.00  0.00    -0.028 C 
ATOM     24  C   UNL A   1      45.208  44.477  29.195  1.00  0.00     0.004 C 
ENDBRANCH   8  23
BRANCH   9  25
ATOM     25  O   UNL A   1      49.086  45.607  27.551  1.00  0.00    -0.392 OA
ATOM     26  H   UNL A   1      48.867  44.985  28.262  1.00  0.00     0.210 HD
ENDBRANCH   9  25
BRANCH  21  27
ATOM     27  C   UNL A   1      45.968  44.957  20.321  1.00  0.00    -0.010 C 
ATOM     28  C   UNL A   1      44.850  44.234  19.559  1.00  0.00     0.008 C 
BRANCH  27  29
ATOM     29  C   UNL A   1      45.737  46.480  20.068  1.00  0.00     0.008 C 
BRANCH  29  30
ATOM     30  C   UNL A   1      44.464  46.712  19.241  1.00  0.00     0.027 C 
BRANCH  30  31
ATOM     31  C   UNL A   1      44.633  47.737  18.140  1.00  0.00    -0.028 C 
ATOM     32  C   UNL A   1      44.511  49.070  18.295  1.00  0.00    -0.080 C 
ATOM     33  C   UNL A   1      44.734  50.024  17.154  1.00  0.00     0.039 C 
ATOM     34  C   UNL A   1      44.181  49.713  19.614  1.00  0.00     0.039 C 
ENDBRANCH  30  31
ENDBRANCH  29  30
ENDBRANCH  27  29
ENDBRANCH  21  27
ENDBRANCH   6   7
ENDBRANCH   5   6
ENDBRANCH   1   5
BRANCH   3  35
ATOM     35  C   UNL A   1      40.962  40.783  26.352  1.00  0.00     0.117 C 
BRANCH  35  36
ATOM     36  C   UNL A   1      41.851  39.760  27.974  1.00  0.00     0.042 C 
BRANCH  36  37
ATOM     37  C   UNL A   1      42.596  38.138  28.419  1.00  0.00     0.118 C 
BRANCH  37  38
ATOM     38  N   UNL A   1      43.912  37.442  28.219  1.00  0.00    -0.352 N 
ATOM     39  C   UNL A   1      44.821  36.786  29.066  1.00  0.00     0.251 C 
ATOM     40  H   UNL A   1      44.203  37.445  27.279  1.00  0.00     0.163 HD
ATOM     41  O   UNL A   1      45.913  37.117  29.514  1.00  0.00    -0.269 OA
BRANCH  39  42
ATOM     42  C   UNL A   1      44.890  35.375  28.957  1.00  0.00     0.039 A 
ATOM     43  C   UNL A   1      45.248  34.586  30.037  1.00  0.00     0.014 A 
ATOM     44  C   UNL A   1      44.674  34.899  27.677  1.00  0.00     0.014 A 
ATOM     45  C   UNL A   1      45.107  33.238  29.861  1.00  0.00     0.010 A 
ATOM     46  C   UNL A   1      44.266  33.630  27.575  1.00  0.00     0.010 A 
ATOM     47  C   UNL A   1      44.496  32.807  28.674  1.00  0.00    -0.014 A 
BRANCH  47  48
ATOM     48  C   UNL A   1      43.999  31.468  28.513  1.00  0.00     0.031 A 
ATOM     49  C   UNL A   1      42.667  31.178  29.101  1.00  0.00     0.074 A 
ATOM     50  C   UNL A   1      44.893  30.585  28.050  1.00  0.00     0.049 A 
ATOM     51  N   UNL A   1      42.110  30.023  29.293  1.00  0.00    -0.248 NA
ATOM     52  C   UNL A   1      41.910  32.321  29.664  1.00  0.00     0.031 C 
ATOM     53  C   UNL A   1      46.271  30.886  27.622  1.00  0.00     0.029 A 
ATOM     54  N   UNL A   1      44.771  29.252  27.849  1.00  0.00    -0.354 N 
ATOM     55  C   UNL A   1      40.960  30.305  30.008  1.00  0.00     0.074 A 
ATOM     56  C   UNL A   1      40.979  31.700  30.365  1.00  0.00     0.031 C 
ATOM     57  C   UNL A   1      46.819  29.781  27.098  1.00  0.00     0.029 A 
ATOM     58  C   UNL A   1      45.854  28.703  27.216  1.00  0.00     0.049 A 
ATOM     59  H   UNL A   1      43.984  28.730  28.128  1.00  0.00     0.167 HD
ATOM     60  C   UNL A   1      39.939  29.461  30.253  1.00  0.00     0.037 A 
ATOM     61  C   UNL A   1      45.990  27.451  26.761  1.00  0.00     0.037 A 
ATOM     62  C   UNL A   1      39.975  28.111  29.773  1.00  0.00     0.049 A 
ATOM     63  C   UNL A   1      44.806  26.552  26.974  1.00  0.00     0.074 A 
ATOM     64  C   UNL A   1      39.017  27.128  29.862  1.00  0.00     0.029 A 
ATOM     65  N   UNL A   1      41.055  27.573  29.074  1.00  0.00    -0.354 N 
ATOM     66  N   UNL A   1      43.670  26.815  27.583  1.00  0.00    -0.248 NA
ATOM     67  C   UNL A   1      44.908  25.200  26.434  1.00  0.00     0.031 C 
ATOM     68  C   UNL A   1      39.532  25.984  29.242  1.00  0.00     0.029 A 
ATOM     69  C   UNL A   1      40.793  26.267  28.725  1.00  0.00     0.049 A 
ATOM     70  H   UNL A   1      41.886  28.057  28.861  1.00  0.00     0.167 HD
ATOM     71  C   UNL A   1      42.904  25.669  27.483  1.00  0.00     0.074 A 
ATOM     72  C   UNL A   1      43.709  24.717  26.731  1.00  0.00     0.031 C 
ATOM     73  C   UNL A   1      41.662  25.402  27.962  1.00  0.00     0.037 A 
BRANCH  60  74
ATOM     74  C   UNL A   1      38.768  30.011  31.005  1.00  0.00     0.057 A 
ATOM     75  C   UNL A   1      38.640  29.863  32.397  1.00  0.00     0.134 A 
ATOM     76  C   UNL A   1      37.711  30.624  30.327  1.00  0.00     0.134 A 
ATOM     77  F   UNL A   1      39.599  29.248  33.108  1.00  0.00    -0.206 F 
ATOM     78  C   UNL A   1      37.486  30.260  33.075  1.00  0.00     0.040 A 
ATOM     79  C   UNL A   1      36.567  31.060  30.999  1.00  0.00     0.040 A 
ATOM     80  F   UNL A   1      37.756  30.782  28.995  1.00  0.00    -0.206 F 
ATOM     81  C   UNL A   1      36.447  30.866  32.374  1.00  0.00     0.006 A 
ENDBRANCH  60  74
BRANCH  61  82
ATOM     82  C   UNL A   1      47.199  27.056  26.006  1.00  0.00     0.057 A 
ATOM     83  C   UNL A   1      47.297  27.294  24.631  1.00  0.00     0.134 A 
ATOM     84  C   UNL A   1      48.310  26.485  26.640  1.00  0.00     0.134 A 
ATOM     85  F   UNL A   1      46.277  27.861  23.970  1.00  0.00    -0.206 F 
ATOM     86  C   UNL A   1      48.436  26.941  23.905  1.00  0.00     0.040 A 
ATOM     87  C   UNL A   1      49.465  26.149  25.932  1.00  0.00     0.040 A 
ATOM     88  F   UNL A   1      48.300  26.273  27.965  1.00  0.00    -0.206 F 
ATOM     89  C   UNL A   1      49.525  26.366  24.557  1.00  0.00     0.006 A 
ENDBRANCH  61  82
BRANCH  73  90
ATOM     90  C   UNL A   1      41.125  24.045  27.650  1.00  0.00     0.057 A 
ATOM     91  C   UNL A   1      40.174  23.851  26.642  1.00  0.00     0.134 A 
ATOM     92  C   UNL A   1      41.613  22.922  28.327  1.00  0.00     0.134 A 
ATOM     93  F   UNL A   1      39.667  24.898  25.973  1.00  0.00    -0.206 F 
ATOM     94  C   UNL A   1      39.702  22.578  26.337  1.00  0.00     0.040 A 
ATOM     95  C   UNL A   1      41.175  21.643  28.005  1.00  0.00     0.040 A 
ATOM     96  F   UNL A   1      42.538  23.054  29.291  1.00  0.00    -0.206 F 
ATOM     97  C   UNL A   1      40.211  21.470  27.012  1.00  0.00     0.006 A 
ENDBRANCH  73  90
ENDBRANCH  47  48
ENDBRANCH  39  42
ENDBRANCH  37  38
ENDBRANCH  36  37
ENDBRANCH  35  36
ENDBRANCH   3  35
TORSDOF 18
ENDMDL
MODEL 2
REMARK VINA RESULT:     -12.1      4.884     10.534
REMARK SMILES C=C[C@@H]1[C@@H](O)C[C@@H]2[C@@]3(CC[C@@]4(C)[C@@H]([C@H](C)CCC=C(C)C)CC[C@@]24C)C[C@@]13CCC(=O)NCCCNC(=O)c1ccc(-c2c3nc(c(-c4c(F)cccc4F)c4ccc([nH]4)c(-c4c(F)cccc4F)c4nc(c(-c5c(F)cccc5F)c5ccc2[nH]5)C=C4)C=C3)cc1
REMARK SMILES IDX 30 1 31 2 32 3 29 5 28 6 27 7 3 8 4 9 6 10 8 11 26 12 7 13
REMARK SMILES IDX 9 14 24 15 10 16 11 17 23 18 25 19 12 20 13 21 22 22 2 23
REMARK SMILES IDX 1 24 5 25 14 27 15 28 16 29 17 30 18 31 19 32 20 33 21 34
REMARK SMILES IDX 33 35 34 36 35 37 36 38 37 39 38 41 39 42 40 43 92 44 41 45
REMARK SMILES IDX 91 46 42 47 43 48 44 49 85 50 45 51 90 52 84 53 86 54 46 55
REMARK SMILES IDX 89 56 83 57 82 58 47 60 73 61 56 62 72 63 57 64 60 65 71 66
REMARK SMILES IDX 87 67 58 68 59 69 70 71 88 72 61 73 48 74 49 75 54 76 50 77
REMARK SMILES IDX 51 78 53 79 55 80 52 81 74 82 75 83 80 84 76 85 77 86 79 87
REMARK SMILES IDX 81 88 78 89 62 90 63 91 68 92 64 93 65 94 67 95 69 96 66 97
REMARK H PARENT 32 4 5 26 36 40 86 59 60 70
REMARK Flexibility Score: inf
ROOT
ATOM      1  C   UNL A   1      49.194  45.274  23.044  1.00  0.00     0.220 C 
ATOM      2  O   UNL A   1      50.308  45.195  22.575  1.00  0.00    -0.275 OA
ATOM      3  N   UNL A   1      48.923  44.737  24.268  1.00  0.00    -0.356 N 
ATOM      4  H   UNL A   1      49.617  44.121  24.594  1.00  0.00     0.163 HD
ENDROOT
BRANCH   1   5
ATOM      5  C   UNL A   1      48.081  45.998  22.363  1.00  0.00     0.100 C 
BRANCH   5   6
ATOM      6  C   UNL A   1      47.625  45.238  21.133  1.00  0.00     0.018 C 
BRANCH   6   7
ATOM      7  C   UNL A   1      46.114  45.353  20.811  1.00  0.00    -0.014 C 
ATOM      8  C   UNL A   1      45.418  43.672  20.208  1.00  0.00     0.047 C 
ATOM      9  C   UNL A   1      44.338  43.682  18.627  1.00  0.00     0.122 C 
ATOM     10  C   UNL A   1      43.727  45.297  17.783  1.00  0.00     0.037 C 
ATOM     11  C   UNL A   1      45.318  47.043  20.227  1.00  0.00    -0.019 C 
ATOM     12  C   UNL A   1      45.384  46.254  21.711  1.00  0.00     0.016 C 
ATOM     13  C   UNL A   1      44.340  47.046  18.484  1.00  0.00     0.005 C 
ATOM     14  C   UNL A   1      45.752  48.445  20.535  1.00  0.00     0.008 C 
ATOM     15  C   UNL A   1      43.461  48.270  18.040  1.00  0.00    -0.023 C 
ATOM     16  C   UNL A   1      44.754  49.515  20.161  1.00  0.00     0.008 C 
ATOM     17  C   UNL A   1      44.070  49.619  18.759  1.00  0.00    -0.024 C 
ATOM     18  C   UNL A   1      43.419  48.881  16.591  1.00  0.00     0.008 C 
ATOM     19  C   UNL A   1      42.134  47.487  17.674  1.00  0.00     0.012 C 
ATOM     20  C   UNL A   1      43.021  50.739  18.991  1.00  0.00     0.012 C 
ATOM     21  C   UNL A   1      45.086  50.270  17.670  1.00  0.00    -0.002 C 
ATOM     22  C   UNL A   1      44.366  50.002  16.362  1.00  0.00     0.005 C 
BRANCH   8  23
ATOM     23  C   UNL A   1      46.494  42.575  20.070  1.00  0.00    -0.028 C 
ATOM     24  C   UNL A   1      46.876  41.688  21.007  1.00  0.00     0.004 C 
ENDBRANCH   8  23
BRANCH   9  25
ATOM     25  O   UNL A   1      43.200  42.827  18.845  1.00  0.00    -0.392 OA
ATOM     26  H   UNL A   1      42.387  43.306  18.619  1.00  0.00     0.210 HD
ENDBRANCH   9  25
BRANCH  21  27
ATOM     27  C   UNL A   1      46.571  49.846  17.508  1.00  0.00    -0.010 C 
ATOM     28  C   UNL A   1      47.620  50.748  18.172  1.00  0.00     0.008 C 
BRANCH  27  29
ATOM     29  C   UNL A   1      47.035  49.676  16.027  1.00  0.00     0.008 C 
BRANCH  29  30
ATOM     30  C   UNL A   1      47.613  48.273  15.790  1.00  0.00     0.027 C 
BRANCH  30  31
ATOM     31  C   UNL A   1      48.640  47.857  16.822  1.00  0.00    -0.028 C 
ATOM     32  C   UNL A   1      48.591  46.727  17.554  1.00  0.00    -0.080 C 
ATOM     33  C   UNL A   1      49.676  46.370  18.533  1.00  0.00     0.039 C 
ATOM     34  C   UNL A   1      47.481  45.721  17.430  1.00  0.00     0.039 C 
ENDBRANCH  30  31
ENDBRANCH  29  30
ENDBRANCH  27  29
ENDBRANCH  21  27
ENDBRANCH   6   7
ENDBRANCH   5   6
ENDBRANCH   1   5
BRANCH   3  35
ATOM     35  C   UNL A   1      47.723  44.912  25.252  1.00  0.00     0.117 C 
BRANCH  35  36
ATOM     36  C   UNL A   1      45.626  45.043  25.030  1.00  0.00     0.042 C 
BRANCH  36  37
ATOM     37  C   UNL A   1      44.201  44.169  24.262  1.00  0.00     0.118 C 
BRANCH  37  38
ATOM     38  N   UNL A   1      43.077  43.286  24.721  1.00  0.00    -0.352 N 
ATOM     39  C   UNL A   1      42.675  41.970  24.438  1.00  0.00     0.251 C 
ATOM     40  H   UNL A   1      42.486  43.732  25.370  1.00  0.00     0.163 HD
ATOM     41  O   UNL A   1      41.761  41.517  23.759  1.00  0.00    -0.269 OA
BRANCH  39  42
ATOM     42  C   UNL A   1      42.874  41.009  25.460  1.00  0.00     0.039 A 
ATOM     43  C   UNL A   1      44.134  40.517  25.751  1.00  0.00     0.014 A 
ATOM     44  C   UNL A   1      41.704  40.556  26.040  1.00  0.00     0.014 A 
ATOM     45  C   UNL A   1      44.224  39.733  26.867  1.00  0.00     0.010 A 
ATOM     46  C   UNL A   1      41.809  40.037  27.268  1.00  0.00     0.010 A 
ATOM     47  C   UNL A   1      43.076  39.623  27.666  1.00  0.00    -0.014 A 
BRANCH  47  48
ATOM     48  C   UNL A   1      43.127  39.113  29.009  1.00  0.00     0.031 A 
ATOM     49  C   UNL A   1      43.463  40.087  30.079  1.00  0.00     0.074 A 
ATOM     50  C   UNL A   1      43.087  37.778  29.109  1.00  0.00     0.049 A 
ATOM     51  N   UNL A   1      43.792  39.844  31.308  1.00  0.00    -0.248 NA
ATOM     52  C   UNL A   1      43.567  41.513  29.689  1.00  0.00     0.031 C 
ATOM     53  C   UNL A   1      42.910  36.828  27.996  1.00  0.00     0.029 A 
ATOM     54  N   UNL A   1      43.179  36.988  30.203  1.00  0.00    -0.354 N 
ATOM     55  C   UNL A   1      44.155  41.077  31.822  1.00  0.00     0.074 A 
ATOM     56  C   UNL A   1      44.174  42.029  30.743  1.00  0.00     0.031 C 
ATOM     57  C   UNL A   1      42.789  35.589  28.492  1.00  0.00     0.029 A 
ATOM     58  C   UNL A   1      42.941  35.666  29.933  1.00  0.00     0.049 A 
ATOM     59  H   UNL A   1      43.394  37.327  31.102  1.00  0.00     0.167 HD
ATOM     60  C   UNL A   1      44.361  41.377  33.119  1.00  0.00     0.037 A 
ATOM     61  C   UNL A   1      42.830  34.658  30.806  1.00  0.00     0.037 A 
ATOM     62  C   UNL A   1      44.227  40.373  34.133  1.00  0.00     0.049 A 
ATOM     63  C   UNL A   1      42.984  35.033  32.252  1.00  0.00     0.074 A 
ATOM     64  C   UNL A   1      44.332  40.494  35.499  1.00  0.00     0.029 A 
ATOM     65  N   UNL A   1      43.924  39.040  33.858  1.00  0.00    -0.354 N 
ATOM     66  N   UNL A   1      43.254  36.210  32.774  1.00  0.00    -0.248 NA
ATOM     67  C   UNL A   1      42.808  33.961  33.227  1.00  0.00     0.031 C 
ATOM     68  C   UNL A   1      44.122  39.225  36.049  1.00  0.00     0.029 A 
ATOM     69  C   UNL A   1      43.839  38.321  35.029  1.00  0.00     0.049 A 
ATOM     70  H   UNL A   1      43.790  38.667  32.957  1.00  0.00     0.167 HD
ATOM     71  C   UNL A   1      43.259  36.031  34.145  1.00  0.00     0.074 A 
ATOM     72  C   UNL A   1      42.941  34.628  34.365  1.00  0.00     0.031 C 
ATOM     73  C   UNL A   1      43.506  36.920  35.142  1.00  0.00     0.037 A 
BRANCH  60  74
ATOM     74  C   UNL A   1      44.693  42.801  33.442  1.00  0.00     0.057 A 
ATOM     75  C   UNL A   1      46.009  43.220  33.697  1.00  0.00     0.134 A 
ATOM     76  C   UNL A   1      43.679  43.752  33.584  1.00  0.00     0.134 A 
ATOM     77  F   UNL A   1      47.029  42.350  33.618  1.00  0.00    -0.206 F 
ATOM     78  C   UNL A   1      46.298  44.516  34.126  1.00  0.00     0.040 A 
ATOM     79  C   UNL A   1      43.959  45.063  33.977  1.00  0.00     0.040 A 
ATOM     80  F   UNL A   1      42.397  43.418  33.375  1.00  0.00    -0.206 F 
ATOM     81  C   UNL A   1      45.269  45.444  34.262  1.00  0.00     0.006 A 
ENDBRANCH  60  74
BRANCH  61  82
ATOM     82  C   UNL A   1      42.469  33.301  30.341  1.00  0.00     0.057 A 
ATOM     83  C   UNL A   1      43.453  32.402  29.915  1.00  0.00     0.134 A 
ATOM     84  C   UNL A   1      41.146  32.842  30.361  1.00  0.00     0.134 A 
ATOM     85  F   UNL A   1      44.743  32.773  29.896  1.00  0.00    -0.206 F 
ATOM     86  C   UNL A   1      43.134  31.113  29.487  1.00  0.00     0.040 A 
ATOM     87  C   UNL A   1      40.813  31.547  29.960  1.00  0.00     0.040 A 
ATOM     88  F   UNL A   1      40.159  33.637  30.803  1.00  0.00    -0.206 F 
ATOM     89  C   UNL A   1      41.808  30.682  29.508  1.00  0.00     0.006 A 
ENDBRANCH  61  82
BRANCH  73  90
ATOM     90  C   UNL A   1      43.408  36.380  36.529  1.00  0.00     0.057 A 
ATOM     91  C   UNL A   1      42.184  36.322  37.205  1.00  0.00     0.134 A 
ATOM     92  C   UNL A   1      44.542  35.862  37.164  1.00  0.00     0.134 A 
ATOM     93  F   UNL A   1      41.071  36.817  36.643  1.00  0.00    -0.206 F 
ATOM     94  C   UNL A   1      42.097  35.788  38.487  1.00  0.00     0.040 A 
ATOM     95  C   UNL A   1      44.459  35.293  38.431  1.00  0.00     0.040 A 
ATOM     96  F   UNL A   1      45.736  35.880  36.552  1.00  0.00    -0.206 F 
ATOM     97  C   UNL A   1      43.235  35.263  39.098  1.00  0.00     0.006 A 
ENDBRANCH  73  90
ENDBRANCH  47  48
ENDBRANCH  39  42
ENDBRANCH  37  38
ENDBRANCH  36  37
ENDBRANCH  35  36
ENDBRANCH   3  35
TORSDOF 18
ENDMDL
MODEL 3
REMARK VINA RESULT:     -12.0      9.688     13.586
REMARK SMILES C=C[C@@H]1[C@@H](O)C[C@@H]2[C@@]3(CC[C@@]4(C)[C@@H]([C@H](C)CCC=C(C)C)CC[C@@]24C)C[C@@]13CCC(=O)NCCCNC(=O)c1ccc(-c2c3nc(c(-c4c(F)cccc4F)c4ccc([nH]4)c(-c4c(F)cccc4F)c4nc(c(-c5c(F)cccc5F)c5ccc2[nH]5)C=C4)C=C3)cc1
REMARK SMILES IDX 30 1 31 2 32 3 29 5 28 6 27 7 3 8 4 9 6 10 8 11 26 12 7 13
REMARK SMILES IDX 9 14 24 15 10 16 11 17 23 18 25 19 12 20 13 21 22 22 2 23
REMARK SMILES IDX 1 24 5 25 14 27 15 28 16 29 17 30 18 31 19 32 20 33 21 34
REMARK SMILES IDX 33 35 34 36 35 37 36 38 37 39 38 41 39 42 40 43 92 44 41 45
REMARK SMILES IDX 91 46 42 47 43 48 44 49 85 50 45 51 90 52 84 53 86 54 46 55
REMARK SMILES IDX 89 56 83 57 82 58 47 60 73 61 56 62 72 63 57 64 60 65 71 66
REMARK SMILES IDX 87 67 58 68 59 69 70 71 88 72 61 73 48 74 49 75 54 76 50 77
REMARK SMILES IDX 51 78 53 79 55 80 52 81 74 82 75 83 80 84 76 85 77 86 79 87
REMARK SMILES IDX 81 88 78 89 62 90 63 91 68 92 64 93 65 94 67 95 69 96 66 97
REMARK H PARENT 32 4 5 26 36 40 86 59 60 70
REMARK Flexibility Score: inf
ROOT
ATOM      1  C   UNL A   1      52.151  27.511  29.329  1.00  0.00     0.220 C 
ATOM      2  O   UNL A   1      52.648  28.594  29.114  1.00  0.00    -0.275 OA
ATOM      3  N   UNL A   1      51.710  27.192  30.579  1.00  0.00    -0.356 N 
ATOM      4  H   UNL A   1      52.033  27.801  31.282  1.00  0.00     0.163 HD
ENDROOT
BRANCH   1   5
ATOM      5  C   UNL A   1      51.933  26.496  28.257  1.00  0.00     0.100 C 
BRANCH   5   6
ATOM      6  C   UNL A   1      51.408  27.155  26.996  1.00  0.00     0.018 C 
BRANCH   6   7
ATOM      7  C   UNL A   1      50.304  26.365  26.252  1.00  0.00    -0.014 C 
ATOM      8  C   UNL A   1      50.415  26.660  24.361  1.00  0.00     0.047 C 
ATOM      9  C   UNL A   1      48.793  27.088  23.439  1.00  0.00     0.122 C 
ATOM     10  C   UNL A   1      47.059  26.989  24.263  1.00  0.00     0.037 C 
ATOM     11  C   UNL A   1      48.596  25.941  27.108  1.00  0.00    -0.019 C 
ATOM     12  C   UNL A   1      50.004  25.059  26.850  1.00  0.00     0.016 C 
ATOM     13  C   UNL A   1      46.929  26.555  26.192  1.00  0.00     0.005 C 
ATOM     14  C   UNL A   1      48.296  25.740  28.564  1.00  0.00     0.008 C 
ATOM     15  C   UNL A   1      45.510  26.063  26.655  1.00  0.00    -0.023 C 
ATOM     16  C   UNL A   1      46.938  25.147  28.855  1.00  0.00     0.008 C 
ATOM     17  C   UNL A   1      45.600  25.690  28.255  1.00  0.00    -0.024 C 
ATOM     18  C   UNL A   1      44.232  26.969  26.786  1.00  0.00     0.008 C 
ATOM     19  C   UNL A   1      44.952  25.597  25.248  1.00  0.00     0.012 C 
ATOM     20  C   UNL A   1      44.578  24.614  28.711  1.00  0.00     0.012 C 
ATOM     21  C   UNL A   1      45.119  27.028  29.041  1.00  0.00    -0.002 C 
ATOM     22  C   UNL A   1      44.018  27.550  28.137  1.00  0.00     0.005 C 
BRANCH   8  23
ATOM     23  C   UNL A   1      51.500  27.681  23.961  1.00  0.00    -0.028 C 
ATOM     24  C   UNL A   1      52.718  27.416  23.454  1.00  0.00     0.004 C 
ENDBRANCH   8  23
BRANCH   9  25
ATOM     25  O   UNL A   1      48.753  26.338  22.210  1.00  0.00    -0.392 OA
ATOM     26  H   UNL A   1      49.656  26.197  21.887  1.00  0.00     0.210 HD
ENDBRANCH   9  25
BRANCH  21  27
ATOM     27  C   UNL A   1      46.061  28.210  29.398  1.00  0.00    -0.010 C 
ATOM     28  C   UNL A   1      46.445  28.360  30.876  1.00  0.00     0.008 C 
BRANCH  27  29
ATOM     29  C   UNL A   1      45.535  29.611  28.953  1.00  0.00     0.008 C 
BRANCH  29  30
ATOM     30  C   UNL A   1      45.002  30.405  30.155  1.00  0.00     0.027 C 
BRANCH  30  31
ATOM     31  C   UNL A   1      43.640  31.021  29.920  1.00  0.00    -0.028 C 
ATOM     32  C   UNL A   1      43.113  32.035  30.634  1.00  0.00    -0.080 C 
ATOM     33  C   UNL A   1      41.764  32.616  30.309  1.00  0.00     0.039 C 
ATOM     34  C   UNL A   1      43.835  32.690  31.779  1.00  0.00     0.039 C 
ENDBRANCH  30  31
ENDBRANCH  29  30
ENDBRANCH  27  29
ENDBRANCH  21  27
ENDBRANCH   6   7
ENDBRANCH   5   6
ENDBRANCH   1   5
BRANCH   3  35
ATOM     35  C   UNL A   1      50.792  26.047  31.112  1.00  0.00     0.117 C 
BRANCH  35  36
ATOM     36  C   UNL A   1      48.968  25.978  32.176  1.00  0.00     0.042 C 
BRANCH  36  37
ATOM     37  C   UNL A   1      48.300  25.798  33.881  1.00  0.00     0.118 C 
BRANCH  37  38
ATOM     38  N   UNL A   1      46.966  25.931  34.558  1.00  0.00    -0.352 N 
ATOM     39  C   UNL A   1      46.462  26.729  35.599  1.00  0.00     0.251 C 
ATOM     40  H   UNL A   1      46.289  25.321  34.186  1.00  0.00     0.163 HD
ATOM     41  O   UNL A   1      46.194  26.481  36.769  1.00  0.00    -0.269 OA
BRANCH  39  42
ATOM     42  C   UNL A   1      45.559  27.758  35.233  1.00  0.00     0.039 A 
ATOM     43  C   UNL A   1      45.947  28.793  34.400  1.00  0.00     0.014 A 
ATOM     44  C   UNL A   1      44.331  27.678  35.862  1.00  0.00     0.014 A 
ATOM     45  C   UNL A   1      44.946  29.624  33.979  1.00  0.00     0.010 A 
ATOM     46  C   UNL A   1      43.309  28.290  35.255  1.00  0.00     0.010 A 
ATOM     47  C   UNL A   1      43.633  29.268  34.318  1.00  0.00    -0.014 A 
BRANCH  47  48
ATOM     48  C   UNL A   1      42.490  29.858  33.675  1.00  0.00     0.031 A 
ATOM     49  C   UNL A   1      41.843  30.993  34.379  1.00  0.00     0.074 A 
ATOM     50  C   UNL A   1      42.012  29.171  32.630  1.00  0.00     0.049 A 
ATOM     51  N   UNL A   1      40.692  31.536  34.135  1.00  0.00    -0.248 NA
ATOM     52  C   UNL A   1      42.515  31.509  35.596  1.00  0.00     0.031 C 
ATOM     53  C   UNL A   1      42.597  27.947  32.052  1.00  0.00     0.029 A 
ATOM     54  N   UNL A   1      40.928  29.411  31.857  1.00  0.00    -0.354 N 
ATOM     55  C   UNL A   1      40.502  32.433  35.171  1.00  0.00     0.074 A 
ATOM     56  C   UNL A   1      41.558  32.246  36.131  1.00  0.00     0.031 C 
ATOM     57  C   UNL A   1      41.923  27.620  30.941  1.00  0.00     0.029 A 
ATOM     58  C   UNL A   1      40.839  28.571  30.779  1.00  0.00     0.049 A 
ATOM     59  H   UNL A   1      40.270  30.119  32.049  1.00  0.00     0.167 HD
ATOM     60  C   UNL A   1      39.558  33.391  35.241  1.00  0.00     0.037 A 
ATOM     61  C   UNL A   1      39.968  28.629  29.764  1.00  0.00     0.037 A 
ATOM     62  C   UNL A   1      38.604  33.557  34.185  1.00  0.00     0.049 A 
ATOM     63  C   UNL A   1      38.976  29.755  29.825  1.00  0.00     0.074 A 
ATOM     64  C   UNL A   1      37.617  34.504  34.041  1.00  0.00     0.029 A 
ATOM     65  N   UNL A   1      38.556  32.736  33.058  1.00  0.00    -0.354 N 
ATOM     66  N   UNL A   1      38.821  30.668  30.760  1.00  0.00    -0.248 NA
ATOM     67  C   UNL A   1      38.054  29.873  28.700  1.00  0.00     0.031 C 
ATOM     68  C   UNL A   1      36.951  34.237  32.840  1.00  0.00     0.029 A 
ATOM     69  C   UNL A   1      37.552  33.151  32.211  1.00  0.00     0.049 A 
ATOM     70  H   UNL A   1      39.153  31.971  32.892  1.00  0.00     0.167 HD
ATOM     71  C   UNL A   1      37.797  31.490  30.329  1.00  0.00     0.074 A 
ATOM     72  C   UNL A   1      37.387  30.970  29.033  1.00  0.00     0.031 C 
ATOM     73  C   UNL A   1      37.229  32.567  30.930  1.00  0.00     0.037 A 
BRANCH  60  74
ATOM     74  C   UNL A   1      39.584  34.284  36.442  1.00  0.00     0.057 A 
ATOM     75  C   UNL A   1      38.947  33.934  37.645  1.00  0.00     0.134 A 
ATOM     76  C   UNL A   1      40.179  35.547  36.377  1.00  0.00     0.134 A 
ATOM     77  F   UNL A   1      38.321  32.752  37.766  1.00  0.00    -0.206 F 
ATOM     78  C   UNL A   1      38.860  34.823  38.717  1.00  0.00     0.040 A 
ATOM     79  C   UNL A   1      40.132  36.432  37.456  1.00  0.00     0.040 A 
ATOM     80  F   UNL A   1      40.788  35.956  35.254  1.00  0.00    -0.206 F 
ATOM     81  C   UNL A   1      39.460  36.077  38.625  1.00  0.00     0.006 A 
ENDBRANCH  60  74
BRANCH  61  82
ATOM     82  C   UNL A   1      40.082  27.692  28.626  1.00  0.00     0.057 A 
ATOM     83  C   UNL A   1      40.755  28.062  27.456  1.00  0.00     0.134 A 
ATOM     84  C   UNL A   1      39.576  26.388  28.690  1.00  0.00     0.134 A 
ATOM     85  F   UNL A   1      41.284  29.289  27.342  1.00  0.00    -0.206 F 
ATOM     86  C   UNL A   1      40.885  27.187  26.377  1.00  0.00     0.040 A 
ATOM     87  C   UNL A   1      39.720  25.492  27.628  1.00  0.00     0.040 A 
ATOM     88  F   UNL A   1      38.961  25.953  29.800  1.00  0.00    -0.206 F 
ATOM     89  C   UNL A   1      40.366  25.896  26.462  1.00  0.00     0.006 A 
ENDBRANCH  61  82
BRANCH  73  90
ATOM     90  C   UNL A   1      36.140  33.239  30.161  1.00  0.00     0.057 A 
ATOM     91  C   UNL A   1      36.423  34.100  29.095  1.00  0.00     0.134 A 
ATOM     92  C   UNL A   1      34.800  32.969  30.458  1.00  0.00     0.134 A 
ATOM     93  F   UNL A   1      37.693  34.399  28.780  1.00  0.00    -0.206 F 
ATOM     94  C   UNL A   1      35.401  34.697  28.364  1.00  0.00     0.040 A 
ATOM     95  C   UNL A   1      33.771  33.531  29.710  1.00  0.00     0.040 A 
ATOM     96  F   UNL A   1      34.476  32.137  31.460  1.00  0.00    -0.206 F 
ATOM     97  C   UNL A   1      34.072  34.404  28.665  1.00  0.00     0.006 A 
ENDBRANCH  73  90
ENDBRANCH  47  48
ENDBRANCH  39  42
ENDBRANCH  37  38
ENDBRANCH  36  37
ENDBRANCH  35  36
ENDBRANCH   3  35
TORSDOF 18
ENDMDL
