MODEL 1
REMARK VINA RESULT:     -12.8      0.000      0.000
REMARK SMILES O=C(NCCCNC(=O)c1ccc(NC(=O)c2ccc([N+](=O)[O-])cc2Cl)cc1Cl)c1ccc(-c2c3nc(c(-c4c(F)cccc4F)c4ccc([nH]4)c(-c4c(F)cccc4F)c4nc(c(-c5c(F)cccc5F)c5ccc2[nH]5)C=C4)C=C3)cc1
REMARK SMILES IDX 5 1 4 2 3 3 1 4 2 5 30 7 31 8 83 9 32 10 82 11 33 12 34 13
REMARK SMILES IDX 35 14 76 15 36 16 81 17 75 18 77 19 37 20 80 21 74 22 73 23
REMARK SMILES IDX 38 25 64 26 47 27 63 28 48 29 51 30 62 31 78 32 49 33 50 34
REMARK SMILES IDX 61 36 79 37 52 38 39 39 40 40 45 41 41 42 42 43 44 44 46 45
REMARK SMILES IDX 43 46 65 47 66 48 71 49 67 50 68 51 70 52 72 53 69 54 53 55
REMARK SMILES IDX 54 56 59 57 55 58 56 59 58 60 60 61 57 62 6 63 7 64 8 65
REMARK SMILES IDX 9 67 10 68 11 69 28 70 12 71 27 72 29 73 13 74 14 75 15 76
REMARK SMILES IDX 16 78 17 79 18 80 25 81 19 82 24 83 26 84 20 85 21 86 22 87
REMARK SMILES IDX 23 88
REMARK H PARENT 3 6 77 24 51 35 7 66 14 77
REMARK Flexibility Score: inf
ROOT
ATOM      1  C   UNL A   1      31.334  32.097  26.520  1.00  0.00     0.042 C 
ENDROOT
BRANCH   1   2
ATOM      2  C   UNL A   1      32.518  32.732  27.236  1.00  0.00     0.118 C 
BRANCH   2   3
ATOM      3  N   UNL A   1      32.285  34.107  27.656  1.00  0.00    -0.352 N 
ATOM      4  O   UNL A   1      32.493  36.018  28.825  1.00  0.00    -0.269 OA
ATOM      5  C   UNL A   1      32.955  34.912  28.547  1.00  0.00     0.251 C 
ATOM      6  H   UNL A   1      31.510  34.537  27.227  1.00  0.00     0.163 HD
BRANCH   5   7
ATOM      7  C   UNL A   1      34.195  34.454  29.211  1.00  0.00     0.039 A 
ATOM      8  C   UNL A   1      35.448  34.664  28.637  1.00  0.00     0.014 A 
ATOM      9  C   UNL A   1      34.103  33.808  30.449  1.00  0.00     0.014 A 
ATOM     10  C   UNL A   1      36.569  34.047  29.179  1.00  0.00     0.010 A 
ATOM     11  C   UNL A   1      35.252  33.285  31.055  1.00  0.00     0.010 A 
ATOM     12  C   UNL A   1      36.488  33.346  30.394  1.00  0.00    -0.014 A 
BRANCH  12  13
ATOM     13  C   UNL A   1      37.712  32.704  30.943  1.00  0.00     0.031 A 
ATOM     14  C   UNL A   1      38.296  33.141  32.263  1.00  0.00     0.074 A 
ATOM     15  C   UNL A   1      38.265  31.672  30.276  1.00  0.00     0.049 A 
ATOM     16  N   UNL A   1      39.316  32.643  32.918  1.00  0.00    -0.248 NA
ATOM     17  C   UNL A   1      37.664  34.289  32.930  1.00  0.00     0.031 C 
ATOM     18  C   UNL A   1      37.805  31.163  28.982  1.00  0.00     0.029 A 
ATOM     19  N   UNL A   1      39.308  30.845  30.606  1.00  0.00    -0.354 N 
ATOM     20  C   UNL A   1      39.466  33.431  34.052  1.00  0.00     0.074 A 
ATOM     21  C   UNL A   1      38.446  34.456  33.987  1.00  0.00     0.031 C 
ATOM     22  C   UNL A   1      38.513  30.070  28.663  1.00  0.00     0.029 A 
ATOM     23  C   UNL A   1      39.516  29.837  29.695  1.00  0.00     0.049 A 
ATOM     24  H   UNL A   1      39.854  30.961  31.415  1.00  0.00     0.167 HD
ATOM     25  C   UNL A   1      40.364  33.309  35.058  1.00  0.00     0.037 A 
ATOM     26  C   UNL A   1      40.413  28.835  29.688  1.00  0.00     0.037 A 
ATOM     27  C   UNL A   1      41.356  32.268  35.142  1.00  0.00     0.049 A 
ATOM     28  C   UNL A   1      41.386  28.714  30.824  1.00  0.00     0.074 A 
ATOM     29  C   UNL A   1      42.282  32.038  36.145  1.00  0.00     0.029 A 
ATOM     30  N   UNL A   1      41.548  31.281  34.187  1.00  0.00    -0.354 N 
ATOM     31  N   UNL A   1      41.492  29.451  31.902  1.00  0.00    -0.248 NA
ATOM     32  C   UNL A   1      42.366  27.623  30.739  1.00  0.00     0.031 C 
ATOM     33  C   UNL A   1      43.059  30.932  35.780  1.00  0.00     0.029 A 
ATOM     34  C   UNL A   1      42.588  30.449  34.570  1.00  0.00     0.049 A 
ATOM     35  H   UNL A   1      41.023  31.185  33.360  1.00  0.00     0.167 HD
ATOM     36  C   UNL A   1      42.536  28.903  32.634  1.00  0.00     0.074 A 
ATOM     37  C   UNL A   1      43.019  27.760  31.883  1.00  0.00     0.031 C 
ATOM     38  C   UNL A   1      43.052  29.312  33.818  1.00  0.00     0.037 A 
BRANCH  25  39
ATOM     39  C   UNL A   1      40.328  34.339  36.150  1.00  0.00     0.057 A 
ATOM     40  C   UNL A   1      41.064  35.529  36.077  1.00  0.00     0.134 A 
ATOM     41  C   UNL A   1      39.511  34.155  37.274  1.00  0.00     0.134 A 
ATOM     42  F   UNL A   1      41.876  35.761  35.034  1.00  0.00    -0.206 F 
ATOM     43  C   UNL A   1      41.004  36.489  37.089  1.00  0.00     0.040 A 
ATOM     44  C   UNL A   1      39.424  35.117  38.281  1.00  0.00     0.040 A 
ATOM     45  F   UNL A   1      38.773  33.042  37.404  1.00  0.00    -0.206 F 
ATOM     46  C   UNL A   1      40.177  36.287  38.192  1.00  0.00     0.006 A 
ENDBRANCH  25  39
BRANCH  26  47
ATOM     47  C   UNL A   1      40.418  27.856  28.573  1.00  0.00     0.057 A 
ATOM     48  C   UNL A   1      41.140  28.100  27.400  1.00  0.00     0.134 A 
ATOM     49  C   UNL A   1      39.711  26.651  28.659  1.00  0.00     0.134 A 
ATOM     50  F   UNL A   1      41.822  29.246  27.254  1.00  0.00    -0.206 F 
ATOM     51  C   UNL A   1      41.149  27.187  26.346  1.00  0.00     0.040 A 
ATOM     52  C   UNL A   1      39.732  25.716  27.623  1.00  0.00     0.040 A 
ATOM     53  F   UNL A   1      39.007  26.355  29.761  1.00  0.00    -0.206 F 
ATOM     54  C   UNL A   1      40.448  25.987  26.459  1.00  0.00     0.006 A 
ENDBRANCH  26  47
BRANCH  38  55
ATOM     55  C   UNL A   1      44.171  28.495  34.390  1.00  0.00     0.057 A 
ATOM     56  C   UNL A   1      45.513  28.797  34.131  1.00  0.00     0.134 A 
ATOM     57  C   UNL A   1      43.900  27.400  35.221  1.00  0.00     0.134 A 
ATOM     58  F   UNL A   1      45.837  29.824  33.330  1.00  0.00    -0.206 F 
ATOM     59  C   UNL A   1      46.548  28.023  34.656  1.00  0.00     0.040 A 
ATOM     60  C   UNL A   1      44.927  26.633  35.771  1.00  0.00     0.040 A 
ATOM     61  F   UNL A   1      42.635  27.062  35.512  1.00  0.00    -0.206 F 
ATOM     62  C   UNL A   1      46.256  26.939  35.484  1.00  0.00     0.006 A 
ENDBRANCH  38  55
ENDBRANCH  12  13
ENDBRANCH   5   7
ENDBRANCH   2   3
ENDBRANCH   1   2
BRANCH   1  63
ATOM     63  C   UNL A   1      31.469  30.608  26.237  1.00  0.00     0.118 C 
BRANCH  63  64
ATOM     64  N   UNL A   1      32.163  30.309  24.994  1.00  0.00    -0.352 N 
ATOM     65  C   UNL A   1      32.296  29.131  24.307  1.00  0.00     0.252 C 
ATOM     66  H   UNL A   1      32.611  31.081  24.579  1.00  0.00     0.163 HD
ATOM     67  O   UNL A   1      32.962  29.107  23.274  1.00  0.00    -0.269 OA
BRANCH  65  68
ATOM     68  C   UNL A   1      31.759  27.866  24.838  1.00  0.00     0.058 A 
ATOM     69  C   UNL A   1      30.568  27.420  24.261  1.00  0.00     0.017 A 
ATOM     70  C   UNL A   1      32.316  27.134  25.888  1.00  0.00     0.055 A 
ATOM     71  C   UNL A   1      30.005  26.203  24.650  1.00  0.00     0.027 A 
ATOM     72  C   UNL A   1      31.784  25.876  26.217  1.00  0.00     0.047 A 
ATOM     73  Cl  UNL A   1      33.613  27.728  26.860  1.00  0.00    -0.083 Cl
ATOM     74  C   UNL A   1      30.653  25.373  25.561  1.00  0.00     0.043 A 
BRANCH  74  75
ATOM     75  N   UNL A   1      30.260  24.056  25.883  1.00  0.00    -0.322 N 
ATOM     76  C   UNL A   1      30.893  22.834  25.788  1.00  0.00     0.257 C 
ATOM     77  H   UNL A   1      29.350  23.998  26.252  1.00  0.00     0.170 HD
ATOM     78  O   UNL A   1      30.299  21.800  26.085  1.00  0.00    -0.269 OA
BRANCH  76  79
ATOM     79  C   UNL A   1      32.273  22.718  25.301  1.00  0.00     0.059 A 
ATOM     80  C   UNL A   1      32.463  22.811  23.915  1.00  0.00     0.022 A 
ATOM     81  C   UNL A   1      33.369  22.615  26.169  1.00  0.00     0.060 A 
ATOM     82  C   UNL A   1      33.755  22.919  23.399  1.00  0.00     0.086 A 
ATOM     83  C   UNL A   1      34.665  22.731  25.658  1.00  0.00     0.107 A 
ATOM     84  Cl  UNL A   1      33.181  22.429  27.875  1.00  0.00    -0.083 Cl
ATOM     85  C   UNL A   1      34.848  22.915  24.278  1.00  0.00     0.270 A 
BRANCH  85  86
ATOM     86  N   UNL A   1      36.195  23.173  23.756  1.00  0.00     0.062 N 
ATOM     87  O   UNL A   1      37.048  23.591  24.549  1.00  0.00    -0.258 OA
ATOM     88  O   UNL A   1      36.400  22.926  22.559  1.00  0.00    -0.258 OA
ENDBRANCH  85  86
ENDBRANCH  76  79
ENDBRANCH  74  75
ENDBRANCH  65  68
ENDBRANCH  63  64
ENDBRANCH   1  63
TORSDOF 13
ENDMDL
MODEL 2
REMARK VINA RESULT:     -12.7      4.646     10.043
REMARK SMILES O=C(NCCCNC(=O)c1ccc(NC(=O)c2ccc([N+](=O)[O-])cc2Cl)cc1Cl)c1ccc(-c2c3nc(c(-c4c(F)cccc4F)c4ccc([nH]4)c(-c4c(F)cccc4F)c4nc(c(-c5c(F)cccc5F)c5ccc2[nH]5)C=C4)C=C3)cc1
REMARK SMILES IDX 5 1 4 2 3 3 1 4 2 5 30 7 31 8 83 9 32 10 82 11 33 12 34 13
REMARK SMILES IDX 35 14 76 15 36 16 81 17 75 18 77 19 37 20 80 21 74 22 73 23
REMARK SMILES IDX 38 25 64 26 47 27 63 28 48 29 51 30 62 31 78 32 49 33 50 34
REMARK SMILES IDX 61 36 79 37 52 38 39 39 40 40 45 41 41 42 42 43 44 44 46 45
REMARK SMILES IDX 43 46 65 47 66 48 71 49 67 50 68 51 70 52 72 53 69 54 53 55
REMARK SMILES IDX 54 56 59 57 55 58 56 59 58 60 60 61 57 62 6 63 7 64 8 65
REMARK SMILES IDX 9 67 10 68 11 69 28 70 12 71 27 72 29 73 13 74 14 75 15 76
REMARK SMILES IDX 16 78 17 79 18 80 25 81 19 82 24 83 26 84 20 85 21 86 22 87
REMARK SMILES IDX 23 88
REMARK H PARENT 3 6 77 24 51 35 7 66 14 77
REMARK Flexibility Score: inf
ROOT
ATOM      1  C   UNL A   1      37.851  19.605  25.108  1.00  0.00     0.042 C 
ENDROOT
BRANCH   1   2
ATOM      2  C   UNL A   1      39.121  20.067  25.810  1.00  0.00     0.118 C 
BRANCH   2   3
ATOM      3  N   UNL A   1      40.194  19.081  25.798  1.00  0.00    -0.352 N 
ATOM      4  O   UNL A   1      42.276  18.231  25.856  1.00  0.00    -0.269 OA
ATOM      5  C   UNL A   1      41.542  19.200  26.043  1.00  0.00     0.251 C 
ATOM      6  H   UNL A   1      39.902  18.167  25.573  1.00  0.00     0.163 HD
BRANCH   5   7
ATOM      7  C   UNL A   1      42.131  20.484  26.482  1.00  0.00     0.039 A 
ATOM      8  C   UNL A   1      42.196  20.831  27.830  1.00  0.00     0.014 A 
ATOM      9  C   UNL A   1      42.643  21.361  25.519  1.00  0.00     0.014 A 
ATOM     10  C   UNL A   1      42.563  22.120  28.195  1.00  0.00     0.010 A 
ATOM     11  C   UNL A   1      43.122  22.620  25.900  1.00  0.00     0.010 A 
ATOM     12  C   UNL A   1      43.030  23.035  27.237  1.00  0.00    -0.014 A 
BRANCH  12  13
ATOM     13  C   UNL A   1      43.418  24.404  27.670  1.00  0.00     0.031 A 
ATOM     14  C   UNL A   1      44.849  24.871  27.586  1.00  0.00     0.074 A 
ATOM     15  C   UNL A   1      42.459  25.256  28.082  1.00  0.00     0.049 A 
ATOM     16  N   UNL A   1      45.347  26.052  27.856  1.00  0.00    -0.248 NA
ATOM     17  C   UNL A   1      45.852  23.887  27.154  1.00  0.00     0.031 C 
ATOM     18  C   UNL A   1      41.040  24.922  28.223  1.00  0.00     0.029 A 
ATOM     19  N   UNL A   1      42.523  26.583  28.424  1.00  0.00    -0.354 N 
ATOM     20  C   UNL A   1      46.718  25.945  27.658  1.00  0.00     0.074 A 
ATOM     21  C   UNL A   1      46.979  24.577  27.265  1.00  0.00     0.031 C 
ATOM     22  C   UNL A   1      40.359  26.029  28.551  1.00  0.00     0.029 A 
ATOM     23  C   UNL A   1      41.297  27.135  28.704  1.00  0.00     0.049 A 
ATOM     24  H   UNL A   1      43.365  27.090  28.464  1.00  0.00     0.167 HD
ATOM     25  C   UNL A   1      47.671  26.899  27.784  1.00  0.00     0.037 A 
ATOM     26  C   UNL A   1      40.960  28.392  29.048  1.00  0.00     0.037 A 
ATOM     27  C   UNL A   1      47.409  28.270  28.139  1.00  0.00     0.049 A 
ATOM     28  C   UNL A   1      42.035  29.432  29.164  1.00  0.00     0.074 A 
ATOM     29  C   UNL A   1      48.305  29.320  28.249  1.00  0.00     0.029 A 
ATOM     30  N   UNL A   1      46.156  28.783  28.438  1.00  0.00    -0.354 N 
ATOM     31  N   UNL A   1      43.321  29.319  28.943  1.00  0.00    -0.248 NA
ATOM     32  C   UNL A   1      41.609  30.775  29.581  1.00  0.00     0.031 C 
ATOM     33  C   UNL A   1      47.599  30.460  28.650  1.00  0.00     0.029 A 
ATOM     34  C   UNL A   1      46.257  30.130  28.748  1.00  0.00     0.049 A 
ATOM     35  H   UNL A   1      45.317  28.267  28.430  1.00  0.00     0.167 HD
ATOM     36  C   UNL A   1      43.857  30.578  29.173  1.00  0.00     0.074 A 
ATOM     37  C   UNL A   1      42.752  31.443  29.535  1.00  0.00     0.031 C 
ATOM     38  C   UNL A   1      45.149  30.980  29.097  1.00  0.00     0.037 A 
BRANCH  25  39
ATOM     39  C   UNL A   1      49.097  26.492  27.549  1.00  0.00     0.057 A 
ATOM     40  C   UNL A   1      49.940  26.095  28.594  1.00  0.00     0.134 A 
ATOM     41  C   UNL A   1      49.621  26.456  26.249  1.00  0.00     0.134 A 
ATOM     42  F   UNL A   1      49.505  26.119  29.863  1.00  0.00    -0.206 F 
ATOM     43  C   UNL A   1      51.258  25.697  28.360  1.00  0.00     0.040 A 
ATOM     44  C   UNL A   1      50.929  26.038  25.999  1.00  0.00     0.040 A 
ATOM     45  F   UNL A   1      48.865  26.816  25.200  1.00  0.00    -0.206 F 
ATOM     46  C   UNL A   1      51.753  25.662  27.058  1.00  0.00     0.006 A 
ENDBRANCH  25  39
BRANCH  26  47
ATOM     47  C   UNL A   1      39.537  28.735  29.288  1.00  0.00     0.057 A 
ATOM     48  C   UNL A   1      38.968  28.607  30.560  1.00  0.00     0.134 A 
ATOM     49  C   UNL A   1      38.718  29.210  28.257  1.00  0.00     0.134 A 
ATOM     50  F   UNL A   1      39.699  28.141  31.583  1.00  0.00    -0.206 F 
ATOM     51  C   UNL A   1      37.630  28.926  30.796  1.00  0.00     0.040 A 
ATOM     52  C   UNL A   1      37.386  29.558  28.484  1.00  0.00     0.040 A 
ATOM     53  F   UNL A   1      39.208  29.363  27.019  1.00  0.00    -0.206 F 
ATOM     54  C   UNL A   1      36.837  29.409  29.756  1.00  0.00     0.006 A 
ENDBRANCH  26  47
BRANCH  38  55
ATOM     55  C   UNL A   1      45.427  32.426  29.375  1.00  0.00     0.057 A 
ATOM     56  C   UNL A   1      45.756  32.883  30.658  1.00  0.00     0.134 A 
ATOM     57  C   UNL A   1      45.379  33.371  28.343  1.00  0.00     0.134 A 
ATOM     58  F   UNL A   1      45.804  32.028  31.691  1.00  0.00    -0.206 F 
ATOM     59  C   UNL A   1      46.001  34.233  30.910  1.00  0.00     0.040 A 
ATOM     60  C   UNL A   1      45.645  34.720  28.578  1.00  0.00     0.040 A 
ATOM     61  F   UNL A   1      45.076  32.997  27.090  1.00  0.00    -0.206 F 
ATOM     62  C   UNL A   1      45.950  35.156  29.866  1.00  0.00     0.006 A 
ENDBRANCH  38  55
ENDBRANCH  12  13
ENDBRANCH   5   7
ENDBRANCH   2   3
ENDBRANCH   1   2
BRANCH   1  63
ATOM     63  C   UNL A   1      36.767  20.663  24.966  1.00  0.00     0.118 C 
BRANCH  63  64
ATOM     64  N   UNL A   1      36.997  21.594  23.872  1.00  0.00    -0.352 N 
ATOM     65  C   UNL A   1      36.317  22.724  23.504  1.00  0.00     0.252 C 
ATOM     66  H   UNL A   1      37.771  21.375  23.304  1.00  0.00     0.163 HD
ATOM     67  O   UNL A   1      36.682  23.353  22.512  1.00  0.00    -0.269 OA
BRANCH  65  68
ATOM     68  C   UNL A   1      35.086  23.142  24.198  1.00  0.00     0.058 A 
ATOM     69  C   UNL A   1      33.909  23.063  23.452  1.00  0.00     0.017 A 
ATOM     70  C   UNL A   1      35.029  23.651  25.496  1.00  0.00     0.055 A 
ATOM     71  C   UNL A   1      32.679  23.378  24.034  1.00  0.00     0.027 A 
ATOM     72  C   UNL A   1      33.782  23.892  26.095  1.00  0.00     0.047 A 
ATOM     73  Cl  UNL A   1      36.439  24.062  26.405  1.00  0.00    -0.083 Cl
ATOM     74  C   UNL A   1      32.589  23.704  25.384  1.00  0.00     0.043 A 
BRANCH  74  75
ATOM     75  N   UNL A   1      31.385  23.866  26.103  1.00  0.00    -0.322 N 
ATOM     76  C   UNL A   1      30.418  24.850  26.112  1.00  0.00     0.257 C 
ATOM     77  H   UNL A   1      31.196  23.126  26.723  1.00  0.00     0.170 HD
ATOM     78  O   UNL A   1      29.471  24.786  26.892  1.00  0.00    -0.269 OA
BRANCH  76  79
ATOM     79  C   UNL A   1      30.498  26.016  25.223  1.00  0.00     0.059 A 
ATOM     80  C   UNL A   1      29.711  25.980  24.063  1.00  0.00     0.022 A 
ATOM     81  C   UNL A   1      31.244  27.157  25.547  1.00  0.00     0.060 A 
ATOM     82  C   UNL A   1      29.576  27.128  23.282  1.00  0.00     0.086 A 
ATOM     83  C   UNL A   1      31.106  28.313  24.773  1.00  0.00     0.107 A 
ATOM     84  Cl  UNL A   1      32.280  27.222  26.927  1.00  0.00    -0.083 Cl
ATOM     85  C   UNL A   1      30.246  28.299  23.663  1.00  0.00     0.270 A 
BRANCH  85  86
ATOM     86  N   UNL A   1      29.994  29.546  22.929  1.00  0.00     0.062 N 
ATOM     87  O   UNL A   1      30.095  29.517  21.696  1.00  0.00    -0.258 OA
ATOM     88  O   UNL A   1      29.666  30.540  23.590  1.00  0.00    -0.258 OA
ENDBRANCH  85  86
ENDBRANCH  76  79
ENDBRANCH  74  75
ENDBRANCH  65  68
ENDBRANCH  63  64
ENDBRANCH   1  63
TORSDOF 13
ENDMDL
MODEL 3
REMARK VINA RESULT:     -12.7      4.841     10.146
REMARK SMILES O=C(NCCCNC(=O)c1ccc(NC(=O)c2ccc([N+](=O)[O-])cc2Cl)cc1Cl)c1ccc(-c2c3nc(c(-c4c(F)cccc4F)c4ccc([nH]4)c(-c4c(F)cccc4F)c4nc(c(-c5c(F)cccc5F)c5ccc2[nH]5)C=C4)C=C3)cc1
REMARK SMILES IDX 5 1 4 2 3 3 1 4 2 5 30 7 31 8 83 9 32 10 82 11 33 12 34 13
REMARK SMILES IDX 35 14 76 15 36 16 81 17 75 18 77 19 37 20 80 21 74 22 73 23
REMARK SMILES IDX 38 25 64 26 47 27 63 28 48 29 51 30 62 31 78 32 49 33 50 34
REMARK SMILES IDX 61 36 79 37 52 38 39 39 40 40 45 41 41 42 42 43 44 44 46 45
REMARK SMILES IDX 43 46 65 47 66 48 71 49 67 50 68 51 70 52 72 53 69 54 53 55
REMARK SMILES IDX 54 56 59 57 55 58 56 59 58 60 60 61 57 62 6 63 7 64 8 65
REMARK SMILES IDX 9 67 10 68 11 69 28 70 12 71 27 72 29 73 13 74 14 75 15 76
REMARK SMILES IDX 16 78 17 79 18 80 25 81 19 82 24 83 26 84 20 85 21 86 22 87
REMARK SMILES IDX 23 88
REMARK H PARENT 3 6 77 24 51 35 7 66 14 77
REMARK Flexibility Score: inf
ROOT
ATOM      1  C   UNL A   1      37.881  19.527  25.009  1.00  0.00     0.042 C 
ENDROOT
BRANCH   1   2
ATOM      2  C   UNL A   1      39.146  20.009  25.706  1.00  0.00     0.118 C 
BRANCH   2   3
ATOM      3  N   UNL A   1      40.204  19.009  25.765  1.00  0.00    -0.352 N 
ATOM      4  O   UNL A   1      42.270  18.133  25.929  1.00  0.00    -0.269 OA
ATOM      5  C   UNL A   1      41.543  19.118  26.057  1.00  0.00     0.251 C 
ATOM      6  H   UNL A   1      39.908  18.093  25.560  1.00  0.00     0.163 HD
BRANCH   5   7
ATOM      7  C   UNL A   1      42.134  20.407  26.477  1.00  0.00     0.039 A 
ATOM      8  C   UNL A   1      42.219  20.766  27.821  1.00  0.00     0.014 A 
ATOM      9  C   UNL A   1      42.629  21.278  25.499  1.00  0.00     0.014 A 
ATOM     10  C   UNL A   1      42.587  22.059  28.170  1.00  0.00     0.010 A 
ATOM     11  C   UNL A   1      43.109  22.542  25.862  1.00  0.00     0.010 A 
ATOM     12  C   UNL A   1      43.036  22.968  27.197  1.00  0.00    -0.014 A 
BRANCH  12  13
ATOM     13  C   UNL A   1      43.425  24.342  27.613  1.00  0.00     0.031 A 
ATOM     14  C   UNL A   1      44.855  24.809  27.513  1.00  0.00     0.074 A 
ATOM     15  C   UNL A   1      42.468  25.197  28.023  1.00  0.00     0.049 A 
ATOM     16  N   UNL A   1      45.353  25.994  27.768  1.00  0.00    -0.248 NA
ATOM     17  C   UNL A   1      45.856  23.822  27.084  1.00  0.00     0.031 C 
ATOM     18  C   UNL A   1      41.051  24.863  28.179  1.00  0.00     0.029 A 
ATOM     19  N   UNL A   1      42.533  26.527  28.351  1.00  0.00    -0.354 N 
ATOM     20  C   UNL A   1      46.723  25.887  27.560  1.00  0.00     0.074 A 
ATOM     21  C   UNL A   1      46.982  24.515  27.179  1.00  0.00     0.031 C 
ATOM     22  C   UNL A   1      40.370  25.973  28.501  1.00  0.00     0.029 A 
ATOM     23  C   UNL A   1      41.308  27.081  28.635  1.00  0.00     0.049 A 
ATOM     24  H   UNL A   1      43.375  27.036  28.380  1.00  0.00     0.167 HD
ATOM     25  C   UNL A   1      47.676  26.843  27.668  1.00  0.00     0.037 A 
ATOM     26  C   UNL A   1      40.973  28.340  28.968  1.00  0.00     0.037 A 
ATOM     27  C   UNL A   1      47.414  28.217  28.011  1.00  0.00     0.049 A 
ATOM     28  C   UNL A   1      42.047  29.383  29.065  1.00  0.00     0.074 A 
ATOM     29  C   UNL A   1      48.310  29.269  28.104  1.00  0.00     0.029 A 
ATOM     30  N   UNL A   1      46.163  28.732  28.315  1.00  0.00    -0.354 N 
ATOM     31  N   UNL A   1      43.332  29.269  28.836  1.00  0.00    -0.248 NA
ATOM     32  C   UNL A   1      41.623  30.731  29.471  1.00  0.00     0.031 C 
ATOM     33  C   UNL A   1      47.605  30.413  28.498  1.00  0.00     0.029 A 
ATOM     34  C   UNL A   1      46.265  30.082  28.610  1.00  0.00     0.049 A 
ATOM     35  H   UNL A   1      45.325  28.214  28.319  1.00  0.00     0.167 HD
ATOM     36  C   UNL A   1      43.868  30.532  29.049  1.00  0.00     0.074 A 
ATOM     37  C   UNL A   1      42.764  31.400  29.410  1.00  0.00     0.031 C 
ATOM     38  C   UNL A   1      45.158  30.935  28.959  1.00  0.00     0.037 A 
BRANCH  25  39
ATOM     39  C   UNL A   1      49.101  26.435  27.427  1.00  0.00     0.057 A 
ATOM     40  C   UNL A   1      49.935  25.996  28.463  1.00  0.00     0.134 A 
ATOM     41  C   UNL A   1      49.632  26.443  26.130  1.00  0.00     0.134 A 
ATOM     42  F   UNL A   1      49.492  25.977  29.729  1.00  0.00    -0.206 F 
ATOM     43  C   UNL A   1      51.252  25.598  28.221  1.00  0.00     0.040 A 
ATOM     44  C   UNL A   1      50.938  26.025  25.872  1.00  0.00     0.040 A 
ATOM     45  F   UNL A   1      48.884  26.845  25.091  1.00  0.00    -0.206 F 
ATOM     46  C   UNL A   1      51.754  25.606  26.921  1.00  0.00     0.006 A 
ENDBRANCH  25  39
BRANCH  26  47
ATOM     47  C   UNL A   1      39.551  28.685  29.216  1.00  0.00     0.057 A 
ATOM     48  C   UNL A   1      38.981  28.532  30.484  1.00  0.00     0.134 A 
ATOM     49  C   UNL A   1      38.734  29.185  28.195  1.00  0.00     0.134 A 
ATOM     50  F   UNL A   1      39.710  28.040  31.497  1.00  0.00    -0.206 F 
ATOM     51  C   UNL A   1      37.645  28.851  30.727  1.00  0.00     0.040 A 
ATOM     52  C   UNL A   1      37.404  29.533  28.429  1.00  0.00     0.040 A 
ATOM     53  F   UNL A   1      39.225  29.363  26.960  1.00  0.00    -0.206 F 
ATOM     54  C   UNL A   1      36.854  29.360  29.698  1.00  0.00     0.006 A 
ENDBRANCH  26  47
BRANCH  38  55
ATOM     55  C   UNL A   1      45.437  32.384  29.220  1.00  0.00     0.057 A 
ATOM     56  C   UNL A   1      45.772  32.854  30.496  1.00  0.00     0.134 A 
ATOM     57  C   UNL A   1      45.383  33.318  28.177  1.00  0.00     0.134 A 
ATOM     58  F   UNL A   1      45.825  32.011  31.538  1.00  0.00    -0.206 F 
ATOM     59  C   UNL A   1      46.016  34.208  30.732  1.00  0.00     0.040 A 
ATOM     60  C   UNL A   1      45.648  34.669  28.396  1.00  0.00     0.040 A 
ATOM     61  F   UNL A   1      45.074  32.930  26.930  1.00  0.00    -0.206 F 
ATOM     62  C   UNL A   1      45.960  35.119  29.678  1.00  0.00     0.006 A 
ENDBRANCH  38  55
ENDBRANCH  12  13
ENDBRANCH   5   7
ENDBRANCH   2   3
ENDBRANCH   1   2
BRANCH   1  63
ATOM     63  C   UNL A   1      36.831  20.600  24.755  1.00  0.00     0.118 C 
BRANCH  63  64
ATOM     64  N   UNL A   1      35.851  20.723  25.822  1.00  0.00    -0.352 N 
ATOM     65  C   UNL A   1      34.656  21.390  25.864  1.00  0.00     0.252 C 
ATOM     66  H   UNL A   1      36.087  20.248  26.652  1.00  0.00     0.163 HD
ATOM     67  O   UNL A   1      33.993  21.378  26.899  1.00  0.00    -0.269 OA
BRANCH  65  68
ATOM     68  C   UNL A   1      34.199  22.220  24.735  1.00  0.00     0.058 A 
ATOM     69  C   UNL A   1      33.175  21.678  23.955  1.00  0.00     0.017 A 
ATOM     70  C   UNL A   1      34.745  23.452  24.370  1.00  0.00     0.055 A 
ATOM     71  C   UNL A   1      32.629  22.408  22.897  1.00  0.00     0.027 A 
ATOM     72  C   UNL A   1      34.138  24.208  23.355  1.00  0.00     0.047 A 
ATOM     73  Cl  UNL A   1      36.189  24.083  25.077  1.00  0.00    -0.083 Cl
ATOM     74  C   UNL A   1      33.036  23.715  22.644  1.00  0.00     0.043 A 
BRANCH  74  75
ATOM     75  N   UNL A   1      32.428  24.591  21.719  1.00  0.00    -0.322 N 
ATOM     76  C   UNL A   1      31.861  25.844  21.840  1.00  0.00     0.257 C 
ATOM     77  H   UNL A   1      32.403  24.238  20.801  1.00  0.00     0.170 HD
ATOM     78  O   UNL A   1      31.331  26.383  20.872  1.00  0.00    -0.269 OA
BRANCH  76  79
ATOM     79  C   UNL A   1      31.840  26.558  23.122  1.00  0.00     0.059 A 
ATOM     80  C   UNL A   1      30.899  26.126  24.069  1.00  0.00     0.022 A 
ATOM     81  C   UNL A   1      32.767  27.559  23.439  1.00  0.00     0.060 A 
ATOM     82  C   UNL A   1      30.959  26.613  25.375  1.00  0.00     0.086 A 
ATOM     83  C   UNL A   1      32.836  28.044  24.749  1.00  0.00     0.107 A 
ATOM     84  Cl  UNL A   1      33.897  28.170  22.285  1.00  0.00    -0.083 Cl
ATOM     85  C   UNL A   1      31.952  27.543  25.716  1.00  0.00     0.270 A 
BRANCH  85  86
ATOM     86  N   UNL A   1      32.109  27.948  27.119  1.00  0.00     0.062 N 
ATOM     87  O   UNL A   1      31.113  27.884  27.850  1.00  0.00    -0.258 OA
ATOM     88  O   UNL A   1      33.238  28.300  27.487  1.00  0.00    -0.258 OA
ENDBRANCH  85  86
ENDBRANCH  76  79
ENDBRANCH  74  75
ENDBRANCH  65  68
ENDBRANCH  63  64
ENDBRANCH   1  63
TORSDOF 13
ENDMDL
