MODEL 1
REMARK VINA RESULT:     -11.7      0.000      0.000
REMARK SMILES O=C(Cc1ccc(NC(=O)Nc2ccc(Br)cc2)cc1)NCCCNC(=O)c1ccc(-c2c3nc(c(-c4c(F)cccc4F)c4ccc([nH]4)c(-c4c(F)cccc4F)c4nc(c(-c5c(F)cccc5F)c5ccc2[nH]5)C=C4)C=C3)cc1
REMARK SMILES IDX 22 1 21 2 1 3 2 4 3 6 4 7 5 8 20 9 6 10 19 11 7 12 8 13 9 14
REMARK SMILES IDX 10 16 11 17 12 19 13 20 18 21 14 22 17 23 15 24 16 25 23 26
REMARK SMILES IDX 24 27 25 28 26 29 27 31 28 32 29 33 81 34 30 35 80 36 31 37
REMARK SMILES IDX 32 38 33 39 74 40 34 41 79 42 73 43 75 44 35 45 78 46 72 47
REMARK SMILES IDX 71 48 36 50 62 51 45 52 61 53 46 54 49 55 60 56 76 57 47 58
REMARK SMILES IDX 48 59 59 61 77 62 50 63 37 64 38 65 43 66 39 67 40 68 42 69
REMARK SMILES IDX 44 70 41 71 63 72 64 73 69 74 65 75 66 76 68 77 70 78 67 79
REMARK SMILES IDX 51 80 52 81 57 82 53 83 54 84 56 85 58 86 55 87
REMARK H PARENT 21 5 8 15 11 18 25 30 75 49 49 60
REMARK Flexibility Score: inf
ROOT
ATOM      1  C   UNL A   1      38.869  21.785  25.745  1.00  0.00     0.117 C 
ENDROOT
BRANCH   1   2
ATOM      2  N   UNL A   1      37.712  22.384  25.115  1.00  0.00    -0.356 N 
ATOM      3  O   UNL A   1      37.667  24.344  26.302  1.00  0.00    -0.275 OA
ATOM      4  C   UNL A   1      37.179  23.608  25.451  1.00  0.00     0.224 C 
ATOM      5  H   UNL A   1      37.273  21.878  24.393  1.00  0.00     0.163 HD
BRANCH   4   6
ATOM      6  C   UNL A   1      35.886  23.937  24.702  1.00  0.00     0.135 C 
BRANCH   6   7
ATOM      7  C   UNL A   1      34.680  23.181  25.211  1.00  0.00    -0.039 A 
ATOM      8  C   UNL A   1      34.466  23.055  26.586  1.00  0.00     0.006 A 
ATOM      9  C   UNL A   1      33.732  22.618  24.344  1.00  0.00     0.006 A 
ATOM     10  C   UNL A   1      33.255  22.551  27.067  1.00  0.00     0.026 A 
ATOM     11  C   UNL A   1      32.499  22.180  24.827  1.00  0.00     0.026 A 
ATOM     12  C   UNL A   1      32.214  22.270  26.187  1.00  0.00     0.042 A 
BRANCH  12  13
ATOM     13  N   UNL A   1      30.870  22.126  26.573  1.00  0.00    -0.308 N 
ATOM     14  C   UNL A   1      29.927  23.011  26.980  1.00  0.00     0.323 C 
ATOM     15  H   UNL A   1      30.549  21.196  26.541  1.00  0.00     0.171 HD
ATOM     16  O   UNL A   1      28.947  22.571  27.590  1.00  0.00    -0.248 OA
ATOM     17  N   UNL A   1      30.013  24.348  26.782  1.00  0.00    -0.308 N 
ATOM     18  H   UNL A   1      29.521  24.883  27.445  1.00  0.00     0.171 HD
BRANCH  17  19
ATOM     19  C   UNL A   1      30.673  25.115  25.806  1.00  0.00     0.042 A 
ATOM     20  C   UNL A   1      31.797  25.838  26.223  1.00  0.00     0.027 A 
ATOM     21  C   UNL A   1      30.310  25.124  24.456  1.00  0.00     0.027 A 
ATOM     22  C   UNL A   1      32.636  26.436  25.279  1.00  0.00     0.018 A 
ATOM     23  C   UNL A   1      31.137  25.743  23.511  1.00  0.00     0.018 A 
ATOM     24  C   UNL A   1      32.313  26.367  23.925  1.00  0.00     0.018 A 
ATOM     25  Br  UNL A   1      33.504  27.080  22.645  1.00  0.00    -0.051 Br
ENDBRANCH  17  19
ENDBRANCH  12  13
ENDBRANCH   6   7
ENDBRANCH   4   6
ENDBRANCH   1   2
BRANCH   1  26
ATOM     26  C   UNL A   1      39.008  20.322  25.335  1.00  0.00     0.042 C 
BRANCH  26  27
ATOM     27  C   UNL A   1      39.786  19.450  26.321  1.00  0.00     0.118 C 
BRANCH  27  28
ATOM     28  N   UNL A   1      41.057  18.972  25.799  1.00  0.00    -0.352 N 
ATOM     29  C   UNL A   1      42.257  19.631  25.704  1.00  0.00     0.251 C 
ATOM     30  H   UNL A   1      41.056  18.044  25.470  1.00  0.00     0.163 HD
ATOM     31  O   UNL A   1      43.200  19.096  25.121  1.00  0.00    -0.269 OA
BRANCH  29  32
ATOM     32  C   UNL A   1      42.418  20.989  26.267  1.00  0.00     0.039 A 
ATOM     33  C   UNL A   1      42.289  21.160  27.648  1.00  0.00     0.014 A 
ATOM     34  C   UNL A   1      42.674  22.093  25.449  1.00  0.00     0.014 A 
ATOM     35  C   UNL A   1      42.465  22.426  28.214  1.00  0.00     0.010 A 
ATOM     36  C   UNL A   1      42.922  23.341  26.021  1.00  0.00     0.010 A 
ATOM     37  C   UNL A   1      42.809  23.523  27.408  1.00  0.00    -0.014 A 
BRANCH  37  38
ATOM     38  C   UNL A   1      43.031  24.870  27.999  1.00  0.00     0.031 A 
ATOM     39  C   UNL A   1      44.408  25.282  28.447  1.00  0.00     0.074 A 
ATOM     40  C   UNL A   1      41.990  25.707  28.174  1.00  0.00     0.049 A 
ATOM     41  N   UNL A   1      44.791  26.392  29.027  1.00  0.00    -0.248 NA
ATOM     42  C   UNL A   1      45.490  24.308  28.241  1.00  0.00     0.031 C 
ATOM     43  C   UNL A   1      40.600  25.416  27.821  1.00  0.00     0.029 A 
ATOM     44  N   UNL A   1      41.940  26.974  28.701  1.00  0.00    -0.354 N 
ATOM     45  C   UNL A   1      46.153  26.243  29.264  1.00  0.00     0.074 A 
ATOM     46  C   UNL A   1      46.516  24.915  28.819  1.00  0.00     0.031 C 
ATOM     47  C   UNL A   1      39.839  26.481  28.118  1.00  0.00     0.029 A 
ATOM     48  C   UNL A   1      40.678  27.516  28.714  1.00  0.00     0.049 A 
ATOM     49  H   UNL A   1      42.734  27.450  29.037  1.00  0.00     0.167 HD
ATOM     50  C   UNL A   1      47.027  27.140  29.781  1.00  0.00     0.037 A 
ATOM     51  C   UNL A   1      40.243  28.710  29.160  1.00  0.00     0.037 A 
ATOM     52  C   UNL A   1      46.672  28.469  30.202  1.00  0.00     0.049 A 
ATOM     53  C   UNL A   1      41.233  29.685  29.739  1.00  0.00     0.074 A 
ATOM     54  C   UNL A   1      47.496  29.469  30.689  1.00  0.00     0.029 A 
ATOM     55  N   UNL A   1      45.385  28.985  30.186  1.00  0.00    -0.354 N 
ATOM     56  N   UNL A   1      42.528  29.555  29.897  1.00  0.00    -0.248 NA
ATOM     57  C   UNL A   1      40.700  30.977  30.194  1.00  0.00     0.031 C 
ATOM     58  C   UNL A   1      46.701  30.574  31.011  1.00  0.00     0.029 A 
ATOM     59  C   UNL A   1      45.389  30.282  30.674  1.00  0.00     0.049 A 
ATOM     60  H   UNL A   1      44.586  28.502  29.874  1.00  0.00     0.167 HD
ATOM     61  C   UNL A   1      42.969  30.758  30.435  1.00  0.00     0.074 A 
ATOM     62  C   UNL A   1      41.805  31.609  30.566  1.00  0.00     0.031 C 
ATOM     63  C   UNL A   1      44.226  31.124  30.787  1.00  0.00     0.037 A 
BRANCH  50  64
ATOM     64  C   UNL A   1      48.459  26.708  29.919  1.00  0.00     0.057 A 
ATOM     65  C   UNL A   1      48.916  26.007  31.044  1.00  0.00     0.134 A 
ATOM     66  C   UNL A   1      49.388  26.967  28.903  1.00  0.00     0.134 A 
ATOM     67  F   UNL A   1      48.083  25.735  32.060  1.00  0.00    -0.206 F 
ATOM     68  C   UNL A   1      50.248  25.607  31.167  1.00  0.00     0.040 A 
ATOM     69  C   UNL A   1      50.715  26.547  29.000  1.00  0.00     0.040 A 
ATOM     70  F   UNL A   1      49.018  27.628  27.794  1.00  0.00    -0.206 F 
ATOM     71  C   UNL A   1      51.150  25.872  30.138  1.00  0.00     0.006 A 
ENDBRANCH  50  64
BRANCH  51  72
ATOM     72  C   UNL A   1      38.806  29.067  29.057  1.00  0.00     0.057 A 
ATOM     73  C   UNL A   1      38.263  29.537  27.854  1.00  0.00     0.134 A 
ATOM     74  C   UNL A   1      37.944  28.964  30.155  1.00  0.00     0.134 A 
ATOM     75  F   UNL A   1      39.042  29.677  26.771  1.00  0.00    -0.206 F 
ATOM     76  C   UNL A   1      36.923  29.913  27.753  1.00  0.00     0.040 A 
ATOM     77  C   UNL A   1      36.595  29.311  30.062  1.00  0.00     0.040 A 
ATOM     78  F   UNL A   1      38.400  28.514  31.333  1.00  0.00    -0.206 F 
ATOM     79  C   UNL A   1      36.083  29.797  28.860  1.00  0.00     0.006 A 
ENDBRANCH  51  72
BRANCH  63  80
ATOM     80  C   UNL A   1      44.417  32.521  31.304  1.00  0.00     0.057 A 
ATOM     81  C   UNL A   1      44.369  32.822  32.670  1.00  0.00     0.134 A 
ATOM     82  C   UNL A   1      44.691  33.574  30.419  1.00  0.00     0.134 A 
ATOM     83  F   UNL A   1      44.099  31.864  33.569  1.00  0.00    -0.206 F 
ATOM     84  C   UNL A   1      44.560  34.124  33.136  1.00  0.00     0.040 A 
ATOM     85  C   UNL A   1      44.912  34.873  30.875  1.00  0.00     0.040 A 
ATOM     86  F   UNL A   1      44.762  33.352  29.097  1.00  0.00    -0.206 F 
ATOM     87  C   UNL A   1      44.840  35.153  32.239  1.00  0.00     0.006 A 
ENDBRANCH  63  80
ENDBRANCH  37  38
ENDBRANCH  29  32
ENDBRANCH  27  28
ENDBRANCH  26  27
ENDBRANCH   1  26
TORSDOF 13
ENDMDL
MODEL 2
REMARK VINA RESULT:     -11.5      4.315      9.202
REMARK SMILES O=C(Cc1ccc(NC(=O)Nc2ccc(Br)cc2)cc1)NCCCNC(=O)c1ccc(-c2c3nc(c(-c4c(F)cccc4F)c4ccc([nH]4)c(-c4c(F)cccc4F)c4nc(c(-c5c(F)cccc5F)c5ccc2[nH]5)C=C4)C=C3)cc1
REMARK SMILES IDX 22 1 21 2 1 3 2 4 3 6 4 7 5 8 20 9 6 10 19 11 7 12 8 13 9 14
REMARK SMILES IDX 10 16 11 17 12 19 13 20 18 21 14 22 17 23 15 24 16 25 23 26
REMARK SMILES IDX 24 27 25 28 26 29 27 31 28 32 29 33 81 34 30 35 80 36 31 37
REMARK SMILES IDX 32 38 33 39 74 40 34 41 79 42 73 43 75 44 35 45 78 46 72 47
REMARK SMILES IDX 71 48 36 50 62 51 45 52 61 53 46 54 49 55 60 56 76 57 47 58
REMARK SMILES IDX 48 59 59 61 77 62 50 63 37 64 38 65 43 66 39 67 40 68 42 69
REMARK SMILES IDX 44 70 41 71 63 72 64 73 69 74 65 75 66 76 68 77 70 78 67 79
REMARK SMILES IDX 51 80 52 81 57 82 53 83 54 84 56 85 58 86 55 87
REMARK H PARENT 21 5 8 15 11 18 25 30 75 49 49 60
REMARK Flexibility Score: inf
ROOT
ATOM      1  C   UNL A   1      30.716  31.535  25.692  1.00  0.00     0.117 C 
ENDROOT
BRANCH   1   2
ATOM      2  N   UNL A   1      31.430  30.470  25.021  1.00  0.00    -0.356 N 
ATOM      3  O   UNL A   1      29.802  29.873  23.523  1.00  0.00    -0.275 OA
ATOM      4  C   UNL A   1      30.918  29.701  24.001  1.00  0.00     0.224 C 
ATOM      5  H   UNL A   1      32.350  30.282  25.317  1.00  0.00     0.163 HD
BRANCH   4   6
ATOM      6  C   UNL A   1      31.851  28.571  23.561  1.00  0.00     0.135 C 
BRANCH   6   7
ATOM      7  C   UNL A   1      31.603  27.263  24.278  1.00  0.00    -0.039 A 
ATOM      8  C   UNL A   1      32.401  26.904  25.366  1.00  0.00     0.006 A 
ATOM      9  C   UNL A   1      30.565  26.396  23.910  1.00  0.00     0.006 A 
ATOM     10  C   UNL A   1      32.052  25.814  26.168  1.00  0.00     0.026 A 
ATOM     11  C   UNL A   1      30.180  25.351  24.751  1.00  0.00     0.026 A 
ATOM     12  C   UNL A   1      30.852  25.143  25.953  1.00  0.00     0.042 A 
BRANCH  12  13
ATOM     13  N   UNL A   1      30.234  24.306  26.897  1.00  0.00    -0.308 N 
ATOM     14  C   UNL A   1      30.043  22.965  26.957  1.00  0.00     0.323 C 
ATOM     15  H   UNL A   1      29.866  24.790  27.671  1.00  0.00     0.171 HD
ATOM     16  O   UNL A   1      29.167  22.538  27.716  1.00  0.00    -0.248 OA
ATOM     17  N   UNL A   1      30.738  22.072  26.211  1.00  0.00    -0.308 N 
ATOM     18  H   UNL A   1      30.253  21.233  26.040  1.00  0.00     0.171 HD
BRANCH  17  19
ATOM     19  C   UNL A   1      32.020  22.118  25.637  1.00  0.00     0.042 A 
ATOM     20  C   UNL A   1      32.086  22.154  24.240  1.00  0.00     0.027 A 
ATOM     21  C   UNL A   1      33.197  22.208  26.386  1.00  0.00     0.027 A 
ATOM     22  C   UNL A   1      33.299  22.429  23.602  1.00  0.00     0.018 A 
ATOM     23  C   UNL A   1      34.417  22.461  25.747  1.00  0.00     0.018 A 
ATOM     24  C   UNL A   1      34.454  22.604  24.361  1.00  0.00     0.018 A 
ATOM     25  Br  UNL A   1      36.067  23.086  23.505  1.00  0.00    -0.051 Br
ENDBRANCH  17  19
ENDBRANCH  12  13
ENDBRANCH   6   7
ENDBRANCH   4   6
ENDBRANCH   1   2
BRANCH   1  26
ATOM     26  C   UNL A   1      31.400  31.897  27.008  1.00  0.00     0.042 C 
BRANCH  26  27
ATOM     27  C   UNL A   1      32.613  32.816  26.869  1.00  0.00     0.118 C 
BRANCH  27  28
ATOM     28  N   UNL A   1      32.427  34.123  27.480  1.00  0.00    -0.352 N 
ATOM     29  C   UNL A   1      33.112  34.697  28.522  1.00  0.00     0.251 C 
ATOM     30  H   UNL A   1      31.710  34.674  27.091  1.00  0.00     0.163 HD
ATOM     31  O   UNL A   1      32.731  35.774  28.980  1.00  0.00    -0.269 OA
BRANCH  29  32
ATOM     32  C   UNL A   1      34.285  34.020  29.117  1.00  0.00     0.039 A 
ATOM     33  C   UNL A   1      34.068  33.030  30.080  1.00  0.00     0.014 A 
ATOM     34  C   UNL A   1      35.590  34.365  28.753  1.00  0.00     0.014 A 
ATOM     35  C   UNL A   1      35.156  32.352  30.639  1.00  0.00     0.010 A 
ATOM     36  C   UNL A   1      36.669  33.638  29.256  1.00  0.00     0.010 A 
ATOM     37  C   UNL A   1      36.464  32.632  30.213  1.00  0.00    -0.014 A 
BRANCH  37  38
ATOM     38  C   UNL A   1      37.628  31.897  30.776  1.00  0.00     0.031 A 
ATOM     39  C   UNL A   1      38.134  32.224  32.156  1.00  0.00     0.074 A 
ATOM     40  C   UNL A   1      38.258  30.966  30.034  1.00  0.00     0.049 A 
ATOM     41  N   UNL A   1      39.160  31.727  32.800  1.00  0.00    -0.248 NA
ATOM     42  C   UNL A   1      37.406  33.263  32.899  1.00  0.00     0.031 C 
ATOM     43  C   UNL A   1      37.895  30.583  28.668  1.00  0.00     0.029 A 
ATOM     44  N   UNL A   1      39.344  30.176  30.323  1.00  0.00    -0.354 N 
ATOM     45  C   UNL A   1      39.207  32.402  34.014  1.00  0.00     0.074 A 
ATOM     46  C   UNL A   1      38.142  33.381  33.993  1.00  0.00     0.031 C 
ATOM     47  C   UNL A   1      38.727  29.616  28.248  1.00  0.00     0.029 A 
ATOM     48  C   UNL A   1      39.702  29.335  29.297  1.00  0.00     0.049 A 
ATOM     49  H   UNL A   1      39.820  30.209  31.184  1.00  0.00     0.167 HD
ATOM     50  C   UNL A   1      40.043  32.206  35.062  1.00  0.00     0.037 A 
ATOM     51  C   UNL A   1      40.706  28.442  29.208  1.00  0.00     0.037 A 
ATOM     52  C   UNL A   1      41.087  31.216  35.093  1.00  0.00     0.049 A 
ATOM     53  C   UNL A   1      41.628  28.250  30.383  1.00  0.00     0.074 A 
ATOM     54  C   UNL A   1      41.951  30.906  36.129  1.00  0.00     0.029 A 
ATOM     55  N   UNL A   1      41.408  30.374  34.039  1.00  0.00    -0.354 N 
ATOM     56  N   UNL A   1      41.619  28.850  31.549  1.00  0.00    -0.248 NA
ATOM     57  C   UNL A   1      42.693  27.250  30.231  1.00  0.00     0.031 C 
ATOM     58  C   UNL A   1      42.826  29.909  35.685  1.00  0.00     0.029 A 
ATOM     59  C   UNL A   1      42.472  29.559  34.393  1.00  0.00     0.049 A 
ATOM     60  H   UNL A   1      40.949  30.358  33.168  1.00  0.00     0.167 HD
ATOM     61  C   UNL A   1      42.652  28.277  32.280  1.00  0.00     0.074 A 
ATOM     62  C   UNL A   1      43.258  27.273  31.430  1.00  0.00     0.031 C 
ATOM     63  C   UNL A   1      43.058  28.555  33.543  1.00  0.00     0.037 A 
BRANCH  50  64
ATOM     64  C   UNL A   1      39.859  33.086  36.266  1.00  0.00     0.057 A 
ATOM     65  C   UNL A   1      38.986  32.741  37.308  1.00  0.00     0.134 A 
ATOM     66  C   UNL A   1      40.586  34.275  36.403  1.00  0.00     0.134 A 
ATOM     67  F   UNL A   1      38.250  31.621  37.235  1.00  0.00    -0.206 F 
ATOM     68  C   UNL A   1      38.820  33.561  38.425  1.00  0.00     0.040 A 
ATOM     69  C   UNL A   1      40.451  35.089  37.530  1.00  0.00     0.040 A 
ATOM     70  F   UNL A   1      41.445  34.662  35.448  1.00  0.00    -0.206 F 
ATOM     71  C   UNL A   1      39.560  34.736  38.540  1.00  0.00     0.006 A 
ENDBRANCH  50  64
BRANCH  51  72
ATOM     72  C   UNL A   1      40.883  27.639  27.972  1.00  0.00     0.057 A 
ATOM     73  C   UNL A   1      40.295  26.374  27.842  1.00  0.00     0.134 A 
ATOM     74  C   UNL A   1      41.653  28.103  26.900  1.00  0.00     0.134 A 
ATOM     75  F   UNL A   1      39.562  25.865  28.844  1.00  0.00    -0.206 F 
ATOM     76  C   UNL A   1      40.485  25.592  26.703  1.00  0.00     0.040 A 
ATOM     77  C   UNL A   1      41.830  27.343  25.743  1.00  0.00     0.040 A 
ATOM     78  F   UNL A   1      42.237  29.309  26.959  1.00  0.00    -0.206 F 
ATOM     79  C   UNL A   1      41.253  26.079  25.646  1.00  0.00     0.006 A 
ENDBRANCH  51  72
BRANCH  63  80
ATOM     80  C   UNL A   1      44.185  27.733  34.101  1.00  0.00     0.057 A 
ATOM     81  C   UNL A   1      45.521  28.141  34.009  1.00  0.00     0.134 A 
ATOM     82  C   UNL A   1      43.920  26.532  34.773  1.00  0.00     0.134 A 
ATOM     83  F   UNL A   1      45.844  29.274  33.368  1.00  0.00    -0.206 F 
ATOM     84  C   UNL A   1      46.556  27.371  34.543  1.00  0.00     0.040 A 
ATOM     85  C   UNL A   1      44.943  25.769  35.335  1.00  0.00     0.040 A 
ATOM     86  F   UNL A   1      42.661  26.088  34.906  1.00  0.00    -0.206 F 
ATOM     87  C   UNL A   1      46.268  26.185  35.215  1.00  0.00     0.006 A 
ENDBRANCH  63  80
ENDBRANCH  37  38
ENDBRANCH  29  32
ENDBRANCH  27  28
ENDBRANCH  26  27
ENDBRANCH   1  26
TORSDOF 13
ENDMDL
MODEL 3
REMARK VINA RESULT:     -11.5      1.800      6.417
REMARK SMILES O=C(Cc1ccc(NC(=O)Nc2ccc(Br)cc2)cc1)NCCCNC(=O)c1ccc(-c2c3nc(c(-c4c(F)cccc4F)c4ccc([nH]4)c(-c4c(F)cccc4F)c4nc(c(-c5c(F)cccc5F)c5ccc2[nH]5)C=C4)C=C3)cc1
REMARK SMILES IDX 22 1 21 2 1 3 2 4 3 6 4 7 5 8 20 9 6 10 19 11 7 12 8 13 9 14
REMARK SMILES IDX 10 16 11 17 12 19 13 20 18 21 14 22 17 23 15 24 16 25 23 26
REMARK SMILES IDX 24 27 25 28 26 29 27 31 28 32 29 33 81 34 30 35 80 36 31 37
REMARK SMILES IDX 32 38 33 39 74 40 34 41 79 42 73 43 75 44 35 45 78 46 72 47
REMARK SMILES IDX 71 48 36 50 62 51 45 52 61 53 46 54 49 55 60 56 76 57 47 58
REMARK SMILES IDX 48 59 59 61 77 62 50 63 37 64 38 65 43 66 39 67 40 68 42 69
REMARK SMILES IDX 44 70 41 71 63 72 64 73 69 74 65 75 66 76 68 77 70 78 67 79
REMARK SMILES IDX 51 80 52 81 57 82 53 83 54 84 56 85 58 86 55 87
REMARK H PARENT 21 5 8 15 11 18 25 30 75 49 49 60
REMARK Flexibility Score: inf
ROOT
ATOM      1  C   UNL A   1      39.066  22.306  26.007  1.00  0.00     0.117 C 
ENDROOT
BRANCH   1   2
ATOM      2  N   UNL A   1      38.058  22.177  24.977  1.00  0.00    -0.356 N 
ATOM      3  O   UNL A   1      36.856  24.069  25.450  1.00  0.00    -0.275 OA
ATOM      4  C   UNL A   1      37.014  23.052  24.784  1.00  0.00     0.224 C 
ATOM      5  H   UNL A   1      38.125  21.404  24.369  1.00  0.00     0.163 HD
BRANCH   4   6
ATOM      6  C   UNL A   1      36.034  22.604  23.698  1.00  0.00     0.135 C 
BRANCH   6   7
ATOM      7  C   UNL A   1      34.678  22.201  24.231  1.00  0.00    -0.039 A 
ATOM      8  C   UNL A   1      34.570  21.635  25.504  1.00  0.00     0.006 A 
ATOM      9  C   UNL A   1      33.499  22.405  23.501  1.00  0.00     0.006 A 
ATOM     10  C   UNL A   1      33.316  21.459  26.094  1.00  0.00     0.026 A 
ATOM     11  C   UNL A   1      32.252  22.291  24.118  1.00  0.00     0.026 A 
ATOM     12  C   UNL A   1      32.172  21.941  25.463  1.00  0.00     0.042 A 
BRANCH  12  13
ATOM     13  N   UNL A   1      30.943  22.154  26.111  1.00  0.00    -0.308 N 
ATOM     14  C   UNL A   1      30.470  23.163  26.884  1.00  0.00     0.323 C 
ATOM     15  H   UNL A   1      30.296  21.425  25.976  1.00  0.00     0.171 HD
ATOM     16  O   UNL A   1      29.496  22.929  27.606  1.00  0.00    -0.248 OA
ATOM     17  N   UNL A   1      31.023  24.399  26.930  1.00  0.00    -0.308 N 
ATOM     18  H   UNL A   1      30.869  24.874  27.777  1.00  0.00     0.171 HD
BRANCH  17  19
ATOM     19  C   UNL A   1      31.775  25.130  25.994  1.00  0.00     0.042 A 
ATOM     20  C   UNL A   1      31.069  25.728  24.944  1.00  0.00     0.027 A 
ATOM     21  C   UNL A   1      33.152  25.345  26.109  1.00  0.00     0.027 A 
ATOM     22  C   UNL A   1      31.703  26.653  24.109  1.00  0.00     0.018 A 
ATOM     23  C   UNL A   1      33.793  26.253  25.259  1.00  0.00     0.018 A 
ATOM     24  C   UNL A   1      33.058  26.927  24.286  1.00  0.00     0.018 A 
ATOM     25  Br  UNL A   1      33.885  28.257  23.230  1.00  0.00    -0.051 Br
ENDBRANCH  17  19
ENDBRANCH  12  13
ENDBRANCH   6   7
ENDBRANCH   4   6
ENDBRANCH   1   2
BRANCH   1  26
ATOM     26  C   UNL A   1      39.459  20.936  26.552  1.00  0.00     0.042 C 
BRANCH  26  27
ATOM     27  C   UNL A   1      39.597  19.840  25.496  1.00  0.00     0.118 C 
BRANCH  27  28
ATOM     28  N   UNL A   1      40.610  18.846  25.816  1.00  0.00    -0.352 N 
ATOM     29  C   UNL A   1      41.904  19.032  26.235  1.00  0.00     0.251 C 
ATOM     30  H   UNL A   1      40.327  17.908  25.719  1.00  0.00     0.163 HD
ATOM     31  O   UNL A   1      42.653  18.061  26.344  1.00  0.00    -0.269 OA
BRANCH  29  32
ATOM     32  C   UNL A   1      42.413  20.389  26.529  1.00  0.00     0.039 A 
ATOM     33  C   UNL A   1      42.937  21.149  25.478  1.00  0.00     0.014 A 
ATOM     34  C   UNL A   1      42.401  20.909  27.826  1.00  0.00     0.014 A 
ATOM     35  C   UNL A   1      43.399  22.446  25.719  1.00  0.00     0.010 A 
ATOM     36  C   UNL A   1      42.794  22.228  28.052  1.00  0.00     0.010 A 
ATOM     37  C   UNL A   1      43.307  23.007  27.003  1.00  0.00    -0.014 A 
BRANCH  37  38
ATOM     38  C   UNL A   1      43.766  24.396  27.268  1.00  0.00     0.031 A 
ATOM     39  C   UNL A   1      42.778  25.453  27.684  1.00  0.00     0.074 A 
ATOM     40  C   UNL A   1      45.061  24.721  27.093  1.00  0.00     0.049 A 
ATOM     41  N   UNL A   1      42.976  26.727  27.914  1.00  0.00    -0.248 NA
ATOM     42  C   UNL A   1      41.379  25.027  27.837  1.00  0.00     0.031 C 
ATOM     43  C   UNL A   1      46.114  23.804  26.654  1.00  0.00     0.029 A 
ATOM     44  N   UNL A   1      45.713  25.919  27.258  1.00  0.00    -0.354 N 
ATOM     45  C   UNL A   1      41.729  27.254  28.225  1.00  0.00     0.074 A 
ATOM     46  C   UNL A   1      40.772  26.175  28.098  1.00  0.00     0.031 C 
ATOM     47  C   UNL A   1      47.282  24.464  26.607  1.00  0.00     0.029 A 
ATOM     48  C   UNL A   1      47.057  25.858  26.978  1.00  0.00     0.049 A 
ATOM     49  H   UNL A   1      45.261  26.743  27.549  1.00  0.00     0.167 HD
ATOM     50  C   UNL A   1      41.411  28.514  28.607  1.00  0.00     0.037 A 
ATOM     51  C   UNL A   1      48.002  26.817  27.011  1.00  0.00     0.037 A 
ATOM     52  C   UNL A   1      42.364  29.581  28.756  1.00  0.00     0.049 A 
ATOM     53  C   UNL A   1      47.621  28.212  27.430  1.00  0.00     0.074 A 
ATOM     54  C   UNL A   1      42.147  30.878  29.189  1.00  0.00     0.029 A 
ATOM     55  N   UNL A   1      43.719  29.475  28.477  1.00  0.00    -0.354 N 
ATOM     56  N   UNL A   1      46.449  28.679  27.783  1.00  0.00    -0.248 NA
ATOM     57  C   UNL A   1      48.699  29.210  27.461  1.00  0.00     0.031 C 
ATOM     58  C   UNL A   1      43.361  31.569  29.127  1.00  0.00     0.029 A 
ATOM     59  C   UNL A   1      44.346  30.689  28.708  1.00  0.00     0.049 A 
ATOM     60  H   UNL A   1      44.168  28.658  28.161  1.00  0.00     0.167 HD
ATOM     61  C   UNL A   1      46.654  30.014  28.113  1.00  0.00     0.074 A 
ATOM     62  C   UNL A   1      48.066  30.277  27.927  1.00  0.00     0.031 C 
ATOM     63  C   UNL A   1      45.753  30.936  28.533  1.00  0.00     0.037 A 
BRANCH  50  64
ATOM     64  C   UNL A   1      39.965  28.806  28.891  1.00  0.00     0.057 A 
ATOM     65  C   UNL A   1      39.424  28.679  30.179  1.00  0.00     0.134 A 
ATOM     66  C   UNL A   1      39.109  29.250  27.876  1.00  0.00     0.134 A 
ATOM     67  F   UNL A   1      40.185  28.248  31.196  1.00  0.00    -0.206 F 
ATOM     68  C   UNL A   1      38.080  28.953  30.438  1.00  0.00     0.040 A 
ATOM     69  C   UNL A   1      37.770  29.555  28.128  1.00  0.00     0.040 A 
ATOM     70  F   UNL A   1      39.562  29.401  26.621  1.00  0.00    -0.206 F 
ATOM     71  C   UNL A   1      37.251  29.399  29.411  1.00  0.00     0.006 A 
ENDBRANCH  50  64
BRANCH  51  72
ATOM     72  C   UNL A   1      49.408  26.492  26.662  1.00  0.00     0.057 A 
ATOM     73  C   UNL A   1      49.895  26.690  25.364  1.00  0.00     0.134 A 
ATOM     74  C   UNL A   1      50.294  25.961  27.607  1.00  0.00     0.134 A 
ATOM     75  F   UNL A   1      49.089  27.177  24.408  1.00  0.00    -0.206 F 
ATOM     76  C   UNL A   1      51.202  26.353  25.012  1.00  0.00     0.040 A 
ATOM     77  C   UNL A   1      51.612  25.644  27.277  1.00  0.00     0.040 A 
ATOM     78  F   UNL A   1      49.892  25.754  28.869  1.00  0.00    -0.206 F 
ATOM     79  C   UNL A   1      52.067  25.830  25.973  1.00  0.00     0.006 A 
ENDBRANCH  51  72
BRANCH  63  80
ATOM     80  C   UNL A   1      46.274  32.305  28.867  1.00  0.00     0.057 A 
ATOM     81  C   UNL A   1      46.320  33.334  27.919  1.00  0.00     0.134 A 
ATOM     82  C   UNL A   1      46.700  32.603  30.168  1.00  0.00     0.134 A 
ATOM     83  F   UNL A   1      45.939  33.112  26.653  1.00  0.00    -0.206 F 
ATOM     84  C   UNL A   1      46.796  34.605  28.247  1.00  0.00     0.040 A 
ATOM     85  C   UNL A   1      47.151  33.877  30.515  1.00  0.00     0.040 A 
ATOM     86  F   UNL A   1      46.673  31.665  31.127  1.00  0.00    -0.206 F 
ATOM     87  C   UNL A   1      47.207  34.882  29.550  1.00  0.00     0.006 A 
ENDBRANCH  63  80
ENDBRANCH  37  38
ENDBRANCH  29  32
ENDBRANCH  27  28
ENDBRANCH  26  27
ENDBRANCH   1  26
TORSDOF 13
ENDMDL
