MODEL 1
REMARK VINA RESULT:     -12.7      0.000      0.000
REMARK SMILES COc1ccc(OC)c(N2C(=O)c3ccc(C(=O)NCCCNC(=O)c4ccc(-c5c6nc(c(-c7c(F)cccc7F)c7ccc([nH]7)c(-c7c(F)cccc7F)c7nc(c(-c8c(F)cccc8F)c8ccc5[nH]8)C=C7)C=C6)cc4)cc3C2=O)c1
REMARK SMILES IDX 21 1 20 2 19 3 17 4 18 5 16 7 10 8 11 9 82 10 12 11 13 12
REMARK SMILES IDX 81 13 83 14 14 15 80 16 15 17 9 18 3 19 4 20 84 21 5 22 6 23
REMARK SMILES IDX 2 24 1 25 7 26 8 27 22 28 23 29 24 30 25 32 26 33 27 34
REMARK SMILES IDX 79 35 28 36 78 37 29 38 30 39 31 40 72 41 32 42 77 43 71 44
REMARK SMILES IDX 73 45 33 46 76 47 70 48 69 49 34 51 60 52 43 53 59 54 44 55
REMARK SMILES IDX 47 56 58 57 74 58 45 59 46 60 57 62 75 63 48 64 35 65 36 66
REMARK SMILES IDX 41 67 37 68 38 69 40 70 42 71 39 72 61 73 62 74 67 75 63 76
REMARK SMILES IDX 64 77 66 78 68 79 65 80 49 81 50 82 55 83 51 84 52 85 54 86
REMARK SMILES IDX 56 87 53 88
REMARK H PARENT 19 6 23 31 73 50 47 61
REMARK Flexibility Score: inf
ROOT
ATOM      1  C   UNL A   1      37.858  19.492  24.978  1.00  0.00     0.042 C 
ENDROOT
BRANCH   1   2
ATOM      2  C   UNL A   1      36.631  20.396  24.982  1.00  0.00     0.118 C 
BRANCH   2   3
ATOM      3  N   UNL A   1      35.387  19.649  24.910  1.00  0.00    -0.352 N 
ATOM      4  C   UNL A   1      34.057  19.938  25.037  1.00  0.00     0.251 C 
ATOM      5  O   UNL A   1      33.294  18.969  25.010  1.00  0.00    -0.269 OA
ATOM      6  H   UNL A   1      35.540  18.695  24.725  1.00  0.00     0.163 HD
BRANCH   4   7
ATOM      7  C   UNL A   1      33.459  21.294  25.205  1.00  0.00     0.040 A 
ATOM      8  N   UNL A   1      31.564  25.443  24.509  1.00  0.00    -0.238 N 
ATOM      9  C   UNL A   1      31.676  25.054  25.824  1.00  0.00     0.266 C 
ATOM     10  C   UNL A   1      32.085  24.484  23.670  1.00  0.00     0.266 C 
ATOM     11  O   UNL A   1      31.350  25.604  26.863  1.00  0.00    -0.268 OA
ATOM     12  C   UNL A   1      32.285  23.735  25.823  1.00  0.00     0.053 A 
ATOM     13  C   UNL A   1      32.483  23.361  24.516  1.00  0.00     0.054 A 
ATOM     14  O   UNL A   1      32.388  24.502  22.491  1.00  0.00    -0.268 OA
ATOM     15  C   UNL A   1      32.651  22.931  26.876  1.00  0.00     0.015 A 
ATOM     16  C   UNL A   1      33.034  22.135  24.171  1.00  0.00     0.028 A 
ATOM     17  C   UNL A   1      33.254  21.712  26.553  1.00  0.00     0.015 A 
BRANCH   8  18
ATOM     18  C   UNL A   1      31.062  26.713  24.119  1.00  0.00     0.098 A 
ATOM     19  C   UNL A   1      29.122  28.023  23.405  1.00  0.00     0.121 A 
ATOM     20  C   UNL A   1      29.954  29.119  23.183  1.00  0.00     0.050 A 
ATOM     21  C   UNL A   1      29.680  26.843  23.891  1.00  0.00     0.077 A 
ATOM     22  C   UNL A   1      31.330  29.027  23.428  1.00  0.00     0.052 A 
ATOM     23  C   UNL A   1      31.884  27.827  23.895  1.00  0.00     0.143 A 
BRANCH  19  24
ATOM     24  O   UNL A   1      27.800  28.199  23.094  1.00  0.00    -0.497 OA
ATOM     25  C   UNL A   1      27.387  29.531  22.787  1.00  0.00     0.278 C 
ENDBRANCH  19  24
BRANCH  23  26
ATOM     26  O   UNL A   1      33.248  27.683  23.889  1.00  0.00    -0.495 OA
ATOM     27  C   UNL A   1      33.872  28.453  22.861  1.00  0.00     0.278 C 
ENDBRANCH  23  26
ENDBRANCH   8  18
ENDBRANCH   4   7
ENDBRANCH   2   3
ENDBRANCH   1   2
BRANCH   1  28
ATOM     28  C   UNL A   1      39.038  20.018  25.789  1.00  0.00     0.118 C 
BRANCH  28  29
ATOM     29  N   UNL A   1      40.136  19.065  25.868  1.00  0.00    -0.352 N 
ATOM     30  C   UNL A   1      41.480  19.257  26.076  1.00  0.00     0.251 C 
ATOM     31  H   UNL A   1      39.871  18.124  25.752  1.00  0.00     0.163 HD
ATOM     32  O   UNL A   1      42.257  18.323  25.893  1.00  0.00    -0.269 OA
BRANCH  30  33
ATOM     33  C   UNL A   1      42.009  20.571  26.504  1.00  0.00     0.039 A 
ATOM     34  C   UNL A   1      42.465  21.463  25.527  1.00  0.00     0.014 A 
ATOM     35  C   UNL A   1      42.113  20.910  27.854  1.00  0.00     0.014 A 
ATOM     36  C   UNL A   1      42.957  22.717  25.902  1.00  0.00     0.010 A 
ATOM     37  C   UNL A   1      42.532  22.187  28.223  1.00  0.00     0.010 A 
ATOM     38  C   UNL A   1      42.959  23.103  27.251  1.00  0.00    -0.014 A 
BRANCH  38  39
ATOM     39  C   UNL A   1      43.400  24.458  27.668  1.00  0.00     0.031 A 
ATOM     40  C   UNL A   1      42.387  25.505  28.041  1.00  0.00     0.074 A 
ATOM     41  C   UNL A   1      44.710  24.770  27.636  1.00  0.00     0.049 A 
ATOM     42  N   UNL A   1      42.571  26.768  28.333  1.00  0.00    -0.248 NA
ATOM     43  C   UNL A   1      40.978  25.084  28.063  1.00  0.00     0.031 C 
ATOM     44  C   UNL A   1      45.788  23.858  27.251  1.00  0.00     0.029 A 
ATOM     45  N   UNL A   1      45.357  25.948  27.917  1.00  0.00    -0.354 N 
ATOM     46  C   UNL A   1      41.305  27.295  28.553  1.00  0.00     0.074 A 
ATOM     47  C   UNL A   1      40.358  26.227  28.319  1.00  0.00     0.031 C 
ATOM     48  C   UNL A   1      46.962  24.504  27.336  1.00  0.00     0.029 A 
ATOM     49  C   UNL A   1      46.718  25.885  27.742  1.00  0.00     0.049 A 
ATOM     50  H   UNL A   1      44.889  26.762  28.216  1.00  0.00     0.167 HD
ATOM     51  C   UNL A   1      40.963  28.549  28.936  1.00  0.00     0.037 A 
ATOM     52  C   UNL A   1      47.661  26.834  27.880  1.00  0.00     0.037 A 
ATOM     53  C   UNL A   1      41.908  29.603  29.197  1.00  0.00     0.049 A 
ATOM     54  C   UNL A   1      47.256  28.218  28.303  1.00  0.00     0.074 A 
ATOM     55  C   UNL A   1      41.665  30.888  29.648  1.00  0.00     0.029 A 
ATOM     56  N   UNL A   1      43.280  29.492  29.028  1.00  0.00    -0.354 N 
ATOM     57  N   UNL A   1      46.060  28.686  28.565  1.00  0.00    -0.248 NA
ATOM     58  C   UNL A   1      48.334  29.207  28.452  1.00  0.00     0.031 C 
ATOM     59  C   UNL A   1      42.885  31.567  29.717  1.00  0.00     0.029 A 
ATOM     60  C   UNL A   1      43.894  30.692  29.347  1.00  0.00     0.049 A 
ATOM     61  H   UNL A   1      43.749  28.681  28.725  1.00  0.00     0.167 HD
ATOM     62  C   UNL A   1      46.242  30.013  28.932  1.00  0.00     0.074 A 
ATOM     63  C   UNL A   1      47.666  30.271  28.873  1.00  0.00     0.031 C 
ATOM     64  C   UNL A   1      45.313  30.933  29.286  1.00  0.00     0.037 A 
BRANCH  51  65
ATOM     65  C   UNL A   1      39.501  28.849  29.098  1.00  0.00     0.057 A 
ATOM     66  C   UNL A   1      38.853  28.713  30.332  1.00  0.00     0.134 A 
ATOM     67  C   UNL A   1      38.741  29.311  28.017  1.00  0.00     0.134 A 
ATOM     68  F   UNL A   1      39.521  28.264  31.406  1.00  0.00    -0.206 F 
ATOM     69  C   UNL A   1      37.494  29.002  30.480  1.00  0.00     0.040 A 
ATOM     70  C   UNL A   1      37.388  29.627  28.157  1.00  0.00     0.040 A 
ATOM     71  F   UNL A   1      39.300  29.470  26.807  1.00  0.00    -0.206 F 
ATOM     72  C   UNL A   1      36.760  29.467  29.391  1.00  0.00     0.006 A 
ENDBRANCH  51  65
BRANCH  52  73
ATOM     73  C   UNL A   1      49.087  26.505  27.634  1.00  0.00     0.057 A 
ATOM     74  C   UNL A   1      49.634  26.589  26.349  1.00  0.00     0.134 A 
ATOM     75  C   UNL A   1      49.935  26.097  28.671  1.00  0.00     0.134 A 
ATOM     76  F   UNL A   1      48.865  26.956  25.312  1.00  0.00    -0.206 F 
ATOM     77  C   UNL A   1      50.967  26.265  26.099  1.00  0.00     0.040 A 
ATOM     78  C   UNL A   1      51.277  25.792  28.439  1.00  0.00     0.040 A 
ATOM     79  F   UNL A   1      49.473  26.003  29.928  1.00  0.00    -0.206 F 
ATOM     80  C   UNL A   1      51.795  25.869  27.148  1.00  0.00     0.006 A 
ENDBRANCH  52  73
BRANCH  64  81
ATOM     81  C   UNL A   1      45.811  32.297  29.665  1.00  0.00     0.057 A 
ATOM     82  C   UNL A   1      45.932  33.325  28.721  1.00  0.00     0.134 A 
ATOM     83  C   UNL A   1      46.140  32.592  30.993  1.00  0.00     0.134 A 
ATOM     84  F   UNL A   1      45.647  33.101  27.430  1.00  0.00    -0.206 F 
ATOM     85  C   UNL A   1      46.383  34.595  29.084  1.00  0.00     0.040 A 
ATOM     86  C   UNL A   1      46.568  33.865  31.373  1.00  0.00     0.040 A 
ATOM     87  F   UNL A   1      46.038  31.652  31.946  1.00  0.00    -0.206 F 
ATOM     88  C   UNL A   1      46.697  34.869  30.415  1.00  0.00     0.006 A 
ENDBRANCH  64  81
ENDBRANCH  38  39
ENDBRANCH  30  33
ENDBRANCH  28  29
ENDBRANCH   1  28
TORSDOF 13
ENDMDL
MODEL 2
REMARK VINA RESULT:     -12.7      4.724     10.122
REMARK SMILES COc1ccc(OC)c(N2C(=O)c3ccc(C(=O)NCCCNC(=O)c4ccc(-c5c6nc(c(-c7c(F)cccc7F)c7ccc([nH]7)c(-c7c(F)cccc7F)c7nc(c(-c8c(F)cccc8F)c8ccc5[nH]8)C=C7)C=C6)cc4)cc3C2=O)c1
REMARK SMILES IDX 21 1 20 2 19 3 17 4 18 5 16 7 10 8 11 9 82 10 12 11 13 12
REMARK SMILES IDX 81 13 83 14 14 15 80 16 15 17 9 18 3 19 4 20 84 21 5 22 6 23
REMARK SMILES IDX 2 24 1 25 7 26 8 27 22 28 23 29 24 30 25 32 26 33 27 34
REMARK SMILES IDX 79 35 28 36 78 37 29 38 30 39 31 40 72 41 32 42 77 43 71 44
REMARK SMILES IDX 73 45 33 46 76 47 70 48 69 49 34 51 60 52 43 53 59 54 44 55
REMARK SMILES IDX 47 56 58 57 74 58 45 59 46 60 57 62 75 63 48 64 35 65 36 66
REMARK SMILES IDX 41 67 37 68 38 69 40 70 42 71 39 72 61 73 62 74 67 75 63 76
REMARK SMILES IDX 64 77 66 78 68 79 65 80 49 81 50 82 55 83 51 84 52 85 54 86
REMARK SMILES IDX 56 87 53 88
REMARK H PARENT 19 6 23 31 73 50 47 61
REMARK Flexibility Score: inf
ROOT
ATOM      1  C   UNL A   1      31.347  31.849  26.404  1.00  0.00     0.042 C 
ENDROOT
BRANCH   1   2
ATOM      2  C   UNL A   1      31.518  30.467  25.783  1.00  0.00     0.118 C 
BRANCH   2   3
ATOM      3  N   UNL A   1      30.741  30.302  24.567  1.00  0.00    -0.352 N 
ATOM      4  C   UNL A   1      30.667  29.376  23.564  1.00  0.00     0.251 C 
ATOM      5  O   UNL A   1      29.924  29.666  22.622  1.00  0.00    -0.269 OA
ATOM      6  H   UNL A   1      30.108  31.043  24.430  1.00  0.00     0.163 HD
BRANCH   4   7
ATOM      7  C   UNL A   1      31.394  28.075  23.507  1.00  0.00     0.040 A 
ATOM      8  N   UNL A   1      32.680  23.667  23.967  1.00  0.00    -0.238 N 
ATOM      9  C   UNL A   1      33.489  24.443  23.169  1.00  0.00     0.266 C 
ATOM     10  C   UNL A   1      31.648  24.416  24.488  1.00  0.00     0.266 C 
ATOM     11  O   UNL A   1      34.496  24.176  22.534  1.00  0.00    -0.268 OA
ATOM     12  C   UNL A   1      32.914  25.777  23.153  1.00  0.00     0.053 A 
ATOM     13  C   UNL A   1      31.764  25.751  23.906  1.00  0.00     0.054 A 
ATOM     14  O   UNL A   1      30.854  24.206  25.387  1.00  0.00    -0.268 OA
ATOM     15  C   UNL A   1      33.362  26.924  22.544  1.00  0.00     0.015 A 
ATOM     16  C   UNL A   1      30.963  26.871  24.074  1.00  0.00     0.028 A 
ATOM     17  C   UNL A   1      32.598  28.077  22.740  1.00  0.00     0.015 A 
BRANCH   8  18
ATOM     18  C   UNL A   1      32.962  22.309  24.266  1.00  0.00     0.098 A 
ATOM     19  C   UNL A   1      32.601  19.960  23.682  1.00  0.00     0.121 A 
ATOM     20  C   UNL A   1      33.301  19.576  24.825  1.00  0.00     0.050 A 
ATOM     21  C   UNL A   1      32.459  21.317  23.404  1.00  0.00     0.077 A 
ATOM     22  C   UNL A   1      33.836  20.542  25.687  1.00  0.00     0.052 A 
ATOM     23  C   UNL A   1      33.668  21.905  25.410  1.00  0.00     0.143 A 
BRANCH  19  24
ATOM     24  O   UNL A   1      32.079  18.943  22.928  1.00  0.00    -0.497 OA
ATOM     25  C   UNL A   1      32.780  17.700  22.957  1.00  0.00     0.278 C 
ENDBRANCH  19  24
BRANCH  23  26
ATOM     26  O   UNL A   1      33.977  22.821  26.383  1.00  0.00    -0.495 OA
ATOM     27  C   UNL A   1      33.524  22.416  27.675  1.00  0.00     0.278 C 
ENDBRANCH  23  26
ENDBRANCH   8  18
ENDBRANCH   4   7
ENDBRANCH   2   3
ENDBRANCH   1   2
BRANCH   1  28
ATOM     28  C   UNL A   1      32.624  32.446  26.986  1.00  0.00     0.118 C 
BRANCH  28  29
ATOM     29  N   UNL A   1      32.441  33.811  27.461  1.00  0.00    -0.352 N 
ATOM     30  C   UNL A   1      33.051  34.497  28.482  1.00  0.00     0.251 C 
ATOM     31  H   UNL A   1      31.766  34.330  26.966  1.00  0.00     0.163 HD
ATOM     32  O   UNL A   1      32.589  35.577  28.842  1.00  0.00    -0.269 OA
BRANCH  30  33
ATOM     33  C   UNL A   1      34.246  33.952  29.165  1.00  0.00     0.039 A 
ATOM     34  C   UNL A   1      34.068  32.998  30.172  1.00  0.00     0.014 A 
ATOM     35  C   UNL A   1      35.529  34.412  28.864  1.00  0.00     0.014 A 
ATOM     36  C   UNL A   1      35.180  32.456  30.824  1.00  0.00     0.010 A 
ATOM     37  C   UNL A   1      36.640  33.818  29.459  1.00  0.00     0.010 A 
ATOM     38  C   UNL A   1      36.477  32.835  30.446  1.00  0.00    -0.014 A 
BRANCH  38  39
ATOM     39  C   UNL A   1      37.677  32.215  31.066  1.00  0.00     0.031 A 
ATOM     40  C   UNL A   1      38.437  31.140  30.340  1.00  0.00     0.074 A 
ATOM     41  C   UNL A   1      38.036  32.567  32.316  1.00  0.00     0.049 A 
ATOM     42  N   UNL A   1      39.443  30.413  30.757  1.00  0.00    -0.248 NA
ATOM     43  C   UNL A   1      37.989  30.819  28.976  1.00  0.00     0.031 C 
ATOM     44  C   UNL A   1      37.356  33.566  33.142  1.00  0.00     0.029 A 
ATOM     45  N   UNL A   1      39.054  32.112  33.116  1.00  0.00    -0.354 N 
ATOM     46  C   UNL A   1      39.735  29.540  29.717  1.00  0.00     0.074 A 
ATOM     47  C   UNL A   1      38.773  29.797  28.667  1.00  0.00     0.031 C 
ATOM     48  C   UNL A   1      37.984  33.659  34.325  1.00  0.00     0.029 A 
ATOM     49  C   UNL A   1      39.085  32.701  34.357  1.00  0.00     0.049 A 
ATOM     50  H   UNL A   1      39.700  31.426  32.828  1.00  0.00     0.167 HD
ATOM     51  C   UNL A   1      40.728  28.621  29.635  1.00  0.00     0.037 A 
ATOM     52  C   UNL A   1      39.900  32.486  35.405  1.00  0.00     0.037 A 
ATOM     53  C   UNL A   1      41.702  28.386  30.668  1.00  0.00     0.049 A 
ATOM     54  C   UNL A   1      40.992  31.459  35.291  1.00  0.00     0.074 A 
ATOM     55  C   UNL A   1      42.782  27.521  30.655  1.00  0.00     0.029 A 
ATOM     56  N   UNL A   1      41.712  29.019  31.902  1.00  0.00    -0.354 N 
ATOM     57  N   UNL A   1      41.293  30.682  34.279  1.00  0.00    -0.248 NA
ATOM     58  C   UNL A   1      41.859  31.281  36.464  1.00  0.00     0.031 C 
ATOM     59  C   UNL A   1      43.425  27.603  31.895  1.00  0.00     0.029 A 
ATOM     60  C   UNL A   1      42.768  28.549  32.666  1.00  0.00     0.049 A 
ATOM     61  H   UNL A   1      41.063  29.701  32.193  1.00  0.00     0.167 HD
ATOM     62  C   UNL A   1      42.396  29.942  34.682  1.00  0.00     0.074 A 
ATOM     63  C   UNL A   1      42.720  30.373  36.027  1.00  0.00     0.031 C 
ATOM     64  C   UNL A   1      43.079  28.991  34.001  1.00  0.00     0.037 A 
BRANCH  51  65
ATOM     65  C   UNL A   1      40.810  27.801  28.380  1.00  0.00     0.057 A 
ATOM     66  C   UNL A   1      40.137  26.579  28.251  1.00  0.00     0.134 A 
ATOM     67  C   UNL A   1      41.542  28.255  27.276  1.00  0.00     0.134 A 
ATOM     68  F   UNL A   1      39.427  26.083  29.276  1.00  0.00    -0.206 F 
ATOM     69  C   UNL A   1      40.210  25.825  27.078  1.00  0.00     0.040 A 
ATOM     70  C   UNL A   1      41.602  27.522  26.089  1.00  0.00     0.040 A 
ATOM     71  F   UNL A   1      42.207  29.419  27.329  1.00  0.00    -0.206 F 
ATOM     72  C   UNL A   1      40.940  26.300  25.990  1.00  0.00     0.006 A 
ENDBRANCH  51  65
BRANCH  52  73
ATOM     73  C   UNL A   1      39.728  33.272  36.652  1.00  0.00     0.057 A 
ATOM     74  C   UNL A   1      38.859  32.841  37.660  1.00  0.00     0.134 A 
ATOM     75  C   UNL A   1      40.423  34.468  36.866  1.00  0.00     0.134 A 
ATOM     76  F   UNL A   1      38.151  31.712  37.503  1.00  0.00    -0.206 F 
ATOM     77  C   UNL A   1      38.672  33.579  38.829  1.00  0.00     0.040 A 
ATOM     78  C   UNL A   1      40.264  35.204  38.041  1.00  0.00     0.040 A 
ATOM     79  F   UNL A   1      41.278  34.931  35.941  1.00  0.00    -0.206 F 
ATOM     80  C   UNL A   1      39.381  34.763  39.025  1.00  0.00     0.006 A 
ENDBRANCH  52  73
BRANCH  64  81
ATOM     81  C   UNL A   1      44.261  28.374  34.688  1.00  0.00     0.057 A 
ATOM     82  C   UNL A   1      45.532  28.961  34.637  1.00  0.00     0.134 A 
ATOM     83  C   UNL A   1      44.118  27.199  35.435  1.00  0.00     0.134 A 
ATOM     84  F   UNL A   1      45.738  30.079  33.926  1.00  0.00    -0.206 F 
ATOM     85  C   UNL A   1      46.625  28.387  35.290  1.00  0.00     0.040 A 
ATOM     86  C   UNL A   1      45.197  26.629  36.113  1.00  0.00     0.040 A 
ATOM     87  F   UNL A   1      42.925  26.592  35.529  1.00  0.00    -0.206 F 
ATOM     88  C   UNL A   1      46.456  27.221  36.036  1.00  0.00     0.006 A 
ENDBRANCH  64  81
ENDBRANCH  38  39
ENDBRANCH  30  33
ENDBRANCH  28  29
ENDBRANCH   1  28
TORSDOF 13
ENDMDL
MODEL 3
REMARK VINA RESULT:     -12.6      1.194      6.251
REMARK SMILES COc1ccc(OC)c(N2C(=O)c3ccc(C(=O)NCCCNC(=O)c4ccc(-c5c6nc(c(-c7c(F)cccc7F)c7ccc([nH]7)c(-c7c(F)cccc7F)c7nc(c(-c8c(F)cccc8F)c8ccc5[nH]8)C=C7)C=C6)cc4)cc3C2=O)c1
REMARK SMILES IDX 21 1 20 2 19 3 17 4 18 5 16 7 10 8 11 9 82 10 12 11 13 12
REMARK SMILES IDX 81 13 83 14 14 15 80 16 15 17 9 18 3 19 4 20 84 21 5 22 6 23
REMARK SMILES IDX 2 24 1 25 7 26 8 27 22 28 23 29 24 30 25 32 26 33 27 34
REMARK SMILES IDX 79 35 28 36 78 37 29 38 30 39 31 40 72 41 32 42 77 43 71 44
REMARK SMILES IDX 73 45 33 46 76 47 70 48 69 49 34 51 60 52 43 53 59 54 44 55
REMARK SMILES IDX 47 56 58 57 74 58 45 59 46 60 57 62 75 63 48 64 35 65 36 66
REMARK SMILES IDX 41 67 37 68 38 69 40 70 42 71 39 72 61 73 62 74 67 75 63 76
REMARK SMILES IDX 64 77 66 78 68 79 65 80 49 81 50 82 55 83 51 84 52 85 54 86
REMARK SMILES IDX 56 87 53 88
REMARK H PARENT 19 6 23 31 73 50 47 61
REMARK Flexibility Score: inf
ROOT
ATOM      1  C   UNL A   1      38.115  19.651  24.915  1.00  0.00     0.042 C 
ENDROOT
BRANCH   1   2
ATOM      2  C   UNL A   1      36.854  20.507  24.954  1.00  0.00     0.118 C 
BRANCH   2   3
ATOM      3  N   UNL A   1      35.639  19.715  24.866  1.00  0.00    -0.352 N 
ATOM      4  C   UNL A   1      34.300  19.951  24.993  1.00  0.00     0.251 C 
ATOM      5  O   UNL A   1      33.574  18.954  24.948  1.00  0.00    -0.269 OA
ATOM      6  H   UNL A   1      35.828  18.770  24.664  1.00  0.00     0.163 HD
BRANCH   4   7
ATOM      7  C   UNL A   1      33.650  21.281  25.183  1.00  0.00     0.040 A 
ATOM      8  N   UNL A   1      31.640  25.386  24.552  1.00  0.00    -0.238 N 
ATOM      9  C   UNL A   1      31.721  24.958  25.857  1.00  0.00     0.266 C 
ATOM     10  C   UNL A   1      32.223  24.473  23.702  1.00  0.00     0.266 C 
ATOM     11  O   UNL A   1      31.341  25.462  26.901  1.00  0.00    -0.268 OA
ATOM     12  C   UNL A   1      32.374  23.661  25.836  1.00  0.00     0.053 A 
ATOM     13  C   UNL A   1      32.629  23.335  24.525  1.00  0.00     0.054 A 
ATOM     14  O   UNL A   1      32.565  24.539  22.536  1.00  0.00    -0.268 OA
ATOM     15  C   UNL A   1      32.731  22.835  26.875  1.00  0.00     0.015 A 
ATOM     16  C   UNL A   1      33.232  22.141  24.161  1.00  0.00     0.028 A 
ATOM     17  C   UNL A   1      33.385  21.648  26.536  1.00  0.00     0.015 A 
BRANCH   8  18
ATOM     18  C   UNL A   1      31.109  26.650  24.185  1.00  0.00     0.098 A 
ATOM     19  C   UNL A   1      29.144  27.925  23.477  1.00  0.00     0.121 A 
ATOM     20  C   UNL A   1      29.948  29.048  23.290  1.00  0.00     0.050 A 
ATOM     21  C   UNL A   1      29.727  26.749  23.943  1.00  0.00     0.077 A 
ATOM     22  C   UNL A   1      31.324  28.986  23.550  1.00  0.00     0.052 A 
ATOM     23  C   UNL A   1      31.904  27.792  23.996  1.00  0.00     0.143 A 
BRANCH  19  24
ATOM     24  O   UNL A   1      27.821  28.074  23.154  1.00  0.00    -0.497 OA
ATOM     25  C   UNL A   1      27.386  29.395  22.834  1.00  0.00     0.278 C 
ENDBRANCH  19  24
BRANCH  23  26
ATOM     26  O   UNL A   1      33.272  27.683  24.004  1.00  0.00    -0.495 OA
ATOM     27  C   UNL A   1      33.863  28.175  22.800  1.00  0.00     0.278 C 
ENDBRANCH  23  26
ENDBRANCH   8  18
ENDBRANCH   4   7
ENDBRANCH   2   3
ENDBRANCH   1   2
BRANCH   1  28
ATOM     28  C   UNL A   1      39.118  19.946  26.026  1.00  0.00     0.118 C 
BRANCH  28  29
ATOM     29  N   UNL A   1      40.354  19.188  25.884  1.00  0.00    -0.352 N 
ATOM     30  C   UNL A   1      41.666  19.581  25.985  1.00  0.00     0.251 C 
ATOM     31  H   UNL A   1      40.227  18.233  25.682  1.00  0.00     0.163 HD
ATOM     32  O   UNL A   1      42.553  18.815  25.618  1.00  0.00    -0.269 OA
BRANCH  30  33
ATOM     33  C   UNL A   1      42.028  20.914  26.516  1.00  0.00     0.039 A 
ATOM     34  C   UNL A   1      42.417  21.913  25.617  1.00  0.00     0.014 A 
ATOM     35  C   UNL A   1      42.043  21.172  27.888  1.00  0.00     0.014 A 
ATOM     36  C   UNL A   1      42.751  23.186  26.089  1.00  0.00     0.010 A 
ATOM     37  C   UNL A   1      42.303  22.460  28.353  1.00  0.00     0.010 A 
ATOM     38  C   UNL A   1      42.661  23.480  27.458  1.00  0.00    -0.014 A 
BRANCH  38  39
ATOM     39  C   UNL A   1      42.931  24.845  27.977  1.00  0.00     0.031 A 
ATOM     40  C   UNL A   1      44.318  25.235  28.404  1.00  0.00     0.074 A 
ATOM     41  C   UNL A   1      41.909  25.709  28.136  1.00  0.00     0.049 A 
ATOM     42  N   UNL A   1      44.729  26.339  28.973  1.00  0.00    -0.248 NA
ATOM     43  C   UNL A   1      45.381  24.240  28.189  1.00  0.00     0.031 C 
ATOM     44  C   UNL A   1      40.511  25.438  27.800  1.00  0.00     0.029 A 
ATOM     45  N   UNL A   1      41.889  26.987  28.637  1.00  0.00    -0.354 N 
ATOM     46  C   UNL A   1      46.089  26.166  29.201  1.00  0.00     0.074 A 
ATOM     47  C   UNL A   1      46.425  24.833  28.748  1.00  0.00     0.031 C 
ATOM     48  C   UNL A   1      39.771  26.521  28.089  1.00  0.00     0.029 A 
ATOM     49  C   UNL A   1      40.634  27.547  28.666  1.00  0.00     0.049 A 
ATOM     50  H   UNL A   1      42.696  27.458  28.947  1.00  0.00     0.167 HD
ATOM     51  C   UNL A   1      46.980  27.044  29.720  1.00  0.00     0.037 A 
ATOM     52  C   UNL A   1      40.224  28.747  29.117  1.00  0.00     0.037 A 
ATOM     53  C   UNL A   1      46.651  28.380  30.143  1.00  0.00     0.049 A 
ATOM     54  C   UNL A   1      41.232  29.702  29.691  1.00  0.00     0.074 A 
ATOM     55  C   UNL A   1      47.495  29.366  30.624  1.00  0.00     0.029 A 
ATOM     56  N   UNL A   1      45.372  28.917  30.136  1.00  0.00    -0.354 N 
ATOM     57  N   UNL A   1      42.524  29.546  29.845  1.00  0.00    -0.248 NA
ATOM     58  C   UNL A   1      40.724  31.002  30.152  1.00  0.00     0.031 C 
ATOM     59  C   UNL A   1      46.722  30.486  30.944  1.00  0.00     0.029 A 
ATOM     60  C   UNL A   1      45.401  30.213  30.623  1.00  0.00     0.049 A 
ATOM     61  H   UNL A   1      44.563  28.446  29.831  1.00  0.00     0.167 HD
ATOM     62  C   UNL A   1      42.988  30.733  30.396  1.00  0.00     0.074 A 
ATOM     63  C   UNL A   1      41.840  31.605  30.537  1.00  0.00     0.031 C 
ATOM     64  C   UNL A   1      44.251  31.070  30.754  1.00  0.00     0.037 A 
BRANCH  51  65
ATOM     65  C   UNL A   1      48.404  26.586  29.856  1.00  0.00     0.057 A 
ATOM     66  C   UNL A   1      49.358  26.836  28.862  1.00  0.00     0.134 A 
ATOM     67  C   UNL A   1      48.833  25.919  31.010  1.00  0.00     0.134 A 
ATOM     68  F   UNL A   1      49.009  27.461  27.727  1.00  0.00    -0.206 F 
ATOM     69  C   UNL A   1      50.683  26.415  28.998  1.00  0.00     0.040 A 
ATOM     70  C   UNL A   1      50.161  25.516  31.169  1.00  0.00     0.040 A 
ATOM     71  F   UNL A   1      47.973  25.652  32.005  1.00  0.00    -0.206 F 
ATOM     72  C   UNL A   1      51.088  25.758  30.158  1.00  0.00     0.006 A 
ENDBRANCH  51  65
BRANCH  52  73
ATOM     73  C   UNL A   1      38.791  29.121  29.028  1.00  0.00     0.057 A 
ATOM     74  C   UNL A   1      37.954  29.040  30.146  1.00  0.00     0.134 A 
ATOM     75  C   UNL A   1      38.223  29.567  27.828  1.00  0.00     0.134 A 
ATOM     76  F   UNL A   1      38.438  28.601  31.319  1.00  0.00    -0.206 F 
ATOM     77  C   UNL A   1      36.601  29.371  30.073  1.00  0.00     0.040 A 
ATOM     78  C   UNL A   1      36.876  29.924  27.746  1.00  0.00     0.040 A 
ATOM     79  F   UNL A   1      38.974  29.675  26.721  1.00  0.00    -0.206 F 
ATOM     80  C   UNL A   1      36.059  29.820  28.870  1.00  0.00     0.006 A 
ENDBRANCH  52  73
BRANCH  64  81
ATOM     81  C   UNL A   1      44.461  32.449  31.305  1.00  0.00     0.057 A 
ATOM     82  C   UNL A   1      44.410  32.708  32.680  1.00  0.00     0.134 A 
ATOM     83  C   UNL A   1      44.750  33.521  30.452  1.00  0.00     0.134 A 
ATOM     84  F   UNL A   1      44.124  31.727  33.549  1.00  0.00    -0.206 F 
ATOM     85  C   UNL A   1      44.620  33.992  33.186  1.00  0.00     0.040 A 
ATOM     86  C   UNL A   1      44.986  34.804  30.948  1.00  0.00     0.040 A 
ATOM     87  F   UNL A   1      44.819  33.336  29.125  1.00  0.00    -0.206 F 
ATOM     88  C   UNL A   1      44.915  35.043  32.318  1.00  0.00     0.006 A 
ENDBRANCH  64  81
ENDBRANCH  38  39
ENDBRANCH  30  33
ENDBRANCH  28  29
ENDBRANCH   1  28
TORSDOF 13
ENDMDL
