MODEL 1
REMARK VINA RESULT:     -10.4      0.000      0.000
REMARK SMILES CC(C)N1C(=O)C[C@@H](C(=O)NCCCNC(=O)c2ccc(-c3c4nc(c(-c5c(F)cccc5F)c5ccc([nH]5)c(-c5c(F)cccc5F)c5nc(c(-c6c(F)cccc6F)c6ccc3[nH]6)C=C5)C=C4)cc2)[C@H]1c1ccccc1
REMARK SMILES IDX 13 1 12 2 11 3 9 4 10 5 8 7 4 8 5 9 72 10 6 11 7 12 2 13
REMARK SMILES IDX 1 14 3 15 73 16 74 17 78 18 75 19 77 20 76 21 14 22 15 23
REMARK SMILES IDX 16 24 17 26 18 27 19 28 71 29 20 30 70 31 21 32 22 33 23 34
REMARK SMILES IDX 64 35 24 36 69 37 63 38 65 39 25 40 68 41 62 42 61 43 26 45
REMARK SMILES IDX 52 46 35 47 51 48 36 49 39 50 50 51 66 52 37 53 38 54 49 56
REMARK SMILES IDX 67 57 40 58 27 59 28 60 33 61 29 62 30 63 32 64 34 65 31 66
REMARK SMILES IDX 53 67 54 68 59 69 55 70 56 71 58 72 60 73 57 74 41 75 42 76
REMARK SMILES IDX 47 77 43 78 44 79 46 80 48 81 45 82
REMARK H PARENT 11 6 15 25 65 44 39 55
REMARK Flexibility Score: inf
ROOT
ATOM      1  C   UNL A   1      33.708  34.380  28.342  1.00  0.00     0.042 C 
ENDROOT
BRANCH   1   2
ATOM      2  C   UNL A   1      33.282  34.556  29.801  1.00  0.00     0.117 C 
BRANCH   2   3
ATOM      3  N   UNL A   1      34.267  35.327  30.535  1.00  0.00    -0.356 N 
ATOM      4  C   UNL A   1      34.788  35.068  31.767  1.00  0.00     0.226 C 
ATOM      5  O   UNL A   1      35.018  36.035  32.491  1.00  0.00    -0.275 OA
ATOM      6  H   UNL A   1      34.601  36.137  30.088  1.00  0.00     0.163 HD
BRANCH   4   7
ATOM      7  C   UNL A   1      34.984  33.626  32.207  1.00  0.00     0.115 C 
ATOM      8  N   UNL A   1      36.769  33.446  33.766  1.00  0.00    -0.332 N 
ATOM      9  C   UNL A   1      35.602  33.664  34.505  1.00  0.00     0.224 C 
ATOM     10  C   UNL A   1      36.443  33.151  32.377  1.00  0.00     0.128 C 
ATOM     11  O   UNL A   1      35.528  33.824  35.717  1.00  0.00    -0.275 OA
ATOM     12  C   UNL A   1      34.403  33.498  33.607  1.00  0.00     0.116 C 
BRANCH   8  13
ATOM     13  C   UNL A   1      38.009  33.074  34.475  1.00  0.00     0.079 C 
ATOM     14  C   UNL A   1      38.527  34.247  35.319  1.00  0.00     0.031 C 
ATOM     15  C   UNL A   1      37.952  31.827  35.354  1.00  0.00     0.031 C 
ENDBRANCH   8  13
BRANCH  10  16
ATOM     16  C   UNL A   1      37.407  33.629  31.309  1.00  0.00    -0.025 A 
ATOM     17  C   UNL A   1      38.450  34.529  31.587  1.00  0.00     0.006 A 
ATOM     18  C   UNL A   1      37.288  33.151  29.993  1.00  0.00     0.006 A 
ATOM     19  C   UNL A   1      39.332  34.950  30.591  1.00  0.00     0.000 A 
ATOM     20  C   UNL A   1      38.189  33.551  29.001  1.00  0.00     0.000 A 
ATOM     21  C   UNL A   1      39.205  34.455  29.299  1.00  0.00     0.000 A 
ENDBRANCH  10  16
ENDBRANCH   4   7
ENDBRANCH   2   3
ENDBRANCH   1   2
BRANCH   1  22
ATOM     22  C   UNL A   1      34.666  33.212  28.098  1.00  0.00     0.118 C 
BRANCH  22  23
ATOM     23  N   UNL A   1      33.977  31.991  27.710  1.00  0.00    -0.352 N 
ATOM     24  C   UNL A   1      34.423  30.696  27.640  1.00  0.00     0.251 C 
ATOM     25  H   UNL A   1      33.034  32.115  27.455  1.00  0.00     0.163 HD
ATOM     26  O   UNL A   1      33.715  29.847  27.106  1.00  0.00    -0.269 OA
BRANCH  24  27
ATOM     27  C   UNL A   1      35.749  30.312  28.175  1.00  0.00     0.039 A 
ATOM     28  C   UNL A   1      35.814  29.798  29.473  1.00  0.00     0.014 A 
ATOM     29  C   UNL A   1      36.924  30.488  27.439  1.00  0.00     0.014 A 
ATOM     30  C   UNL A   1      37.043  29.404  30.005  1.00  0.00     0.010 A 
ATOM     31  C   UNL A   1      38.140  30.021  27.941  1.00  0.00     0.010 A 
ATOM     32  C   UNL A   1      38.213  29.472  29.230  1.00  0.00    -0.014 A 
BRANCH  32  33
ATOM     33  C   UNL A   1      39.493  28.931  29.757  1.00  0.00     0.031 A 
ATOM     34  C   UNL A   1      40.149  29.525  30.974  1.00  0.00     0.074 A 
ATOM     35  C   UNL A   1      40.080  27.902  29.114  1.00  0.00     0.049 A 
ATOM     36  N   UNL A   1      41.243  29.147  31.587  1.00  0.00    -0.248 NA
ATOM     37  C   UNL A   1      39.508  30.707  31.567  1.00  0.00     0.031 C 
ATOM     38  C   UNL A   1      39.579  27.276  27.888  1.00  0.00     0.029 A 
ATOM     39  N   UNL A   1      41.220  27.196  29.403  1.00  0.00    -0.354 N 
ATOM     40  C   UNL A   1      41.420  30.041  32.635  1.00  0.00     0.074 A 
ATOM     41  C   UNL A   1      40.355  31.016  32.539  1.00  0.00     0.031 C 
ATOM     42  C   UNL A   1      40.382  26.255  27.555  1.00  0.00     0.029 A 
ATOM     43  C   UNL A   1      41.475  26.175  28.519  1.00  0.00     0.049 A 
ATOM     44  H   UNL A   1      41.802  27.401  30.171  1.00  0.00     0.167 HD
ATOM     45  C   UNL A   1      42.371  30.038  33.602  1.00  0.00     0.037 A 
ATOM     46  C   UNL A   1      42.472  25.272  28.488  1.00  0.00     0.037 A 
ATOM     47  C   UNL A   1      43.430  29.066  33.697  1.00  0.00     0.049 A 
ATOM     48  C   UNL A   1      43.515  25.295  29.570  1.00  0.00     0.074 A 
ATOM     49  C   UNL A   1      44.408  28.947  34.670  1.00  0.00     0.029 A 
ATOM     50  N   UNL A   1      43.657  28.050  32.781  1.00  0.00    -0.354 N 
ATOM     51  N   UNL A   1      43.621  26.096  30.602  1.00  0.00    -0.248 NA
ATOM     52  C   UNL A   1      44.570  24.276  29.488  1.00  0.00     0.031 C 
ATOM     53  C   UNL A   1      45.260  27.895  34.313  1.00  0.00     0.029 A 
ATOM     54  C   UNL A   1      44.776  27.318  33.151  1.00  0.00     0.049 A 
ATOM     55  H   UNL A   1      43.106  27.873  31.984  1.00  0.00     0.167 HD
ATOM     56  C   UNL A   1      44.739  25.665  31.304  1.00  0.00     0.074 A 
ATOM     57  C   UNL A   1      45.257  24.513  30.595  1.00  0.00     0.031 C 
ATOM     58  C   UNL A   1      45.291  26.180  32.431  1.00  0.00     0.037 A 
BRANCH  45  59
ATOM     59  C   UNL A   1      42.308  31.125  34.640  1.00  0.00     0.057 A 
ATOM     60  C   UNL A   1      42.976  32.346  34.473  1.00  0.00     0.134 A 
ATOM     61  C   UNL A   1      41.539  30.966  35.800  1.00  0.00     0.134 A 
ATOM     62  F   UNL A   1      43.738  32.563  33.391  1.00  0.00    -0.206 F 
ATOM     63  C   UNL A   1      42.904  33.358  35.434  1.00  0.00     0.040 A 
ATOM     64  C   UNL A   1      41.434  31.981  36.752  1.00  0.00     0.040 A 
ATOM     65  F   UNL A   1      40.866  29.826  36.022  1.00  0.00    -0.206 F 
ATOM     66  C   UNL A   1      42.124  33.179  36.575  1.00  0.00     0.006 A 
ENDBRANCH  45  59
BRANCH  46  67
ATOM     67  C   UNL A   1      42.521  24.254  27.408  1.00  0.00     0.057 A 
ATOM     68  C   UNL A   1      41.968  22.980  27.587  1.00  0.00     0.134 A 
ATOM     69  C   UNL A   1      43.132  24.523  26.177  1.00  0.00     0.134 A 
ATOM     70  F   UNL A   1      41.384  22.656  28.751  1.00  0.00    -0.206 F 
ATOM     71  C   UNL A   1      42.042  22.002  26.594  1.00  0.00     0.040 A 
ATOM     72  C   UNL A   1      43.188  23.564  25.164  1.00  0.00     0.040 A 
ATOM     73  F   UNL A   1      43.673  25.726  25.938  1.00  0.00    -0.206 F 
ATOM     74  C   UNL A   1      42.650  22.297  25.375  1.00  0.00     0.006 A 
ENDBRANCH  46  67
BRANCH  58  75
ATOM     75  C   UNL A   1      46.505  25.477  32.973  1.00  0.00     0.057 A 
ATOM     76  C   UNL A   1      46.408  24.463  33.935  1.00  0.00     0.134 A 
ATOM     77  C   UNL A   1      47.789  25.827  32.534  1.00  0.00     0.134 A 
ATOM     78  F   UNL A   1      45.211  24.086  34.409  1.00  0.00    -0.206 F 
ATOM     79  C   UNL A   1      47.544  23.857  34.475  1.00  0.00     0.040 A 
ATOM     80  C   UNL A   1      48.931  25.205  33.040  1.00  0.00     0.040 A 
ATOM     81  F   UNL A   1      47.956  26.781  31.606  1.00  0.00    -0.206 F 
ATOM     82  C   UNL A   1      48.810  24.225  34.025  1.00  0.00     0.006 A 
ENDBRANCH  58  75
ENDBRANCH  32  33
ENDBRANCH  24  27
ENDBRANCH  22  23
ENDBRANCH   1  22
TORSDOF 12
ENDMDL
MODEL 2
REMARK VINA RESULT:     -10.0      3.648      7.139
REMARK SMILES CC(C)N1C(=O)C[C@@H](C(=O)NCCCNC(=O)c2ccc(-c3c4nc(c(-c5c(F)cccc5F)c5ccc([nH]5)c(-c5c(F)cccc5F)c5nc(c(-c6c(F)cccc6F)c6ccc3[nH]6)C=C5)C=C4)cc2)[C@H]1c1ccccc1
REMARK SMILES IDX 13 1 12 2 11 3 9 4 10 5 8 7 4 8 5 9 72 10 6 11 7 12 2 13
REMARK SMILES IDX 1 14 3 15 73 16 74 17 78 18 75 19 77 20 76 21 14 22 15 23
REMARK SMILES IDX 16 24 17 26 18 27 19 28 71 29 20 30 70 31 21 32 22 33 23 34
REMARK SMILES IDX 64 35 24 36 69 37 63 38 65 39 25 40 68 41 62 42 61 43 26 45
REMARK SMILES IDX 52 46 35 47 51 48 36 49 39 50 50 51 66 52 37 53 38 54 49 56
REMARK SMILES IDX 67 57 40 58 27 59 28 60 33 61 29 62 30 63 32 64 34 65 31 66
REMARK SMILES IDX 53 67 54 68 59 69 55 70 56 71 58 72 60 73 57 74 41 75 42 76
REMARK SMILES IDX 47 77 43 78 44 79 46 80 48 81 45 82
REMARK H PARENT 11 6 15 25 65 44 39 55
REMARK Flexibility Score: inf
ROOT
ATOM      1  C   UNL A   1      31.423  32.060  26.879  1.00  0.00     0.042 C 
ENDROOT
BRANCH   1   2
ATOM      2  C   UNL A   1      31.664  30.555  26.755  1.00  0.00     0.117 C 
BRANCH   2   3
ATOM      3  N   UNL A   1      32.369  30.246  25.525  1.00  0.00    -0.356 N 
ATOM      4  C   UNL A   1      32.914  29.057  25.145  1.00  0.00     0.226 C 
ATOM      5  O   UNL A   1      33.970  29.102  24.517  1.00  0.00    -0.275 OA
ATOM      6  H   UNL A   1      32.466  30.989  24.887  1.00  0.00     0.163 HD
BRANCH   4   7
ATOM      7  C   UNL A   1      32.246  27.759  25.571  1.00  0.00     0.115 C 
ATOM      8  N   UNL A   1      32.322  26.149  23.825  1.00  0.00    -0.332 N 
ATOM      9  C   UNL A   1      33.478  25.974  24.592  1.00  0.00     0.224 C 
ATOM     10  C   UNL A   1      31.393  27.042  24.504  1.00  0.00     0.128 C 
ATOM     11  O   UNL A   1      34.398  25.201  24.355  1.00  0.00    -0.275 OA
ATOM     12  C   UNL A   1      33.353  26.760  25.872  1.00  0.00     0.116 C 
BRANCH   8  13
ATOM     13  C   UNL A   1      31.984  25.145  22.798  1.00  0.00     0.079 C 
ATOM     14  C   UNL A   1      30.653  24.454  23.126  1.00  0.00     0.031 C 
ATOM     15  C   UNL A   1      31.939  25.629  21.350  1.00  0.00     0.031 C 
ENDBRANCH   8  13
BRANCH  10  16
ATOM     16  C   UNL A   1      30.533  27.951  23.646  1.00  0.00    -0.025 A 
ATOM     17  C   UNL A   1      31.086  28.882  22.751  1.00  0.00     0.006 A 
ATOM     18  C   UNL A   1      29.133  27.859  23.713  1.00  0.00     0.006 A 
ATOM     19  C   UNL A   1      30.277  29.703  21.964  1.00  0.00     0.000 A 
ATOM     20  C   UNL A   1      28.322  28.661  22.904  1.00  0.00     0.000 A 
ATOM     21  C   UNL A   1      28.894  29.588  22.036  1.00  0.00     0.000 A 
ENDBRANCH  10  16
ENDBRANCH   4   7
ENDBRANCH   2   3
ENDBRANCH   1   2
BRANCH   1  22
ATOM     22  C   UNL A   1      32.695  32.896  27.031  1.00  0.00     0.118 C 
BRANCH  22  23
ATOM     23  N   UNL A   1      32.444  34.200  27.626  1.00  0.00    -0.352 N 
ATOM     24  C   UNL A   1      33.028  34.820  28.700  1.00  0.00     0.251 C 
ATOM     25  H   UNL A   1      31.738  34.724  27.183  1.00  0.00     0.163 HD
ATOM     26  O   UNL A   1      32.528  35.851  29.141  1.00  0.00    -0.269 OA
BRANCH  24  27
ATOM     27  C   UNL A   1      34.232  34.255  29.350  1.00  0.00     0.039 A 
ATOM     28  C   UNL A   1      34.055  33.407  30.447  1.00  0.00     0.014 A 
ATOM     29  C   UNL A   1      35.524  34.577  28.925  1.00  0.00     0.014 A 
ATOM     30  C   UNL A   1      35.164  32.837  31.074  1.00  0.00     0.010 A 
ATOM     31  C   UNL A   1      36.628  33.946  29.501  1.00  0.00     0.010 A 
ATOM     32  C   UNL A   1      36.460  33.067  30.581  1.00  0.00    -0.014 A 
BRANCH  32  33
ATOM     33  C   UNL A   1      37.623  32.355  31.172  1.00  0.00     0.031 A 
ATOM     34  C   UNL A   1      38.125  32.691  32.550  1.00  0.00     0.074 A 
ATOM     35  C   UNL A   1      38.246  31.407  30.445  1.00  0.00     0.049 A 
ATOM     36  N   UNL A   1      39.100  32.138  33.229  1.00  0.00    -0.248 NA
ATOM     37  C   UNL A   1      37.464  33.802  33.249  1.00  0.00     0.031 C 
ATOM     38  C   UNL A   1      37.896  31.030  29.073  1.00  0.00     0.029 A 
ATOM     39  N   UNL A   1      39.296  30.581  30.757  1.00  0.00    -0.354 N 
ATOM     40  C   UNL A   1      39.168  32.833  34.430  1.00  0.00     0.074 A 
ATOM     41  C   UNL A   1      38.176  33.884  34.364  1.00  0.00     0.031 C 
ATOM     42  C   UNL A   1      38.688  30.021  28.679  1.00  0.00     0.029 A 
ATOM     43  C   UNL A   1      39.625  29.705  29.751  1.00  0.00     0.049 A 
ATOM     44  H   UNL A   1      39.771  30.614  31.619  1.00  0.00     0.167 HD
ATOM     45  C   UNL A   1      39.968  32.601  35.500  1.00  0.00     0.037 A 
ATOM     46  C   UNL A   1      40.572  28.749  29.697  1.00  0.00     0.037 A 
ATOM     47  C   UNL A   1      40.955  31.552  35.566  1.00  0.00     0.049 A 
ATOM     48  C   UNL A   1      41.447  28.517  30.897  1.00  0.00     0.074 A 
ATOM     49  C   UNL A   1      41.775  31.204  36.625  1.00  0.00     0.029 A 
ATOM     50  N   UNL A   1      41.261  30.687  34.526  1.00  0.00    -0.354 N 
ATOM     51  N   UNL A   1      41.444  29.127  32.056  1.00  0.00    -0.248 NA
ATOM     52  C   UNL A   1      42.452  27.452  30.780  1.00  0.00     0.031 C 
ATOM     53  C   UNL A   1      42.617  30.166  36.208  1.00  0.00     0.029 A 
ATOM     54  C   UNL A   1      42.278  29.825  34.909  1.00  0.00     0.049 A 
ATOM     55  H   UNL A   1      40.822  30.685  33.644  1.00  0.00     0.167 HD
ATOM     56  C   UNL A   1      42.426  28.507  32.816  1.00  0.00     0.074 A 
ATOM     57  C   UNL A   1      42.984  27.453  31.994  1.00  0.00     0.031 C 
ATOM     58  C   UNL A   1      42.835  28.787  34.078  1.00  0.00     0.037 A 
BRANCH  45  59
ATOM     59  C   UNL A   1      39.810  33.504  36.693  1.00  0.00     0.057 A 
ATOM     60  C   UNL A   1      40.543  34.691  36.825  1.00  0.00     0.134 A 
ATOM     61  C   UNL A   1      38.886  33.204  37.702  1.00  0.00     0.134 A 
ATOM     62  F   UNL A   1      41.453  35.036  35.900  1.00  0.00    -0.206 F 
ATOM     63  C   UNL A   1      40.383  35.533  37.928  1.00  0.00     0.040 A 
ATOM     64  C   UNL A   1      38.694  34.052  38.794  1.00  0.00     0.040 A 
ATOM     65  F   UNL A   1      38.144  32.088  37.638  1.00  0.00    -0.206 F 
ATOM     66  C   UNL A   1      39.450  35.217  38.914  1.00  0.00     0.006 A 
ENDBRANCH  45  59
BRANCH  46  67
ATOM     67  C   UNL A   1      40.725  27.922  28.474  1.00  0.00     0.057 A 
ATOM     68  C   UNL A   1      41.532  28.342  27.409  1.00  0.00     0.134 A 
ATOM     69  C   UNL A   1      40.059  26.698  28.332  1.00  0.00     0.134 A 
ATOM     70  F   UNL A   1      42.181  29.514  27.478  1.00  0.00    -0.206 F 
ATOM     71  C   UNL A   1      41.652  27.591  26.239  1.00  0.00     0.040 A 
ATOM     72  C   UNL A   1      40.193  25.922  27.180  1.00  0.00     0.040 A 
ATOM     73  F   UNL A   1      39.279  26.233  29.318  1.00  0.00    -0.206 F 
ATOM     74  C   UNL A   1      40.984  26.373  26.125  1.00  0.00     0.006 A 
ENDBRANCH  46  67
BRANCH  58  75
ATOM     75  C   UNL A   1      43.922  27.918  34.647  1.00  0.00     0.057 A 
ATOM     76  C   UNL A   1      43.646  26.689  35.259  1.00  0.00     0.134 A 
ATOM     77  C   UNL A   1      45.263  28.323  34.591  1.00  0.00     0.134 A 
ATOM     78  F   UNL A   1      42.384  26.246  35.359  1.00  0.00    -0.206 F 
ATOM     79  C   UNL A   1      44.657  25.916  35.836  1.00  0.00     0.040 A 
ATOM     80  C   UNL A   1      46.286  27.544  35.134  1.00  0.00     0.040 A 
ATOM     81  F   UNL A   1      45.602  29.483  34.010  1.00  0.00    -0.206 F 
ATOM     82  C   UNL A   1      45.982  26.342  35.771  1.00  0.00     0.006 A 
ENDBRANCH  58  75
ENDBRANCH  32  33
ENDBRANCH  24  27
ENDBRANCH  22  23
ENDBRANCH   1  22
TORSDOF 12
ENDMDL
MODEL 3
REMARK VINA RESULT:     -10.0      5.606     10.942
REMARK SMILES CC(C)N1C(=O)C[C@@H](C(=O)NCCCNC(=O)c2ccc(-c3c4nc(c(-c5c(F)cccc5F)c5ccc([nH]5)c(-c5c(F)cccc5F)c5nc(c(-c6c(F)cccc6F)c6ccc3[nH]6)C=C5)C=C4)cc2)[C@H]1c1ccccc1
REMARK SMILES IDX 13 1 12 2 11 3 9 4 10 5 8 7 4 8 5 9 72 10 6 11 7 12 2 13
REMARK SMILES IDX 1 14 3 15 73 16 74 17 78 18 75 19 77 20 76 21 14 22 15 23
REMARK SMILES IDX 16 24 17 26 18 27 19 28 71 29 20 30 70 31 21 32 22 33 23 34
REMARK SMILES IDX 64 35 24 36 69 37 63 38 65 39 25 40 68 41 62 42 61 43 26 45
REMARK SMILES IDX 52 46 35 47 51 48 36 49 39 50 50 51 66 52 37 53 38 54 49 56
REMARK SMILES IDX 67 57 40 58 27 59 28 60 33 61 29 62 30 63 32 64 34 65 31 66
REMARK SMILES IDX 53 67 54 68 59 69 55 70 56 71 58 72 60 73 57 74 41 75 42 76
REMARK SMILES IDX 47 77 43 78 44 79 46 80 48 81 45 82
REMARK H PARENT 11 6 15 25 65 44 39 55
REMARK Flexibility Score: inf
ROOT
ATOM      1  C   UNL A   1      38.110  19.917  24.680  1.00  0.00     0.042 C 
ENDROOT
BRANCH   1   2
ATOM      2  C   UNL A   1      37.238  21.151  24.446  1.00  0.00     0.117 C 
BRANCH   2   3
ATOM      3  N   UNL A   1      36.369  21.390  25.583  1.00  0.00    -0.356 N 
ATOM      4  C   UNL A   1      35.573  22.470  25.820  1.00  0.00     0.226 C 
ATOM      5  O   UNL A   1      35.473  22.845  26.986  1.00  0.00    -0.275 OA
ATOM      6  H   UNL A   1      36.353  20.684  26.268  1.00  0.00     0.163 HD
BRANCH   4   7
ATOM      7  C   UNL A   1      34.923  23.190  24.649  1.00  0.00     0.115 C 
ATOM      8  N   UNL A   1      32.664  23.745  25.138  1.00  0.00    -0.332 N 
ATOM      9  C   UNL A   1      33.449  24.826  25.553  1.00  0.00     0.224 C 
ATOM     10  C   UNL A   1      33.457  22.818  24.342  1.00  0.00     0.128 C 
ATOM     11  O   UNL A   1      33.058  25.827  26.139  1.00  0.00    -0.275 OA
ATOM     12  C   UNL A   1      34.847  24.665  25.012  1.00  0.00     0.116 C 
BRANCH   8  13
ATOM     13  C   UNL A   1      31.196  23.893  25.112  1.00  0.00     0.079 C 
ATOM     14  C   UNL A   1      30.661  23.782  23.678  1.00  0.00     0.031 C 
ATOM     15  C   UNL A   1      30.394  22.953  26.008  1.00  0.00     0.031 C 
ENDBRANCH   8  13
BRANCH  10  16
ATOM     16  C   UNL A   1      33.129  21.341  24.444  1.00  0.00    -0.025 A 
ATOM     17  C   UNL A   1      33.155  20.650  25.667  1.00  0.00     0.006 A 
ATOM     18  C   UNL A   1      32.761  20.623  23.294  1.00  0.00     0.006 A 
ATOM     19  C   UNL A   1      32.841  19.292  25.741  1.00  0.00     0.000 A 
ATOM     20  C   UNL A   1      32.419  19.269  23.372  1.00  0.00     0.000 A 
ATOM     21  C   UNL A   1      32.467  18.603  24.594  1.00  0.00     0.000 A 
ENDBRANCH  10  16
ENDBRANCH   4   7
ENDBRANCH   2   3
ENDBRANCH   1   2
BRANCH   1  22
ATOM     22  C   UNL A   1      38.986  19.987  25.932  1.00  0.00     0.118 C 
BRANCH  22  23
ATOM     23  N   UNL A   1      40.100  19.052  25.893  1.00  0.00    -0.352 N 
ATOM     24  C   UNL A   1      41.446  19.259  26.047  1.00  0.00     0.251 C 
ATOM     25  H   UNL A   1      39.844  18.115  25.729  1.00  0.00     0.163 HD
ATOM     26  O   UNL A   1      42.226  18.345  25.790  1.00  0.00    -0.269 OA
BRANCH  24  27
ATOM     27  C   UNL A   1      41.975  20.568  26.492  1.00  0.00     0.039 A 
ATOM     28  C   UNL A   1      42.346  21.497  25.516  1.00  0.00     0.014 A 
ATOM     29  C   UNL A   1      42.148  20.876  27.844  1.00  0.00     0.014 A 
ATOM     30  C   UNL A   1      42.829  22.750  25.895  1.00  0.00     0.010 A 
ATOM     31  C   UNL A   1      42.556  22.156  28.223  1.00  0.00     0.010 A 
ATOM     32  C   UNL A   1      42.900  23.109  27.253  1.00  0.00    -0.014 A 
BRANCH  32  33
ATOM     33  C   UNL A   1      43.291  24.488  27.643  1.00  0.00     0.031 A 
ATOM     34  C   UNL A   1      44.728  24.931  27.607  1.00  0.00     0.074 A 
ATOM     35  C   UNL A   1      42.337  25.345  28.056  1.00  0.00     0.049 A 
ATOM     36  N   UNL A   1      45.234  26.109  27.876  1.00  0.00    -0.248 NA
ATOM     37  C   UNL A   1      45.730  23.919  27.243  1.00  0.00     0.031 C 
ATOM     38  C   UNL A   1      40.914  25.021  28.196  1.00  0.00     0.029 A 
ATOM     39  N   UNL A   1      42.413  26.664  28.427  1.00  0.00    -0.354 N 
ATOM     40  C   UNL A   1      46.608  25.979  27.713  1.00  0.00     0.074 A 
ATOM     41  C   UNL A   1      46.862  24.594  27.380  1.00  0.00     0.031 C 
ATOM     42  C   UNL A   1      40.248  26.120  28.580  1.00  0.00     0.029 A 
ATOM     43  C   UNL A   1      41.197  27.216  28.751  1.00  0.00     0.049 A 
ATOM     44  H   UNL A   1      43.258  27.167  28.460  1.00  0.00     0.167 HD
ATOM     45  C   UNL A   1      47.568  26.932  27.810  1.00  0.00     0.037 A 
ATOM     46  C   UNL A   1      40.877  28.465  29.138  1.00  0.00     0.037 A 
ATOM     47  C   UNL A   1      47.314  28.312  28.140  1.00  0.00     0.049 A 
ATOM     48  C   UNL A   1      41.962  29.500  29.241  1.00  0.00     0.074 A 
ATOM     49  C   UNL A   1      48.212  29.363  28.209  1.00  0.00     0.029 A 
ATOM     50  N   UNL A   1      46.070  28.832  28.465  1.00  0.00    -0.354 N 
ATOM     51  N   UNL A   1      43.246  29.381  29.003  1.00  0.00    -0.248 NA
ATOM     52  C   UNL A   1      41.549  30.846  29.656  1.00  0.00     0.031 C 
ATOM     53  C   UNL A   1      47.522  30.505  28.631  1.00  0.00     0.029 A 
ATOM     54  C   UNL A   1      46.183  30.182  28.763  1.00  0.00     0.049 A 
ATOM     55  H   UNL A   1      45.229  28.319  28.482  1.00  0.00     0.167 HD
ATOM     56  C   UNL A   1      43.790  30.641  29.216  1.00  0.00     0.074 A 
ATOM     57  C   UNL A   1      42.690  31.514  29.573  1.00  0.00     0.031 C 
ATOM     58  C   UNL A   1      45.083  31.040  29.130  1.00  0.00     0.037 A 
BRANCH  45  59
ATOM     59  C   UNL A   1      48.990  26.512  27.556  1.00  0.00     0.057 A 
ATOM     60  C   UNL A   1      49.548  26.530  26.270  1.00  0.00     0.134 A 
ATOM     61  C   UNL A   1      49.823  26.125  28.613  1.00  0.00     0.134 A 
ATOM     62  F   UNL A   1      48.805  26.880  25.210  1.00  0.00    -0.206 F 
ATOM     63  C   UNL A   1      50.873  26.152  26.042  1.00  0.00     0.040 A 
ATOM     64  C   UNL A   1      51.158  25.775  28.402  1.00  0.00     0.040 A 
ATOM     65  F   UNL A   1      49.359  26.093  29.872  1.00  0.00    -0.206 F 
ATOM     66  C   UNL A   1      51.685  25.780  27.112  1.00  0.00     0.006 A 
ENDBRANCH  45  59
BRANCH  46  67
ATOM     67  C   UNL A   1      39.465  28.814  29.433  1.00  0.00     0.057 A 
ATOM     68  C   UNL A   1      38.930  28.657  30.718  1.00  0.00     0.134 A 
ATOM     69  C   UNL A   1      38.610  29.301  28.436  1.00  0.00     0.134 A 
ATOM     70  F   UNL A   1      39.695  28.178  31.711  1.00  0.00    -0.206 F 
ATOM     71  C   UNL A   1      37.594  28.945  30.996  1.00  0.00     0.040 A 
ATOM     72  C   UNL A   1      37.278  29.622  28.706  1.00  0.00     0.040 A 
ATOM     73  F   UNL A   1      39.061  29.485  27.186  1.00  0.00    -0.206 F 
ATOM     74  C   UNL A   1      36.765  29.435  29.988  1.00  0.00     0.006 A 
ENDBRANCH  46  67
BRANCH  58  75
ATOM     75  C   UNL A   1      45.365  32.491  29.404  1.00  0.00     0.057 A 
ATOM     76  C   UNL A   1      45.693  32.955  30.684  1.00  0.00     0.134 A 
ATOM     77  C   UNL A   1      45.297  33.438  28.373  1.00  0.00     0.134 A 
ATOM     78  F   UNL A   1      45.763  32.105  31.719  1.00  0.00    -0.206 F 
ATOM     79  C   UNL A   1      45.895  34.313  30.939  1.00  0.00     0.040 A 
ATOM     80  C   UNL A   1      45.531  34.794  28.609  1.00  0.00     0.040 A 
ATOM     81  F   UNL A   1      45.000  33.064  27.120  1.00  0.00    -0.206 F 
ATOM     82  C   UNL A   1      45.818  35.236  29.899  1.00  0.00     0.006 A 
ENDBRANCH  58  75
ENDBRANCH  32  33
ENDBRANCH  24  27
ENDBRANCH  22  23
ENDBRANCH   1  22
TORSDOF 12
ENDMDL
