MODEL 1
REMARK VINA RESULT:     -10.6      0.000      0.000
REMARK SMILES CCN(C[C@@H](C)C#N)C(=O)NC[C@@H]1CC[C@H](C(=O)NCCCNC(=O)c2ccc(-c3c4nc(c(-c5c(F)cccc5F)c5ccc([nH]5)c(-c5c(F)cccc5F)c5nc(c(-c6c(F)cccc6F)c6ccc3[nH]6)C=C5)C=C4)cc2)O1
REMARK SMILES IDX 17 1 18 2 19 3 16 5 13 6 14 7 80 8 15 9 12 10 11 11 9 12
REMARK SMILES IDX 10 13 3 15 2 16 1 17 4 18 5 19 6 20 7 21 8 22 20 23 21 24
REMARK SMILES IDX 22 25 23 26 24 27 25 29 26 30 27 31 79 32 28 33 78 34 29 35
REMARK SMILES IDX 30 36 31 37 72 38 32 39 77 40 71 41 73 42 33 43 76 44 70 45
REMARK SMILES IDX 69 46 34 48 60 49 43 50 59 51 44 52 47 53 58 54 74 55 45 56
REMARK SMILES IDX 46 57 57 59 75 60 48 61 35 62 36 63 41 64 37 65 38 66 40 67
REMARK SMILES IDX 42 68 39 69 61 70 62 71 67 72 63 73 64 74 66 75 68 76 65 77
REMARK SMILES IDX 49 78 50 79 55 80 51 81 52 82 54 83 56 84 53 85
REMARK H PARENT 19 4 11 14 23 28 73 47 47 58
REMARK Flexibility Score: inf
ROOT
ATOM      1  C   UNL A   1      34.767  21.641  26.242  1.00  0.00     0.249 C 
ATOM      2  O   UNL A   1      34.312  21.667  27.389  1.00  0.00    -0.272 OA
ATOM      3  N   UNL A   1      35.985  21.043  26.071  1.00  0.00    -0.354 N 
ATOM      4  H   UNL A   1      36.430  20.735  26.893  1.00  0.00     0.163 HD
ENDROOT
BRANCH   1   5
ATOM      5  C   UNL A   1      34.007  22.318  25.068  1.00  0.00     0.207 C 
ATOM      6  C   UNL A   1      31.871  23.337  24.915  1.00  0.00     0.138 C 
ATOM      7  C   UNL A   1      31.715  21.869  24.518  1.00  0.00     0.037 C 
ATOM      8  O   UNL A   1      33.229  23.472  25.396  1.00  0.00    -0.363 OA
ATOM      9  C   UNL A   1      33.118  21.352  24.312  1.00  0.00     0.045 C 
BRANCH   6  10
ATOM     10  C   UNL A   1      30.917  23.830  26.046  1.00  0.00     0.149 C 
BRANCH  10  11
ATOM     11  N   UNL A   1      31.280  25.067  26.716  1.00  0.00    -0.335 N 
ATOM     12  C   UNL A   1      31.456  26.362  26.393  1.00  0.00     0.317 C 
ATOM     13  O   UNL A   1      31.382  27.135  27.354  1.00  0.00    -0.249 OA
ATOM     14  H   UNL A   1      31.445  24.916  27.675  1.00  0.00     0.165 HD
BRANCH  12  15
ATOM     15  N   UNL A   1      31.764  26.825  25.138  1.00  0.00    -0.324 N 
BRANCH  15  16
ATOM     16  C   UNL A   1      30.693  27.554  24.435  1.00  0.00     0.118 C 
ATOM     17  C   UNL A   1      29.546  26.674  23.962  1.00  0.00     0.027 C 
ENDBRANCH  15  16
BRANCH  15  18
ATOM     18  C   UNL A   1      33.075  26.935  24.494  1.00  0.00     0.139 C 
BRANCH  18  19
ATOM     19  C   UNL A   1      33.013  26.909  22.953  1.00  0.00     0.109 C 
ATOM     20  C   UNL A   1      33.808  28.027  22.286  1.00  0.00     0.026 C 
BRANCH  19  21
ATOM     21  C   UNL A   1      33.478  25.593  22.483  1.00  0.00     0.067 C 
ATOM     22  N   UNL A   1      33.828  24.541  22.136  1.00  0.00    -0.198 NA
ENDBRANCH  19  21
ENDBRANCH  18  19
ENDBRANCH  15  18
ENDBRANCH  12  15
ENDBRANCH  10  11
ENDBRANCH   6  10
ENDBRANCH   1   5
BRANCH   3  23
ATOM     23  C   UNL A   1      36.701  20.807  24.847  1.00  0.00     0.117 C 
BRANCH  23  24
ATOM     24  C   UNL A   1      37.774  19.741  24.962  1.00  0.00     0.042 C 
BRANCH  24  25
ATOM     25  C   UNL A   1      38.983  20.235  25.731  1.00  0.00     0.118 C 
BRANCH  25  26
ATOM     26  N   UNL A   1      39.995  19.191  25.869  1.00  0.00    -0.352 N 
ATOM     27  C   UNL A   1      41.350  19.296  26.047  1.00  0.00     0.251 C 
ATOM     28  H   UNL A   1      39.651  18.270  25.827  1.00  0.00     0.163 HD
ATOM     29  O   UNL A   1      42.059  18.304  25.909  1.00  0.00    -0.269 OA
BRANCH  27  30
ATOM     30  C   UNL A   1      41.954  20.601  26.383  1.00  0.00     0.039 A 
ATOM     31  C   UNL A   1      42.313  21.465  25.347  1.00  0.00     0.014 A 
ATOM     32  C   UNL A   1      42.175  20.968  27.713  1.00  0.00     0.014 A 
ATOM     33  C   UNL A   1      42.837  22.721  25.651  1.00  0.00     0.010 A 
ATOM     34  C   UNL A   1      42.583  22.259  28.015  1.00  0.00     0.010 A 
ATOM     35  C   UNL A   1      42.938  23.142  26.987  1.00  0.00    -0.014 A 
BRANCH  35  36
ATOM     36  C   UNL A   1      43.428  24.497  27.331  1.00  0.00     0.031 A 
ATOM     37  C   UNL A   1      42.460  25.560  27.770  1.00  0.00     0.074 A 
ATOM     38  C   UNL A   1      44.734  24.786  27.187  1.00  0.00     0.049 A 
ATOM     39  N   UNL A   1      42.686  26.816  28.058  1.00  0.00    -0.248 NA
ATOM     40  C   UNL A   1      41.045  25.168  27.865  1.00  0.00     0.031 C 
ATOM     41  C   UNL A   1      45.757  23.854  26.709  1.00  0.00     0.029 A 
ATOM     42  N   UNL A   1      45.423  25.948  27.415  1.00  0.00    -0.354 N 
ATOM     43  C   UNL A   1      41.446  27.362  28.360  1.00  0.00     0.074 A 
ATOM     44  C   UNL A   1      40.463  26.324  28.142  1.00  0.00     0.031 C 
ATOM     45  C   UNL A   1      46.946  24.473  26.705  1.00  0.00     0.029 A 
ATOM     46  C   UNL A   1      46.762  25.857  27.129  1.00  0.00     0.049 A 
ATOM     47  H   UNL A   1      44.997  26.771  27.752  1.00  0.00     0.167 HD
ATOM     48  C   UNL A   1      41.154  28.607  28.807  1.00  0.00     0.037 A 
ATOM     49  C   UNL A   1      47.730  26.790  27.183  1.00  0.00     0.037 A 
ATOM     50  C   UNL A   1      42.140  29.635  29.013  1.00  0.00     0.049 A 
ATOM     51  C   UNL A   1      47.385  28.176  27.651  1.00  0.00     0.074 A 
ATOM     52  C   UNL A   1      41.962  30.916  29.503  1.00  0.00     0.029 A 
ATOM     53  N   UNL A   1      43.492  29.503  28.720  1.00  0.00    -0.354 N 
ATOM     54  N   UNL A   1      46.219  28.660  28.008  1.00  0.00    -0.248 NA
ATOM     55  C   UNL A   1      48.488  29.141  27.730  1.00  0.00     0.031 C 
ATOM     56  C   UNL A   1      43.190  31.582  29.442  1.00  0.00     0.029 A 
ATOM     57  C   UNL A   1      44.151  30.692  28.988  1.00  0.00     0.049 A 
ATOM     58  H   UNL A   1      43.917  28.685  28.375  1.00  0.00     0.167 HD
ATOM     59  C   UNL A   1      46.451  29.978  28.378  1.00  0.00     0.074 A 
ATOM     60  C   UNL A   1      47.872  30.210  28.218  1.00  0.00     0.031 C 
ATOM     61  C   UNL A   1      45.568  30.911  28.815  1.00  0.00     0.037 A 
BRANCH  48  62
ATOM     62  C   UNL A   1      39.707  28.915  29.082  1.00  0.00     0.057 A 
ATOM     63  C   UNL A   1      38.855  29.431  28.094  1.00  0.00     0.134 A 
ATOM     64  C   UNL A   1      39.160  28.705  30.354  1.00  0.00     0.134 A 
ATOM     65  F   UNL A   1      39.313  29.667  26.855  1.00  0.00    -0.206 F 
ATOM     66  C   UNL A   1      37.532  29.777  28.375  1.00  0.00     0.040 A 
ATOM     67  C   UNL A   1      37.826  29.009  30.636  1.00  0.00     0.040 A 
ATOM     68  F   UNL A   1      39.910  28.203  31.346  1.00  0.00    -0.206 F 
ATOM     69  C   UNL A   1      37.013  29.562  29.649  1.00  0.00     0.006 A 
ENDBRANCH  48  62
BRANCH  49  70
ATOM     70  C   UNL A   1      49.115  26.431  26.785  1.00  0.00     0.057 A 
ATOM     71  C   UNL A   1      49.582  26.658  25.486  1.00  0.00     0.134 A 
ATOM     72  C   UNL A   1      50.016  25.883  27.707  1.00  0.00     0.134 A 
ATOM     73  F   UNL A   1      48.763  27.167  24.552  1.00  0.00    -0.206 F 
ATOM     74  C   UNL A   1      50.889  26.340  25.113  1.00  0.00     0.040 A 
ATOM     75  C   UNL A   1      51.334  25.590  27.358  1.00  0.00     0.040 A 
ATOM     76  F   UNL A   1      49.634  25.654  28.972  1.00  0.00    -0.206 F 
ATOM     77  C   UNL A   1      51.772  25.813  26.055  1.00  0.00     0.006 A 
ENDBRANCH  49  70
BRANCH  61  78
ATOM     78  C   UNL A   1      46.118  32.261  29.182  1.00  0.00     0.057 A 
ATOM     79  C   UNL A   1      46.179  33.317  28.264  1.00  0.00     0.134 A 
ATOM     80  C   UNL A   1      46.555  32.517  30.490  1.00  0.00     0.134 A 
ATOM     81  F   UNL A   1      45.787  33.138  26.994  1.00  0.00    -0.206 F 
ATOM     82  C   UNL A   1      46.681  34.569  28.625  1.00  0.00     0.040 A 
ATOM     83  C   UNL A   1      47.026  33.773  30.870  1.00  0.00     0.040 A 
ATOM     84  F   UNL A   1      46.515  31.554  31.423  1.00  0.00    -0.206 F 
ATOM     85  C   UNL A   1      47.099  34.802  29.934  1.00  0.00     0.006 A 
ENDBRANCH  61  78
ENDBRANCH  35  36
ENDBRANCH  27  30
ENDBRANCH  25  26
ENDBRANCH  24  25
ENDBRANCH  23  24
ENDBRANCH   3  23
TORSDOF 17
ENDMDL
MODEL 2
REMARK VINA RESULT:     -10.3      1.416      6.343
REMARK SMILES CCN(C[C@@H](C)C#N)C(=O)NC[C@@H]1CC[C@H](C(=O)NCCCNC(=O)c2ccc(-c3c4nc(c(-c5c(F)cccc5F)c5ccc([nH]5)c(-c5c(F)cccc5F)c5nc(c(-c6c(F)cccc6F)c6ccc3[nH]6)C=C5)C=C4)cc2)O1
REMARK SMILES IDX 17 1 18 2 19 3 16 5 13 6 14 7 80 8 15 9 12 10 11 11 9 12
REMARK SMILES IDX 10 13 3 15 2 16 1 17 4 18 5 19 6 20 7 21 8 22 20 23 21 24
REMARK SMILES IDX 22 25 23 26 24 27 25 29 26 30 27 31 79 32 28 33 78 34 29 35
REMARK SMILES IDX 30 36 31 37 72 38 32 39 77 40 71 41 73 42 33 43 76 44 70 45
REMARK SMILES IDX 69 46 34 48 60 49 43 50 59 51 44 52 47 53 58 54 74 55 45 56
REMARK SMILES IDX 46 57 57 59 75 60 48 61 35 62 36 63 41 64 37 65 38 66 40 67
REMARK SMILES IDX 42 68 39 69 61 70 62 71 67 72 63 73 64 74 66 75 68 76 65 77
REMARK SMILES IDX 49 78 50 79 55 80 51 81 52 82 54 83 56 84 53 85
REMARK H PARENT 19 4 11 14 23 28 73 47 47 58
REMARK Flexibility Score: inf
ROOT
ATOM      1  C   UNL A   1      35.102  21.736  26.074  1.00  0.00     0.249 C 
ATOM      2  O   UNL A   1      34.656  21.837  27.221  1.00  0.00    -0.272 OA
ATOM      3  N   UNL A   1      36.395  21.313  25.946  1.00  0.00    -0.354 N 
ATOM      4  H   UNL A   1      36.888  21.181  26.788  1.00  0.00     0.163 HD
ENDROOT
BRANCH   1   5
ATOM      5  C   UNL A   1      34.239  22.138  24.847  1.00  0.00     0.207 C 
ATOM      6  C   UNL A   1      31.989  22.859  24.634  1.00  0.00     0.138 C 
ATOM      7  C   UNL A   1      32.009  21.341  24.456  1.00  0.00     0.037 C 
ATOM      8  O   UNL A   1      33.330  23.226  25.037  1.00  0.00    -0.363 OA
ATOM      9  C   UNL A   1      33.461  20.971  24.271  1.00  0.00     0.045 C 
BRANCH   6  10
ATOM     10  C   UNL A   1      31.005  23.394  25.720  1.00  0.00     0.149 C 
BRANCH  10  11
ATOM     11  N   UNL A   1      30.359  24.667  25.447  1.00  0.00    -0.335 N 
ATOM     12  C   UNL A   1      30.717  25.900  25.043  1.00  0.00     0.317 C 
ATOM     13  O   UNL A   1      29.787  26.564  24.569  1.00  0.00    -0.249 OA
ATOM     14  H   UNL A   1      29.388  24.612  25.601  1.00  0.00     0.165 HD
BRANCH  12  15
ATOM     15  N   UNL A   1      31.969  26.444  25.189  1.00  0.00    -0.324 N 
BRANCH  15  16
ATOM     16  C   UNL A   1      32.361  26.807  26.562  1.00  0.00     0.118 C 
ATOM     17  C   UNL A   1      31.680  28.058  27.096  1.00  0.00     0.027 C 
ENDBRANCH  15  16
BRANCH  15  18
ATOM     18  C   UNL A   1      33.075  26.479  24.229  1.00  0.00     0.139 C 
BRANCH  18  19
ATOM     19  C   UNL A   1      32.785  27.335  22.980  1.00  0.00     0.109 C 
ATOM     20  C   UNL A   1      33.601  28.623  22.913  1.00  0.00     0.026 C 
BRANCH  19  21
ATOM     21  C   UNL A   1      33.017  26.514  21.780  1.00  0.00     0.067 C 
ATOM     22  N   UNL A   1      33.178  25.846  20.842  1.00  0.00    -0.198 NA
ENDBRANCH  19  21
ENDBRANCH  18  19
ENDBRANCH  15  18
ENDBRANCH  12  15
ENDBRANCH  10  11
ENDBRANCH   6  10
ENDBRANCH   1   5
BRANCH   3  23
ATOM     23  C   UNL A   1      37.130  21.035  24.743  1.00  0.00     0.117 C 
BRANCH  23  24
ATOM     24  C   UNL A   1      38.158  19.930  24.894  1.00  0.00     0.042 C 
BRANCH  24  25
ATOM     25  C   UNL A   1      39.117  20.200  26.036  1.00  0.00     0.118 C 
BRANCH  25  26
ATOM     26  N   UNL A   1      40.287  19.327  25.973  1.00  0.00    -0.352 N 
ATOM     27  C   UNL A   1      41.618  19.631  26.087  1.00  0.00     0.251 C 
ATOM     28  H   UNL A   1      40.088  18.374  25.825  1.00  0.00     0.163 HD
ATOM     29  O   UNL A   1      42.460  18.794  25.776  1.00  0.00    -0.269 OA
BRANCH  27  30
ATOM     30  C   UNL A   1      42.036  20.963  26.565  1.00  0.00     0.039 A 
ATOM     31  C   UNL A   1      42.391  21.935  25.627  1.00  0.00     0.014 A 
ATOM     32  C   UNL A   1      42.087  21.253  27.930  1.00  0.00     0.014 A 
ATOM     33  C   UNL A   1      42.739  23.214  26.061  1.00  0.00     0.010 A 
ATOM     34  C   UNL A   1      42.316  22.555  28.353  1.00  0.00     0.010 A 
ATOM     35  C   UNL A   1      42.665  23.544  27.424  1.00  0.00    -0.014 A 
BRANCH  35  36
ATOM     36  C   UNL A   1      42.963  24.914  27.901  1.00  0.00     0.031 A 
ATOM     37  C   UNL A   1      44.378  25.314  28.213  1.00  0.00     0.074 A 
ATOM     38  C   UNL A   1      41.952  25.776  28.114  1.00  0.00     0.049 A 
ATOM     39  N   UNL A   1      44.831  26.443  28.693  1.00  0.00    -0.248 NA
ATOM     40  C   UNL A   1      45.418  24.297  27.987  1.00  0.00     0.031 C 
ATOM     41  C   UNL A   1      40.533  25.481  27.906  1.00  0.00     0.029 A 
ATOM     42  N   UNL A   1      41.960  27.071  28.562  1.00  0.00    -0.354 N 
ATOM     43  C   UNL A   1      46.202  26.268  28.832  1.00  0.00     0.074 A 
ATOM     44  C   UNL A   1      46.494  24.902  28.464  1.00  0.00     0.031 C 
ATOM     45  C   UNL A   1      39.811  26.571  28.202  1.00  0.00     0.029 A 
ATOM     46  C   UNL A   1      40.708  27.623  28.668  1.00  0.00     0.049 A 
ATOM     47  H   UNL A   1      42.787  27.559  28.787  1.00  0.00     0.167 HD
ATOM     48  C   UNL A   1      47.138  27.174  29.205  1.00  0.00     0.037 A 
ATOM     49  C   UNL A   1      40.324  28.834  29.110  1.00  0.00     0.037 A 
ATOM     50  C   UNL A   1      46.834  28.531  29.578  1.00  0.00     0.049 A 
ATOM     51  C   UNL A   1      41.372  29.817  29.550  1.00  0.00     0.074 A 
ATOM     52  C   UNL A   1      47.707  29.545  29.930  1.00  0.00     0.029 A 
ATOM     53  N   UNL A   1      45.552  29.059  29.664  1.00  0.00    -0.354 N 
ATOM     54  N   UNL A   1      42.674  29.668  29.604  1.00  0.00    -0.248 NA
ATOM     55  C   UNL A   1      40.900  31.138  29.982  1.00  0.00     0.031 C 
ATOM     56  C   UNL A   1      46.952  30.663  30.297  1.00  0.00     0.029 A 
ATOM     57  C   UNL A   1      45.611  30.374  30.098  1.00  0.00     0.049 A 
ATOM     58  H   UNL A   1      44.725  28.571  29.448  1.00  0.00     0.167 HD
ATOM     59  C   UNL A   1      43.179  30.881  30.053  1.00  0.00     0.074 A 
ATOM     60  C   UNL A   1      42.043  31.760  30.239  1.00  0.00     0.031 C 
ATOM     61  C   UNL A   1      44.468  31.236  30.287  1.00  0.00     0.037 A 
BRANCH  48  62
ATOM     62  C   UNL A   1      48.568  26.708  29.239  1.00  0.00     0.057 A 
ATOM     63  C   UNL A   1      49.416  26.824  28.128  1.00  0.00     0.134 A 
ATOM     64  C   UNL A   1      49.102  26.123  30.394  1.00  0.00     0.134 A 
ATOM     65  F   UNL A   1      48.969  27.365  26.984  1.00  0.00    -0.206 F 
ATOM     66  C   UNL A   1      50.721  26.328  28.146  1.00  0.00     0.040 A 
ATOM     67  C   UNL A   1      50.419  25.660  30.438  1.00  0.00     0.040 A 
ATOM     68  F   UNL A   1      48.355  25.989  31.500  1.00  0.00    -0.206 F 
ATOM     69  C   UNL A   1      51.227  25.747  29.306  1.00  0.00     0.006 A 
ENDBRANCH  48  62
BRANCH  49  70
ATOM     70  C   UNL A   1      38.880  29.174  29.149  1.00  0.00     0.057 A 
ATOM     71  C   UNL A   1      38.202  29.606  28.004  1.00  0.00     0.134 A 
ATOM     72  C   UNL A   1      38.134  29.040  30.327  1.00  0.00     0.134 A 
ATOM     73  F   UNL A   1      38.863  29.768  26.847  1.00  0.00    -0.206 F 
ATOM     74  C   UNL A   1      36.839  29.907  28.031  1.00  0.00     0.040 A 
ATOM     75  C   UNL A   1      36.765  29.307  30.362  1.00  0.00     0.040 A 
ATOM     76  F   UNL A   1      38.722  28.618  31.456  1.00  0.00    -0.206 F 
ATOM     77  C   UNL A   1      36.115  29.748  29.212  1.00  0.00     0.006 A 
ENDBRANCH  49  70
BRANCH  61  78
ATOM     78  C   UNL A   1      44.722  32.647  30.738  1.00  0.00     0.057 A 
ATOM     79  C   UNL A   1      44.814  32.992  32.093  1.00  0.00     0.134 A 
ATOM     80  C   UNL A   1      44.918  33.668  29.798  1.00  0.00     0.134 A 
ATOM     81  F   UNL A   1      44.628  32.066  33.045  1.00  0.00    -0.206 F 
ATOM     82  C   UNL A   1      45.063  34.305  32.495  1.00  0.00     0.040 A 
ATOM     83  C   UNL A   1      45.201  34.977  30.188  1.00  0.00     0.040 A 
ATOM     84  F   UNL A   1      44.854  33.407  28.483  1.00  0.00    -0.206 F 
ATOM     85  C   UNL A   1      45.266  35.301  31.541  1.00  0.00     0.006 A 
ENDBRANCH  61  78
ENDBRANCH  35  36
ENDBRANCH  27  30
ENDBRANCH  25  26
ENDBRANCH  24  25
ENDBRANCH  23  24
ENDBRANCH   3  23
TORSDOF 17
ENDMDL
MODEL 3
REMARK VINA RESULT:     -10.2      1.189      2.193
REMARK SMILES CCN(C[C@@H](C)C#N)C(=O)NC[C@@H]1CC[C@H](C(=O)NCCCNC(=O)c2ccc(-c3c4nc(c(-c5c(F)cccc5F)c5ccc([nH]5)c(-c5c(F)cccc5F)c5nc(c(-c6c(F)cccc6F)c6ccc3[nH]6)C=C5)C=C4)cc2)O1
REMARK SMILES IDX 17 1 18 2 19 3 16 5 13 6 14 7 80 8 15 9 12 10 11 11 9 12
REMARK SMILES IDX 10 13 3 15 2 16 1 17 4 18 5 19 6 20 7 21 8 22 20 23 21 24
REMARK SMILES IDX 22 25 23 26 24 27 25 29 26 30 27 31 79 32 28 33 78 34 29 35
REMARK SMILES IDX 30 36 31 37 72 38 32 39 77 40 71 41 73 42 33 43 76 44 70 45
REMARK SMILES IDX 69 46 34 48 60 49 43 50 59 51 44 52 47 53 58 54 74 55 45 56
REMARK SMILES IDX 46 57 57 59 75 60 48 61 35 62 36 63 41 64 37 65 38 66 40 67
REMARK SMILES IDX 42 68 39 69 61 70 62 71 67 72 63 73 64 74 66 75 68 76 65 77
REMARK SMILES IDX 49 78 50 79 55 80 51 81 52 82 54 83 56 84 53 85
REMARK H PARENT 19 4 11 14 23 28 73 47 47 58
REMARK Flexibility Score: inf
ROOT
ATOM      1  C   UNL A   1      34.777  21.570  25.442  1.00  0.00     0.249 C 
ATOM      2  O   UNL A   1      34.060  21.681  26.441  1.00  0.00    -0.272 OA
ATOM      3  N   UNL A   1      36.032  21.062  25.633  1.00  0.00    -0.354 N 
ATOM      4  H   UNL A   1      36.284  20.882  26.567  1.00  0.00     0.163 HD
ENDROOT
BRANCH   1   5
ATOM      5  C   UNL A   1      34.283  22.051  24.050  1.00  0.00     0.207 C 
ATOM      6  C   UNL A   1      33.322  24.086  23.304  1.00  0.00     0.138 C 
ATOM      7  C   UNL A   1      32.179  23.141  23.677  1.00  0.00     0.037 C 
ATOM      8  O   UNL A   1      34.535  23.420  23.724  1.00  0.00    -0.363 OA
ATOM      9  C   UNL A   1      32.809  21.778  23.826  1.00  0.00     0.045 C 
BRANCH   6  10
ATOM     10  C   UNL A   1      33.286  25.486  23.992  1.00  0.00     0.149 C 
BRANCH  10  11
ATOM     11  N   UNL A   1      33.630  26.630  23.165  1.00  0.00    -0.335 N 
ATOM     12  C   UNL A   1      33.454  27.965  23.187  1.00  0.00     0.317 C 
ATOM     13  O   UNL A   1      34.253  28.589  22.479  1.00  0.00    -0.249 OA
ATOM     14  H   UNL A   1      34.133  26.352  22.365  1.00  0.00     0.165 HD
BRANCH  12  15
ATOM     15  N   UNL A   1      32.448  28.615  23.858  1.00  0.00    -0.324 N 
BRANCH  15  16
ATOM     16  C   UNL A   1      31.075  28.318  23.413  1.00  0.00     0.118 C 
ATOM     17  C   UNL A   1      30.128  29.506  23.477  1.00  0.00     0.027 C 
ENDBRANCH  15  16
BRANCH  15  18
ATOM     18  C   UNL A   1      32.514  29.358  25.118  1.00  0.00     0.139 C 
BRANCH  18  19
ATOM     19  C   UNL A   1      33.191  28.578  26.263  1.00  0.00     0.109 C 
ATOM     20  C   UNL A   1      34.290  29.360  26.976  1.00  0.00     0.026 C 
BRANCH  19  21
ATOM     21  C   UNL A   1      32.157  28.152  27.220  1.00  0.00     0.067 C 
ATOM     22  N   UNL A   1      31.358  27.828  28.000  1.00  0.00    -0.198 NA
ENDBRANCH  19  21
ENDBRANCH  18  19
ENDBRANCH  15  18
ENDBRANCH  12  15
ENDBRANCH  10  11
ENDBRANCH   6  10
ENDBRANCH   1   5
BRANCH   3  23
ATOM     23  C   UNL A   1      37.032  20.756  24.647  1.00  0.00     0.117 C 
BRANCH  23  24
ATOM     24  C   UNL A   1      37.979  19.645  25.060  1.00  0.00     0.042 C 
BRANCH  24  25
ATOM     25  C   UNL A   1      39.216  20.182  25.751  1.00  0.00     0.118 C 
BRANCH  25  26
ATOM     26  N   UNL A   1      40.225  19.142  25.931  1.00  0.00    -0.352 N 
ATOM     27  C   UNL A   1      41.578  19.252  26.122  1.00  0.00     0.251 C 
ATOM     28  H   UNL A   1      39.881  18.220  25.912  1.00  0.00     0.163 HD
ATOM     29  O   UNL A   1      42.288  18.255  26.022  1.00  0.00    -0.269 OA
BRANCH  27  30
ATOM     30  C   UNL A   1      42.179  20.565  26.428  1.00  0.00     0.039 A 
ATOM     31  C   UNL A   1      42.658  21.349  25.377  1.00  0.00     0.014 A 
ATOM     32  C   UNL A   1      42.279  21.019  27.745  1.00  0.00     0.014 A 
ATOM     33  C   UNL A   1      43.182  22.612  25.646  1.00  0.00     0.010 A 
ATOM     34  C   UNL A   1      42.688  22.320  27.999  1.00  0.00     0.010 A 
ATOM     35  C   UNL A   1      43.164  23.123  26.954  1.00  0.00    -0.014 A 
BRANCH  35  36
ATOM     36  C   UNL A   1      43.651  24.489  27.253  1.00  0.00     0.031 A 
ATOM     37  C   UNL A   1      42.684  25.563  27.665  1.00  0.00     0.074 A 
ATOM     38  C   UNL A   1      44.956  24.777  27.091  1.00  0.00     0.049 A 
ATOM     39  N   UNL A   1      42.908  26.828  27.912  1.00  0.00    -0.248 NA
ATOM     40  C   UNL A   1      41.270  25.171  27.782  1.00  0.00     0.031 C 
ATOM     41  C   UNL A   1      45.979  23.834  26.636  1.00  0.00     0.029 A 
ATOM     42  N   UNL A   1      45.643  25.948  27.279  1.00  0.00    -0.354 N 
ATOM     43  C   UNL A   1      41.667  27.379  28.206  1.00  0.00     0.074 A 
ATOM     44  C   UNL A   1      40.686  26.333  28.026  1.00  0.00     0.031 C 
ATOM     45  C   UNL A   1      47.166  24.456  26.605  1.00  0.00     0.029 A 
ATOM     46  C   UNL A   1      46.980  25.852  26.987  1.00  0.00     0.049 A 
ATOM     47  H   UNL A   1      45.217  26.779  27.594  1.00  0.00     0.167 HD
ATOM     48  C   UNL A   1      41.375  28.637  28.616  1.00  0.00     0.037 A 
ATOM     49  C   UNL A   1      47.946  26.789  27.006  1.00  0.00     0.037 A 
ATOM     50  C   UNL A   1      42.359  29.674  28.783  1.00  0.00     0.049 A 
ATOM     51  C   UNL A   1      47.600  28.187  27.434  1.00  0.00     0.074 A 
ATOM     52  C   UNL A   1      42.180  30.969  29.235  1.00  0.00     0.029 A 
ATOM     53  N   UNL A   1      43.709  29.536  28.487  1.00  0.00    -0.354 N 
ATOM     54  N   UNL A   1      46.435  28.679  27.784  1.00  0.00    -0.248 NA
ATOM     55  C   UNL A   1      48.700  29.157  27.477  1.00  0.00     0.031 C 
ATOM     56  C   UNL A   1      43.406  31.635  29.145  1.00  0.00     0.029 A 
ATOM     57  C   UNL A   1      44.367  30.735  28.713  1.00  0.00     0.049 A 
ATOM     58  H   UNL A   1      44.135  28.709  28.164  1.00  0.00     0.167 HD
ATOM     59  C   UNL A   1      46.666  30.009  28.111  1.00  0.00     0.074 A 
ATOM     60  C   UNL A   1      48.085  30.239  27.934  1.00  0.00     0.031 C 
ATOM     61  C   UNL A   1      45.782  30.952  28.524  1.00  0.00     0.037 A 
BRANCH  48  62
ATOM     62  C   UNL A   1      39.929  28.949  28.891  1.00  0.00     0.057 A 
ATOM     63  C   UNL A   1      39.383  28.873  30.181  1.00  0.00     0.134 A 
ATOM     64  C   UNL A   1      39.066  29.318  27.851  1.00  0.00     0.134 A 
ATOM     65  F   UNL A   1      40.148  28.517  31.225  1.00  0.00    -0.206 F 
ATOM     66  C   UNL A   1      38.026  29.099  30.418  1.00  0.00     0.040 A 
ATOM     67  C   UNL A   1      37.715  29.586  28.082  1.00  0.00     0.040 A 
ATOM     68  F   UNL A   1      39.519  29.422  26.593  1.00  0.00    -0.206 F 
ATOM     69  C   UNL A   1      37.188  29.461  29.366  1.00  0.00     0.006 A 
ENDBRANCH  48  62
BRANCH  49  70
ATOM     70  C   UNL A   1      49.329  26.421  26.611  1.00  0.00     0.057 A 
ATOM     71  C   UNL A   1      49.795  26.632  25.309  1.00  0.00     0.134 A 
ATOM     72  C   UNL A   1      50.230  25.881  27.538  1.00  0.00     0.134 A 
ATOM     73  F   UNL A   1      48.977  27.133  24.371  1.00  0.00    -0.206 F 
ATOM     74  C   UNL A   1      51.101  26.307  24.939  1.00  0.00     0.040 A 
ATOM     75  C   UNL A   1      51.547  25.581  27.191  1.00  0.00     0.040 A 
ATOM     76  F   UNL A   1      49.848  25.667  28.806  1.00  0.00    -0.206 F 
ATOM     77  C   UNL A   1      51.984  25.788  25.885  1.00  0.00     0.006 A 
ENDBRANCH  49  70
BRANCH  61  78
ATOM     78  C   UNL A   1      46.330  32.314  28.846  1.00  0.00     0.057 A 
ATOM     79  C   UNL A   1      46.807  32.644  30.121  1.00  0.00     0.134 A 
ATOM     80  C   UNL A   1      46.418  33.297  27.850  1.00  0.00     0.134 A 
ATOM     81  F   UNL A   1      46.744  31.754  31.123  1.00  0.00    -0.206 F 
ATOM     82  C   UNL A   1      47.325  33.910  30.401  1.00  0.00     0.040 A 
ATOM     83  C   UNL A   1      46.965  34.554  28.110  1.00  0.00     0.040 A 
ATOM     84  F   UNL A   1      45.990  33.046  26.604  1.00  0.00    -0.206 F 
ATOM     85  C   UNL A   1      47.413  34.867  29.391  1.00  0.00     0.006 A 
ENDBRANCH  61  78
ENDBRANCH  35  36
ENDBRANCH  27  30
ENDBRANCH  25  26
ENDBRANCH  24  25
ENDBRANCH  23  24
ENDBRANCH   3  23
TORSDOF 17
ENDMDL
