MODEL 1
REMARK VINA RESULT:     -11.5      0.000      0.000
REMARK SMILES C[C@H]1CC[C@@]1(C(=O)NCCCNC(=O)c1ccc(-c2c3nc(c(-c4c(F)cccc4F)c4ccc([nH]4)c(-c4c(F)cccc4F)c4nc(c(-c5c(F)cccc5F)c5ccc2[nH]5)C=C4)C=C3)cc1)c1ccc(Cl)cc1Cl
REMARK SMILES IDX 10 1 9 2 8 3 6 4 7 5 5 7 1 8 2 9 3 10 4 11 69 12 70 13 75 14
REMARK SMILES IDX 71 15 74 16 76 17 72 18 73 19 11 20 12 21 13 22 14 24 15 25
REMARK SMILES IDX 16 26 68 27 17 28 67 29 18 30 19 31 20 32 61 33 21 34 66 35
REMARK SMILES IDX 60 36 62 37 22 38 65 39 59 40 58 41 23 43 49 44 32 45 48 46
REMARK SMILES IDX 33 47 36 48 47 49 63 50 34 51 35 52 46 54 64 55 37 56 24 57
REMARK SMILES IDX 25 58 30 59 26 60 27 61 29 62 31 63 28 64 50 65 51 66 56 67
REMARK SMILES IDX 52 68 53 69 55 70 57 71 54 72 38 73 39 74 44 75 40 76 41 77
REMARK SMILES IDX 43 78 45 79 42 80
REMARK H PARENT 8 6 12 23 62 42 36 53
REMARK Flexibility Score: inf
ROOT
ATOM      1  C   UNL A   1      33.818  28.318  25.698  1.00  0.00     0.042 C 
ENDROOT
BRANCH   1   2
ATOM      2  C   UNL A   1      33.468  26.935  25.164  1.00  0.00     0.117 C 
BRANCH   2   3
ATOM      3  N   UNL A   1      33.652  26.799  23.733  1.00  0.00    -0.355 N 
ATOM      4  C   UNL A   1      33.551  25.693  22.920  1.00  0.00     0.230 C 
ATOM      5  O   UNL A   1      33.652  25.914  21.705  1.00  0.00    -0.274 OA
ATOM      6  H   UNL A   1      33.890  27.633  23.268  1.00  0.00     0.163 HD
BRANCH   4   7
ATOM      7  C   UNL A   1      33.260  24.251  23.558  1.00  0.00     0.078 C 
ATOM      8  C   UNL A   1      32.499  21.756  22.787  1.00  0.00     0.009 C 
ATOM      9  C   UNL A   1      32.448  23.266  22.583  1.00  0.00     0.006 C 
ATOM     10  C   UNL A   1      31.150  23.906  23.131  1.00  0.00     0.006 C 
ATOM     11  C   UNL A   1      31.919  24.256  24.415  1.00  0.00     0.022 C 
BRANCH   7  12
ATOM     12  C   UNL A   1      34.640  23.607  24.210  1.00  0.00    -0.013 A 
ATOM     13  C   UNL A   1      35.752  23.325  23.373  1.00  0.00     0.008 A 
ATOM     14  C   UNL A   1      34.863  23.322  25.585  1.00  0.00     0.046 A 
ATOM     15  C   UNL A   1      36.948  22.764  23.838  1.00  0.00     0.021 A 
ATOM     16  C   UNL A   1      36.045  22.721  26.055  1.00  0.00     0.041 A 
ATOM     17  Cl  UNL A   1      33.713  23.699  26.821  1.00  0.00    -0.084 Cl
ATOM     18  C   UNL A   1      37.079  22.442  25.177  1.00  0.00     0.042 A 
ATOM     19  Cl  UNL A   1      38.526  21.713  25.752  1.00  0.00    -0.084 Cl
ENDBRANCH   7  12
ENDBRANCH   4   7
ENDBRANCH   2   3
ENDBRANCH   1   2
BRANCH   1  20
ATOM     20  C   UNL A   1      33.651  28.490  27.203  1.00  0.00     0.118 C 
BRANCH  20  21
ATOM     21  N   UNL A   1      33.656  29.884  27.619  1.00  0.00    -0.352 N 
ATOM     22  C   UNL A   1      34.629  30.635  28.227  1.00  0.00     0.251 C 
ATOM     23  H   UNL A   1      32.820  30.371  27.433  1.00  0.00     0.163 HD
ATOM     24  O   UNL A   1      34.347  31.759  28.645  1.00  0.00    -0.269 OA
BRANCH  22  25
ATOM     25  C   UNL A   1      36.001  30.114  28.417  1.00  0.00     0.039 A 
ATOM     26  C   UNL A   1      36.889  30.157  27.336  1.00  0.00     0.014 A 
ATOM     27  C   UNL A   1      36.412  29.545  29.625  1.00  0.00     0.014 A 
ATOM     28  C   UNL A   1      38.200  29.696  27.489  1.00  0.00     0.010 A 
ATOM     29  C   UNL A   1      37.741  29.162  29.801  1.00  0.00     0.010 A 
ATOM     30  C   UNL A   1      38.649  29.230  28.734  1.00  0.00    -0.014 A 
BRANCH  30  31
ATOM     31  C   UNL A   1      40.060  28.810  28.937  1.00  0.00     0.031 A 
ATOM     32  C   UNL A   1      41.068  29.775  29.501  1.00  0.00     0.074 A 
ATOM     33  C   UNL A   1      40.452  27.577  28.559  1.00  0.00     0.049 A 
ATOM     34  N   UNL A   1      42.357  29.620  29.670  1.00  0.00    -0.248 NA
ATOM     35  C   UNL A   1      40.564  31.097  29.905  1.00  0.00     0.031 C 
ATOM     36  C   UNL A   1      39.585  26.560  27.959  1.00  0.00     0.029 A 
ATOM     37  N   UNL A   1      41.684  26.975  28.608  1.00  0.00    -0.354 N 
ATOM     38  C   UNL A   1      42.818  30.823  30.190  1.00  0.00     0.074 A 
ATOM     39  C   UNL A   1      41.682  31.717  30.257  1.00  0.00     0.031 C 
ATOM     40  C   UNL A   1      40.310  25.458  27.707  1.00  0.00     0.029 A 
ATOM     41  C   UNL A   1      41.696  25.701  28.092  1.00  0.00     0.049 A 
ATOM     42  H   UNL A   1      42.484  27.414  28.977  1.00  0.00     0.167 HD
ATOM     43  C   UNL A   1      44.068  31.147  30.598  1.00  0.00     0.037 A 
ATOM     44  C   UNL A   1      42.712  24.832  27.934  1.00  0.00     0.037 A 
ATOM     45  C   UNL A   1      45.198  30.255  30.549  1.00  0.00     0.049 A 
ATOM     46  C   UNL A   1      44.092  25.218  28.385  1.00  0.00     0.074 A 
ATOM     47  C   UNL A   1      46.496  30.481  30.973  1.00  0.00     0.029 A 
ATOM     48  N   UNL A   1      45.161  28.964  30.044  1.00  0.00    -0.354 N 
ATOM     49  N   UNL A   1      44.501  26.342  28.923  1.00  0.00    -0.248 NA
ATOM     50  C   UNL A   1      45.152  24.214  28.214  1.00  0.00     0.031 C 
ATOM     51  C   UNL A   1      47.253  29.339  30.694  1.00  0.00     0.029 A 
ATOM     52  C   UNL A   1      46.417  28.385  30.137  1.00  0.00     0.049 A 
ATOM     53  H   UNL A   1      44.361  28.524  29.677  1.00  0.00     0.167 HD
ATOM     54  C   UNL A   1      45.856  26.171  29.178  1.00  0.00     0.074 A 
ATOM     55  C   UNL A   1      46.196  24.830  28.751  1.00  0.00     0.031 C 
ATOM     56  C   UNL A   1      46.738  27.046  29.716  1.00  0.00     0.037 A 
BRANCH  43  57
ATOM     57  C   UNL A   1      44.278  32.529  31.149  1.00  0.00     0.057 A 
ATOM     58  C   UNL A   1      44.613  33.607  30.320  1.00  0.00     0.134 A 
ATOM     59  C   UNL A   1      44.108  32.792  32.514  1.00  0.00     0.134 A 
ATOM     60  F   UNL A   1      44.802  33.420  29.005  1.00  0.00    -0.206 F 
ATOM     61  C   UNL A   1      44.795  34.893  30.831  1.00  0.00     0.040 A 
ATOM     62  C   UNL A   1      44.262  34.079  33.034  1.00  0.00     0.040 A 
ATOM     63  F   UNL A   1      43.780  31.807  33.363  1.00  0.00    -0.206 F 
ATOM     64  C   UNL A   1      44.613  35.133  32.192  1.00  0.00     0.006 A 
ENDBRANCH  43  57
BRANCH  44  65
ATOM     65  C   UNL A   1      42.461  23.500  27.326  1.00  0.00     0.057 A 
ATOM     66  C   UNL A   1      42.085  22.404  28.112  1.00  0.00     0.134 A 
ATOM     67  C   UNL A   1      42.609  23.286  25.951  1.00  0.00     0.134 A 
ATOM     68  F   UNL A   1      41.946  22.542  29.439  1.00  0.00    -0.206 F 
ATOM     69  C   UNL A   1      41.884  21.140  27.557  1.00  0.00     0.040 A 
ATOM     70  C   UNL A   1      42.387  22.033  25.378  1.00  0.00     0.040 A 
ATOM     71  F   UNL A   1      42.960  24.297  25.143  1.00  0.00    -0.206 F 
ATOM     72  C   UNL A   1      42.031  20.953  26.183  1.00  0.00     0.006 A 
ENDBRANCH  44  65
BRANCH  56  73
ATOM     73  C   UNL A   1      48.149  26.571  29.907  1.00  0.00     0.057 A 
ATOM     74  C   UNL A   1      48.558  25.925  31.081  1.00  0.00     0.134 A 
ATOM     75  C   UNL A   1      49.098  26.731  28.891  1.00  0.00     0.134 A 
ATOM     76  F   UNL A   1      47.700  25.753  32.097  1.00  0.00    -0.206 F 
ATOM     77  C   UNL A   1      49.869  25.474  31.244  1.00  0.00     0.040 A 
ATOM     78  C   UNL A   1      50.405  26.261  29.033  1.00  0.00     0.040 A 
ATOM     79  F   UNL A   1      48.768  27.335  27.739  1.00  0.00    -0.206 F 
ATOM     80  C   UNL A   1      50.794  25.636  30.214  1.00  0.00     0.006 A 
ENDBRANCH  56  73
ENDBRANCH  30  31
ENDBRANCH  22  25
ENDBRANCH  20  21
ENDBRANCH   1  20
TORSDOF 11
ENDMDL
MODEL 2
REMARK VINA RESULT:     -11.3      2.519      7.311
REMARK SMILES C[C@H]1CC[C@@]1(C(=O)NCCCNC(=O)c1ccc(-c2c3nc(c(-c4c(F)cccc4F)c4ccc([nH]4)c(-c4c(F)cccc4F)c4nc(c(-c5c(F)cccc5F)c5ccc2[nH]5)C=C4)C=C3)cc1)c1ccc(Cl)cc1Cl
REMARK SMILES IDX 10 1 9 2 8 3 6 4 7 5 5 7 1 8 2 9 3 10 4 11 69 12 70 13 75 14
REMARK SMILES IDX 71 15 74 16 76 17 72 18 73 19 11 20 12 21 13 22 14 24 15 25
REMARK SMILES IDX 16 26 68 27 17 28 67 29 18 30 19 31 20 32 61 33 21 34 66 35
REMARK SMILES IDX 60 36 62 37 22 38 65 39 59 40 58 41 23 43 49 44 32 45 48 46
REMARK SMILES IDX 33 47 36 48 47 49 63 50 34 51 35 52 46 54 64 55 37 56 24 57
REMARK SMILES IDX 25 58 30 59 26 60 27 61 29 62 31 63 28 64 50 65 51 66 56 67
REMARK SMILES IDX 52 68 53 69 55 70 57 71 54 72 38 73 39 74 44 75 40 76 41 77
REMARK SMILES IDX 43 78 45 79 42 80
REMARK H PARENT 8 6 12 23 62 42 36 53
REMARK Flexibility Score: inf
ROOT
ATOM      1  C   UNL A   1      37.738  20.099  24.684  1.00  0.00     0.042 C 
ENDROOT
BRANCH   1   2
ATOM      2  C   UNL A   1      37.061  21.381  24.215  1.00  0.00     0.117 C 
BRANCH   2   3
ATOM      3  N   UNL A   1      37.236  22.498  25.122  1.00  0.00    -0.355 N 
ATOM      4  C   UNL A   1      36.311  23.217  25.844  1.00  0.00     0.230 C 
ATOM      5  O   UNL A   1      36.781  24.050  26.631  1.00  0.00    -0.274 OA
ATOM      6  H   UNL A   1      38.169  22.790  25.238  1.00  0.00     0.163 HD
BRANCH   4   7
ATOM      7  C   UNL A   1      34.747  22.907  25.679  1.00  0.00     0.078 C 
ATOM      8  C   UNL A   1      32.396  23.347  26.975  1.00  0.00     0.009 C 
ATOM      9  C   UNL A   1      33.902  23.114  27.029  1.00  0.00     0.006 C 
ATOM     10  C   UNL A   1      34.275  21.659  27.402  1.00  0.00     0.006 C 
ATOM     11  C   UNL A   1      34.434  21.364  25.902  1.00  0.00     0.022 C 
BRANCH   7  12
ATOM     12  C   UNL A   1      34.133  23.677  24.346  1.00  0.00    -0.013 A 
ATOM     13  C   UNL A   1      33.739  22.919  23.212  1.00  0.00     0.008 A 
ATOM     14  C   UNL A   1      33.913  25.076  24.213  1.00  0.00     0.046 A 
ATOM     15  C   UNL A   1      33.228  23.491  22.039  1.00  0.00     0.021 A 
ATOM     16  C   UNL A   1      33.439  25.661  23.025  1.00  0.00     0.041 A 
ATOM     17  Cl  UNL A   1      34.188  26.196  25.502  1.00  0.00    -0.084 Cl
ATOM     18  C   UNL A   1      33.103  24.865  21.943  1.00  0.00     0.042 A 
ATOM     19  Cl  UNL A   1      32.519  25.580  20.493  1.00  0.00    -0.084 Cl
ENDBRANCH   7  12
ENDBRANCH   4   7
ENDBRANCH   2   3
ENDBRANCH   1   2
BRANCH   1  20
ATOM     20  C   UNL A   1      38.694  20.268  25.859  1.00  0.00     0.118 C 
BRANCH  20  21
ATOM     21  N   UNL A   1      39.846  19.382  25.785  1.00  0.00    -0.352 N 
ATOM     22  C   UNL A   1      41.176  19.621  26.020  1.00  0.00     0.251 C 
ATOM     23  H   UNL A   1      39.637  18.458  25.521  1.00  0.00     0.163 HD
ATOM     24  O   UNL A   1      42.003  18.755  25.725  1.00  0.00    -0.269 OA
BRANCH  22  25
ATOM     25  C   UNL A   1      41.642  20.903  26.594  1.00  0.00     0.039 A 
ATOM     26  C   UNL A   1      42.092  21.902  25.723  1.00  0.00     0.014 A 
ATOM     27  C   UNL A   1      41.685  21.120  27.973  1.00  0.00     0.014 A 
ATOM     28  C   UNL A   1      42.515  23.134  26.230  1.00  0.00     0.010 A 
ATOM     29  C   UNL A   1      42.029  22.375  28.473  1.00  0.00     0.010 A 
ATOM     30  C   UNL A   1      42.451  23.395  27.607  1.00  0.00    -0.014 A 
BRANCH  30  31
ATOM     31  C   UNL A   1      42.822  24.725  28.158  1.00  0.00     0.031 A 
ATOM     32  C   UNL A   1      41.772  25.783  28.364  1.00  0.00     0.074 A 
ATOM     33  C   UNL A   1      44.115  25.005  28.417  1.00  0.00     0.049 A 
ATOM     34  N   UNL A   1      41.914  27.025  28.753  1.00  0.00    -0.248 NA
ATOM     35  C   UNL A   1      40.381  25.400  28.074  1.00  0.00     0.031 C 
ATOM     36  C   UNL A   1      45.236  24.084  28.220  1.00  0.00     0.029 A 
ATOM     37  N   UNL A   1      44.706  26.151  28.888  1.00  0.00    -0.354 N 
ATOM     38  C   UNL A   1      40.637  27.573  28.743  1.00  0.00     0.074 A 
ATOM     39  C   UNL A   1      39.740  26.546  28.260  1.00  0.00     0.031 C 
ATOM     40  C   UNL A   1      46.376  24.696  28.578  1.00  0.00     0.029 A 
ATOM     41  C   UNL A   1      46.073  26.062  28.994  1.00  0.00     0.049 A 
ATOM     42  H   UNL A   1      44.198  26.959  29.127  1.00  0.00     0.167 HD
ATOM     43  C   UNL A   1      40.242  28.811  29.126  1.00  0.00     0.037 A 
ATOM     44  C   UNL A   1      46.982  26.981  29.371  1.00  0.00     0.037 A 
ATOM     45  C   UNL A   1      41.130  29.830  29.624  1.00  0.00     0.049 A 
ATOM     46  C   UNL A   1      46.520  28.351  29.781  1.00  0.00     0.074 A 
ATOM     47  C   UNL A   1      40.818  31.103  30.071  1.00  0.00     0.029 A 
ATOM     48  N   UNL A   1      42.504  29.691  29.741  1.00  0.00    -0.354 N 
ATOM     49  N   UNL A   1      45.302  28.836  29.816  1.00  0.00    -0.248 NA
ATOM     50  C   UNL A   1      47.557  29.299  30.212  1.00  0.00     0.031 C 
ATOM     51  C   UNL A   1      42.008  31.746  30.426  1.00  0.00     0.029 A 
ATOM     52  C   UNL A   1      43.056  30.858  30.243  1.00  0.00     0.049 A 
ATOM     53  H   UNL A   1      43.012  28.881  29.504  1.00  0.00     0.167 HD
ATOM     54  C   UNL A   1      45.425  30.134  30.296  1.00  0.00     0.074 A 
ATOM     55  C   UNL A   1      46.833  30.355  30.553  1.00  0.00     0.031 C 
ATOM     56  C   UNL A   1      44.458  31.061  30.503  1.00  0.00     0.037 A 
BRANCH  43  57
ATOM     57  C   UNL A   1      38.777  29.128  29.033  1.00  0.00     0.057 A 
ATOM     58  C   UNL A   1      37.936  29.042  30.149  1.00  0.00     0.134 A 
ATOM     59  C   UNL A   1      38.210  29.559  27.827  1.00  0.00     0.134 A 
ATOM     60  F   UNL A   1      38.414  28.626  31.332  1.00  0.00    -0.206 F 
ATOM     61  C   UNL A   1      36.577  29.350  30.065  1.00  0.00     0.040 A 
ATOM     62  C   UNL A   1      36.858  29.895  27.737  1.00  0.00     0.040 A 
ATOM     63  F   UNL A   1      38.961  29.671  26.722  1.00  0.00    -0.206 F 
ATOM     64  C   UNL A   1      36.035  29.784  28.857  1.00  0.00     0.006 A 
ENDBRANCH  43  57
BRANCH  44  65
ATOM     65  C   UNL A   1      48.426  26.634  29.386  1.00  0.00     0.057 A 
ATOM     66  C   UNL A   1      49.249  26.915  28.288  1.00  0.00     0.134 A 
ATOM     67  C   UNL A   1      49.013  26.000  30.487  1.00  0.00     0.134 A 
ATOM     68  F   UNL A   1      48.739  27.505  27.197  1.00  0.00    -0.206 F 
ATOM     69  C   UNL A   1      50.598  26.560  28.276  1.00  0.00     0.040 A 
ATOM     70  C   UNL A   1      50.367  25.662  30.498  1.00  0.00     0.040 A 
ATOM     71  F   UNL A   1      48.280  25.711  31.572  1.00  0.00    -0.206 F 
ATOM     72  C   UNL A   1      51.162  25.934  29.387  1.00  0.00     0.006 A 
ENDBRANCH  44  65
BRANCH  56  73
ATOM     73  C   UNL A   1      44.883  32.384  31.067  1.00  0.00     0.057 A 
ATOM     74  C   UNL A   1      44.963  32.608  32.447  1.00  0.00     0.134 A 
ATOM     75  C   UNL A   1      45.250  33.436  30.219  1.00  0.00     0.134 A 
ATOM     76  F   UNL A   1      44.612  31.646  33.314  1.00  0.00    -0.206 F 
ATOM     77  C   UNL A   1      45.373  33.838  32.964  1.00  0.00     0.040 A 
ATOM     78  C   UNL A   1      45.685  34.662  30.722  1.00  0.00     0.040 A 
ATOM     79  F   UNL A   1      45.203  33.284  28.886  1.00  0.00    -0.206 F 
ATOM     80  C   UNL A   1      45.742  34.867  32.098  1.00  0.00     0.006 A 
ENDBRANCH  56  73
ENDBRANCH  30  31
ENDBRANCH  22  25
ENDBRANCH  20  21
ENDBRANCH   1  20
TORSDOF 11
ENDMDL
MODEL 3
REMARK VINA RESULT:     -11.3      1.055      1.782
REMARK SMILES C[C@H]1CC[C@@]1(C(=O)NCCCNC(=O)c1ccc(-c2c3nc(c(-c4c(F)cccc4F)c4ccc([nH]4)c(-c4c(F)cccc4F)c4nc(c(-c5c(F)cccc5F)c5ccc2[nH]5)C=C4)C=C3)cc1)c1ccc(Cl)cc1Cl
REMARK SMILES IDX 10 1 9 2 8 3 6 4 7 5 5 7 1 8 2 9 3 10 4 11 69 12 70 13 75 14
REMARK SMILES IDX 71 15 74 16 76 17 72 18 73 19 11 20 12 21 13 22 14 24 15 25
REMARK SMILES IDX 16 26 68 27 17 28 67 29 18 30 19 31 20 32 61 33 21 34 66 35
REMARK SMILES IDX 60 36 62 37 22 38 65 39 59 40 58 41 23 43 49 44 32 45 48 46
REMARK SMILES IDX 33 47 36 48 47 49 63 50 34 51 35 52 46 54 64 55 37 56 24 57
REMARK SMILES IDX 25 58 30 59 26 60 27 61 29 62 31 63 28 64 50 65 51 66 56 67
REMARK SMILES IDX 52 68 53 69 55 70 57 71 54 72 38 73 39 74 44 75 40 76 41 77
REMARK SMILES IDX 43 78 45 79 42 80
REMARK H PARENT 8 6 12 23 62 42 36 53
REMARK Flexibility Score: inf
ROOT
ATOM      1  C   UNL A   1      33.672  28.042  25.830  1.00  0.00     0.042 C 
ENDROOT
BRANCH   1   2
ATOM      2  C   UNL A   1      32.626  27.115  25.224  1.00  0.00     0.117 C 
BRANCH   2   3
ATOM      3  N   UNL A   1      32.001  26.232  26.189  1.00  0.00    -0.355 N 
ATOM      4  C   UNL A   1      31.902  24.860  26.212  1.00  0.00     0.230 C 
ATOM      5  O   UNL A   1      31.404  24.378  27.239  1.00  0.00    -0.274 OA
ATOM      6  H   UNL A   1      31.578  26.690  26.951  1.00  0.00     0.163 HD
BRANCH   4   7
ATOM      7  C   UNL A   1      32.467  23.993  24.986  1.00  0.00     0.078 C 
ATOM      8  C   UNL A   1      33.117  24.288  22.362  1.00  0.00     0.009 C 
ATOM      9  C   UNL A   1      32.253  24.686  23.553  1.00  0.00     0.006 C 
ATOM     10  C   UNL A   1      30.849  24.035  23.526  1.00  0.00     0.006 C 
ATOM     11  C   UNL A   1      31.386  22.947  24.469  1.00  0.00     0.022 C 
BRANCH   7  12
ATOM     12  C   UNL A   1      34.013  23.482  25.291  1.00  0.00    -0.013 A 
ATOM     13  C   UNL A   1      35.074  24.426  25.332  1.00  0.00     0.008 A 
ATOM     14  C   UNL A   1      34.416  22.146  25.563  1.00  0.00     0.046 A 
ATOM     15  C   UNL A   1      36.410  24.077  25.565  1.00  0.00     0.021 A 
ATOM     16  C   UNL A   1      35.760  21.782  25.758  1.00  0.00     0.041 A 
ATOM     17  Cl  UNL A   1      33.294  20.837  25.701  1.00  0.00    -0.084 Cl
ATOM     18  C   UNL A   1      36.751  22.750  25.753  1.00  0.00     0.042 A 
ATOM     19  Cl  UNL A   1      38.393  22.306  25.996  1.00  0.00    -0.084 Cl
ENDBRANCH   7  12
ENDBRANCH   4   7
ENDBRANCH   2   3
ENDBRANCH   1   2
BRANCH   1  20
ATOM     20  C   UNL A   1      33.469  28.367  27.305  1.00  0.00     0.118 C 
BRANCH  20  21
ATOM     21  N   UNL A   1      33.493  29.796  27.580  1.00  0.00    -0.352 N 
ATOM     22  C   UNL A   1      34.483  30.594  28.095  1.00  0.00     0.251 C 
ATOM     23  H   UNL A   1      32.659  30.270  27.360  1.00  0.00     0.163 HD
ATOM     24  O   UNL A   1      34.217  31.757  28.403  1.00  0.00    -0.269 OA
BRANCH  22  25
ATOM     25  C   UNL A   1      35.853  30.080  28.315  1.00  0.00     0.039 A 
ATOM     26  C   UNL A   1      36.753  30.093  27.243  1.00  0.00     0.014 A 
ATOM     27  C   UNL A   1      36.251  29.547  29.544  1.00  0.00     0.014 A 
ATOM     28  C   UNL A   1      38.062  29.639  27.423  1.00  0.00     0.010 A 
ATOM     29  C   UNL A   1      37.578  29.171  29.745  1.00  0.00     0.010 A 
ATOM     30  C   UNL A   1      38.498  29.209  28.687  1.00  0.00    -0.014 A 
BRANCH  30  31
ATOM     31  C   UNL A   1      39.907  28.796  28.917  1.00  0.00     0.031 A 
ATOM     32  C   UNL A   1      40.900  29.768  29.495  1.00  0.00     0.074 A 
ATOM     33  C   UNL A   1      40.312  27.564  28.550  1.00  0.00     0.049 A 
ATOM     34  N   UNL A   1      42.186  29.621  29.690  1.00  0.00    -0.248 NA
ATOM     35  C   UNL A   1      40.382  31.090  29.886  1.00  0.00     0.031 C 
ATOM     36  C   UNL A   1      39.462  26.541  27.938  1.00  0.00     0.029 A 
ATOM     37  N   UNL A   1      41.546  26.969  28.624  1.00  0.00    -0.354 N 
ATOM     38  C   UNL A   1      42.631  30.828  30.213  1.00  0.00     0.074 A 
ATOM     39  C   UNL A   1      41.490  31.716  30.256  1.00  0.00     0.031 C 
ATOM     40  C   UNL A   1      40.196  25.442  27.704  1.00  0.00     0.029 A 
ATOM     41  C   UNL A   1      41.574  25.693  28.114  1.00  0.00     0.049 A 
ATOM     42  H   UNL A   1      42.337  27.413  29.007  1.00  0.00     0.167 HD
ATOM     43  C   UNL A   1      43.872  31.160  30.643  1.00  0.00     0.037 A 
ATOM     44  C   UNL A   1      42.597  24.828  27.978  1.00  0.00     0.037 A 
ATOM     45  C   UNL A   1      45.007  30.273  30.617  1.00  0.00     0.049 A 
ATOM     46  C   UNL A   1      43.966  25.223  28.453  1.00  0.00     0.074 A 
ATOM     47  C   UNL A   1      46.296  30.507  31.064  1.00  0.00     0.029 A 
ATOM     48  N   UNL A   1      44.986  28.980  30.117  1.00  0.00    -0.354 N 
ATOM     49  N   UNL A   1      44.359  26.351  28.994  1.00  0.00    -0.248 NA
ATOM     50  C   UNL A   1      45.034  24.224  28.305  1.00  0.00     0.031 C 
ATOM     51  C   UNL A   1      47.063  29.368  30.804  1.00  0.00     0.029 A 
ATOM     52  C   UNL A   1      46.242  28.408  30.235  1.00  0.00     0.049 A 
ATOM     53  H   UNL A   1      44.195  28.535  29.737  1.00  0.00     0.167 HD
ATOM     54  C   UNL A   1      45.710  26.187  29.274  1.00  0.00     0.074 A 
ATOM     55  C   UNL A   1      46.065  24.847  28.858  1.00  0.00     0.031 C 
ATOM     56  C   UNL A   1      46.579  27.069  29.825  1.00  0.00     0.037 A 
BRANCH  43  57
ATOM     57  C   UNL A   1      44.065  32.544  31.193  1.00  0.00     0.057 A 
ATOM     58  C   UNL A   1      43.921  32.818  32.559  1.00  0.00     0.134 A 
ATOM     59  C   UNL A   1      44.435  33.605  30.356  1.00  0.00     0.134 A 
ATOM     60  F   UNL A   1      43.558  31.849  33.413  1.00  0.00    -0.206 F 
ATOM     61  C   UNL A   1      44.113  34.102  33.071  1.00  0.00     0.040 A 
ATOM     62  C   UNL A   1      44.656  34.889  30.860  1.00  0.00     0.040 A 
ATOM     63  F   UNL A   1      44.597  33.411  29.039  1.00  0.00    -0.206 F 
ATOM     64  C   UNL A   1      44.488  35.141  32.221  1.00  0.00     0.006 A 
ENDBRANCH  43  57
BRANCH  44  65
ATOM     65  C   UNL A   1      42.364  23.493  27.370  1.00  0.00     0.057 A 
ATOM     66  C   UNL A   1      42.073  22.377  28.164  1.00  0.00     0.134 A 
ATOM     67  C   UNL A   1      42.443  23.297  25.986  1.00  0.00     0.134 A 
ATOM     68  F   UNL A   1      42.003  22.498  29.498  1.00  0.00    -0.206 F 
ATOM     69  C   UNL A   1      41.890  21.111  27.607  1.00  0.00     0.040 A 
ATOM     70  C   UNL A   1      42.238  22.041  25.413  1.00  0.00     0.040 A 
ATOM     71  F   UNL A   1      42.710  24.327  25.171  1.00  0.00    -0.206 F 
ATOM     72  C   UNL A   1      41.969  20.942  26.225  1.00  0.00     0.006 A 
ENDBRANCH  44  65
BRANCH  56  73
ATOM     73  C   UNL A   1      47.987  26.601  30.044  1.00  0.00     0.057 A 
ATOM     74  C   UNL A   1      48.994  26.820  29.096  1.00  0.00     0.134 A 
ATOM     75  C   UNL A   1      48.346  25.953  31.232  1.00  0.00     0.134 A 
ATOM     76  F   UNL A   1      48.712  27.423  27.931  1.00  0.00    -0.206 F 
ATOM     77  C   UNL A   1      50.305  26.393  29.314  1.00  0.00     0.040 A 
ATOM     78  C   UNL A   1      49.658  25.544  31.472  1.00  0.00     0.040 A 
ATOM     79  F   UNL A   1      47.430  25.719  32.184  1.00  0.00    -0.206 F 
ATOM     80  C   UNL A   1      50.641  25.759  30.509  1.00  0.00     0.006 A 
ENDBRANCH  56  73
ENDBRANCH  30  31
ENDBRANCH  22  25
ENDBRANCH  20  21
ENDBRANCH   1  20
TORSDOF 11
ENDMDL
