MODEL 1
REMARK VINA RESULT:     -12.7      0.000      0.000
REMARK SMILES Cc1ccccc1[C@@H](Cc1c(Cl)cccc1Cl)C(=O)NCCCNC(=O)c1ccc(-c2c3nc(c(-c4c(F)cccc4F)c4ccc([nH]4)c(-c4c(F)cccc4F)c4nc(c(-c5c(F)cccc5F)c5ccc2[nH]5)C=C4)C=C3)cc1
REMARK SMILES IDX 22 1 21 2 20 3 18 4 19 5 8 7 7 8 1 9 2 10 3 11 4 12 6 13
REMARK SMILES IDX 5 14 9 15 10 16 11 17 16 18 12 19 13 20 15 21 17 22 14 23
REMARK SMILES IDX 23 24 24 25 25 26 26 28 27 29 28 30 80 31 29 32 79 33 30 34
REMARK SMILES IDX 31 35 32 36 73 37 33 38 78 39 72 40 74 41 34 42 77 43 71 44
REMARK SMILES IDX 70 45 35 47 61 48 44 49 60 50 45 51 48 52 59 53 75 54 46 55
REMARK SMILES IDX 47 56 58 58 76 59 49 60 36 61 37 62 42 63 38 64 39 65 41 66
REMARK SMILES IDX 43 67 40 68 62 69 63 70 68 71 64 72 65 73 67 74 69 75 66 76
REMARK SMILES IDX 50 77 51 78 56 79 52 80 53 81 55 82 57 83 54 84
REMARK H PARENT 20 6 24 27 74 46 48 57
REMARK Flexibility Score: inf
ROOT
ATOM      1  C   UNL A   1      34.309  30.854  27.254  1.00  0.00     0.042 C 
ENDROOT
BRANCH   1   2
ATOM      2  C   UNL A   1      33.977  29.458  26.739  1.00  0.00     0.117 C 
BRANCH   2   3
ATOM      3  N   UNL A   1      32.911  28.850  27.512  1.00  0.00    -0.355 N 
ATOM      4  C   UNL A   1      31.965  27.927  27.193  1.00  0.00     0.227 C 
ATOM      5  O   UNL A   1      31.032  27.829  28.002  1.00  0.00    -0.274 OA
ATOM      6  H   UNL A   1      32.862  29.165  28.443  1.00  0.00     0.163 HD
BRANCH   4   7
ATOM      7  C   UNL A   1      31.975  27.037  25.929  1.00  0.00     0.113 C 
BRANCH   7   8
ATOM      8  C   UNL A   1      31.112  27.638  24.803  1.00  0.00    -0.032 A 
ATOM      9  C   UNL A   1      29.907  25.427  24.219  1.00  0.00     0.044 C 
ATOM     10  C   UNL A   1      30.091  26.920  24.140  1.00  0.00    -0.047 A 
ATOM     11  C   UNL A   1      29.162  27.617  23.339  1.00  0.00     0.004 A 
ATOM     12  C   UNL A   1      29.269  28.989  23.129  1.00  0.00     0.000 A 
ATOM     13  C   UNL A   1      31.270  28.993  24.464  1.00  0.00     0.005 A 
ATOM     14  C   UNL A   1      30.348  29.671  23.664  1.00  0.00     0.000 A 
ENDBRANCH   7   8
BRANCH   7  15
ATOM     15  C   UNL A   1      33.321  26.432  25.456  1.00  0.00     0.057 C 
BRANCH  15  16
ATOM     16  C   UNL A   1      33.351  25.133  24.651  1.00  0.00    -0.010 A 
ATOM     17  C   UNL A   1      33.488  25.176  23.240  1.00  0.00     0.045 A 
ATOM     18  C   UNL A   1      33.204  23.851  25.220  1.00  0.00     0.045 A 
ATOM     19  Cl  UNL A   1      33.509  26.663  22.346  1.00  0.00    -0.084 Cl
ATOM     20  C   UNL A   1      33.595  24.009  22.470  1.00  0.00     0.021 A 
ATOM     21  C   UNL A   1      33.346  22.687  24.449  1.00  0.00     0.021 A 
ATOM     22  Cl  UNL A   1      32.746  23.589  26.865  1.00  0.00    -0.084 Cl
ATOM     23  C   UNL A   1      33.556  22.763  23.079  1.00  0.00     0.003 A 
ENDBRANCH  15  16
ENDBRANCH   7  15
ENDBRANCH   4   7
ENDBRANCH   2   3
ENDBRANCH   1   2
BRANCH   1  24
ATOM     24  C   UNL A   1      34.568  30.921  28.748  1.00  0.00     0.118 C 
BRANCH  24  25
ATOM     25  N   UNL A   1      35.666  31.818  29.106  1.00  0.00    -0.352 N 
ATOM     26  C   UNL A   1      37.019  31.534  29.198  1.00  0.00     0.251 C 
ATOM     27  H   UNL A   1      35.409  32.747  29.309  1.00  0.00     0.163 HD
ATOM     28  O   UNL A   1      37.828  32.412  29.446  1.00  0.00    -0.269 OA
BRANCH  26  29
ATOM     29  C   UNL A   1      37.472  30.172  28.834  1.00  0.00     0.039 A 
ATOM     30  C   UNL A   1      37.605  29.248  29.873  1.00  0.00     0.014 A 
ATOM     31  C   UNL A   1      38.050  29.937  27.591  1.00  0.00     0.014 A 
ATOM     32  C   UNL A   1      38.553  28.241  29.755  1.00  0.00     0.010 A 
ATOM     33  C   UNL A   1      39.073  29.014  27.515  1.00  0.00     0.010 A 
ATOM     34  C   UNL A   1      39.377  28.222  28.629  1.00  0.00    -0.014 A 
BRANCH  34  35
ATOM     35  C   UNL A   1      40.650  27.508  28.611  1.00  0.00     0.031 A 
ATOM     36  C   UNL A   1      40.689  26.053  28.371  1.00  0.00     0.074 A 
ATOM     37  C   UNL A   1      41.805  28.187  28.801  1.00  0.00     0.049 A 
ATOM     38  N   UNL A   1      41.621  25.269  28.801  1.00  0.00    -0.248 NA
ATOM     39  C   UNL A   1      39.624  25.350  27.674  1.00  0.00     0.031 C 
ATOM     40  C   UNL A   1      43.162  27.692  28.592  1.00  0.00     0.029 A 
ATOM     41  N   UNL A   1      41.977  29.422  29.445  1.00  0.00    -0.354 N 
ATOM     42  C   UNL A   1      41.441  24.038  28.213  1.00  0.00     0.074 A 
ATOM     43  C   UNL A   1      40.136  24.119  27.598  1.00  0.00     0.031 C 
ATOM     44  C   UNL A   1      44.009  28.429  29.326  1.00  0.00     0.029 A 
ATOM     45  C   UNL A   1      43.208  29.336  30.130  1.00  0.00     0.049 A 
ATOM     46  H   UNL A   1      41.364  30.191  29.423  1.00  0.00     0.167 HD
ATOM     47  C   UNL A   1      42.478  23.148  28.198  1.00  0.00     0.037 A 
ATOM     48  C   UNL A   1      43.292  29.461  31.485  1.00  0.00     0.037 A 
ATOM     49  C   UNL A   1      43.614  23.655  28.971  1.00  0.00     0.049 A 
ATOM     50  C   UNL A   1      43.899  28.267  32.180  1.00  0.00     0.074 A 
ATOM     51  C   UNL A   1      44.798  24.273  28.601  1.00  0.00     0.029 A 
ATOM     52  N   UNL A   1      43.503  23.814  30.349  1.00  0.00    -0.354 N 
ATOM     53  N   UNL A   1      44.007  27.089  31.633  1.00  0.00    -0.248 NA
ATOM     54  C   UNL A   1      44.390  28.290  33.554  1.00  0.00     0.031 C 
ATOM     55  C   UNL A   1      45.382  24.842  29.759  1.00  0.00     0.029 A 
ATOM     56  C   UNL A   1      44.560  24.559  30.837  1.00  0.00     0.049 A 
ATOM     57  H   UNL A   1      42.773  23.448  30.899  1.00  0.00     0.167 HD
ATOM     58  C   UNL A   1      44.517  26.204  32.547  1.00  0.00     0.074 A 
ATOM     59  C   UNL A   1      44.769  27.011  33.726  1.00  0.00     0.031 C 
ATOM     60  C   UNL A   1      44.664  24.878  32.253  1.00  0.00     0.037 A 
BRANCH  47  61
ATOM     61  C   UNL A   1      42.596  21.980  27.230  1.00  0.00     0.057 A 
ATOM     62  C   UNL A   1      41.802  20.825  27.396  1.00  0.00     0.134 A 
ATOM     63  C   UNL A   1      43.512  21.882  26.169  1.00  0.00     0.134 A 
ATOM     64  F   UNL A   1      40.780  20.788  28.260  1.00  0.00    -0.206 F 
ATOM     65  C   UNL A   1      42.008  19.638  26.677  1.00  0.00     0.040 A 
ATOM     66  C   UNL A   1      43.762  20.690  25.472  1.00  0.00     0.040 A 
ATOM     67  F   UNL A   1      44.164  22.948  25.697  1.00  0.00    -0.206 F 
ATOM     68  C   UNL A   1      43.022  19.552  25.739  1.00  0.00     0.006 A 
ENDBRANCH  47  61
BRANCH  48  69
ATOM     69  C   UNL A   1      42.248  30.340  32.069  1.00  0.00     0.057 A 
ATOM     70  C   UNL A   1      42.437  31.732  32.033  1.00  0.00     0.134 A 
ATOM     71  C   UNL A   1      40.954  29.878  32.323  1.00  0.00     0.134 A 
ATOM     72  F   UNL A   1      43.656  32.242  31.795  1.00  0.00    -0.206 F 
ATOM     73  C   UNL A   1      41.368  32.624  32.136  1.00  0.00     0.040 A 
ATOM     74  C   UNL A   1      39.876  30.762  32.435  1.00  0.00     0.040 A 
ATOM     75  F   UNL A   1      40.693  28.563  32.348  1.00  0.00    -0.206 F 
ATOM     76  C   UNL A   1      40.076  32.137  32.305  1.00  0.00     0.006 A 
ENDBRANCH  48  69
BRANCH  60  77
ATOM     77  C   UNL A   1      45.000  23.777  33.231  1.00  0.00     0.057 A 
ATOM     78  C   UNL A   1      46.252  23.612  33.842  1.00  0.00     0.134 A 
ATOM     79  C   UNL A   1      43.986  22.912  33.705  1.00  0.00     0.134 A 
ATOM     80  F   UNL A   1      47.278  24.430  33.575  1.00  0.00    -0.206 F 
ATOM     81  C   UNL A   1      46.492  22.624  34.810  1.00  0.00     0.040 A 
ATOM     82  C   UNL A   1      44.203  21.960  34.707  1.00  0.00     0.040 A 
ATOM     83  F   UNL A   1      42.733  22.968  33.232  1.00  0.00    -0.206 F 
ATOM     84  C   UNL A   1      45.464  21.802  35.254  1.00  0.00     0.006 A 
ENDBRANCH  60  77
ENDBRANCH  34  35
ENDBRANCH  26  29
ENDBRANCH  24  25
ENDBRANCH   1  24
TORSDOF 13
ENDMDL
MODEL 2
REMARK VINA RESULT:     -12.6      4.004      9.402
REMARK SMILES Cc1ccccc1[C@@H](Cc1c(Cl)cccc1Cl)C(=O)NCCCNC(=O)c1ccc(-c2c3nc(c(-c4c(F)cccc4F)c4ccc([nH]4)c(-c4c(F)cccc4F)c4nc(c(-c5c(F)cccc5F)c5ccc2[nH]5)C=C4)C=C3)cc1
REMARK SMILES IDX 22 1 21 2 20 3 18 4 19 5 8 7 7 8 1 9 2 10 3 11 4 12 6 13
REMARK SMILES IDX 5 14 9 15 10 16 11 17 16 18 12 19 13 20 15 21 17 22 14 23
REMARK SMILES IDX 23 24 24 25 25 26 26 28 27 29 28 30 80 31 29 32 79 33 30 34
REMARK SMILES IDX 31 35 32 36 73 37 33 38 78 39 72 40 74 41 34 42 77 43 71 44
REMARK SMILES IDX 70 45 35 47 61 48 44 49 60 50 45 51 48 52 59 53 75 54 46 55
REMARK SMILES IDX 47 56 58 58 76 59 49 60 36 61 37 62 42 63 38 64 39 65 41 66
REMARK SMILES IDX 43 67 40 68 62 69 63 70 68 71 64 72 65 73 67 74 69 75 66 76
REMARK SMILES IDX 50 77 51 78 56 79 52 80 53 81 55 82 57 83 54 84
REMARK H PARENT 20 6 24 27 74 46 48 57
REMARK Flexibility Score: inf
ROOT
ATOM      1  C   UNL A   1      38.998  22.005  26.032  1.00  0.00     0.042 C 
ENDROOT
BRANCH   1   2
ATOM      2  C   UNL A   1      37.588  22.517  25.762  1.00  0.00     0.117 C 
BRANCH   2   3
ATOM      3  N   UNL A   1      37.404  22.846  24.361  1.00  0.00    -0.355 N 
ATOM      4  C   UNL A   1      36.290  23.025  23.604  1.00  0.00     0.227 C 
ATOM      5  O   UNL A   1      36.479  23.023  22.380  1.00  0.00    -0.274 OA
ATOM      6  H   UNL A   1      38.246  22.960  23.864  1.00  0.00     0.163 HD
BRANCH   4   7
ATOM      7  C   UNL A   1      34.857  23.212  24.154  1.00  0.00     0.113 C 
BRANCH   7   8
ATOM      8  C   UNL A   1      34.103  21.871  24.246  1.00  0.00    -0.032 A 
ATOM      9  C   UNL A   1      32.008  22.686  22.970  1.00  0.00     0.044 C 
ATOM     10  C   UNL A   1      32.879  21.622  23.586  1.00  0.00    -0.047 A 
ATOM     11  C   UNL A   1      32.406  20.296  23.479  1.00  0.00     0.004 A 
ATOM     12  C   UNL A   1      33.084  19.234  24.070  1.00  0.00     0.000 A 
ATOM     13  C   UNL A   1      34.689  20.799  24.941  1.00  0.00     0.005 A 
ATOM     14  C   UNL A   1      34.209  19.492  24.834  1.00  0.00     0.000 A 
ENDBRANCH   7   8
BRANCH   7  15
ATOM     15  C   UNL A   1      34.641  24.156  25.363  1.00  0.00     0.057 C 
BRANCH  15  16
ATOM     16  C   UNL A   1      33.257  24.730  25.667  1.00  0.00    -0.010 A 
ATOM     17  C   UNL A   1      32.895  26.008  25.172  1.00  0.00     0.045 A 
ATOM     18  C   UNL A   1      32.295  24.079  26.468  1.00  0.00     0.045 A 
ATOM     19  Cl  UNL A   1      34.005  27.030  24.316  1.00  0.00    -0.084 Cl
ATOM     20  C   UNL A   1      31.612  26.540  25.364  1.00  0.00     0.021 A 
ATOM     21  C   UNL A   1      31.002  24.602  26.627  1.00  0.00     0.021 A 
ATOM     22  Cl  UNL A   1      32.631  22.660  27.393  1.00  0.00    -0.084 Cl
ATOM     23  C   UNL A   1      30.653  25.822  26.064  1.00  0.00     0.003 A 
ENDBRANCH  15  16
ENDBRANCH   7  15
ENDBRANCH   4   7
ENDBRANCH   2   3
ENDBRANCH   1   2
BRANCH   1  24
ATOM     24  C   UNL A   1      39.678  22.652  27.224  1.00  0.00     0.118 C 
BRANCH  24  25
ATOM     25  N   UNL A   1      41.039  23.102  26.941  1.00  0.00    -0.352 N 
ATOM     26  C   UNL A   1      41.514  24.398  26.818  1.00  0.00     0.251 C 
ATOM     27  H   UNL A   1      41.708  22.389  26.822  1.00  0.00     0.163 HD
ATOM     28  O   UNL A   1      42.701  24.617  26.645  1.00  0.00    -0.269 OA
BRANCH  26  29
ATOM     29  C   UNL A   1      40.568  25.512  27.058  1.00  0.00     0.039 A 
ATOM     30  C   UNL A   1      40.779  26.691  26.339  1.00  0.00     0.014 A 
ATOM     31  C   UNL A   1      39.739  25.496  28.175  1.00  0.00     0.014 A 
ATOM     32  C   UNL A   1      40.397  27.899  26.907  1.00  0.00     0.010 A 
ATOM     33  C   UNL A   1      39.463  26.697  28.796  1.00  0.00     0.010 A 
ATOM     34  C   UNL A   1      39.866  27.896  28.198  1.00  0.00    -0.014 A 
BRANCH  34  35
ATOM     35  C   UNL A   1      39.846  29.095  29.030  1.00  0.00     0.031 A 
ATOM     36  C   UNL A   1      38.790  30.110  28.855  1.00  0.00     0.074 A 
ATOM     37  C   UNL A   1      40.793  29.272  29.979  1.00  0.00     0.049 A 
ATOM     38  N   UNL A   1      38.927  31.361  29.145  1.00  0.00    -0.248 NA
ATOM     39  C   UNL A   1      37.498  29.796  28.264  1.00  0.00     0.031 C 
ATOM     40  C   UNL A   1      40.802  30.275  31.040  1.00  0.00     0.029 A 
ATOM     41  N   UNL A   1      42.072  28.695  30.032  1.00  0.00    -0.354 N 
ATOM     42  C   UNL A   1      37.687  31.953  29.054  1.00  0.00     0.074 A 
ATOM     43  C   UNL A   1      36.858  30.958  28.415  1.00  0.00     0.031 C 
ATOM     44  C   UNL A   1      42.066  30.463  31.447  1.00  0.00     0.029 A 
ATOM     45  C   UNL A   1      42.924  29.683  30.571  1.00  0.00     0.049 A 
ATOM     46  H   UNL A   1      42.323  27.787  29.749  1.00  0.00     0.167 HD
ATOM     47  C   UNL A   1      37.480  33.161  29.659  1.00  0.00     0.037 A 
ATOM     48  C   UNL A   1      43.989  30.176  29.879  1.00  0.00     0.037 A 
ATOM     49  C   UNL A   1      38.728  33.690  30.214  1.00  0.00     0.049 A 
ATOM     50  C   UNL A   1      43.949  31.670  29.664  1.00  0.00     0.074 A 
ATOM     51  C   UNL A   1      39.251  33.703  31.497  1.00  0.00     0.029 A 
ATOM     52  N   UNL A   1      39.764  34.064  29.364  1.00  0.00    -0.354 N 
ATOM     53  N   UNL A   1      42.870  32.390  29.787  1.00  0.00    -0.248 NA
ATOM     54  C   UNL A   1      45.104  32.462  29.253  1.00  0.00     0.031 C 
ATOM     55  C   UNL A   1      40.622  34.048  31.413  1.00  0.00     0.029 A 
ATOM     56  C   UNL A   1      40.930  34.259  30.080  1.00  0.00     0.049 A 
ATOM     57  H   UNL A   1      39.678  34.173  28.390  1.00  0.00     0.167 HD
ATOM     58  C   UNL A   1      43.144  33.688  29.442  1.00  0.00     0.074 A 
ATOM     59  C   UNL A   1      44.564  33.689  29.145  1.00  0.00     0.031 C 
ATOM     60  C   UNL A   1      42.166  34.642  29.414  1.00  0.00     0.037 A 
BRANCH  47  61
ATOM     61  C   UNL A   1      36.112  33.710  30.037  1.00  0.00     0.057 A 
ATOM     62  C   UNL A   1      35.236  34.203  29.046  1.00  0.00     0.134 A 
ATOM     63  C   UNL A   1      35.621  33.861  31.345  1.00  0.00     0.134 A 
ATOM     64  F   UNL A   1      35.469  34.017  27.741  1.00  0.00    -0.206 F 
ATOM     65  C   UNL A   1      34.061  34.912  29.339  1.00  0.00     0.040 A 
ATOM     66  C   UNL A   1      34.473  34.607  31.657  1.00  0.00     0.040 A 
ATOM     67  F   UNL A   1      36.177  33.236  32.386  1.00  0.00    -0.206 F 
ATOM     68  C   UNL A   1      33.697  35.156  30.652  1.00  0.00     0.006 A 
ENDBRANCH  47  61
BRANCH  48  69
ATOM     69  C   UNL A   1      44.591  29.202  28.935  1.00  0.00     0.057 A 
ATOM     70  C   UNL A   1      44.203  29.239  27.585  1.00  0.00     0.134 A 
ATOM     71  C   UNL A   1      45.762  28.506  29.243  1.00  0.00     0.134 A 
ATOM     72  F   UNL A   1      43.087  29.892  27.221  1.00  0.00    -0.206 F 
ATOM     73  C   UNL A   1      45.000  28.701  26.573  1.00  0.00     0.040 A 
ATOM     74  C   UNL A   1      46.566  27.956  28.238  1.00  0.00     0.040 A 
ATOM     75  F   UNL A   1      46.208  28.448  30.506  1.00  0.00    -0.206 F 
ATOM     76  C   UNL A   1      46.205  28.084  26.897  1.00  0.00     0.006 A 
ENDBRANCH  48  69
BRANCH  60  77
ATOM     77  C   UNL A   1      42.292  36.036  28.846  1.00  0.00     0.057 A 
ATOM     78  C   UNL A   1      42.955  37.096  29.481  1.00  0.00     0.134 A 
ATOM     79  C   UNL A   1      41.854  36.310  27.529  1.00  0.00     0.134 A 
ATOM     80  F   UNL A   1      43.521  36.949  30.686  1.00  0.00    -0.206 F 
ATOM     81  C   UNL A   1      43.121  38.351  28.876  1.00  0.00     0.040 A 
ATOM     82  C   UNL A   1      42.061  37.542  26.898  1.00  0.00     0.040 A 
ATOM     83  F   UNL A   1      41.225  35.386  26.788  1.00  0.00    -0.206 F 
ATOM     84  C   UNL A   1      42.684  38.574  27.577  1.00  0.00     0.006 A 
ENDBRANCH  60  77
ENDBRANCH  34  35
ENDBRANCH  26  29
ENDBRANCH  24  25
ENDBRANCH   1  24
TORSDOF 13
ENDMDL
MODEL 3
REMARK VINA RESULT:     -12.4      2.430      3.988
REMARK SMILES Cc1ccccc1[C@@H](Cc1c(Cl)cccc1Cl)C(=O)NCCCNC(=O)c1ccc(-c2c3nc(c(-c4c(F)cccc4F)c4ccc([nH]4)c(-c4c(F)cccc4F)c4nc(c(-c5c(F)cccc5F)c5ccc2[nH]5)C=C4)C=C3)cc1
REMARK SMILES IDX 22 1 21 2 20 3 18 4 19 5 8 7 7 8 1 9 2 10 3 11 4 12 6 13
REMARK SMILES IDX 5 14 9 15 10 16 11 17 16 18 12 19 13 20 15 21 17 22 14 23
REMARK SMILES IDX 23 24 24 25 25 26 26 28 27 29 28 30 80 31 29 32 79 33 30 34
REMARK SMILES IDX 31 35 32 36 73 37 33 38 78 39 72 40 74 41 34 42 77 43 71 44
REMARK SMILES IDX 70 45 35 47 61 48 44 49 60 50 45 51 48 52 59 53 75 54 46 55
REMARK SMILES IDX 47 56 58 58 76 59 49 60 36 61 37 62 42 63 38 64 39 65 41 66
REMARK SMILES IDX 43 67 40 68 62 69 63 70 68 71 64 72 65 73 67 74 69 75 66 76
REMARK SMILES IDX 50 77 51 78 56 79 52 80 53 81 55 82 57 83 54 84
REMARK H PARENT 20 6 24 27 74 46 48 57
REMARK Flexibility Score: inf
ROOT
ATOM      1  C   UNL A   1      35.200  29.797  27.977  1.00  0.00     0.042 C 
ENDROOT
BRANCH   1   2
ATOM      2  C   UNL A   1      34.244  29.129  26.995  1.00  0.00     0.117 C 
BRANCH   2   3
ATOM      3  N   UNL A   1      33.048  28.655  27.664  1.00  0.00    -0.355 N 
ATOM      4  C   UNL A   1      32.027  27.857  27.251  1.00  0.00     0.227 C 
ATOM      5  O   UNL A   1      31.021  27.873  27.974  1.00  0.00    -0.274 OA
ATOM      6  H   UNL A   1      32.955  28.972  28.591  1.00  0.00     0.163 HD
BRANCH   4   7
ATOM      7  C   UNL A   1      32.040  26.974  25.982  1.00  0.00     0.113 C 
BRANCH   7   8
ATOM      8  C   UNL A   1      31.184  27.585  24.856  1.00  0.00    -0.032 A 
ATOM      9  C   UNL A   1      30.016  25.370  24.215  1.00  0.00     0.044 C 
ATOM     10  C   UNL A   1      30.181  26.867  24.166  1.00  0.00    -0.047 A 
ATOM     11  C   UNL A   1      29.253  27.566  23.366  1.00  0.00     0.004 A 
ATOM     12  C   UNL A   1      29.345  28.943  23.183  1.00  0.00     0.000 A 
ATOM     13  C   UNL A   1      31.328  28.948  24.544  1.00  0.00     0.005 A 
ATOM     14  C   UNL A   1      30.408  29.629  23.745  1.00  0.00     0.000 A 
ENDBRANCH   7   8
BRANCH   7  15
ATOM     15  C   UNL A   1      33.386  26.368  25.511  1.00  0.00     0.057 C 
BRANCH  15  16
ATOM     16  C   UNL A   1      33.416  25.073  24.699  1.00  0.00    -0.010 A 
ATOM     17  C   UNL A   1      33.563  25.123  23.290  1.00  0.00     0.045 A 
ATOM     18  C   UNL A   1      33.258  23.789  25.261  1.00  0.00     0.045 A 
ATOM     19  Cl  UNL A   1      33.598  26.614  22.404  1.00  0.00    -0.084 Cl
ATOM     20  C   UNL A   1      33.670  23.959  22.515  1.00  0.00     0.021 A 
ATOM     21  C   UNL A   1      33.399  22.628  24.485  1.00  0.00     0.021 A 
ATOM     22  Cl  UNL A   1      32.787  23.521  26.901  1.00  0.00    -0.084 Cl
ATOM     23  C   UNL A   1      33.621  22.710  23.117  1.00  0.00     0.003 A 
ENDBRANCH  15  16
ENDBRANCH   7  15
ENDBRANCH   4   7
ENDBRANCH   2   3
ENDBRANCH   1   2
BRANCH   1  24
ATOM     24  C   UNL A   1      35.480  31.258  27.677  1.00  0.00     0.118 C 
BRANCH  24  25
ATOM     25  N   UNL A   1      34.438  32.159  28.165  1.00  0.00    -0.352 N 
ATOM     26  C   UNL A   1      34.466  32.999  29.267  1.00  0.00     0.251 C 
ATOM     27  H   UNL A   1      33.604  32.171  27.640  1.00  0.00     0.163 HD
ATOM     28  O   UNL A   1      33.534  33.747  29.509  1.00  0.00    -0.269 OA
BRANCH  26  29
ATOM     29  C   UNL A   1      35.720  33.075  30.052  1.00  0.00     0.039 A 
ATOM     30  C   UNL A   1      36.757  33.841  29.517  1.00  0.00     0.014 A 
ATOM     31  C   UNL A   1      35.958  32.166  31.078  1.00  0.00     0.014 A 
ATOM     32  C   UNL A   1      38.068  33.487  29.807  1.00  0.00     0.010 A 
ATOM     33  C   UNL A   1      37.255  31.736  31.275  1.00  0.00     0.010 A 
ATOM     34  C   UNL A   1      38.302  32.346  30.575  1.00  0.00    -0.014 A 
BRANCH  34  35
ATOM     35  C   UNL A   1      39.588  31.656  30.568  1.00  0.00     0.031 A 
ATOM     36  C   UNL A   1      39.766  30.411  29.798  1.00  0.00     0.074 A 
ATOM     37  C   UNL A   1      40.632  32.169  31.261  1.00  0.00     0.049 A 
ATOM     38  N   UNL A   1      40.625  29.492  30.086  1.00  0.00    -0.248 NA
ATOM     39  C   UNL A   1      38.922  30.071  28.662  1.00  0.00     0.031 C 
ATOM     40  C   UNL A   1      42.028  31.752  31.186  1.00  0.00     0.029 A 
ATOM     41  N   UNL A   1      40.585  33.046  32.355  1.00  0.00    -0.354 N 
ATOM     42  C   UNL A   1      40.651  28.595  29.042  1.00  0.00     0.074 A 
ATOM     43  C   UNL A   1      39.511  28.952  28.232  1.00  0.00     0.031 C 
ATOM     44  C   UNL A   1      42.649  32.115  32.319  1.00  0.00     0.029 A 
ATOM     45  C   UNL A   1      41.639  32.660  33.210  1.00  0.00     0.049 A 
ATOM     46  H   UNL A   1      39.947  33.782  32.496  1.00  0.00     0.167 HD
ATOM     47  C   UNL A   1      41.718  27.750  28.916  1.00  0.00     0.037 A 
ATOM     48  C   UNL A   1      41.417  32.242  34.488  1.00  0.00     0.037 A 
ATOM     49  C   UNL A   1      42.625  27.876  30.059  1.00  0.00     0.049 A 
ATOM     50  C   UNL A   1      41.926  30.852  34.781  1.00  0.00     0.074 A 
ATOM     51  C   UNL A   1      43.822  28.552  30.234  1.00  0.00     0.029 A 
ATOM     52  N   UNL A   1      42.205  27.486  31.327  1.00  0.00    -0.354 N 
ATOM     53  N   UNL A   1      42.221  29.980  33.860  1.00  0.00    -0.248 NA
ATOM     54  C   UNL A   1      42.103  30.319  36.130  1.00  0.00     0.031 C 
ATOM     55  C   UNL A   1      44.104  28.603  31.621  1.00  0.00     0.029 A 
ATOM     56  C   UNL A   1      43.084  27.947  32.290  1.00  0.00     0.049 A 
ATOM     57  H   UNL A   1      41.396  26.958  31.512  1.00  0.00     0.167 HD
ATOM     58  C   UNL A   1      42.570  28.792  34.448  1.00  0.00     0.074 A 
ATOM     59  C   UNL A   1      42.510  29.064  35.871  1.00  0.00     0.031 C 
ATOM     60  C   UNL A   1      42.857  27.683  33.703  1.00  0.00     0.037 A 
BRANCH  47  61
ATOM     61  C   UNL A   1      42.113  27.050  27.624  1.00  0.00     0.057 A 
ATOM     62  C   UNL A   1      42.223  25.645  27.570  1.00  0.00     0.134 A 
ATOM     63  C   UNL A   1      42.476  27.687  26.424  1.00  0.00     0.134 A 
ATOM     64  F   UNL A   1      41.786  24.863  28.566  1.00  0.00    -0.206 F 
ATOM     65  C   UNL A   1      42.783  24.955  26.484  1.00  0.00     0.040 A 
ATOM     66  C   UNL A   1      43.081  27.019  25.348  1.00  0.00     0.040 A 
ATOM     67  F   UNL A   1      42.200  28.973  26.194  1.00  0.00    -0.206 F 
ATOM     68  C   UNL A   1      43.257  25.646  25.383  1.00  0.00     0.006 A 
ENDBRANCH  47  61
BRANCH  48  69
ATOM     69  C   UNL A   1      40.220  32.854  35.118  1.00  0.00     0.057 A 
ATOM     70  C   UNL A   1      39.006  32.148  35.092  1.00  0.00     0.134 A 
ATOM     71  C   UNL A   1      40.326  33.909  36.027  1.00  0.00     0.134 A 
ATOM     72  F   UNL A   1      38.839  31.123  34.241  1.00  0.00    -0.206 F 
ATOM     73  C   UNL A   1      37.981  32.409  36.003  1.00  0.00     0.040 A 
ATOM     74  C   UNL A   1      39.303  34.185  36.941  1.00  0.00     0.040 A 
ATOM     75  F   UNL A   1      41.463  34.613  36.127  1.00  0.00    -0.206 F 
ATOM     76  C   UNL A   1      38.142  33.411  36.956  1.00  0.00     0.006 A 
ENDBRANCH  48  69
BRANCH  60  77
ATOM     77  C   UNL A   1      43.035  26.276  34.225  1.00  0.00     0.057 A 
ATOM     78  C   UNL A   1      42.053  25.557  34.921  1.00  0.00     0.134 A 
ATOM     79  C   UNL A   1      44.196  25.537  33.898  1.00  0.00     0.134 A 
ATOM     80  F   UNL A   1      40.857  26.091  35.201  1.00  0.00    -0.206 F 
ATOM     81  C   UNL A   1      42.233  24.222  35.312  1.00  0.00     0.040 A 
ATOM     82  C   UNL A   1      44.364  24.190  34.238  1.00  0.00     0.040 A 
ATOM     83  F   UNL A   1      45.212  26.084  33.214  1.00  0.00    -0.206 F 
ATOM     84  C   UNL A   1      43.385  23.530  34.961  1.00  0.00     0.006 A 
ENDBRANCH  60  77
ENDBRANCH  34  35
ENDBRANCH  26  29
ENDBRANCH  24  25
ENDBRANCH   1  24
TORSDOF 13
ENDMDL
