MODEL 1
REMARK VINA RESULT:      -9.0      0.000      0.000
REMARK SMILES CCCCCCNC(=O)Oc1cccc(-c2ccc([C@@H](C)C(=O)NCCCNC(=O)c3ccc(-c4c5nc(c(-c6c(F)cccc6F)c6ccc([nH]6)c(-c6c(F)cccc6F)c6nc(c(-c7c(F)cccc7F)c7ccc4[nH]7)C=C6)C=C5)cc3)cc2C(F)(F)F)c1
REMARK SMILES IDX 16 1 17 2 18 3 19 4 85 5 86 6 15 7 11 8 12 9 91 10 13 11
REMARK SMILES IDX 14 12 10 13 8 14 7 15 9 17 6 18 5 19 4 20 3 21 2 22 1 23
REMARK SMILES IDX 87 24 88 25 89 26 90 27 20 28 21 29 22 30 23 31 24 32 25 34
REMARK SMILES IDX 26 35 27 36 28 37 29 38 30 40 31 41 32 42 84 43 33 44 83 45
REMARK SMILES IDX 34 46 35 47 36 48 77 49 37 50 82 51 76 52 78 53 38 54 81 55
REMARK SMILES IDX 75 56 74 57 39 59 65 60 48 61 64 62 49 63 52 64 63 65 79 66
REMARK SMILES IDX 50 67 51 68 62 70 80 71 53 72 40 73 41 74 46 75 42 76 43 77
REMARK SMILES IDX 45 78 47 79 44 80 66 81 67 82 72 83 68 84 69 85 71 86 73 87
REMARK SMILES IDX 70 88 54 89 55 90 60 91 56 92 57 93 59 94 61 95 58 96
REMARK H PARENT 7 16 24 33 28 39 78 58 52 69
REMARK Flexibility Score: inf
ROOT
ATOM      1  C   UNL A   1      40.320  27.363  29.041  1.00  0.00    -0.006 A 
ATOM      2  C   UNL A   1      39.458  27.376  30.157  1.00  0.00     0.009 A 
ATOM      3  C   UNL A   1      38.579  28.430  30.412  1.00  0.00     0.005 A 
ATOM      4  C   UNL A   1      38.593  29.578  29.629  1.00  0.00    -0.035 A 
ATOM      5  C   UNL A   1      39.427  29.572  28.500  1.00  0.00     0.018 A 
ATOM      6  C   UNL A   1      40.246  28.462  28.159  1.00  0.00     0.064 A 
ENDROOT
BRANCH   1   7
ATOM      7  C   UNL A   1      41.218  26.195  28.879  1.00  0.00    -0.014 A 
ATOM      8  C   UNL A   1      41.668  23.920  28.158  1.00  0.00     0.133 A 
ATOM      9  C   UNL A   1      42.988  24.006  28.591  1.00  0.00     0.047 A 
ATOM     10  C   UNL A   1      40.792  25.003  28.271  1.00  0.00     0.056 A 
ATOM     11  C   UNL A   1      43.441  25.191  29.155  1.00  0.00     0.004 A 
ATOM     12  C   UNL A   1      42.559  26.264  29.312  1.00  0.00     0.009 A 
BRANCH   8  13
ATOM     13  O   UNL A   1      41.230  22.638  27.776  1.00  0.00    -0.410 OA
BRANCH  13  14
ATOM     14  C   UNL A   1      40.592  22.431  26.564  1.00  0.00     0.412 C 
ATOM     15  N   UNL A   1      41.470  22.217  25.537  1.00  0.00    -0.321 N 
ATOM     16  H   UNL A   1      41.083  22.127  24.636  1.00  0.00     0.167 HD
ATOM     17  O   UNL A   1      39.382  22.434  26.381  1.00  0.00    -0.224 OA
BRANCH  15  18
ATOM     18  C   UNL A   1      42.912  22.112  25.640  1.00  0.00     0.119 C 
BRANCH  18  19
ATOM     19  C   UNL A   1      43.623  22.907  24.543  1.00  0.00     0.021 C 
BRANCH  19  20
ATOM     20  C   UNL A   1      44.396  24.136  25.039  1.00  0.00     0.002 C 
BRANCH  20  21
ATOM     21  C   UNL A   1      43.587  25.434  25.121  1.00  0.00    -0.000 C 
BRANCH  21  22
ATOM     22  C   UNL A   1      44.162  26.510  26.046  1.00  0.00    -0.003 C 
ATOM     23  C   UNL A   1      44.984  27.557  25.310  1.00  0.00     0.004 C 
ENDBRANCH  21  22
ENDBRANCH  20  21
ENDBRANCH  19  20
ENDBRANCH  18  19
ENDBRANCH  15  18
ENDBRANCH  13  14
ENDBRANCH   8  13
ENDBRANCH   1   7
BRANCH   6  24
ATOM     24  C   UNL A   1      40.952  28.550  26.822  1.00  0.00     0.417 C 
ATOM     25  F   UNL A   1      40.980  27.338  26.189  1.00  0.00    -0.166 F 
ATOM     26  F   UNL A   1      40.321  29.394  25.958  1.00  0.00    -0.166 F 
ATOM     27  F   UNL A   1      42.251  28.948  26.854  1.00  0.00    -0.166 F 
ENDBRANCH   6  24
BRANCH   4  28
ATOM     28  C   UNL A   1      37.751  30.802  29.949  1.00  0.00     0.105 C 
ATOM     29  C   UNL A   1      37.715  31.866  28.854  1.00  0.00     0.023 C 
BRANCH  28  30
ATOM     30  C   UNL A   1      36.386  30.478  30.577  1.00  0.00     0.227 C 
ATOM     31  O   UNL A   1      35.984  29.307  30.596  1.00  0.00    -0.274 OA
ATOM     32  N   UNL A   1      35.558  31.397  31.142  1.00  0.00    -0.356 N 
ATOM     33  H   UNL A   1      34.758  31.005  31.561  1.00  0.00     0.163 HD
BRANCH  32  34
ATOM     34  C   UNL A   1      35.623  32.842  31.246  1.00  0.00     0.117 C 
BRANCH  34  35
ATOM     35  C   UNL A   1      35.366  33.332  32.672  1.00  0.00     0.042 C 
BRANCH  35  36
ATOM     36  C   UNL A   1      36.597  33.902  33.365  1.00  0.00     0.118 C 
BRANCH  36  37
ATOM     37  N   UNL A   1      36.673  33.506  34.765  1.00  0.00    -0.352 N 
ATOM     38  C   UNL A   1      37.437  32.549  35.388  1.00  0.00     0.251 C 
ATOM     39  H   UNL A   1      36.078  34.008  35.365  1.00  0.00     0.163 HD
ATOM     40  O   UNL A   1      37.171  32.235  36.547  1.00  0.00    -0.269 OA
BRANCH  38  41
ATOM     41  C   UNL A   1      38.557  31.876  34.691  1.00  0.00     0.039 A 
ATOM     42  C   UNL A   1      38.271  30.790  33.856  1.00  0.00     0.014 A 
ATOM     43  C   UNL A   1      39.884  32.264  34.889  1.00  0.00     0.014 A 
ATOM     44  C   UNL A   1      39.302  30.148  33.161  1.00  0.00     0.010 A 
ATOM     45  C   UNL A   1      40.903  31.672  34.142  1.00  0.00     0.010 A 
ATOM     46  C   UNL A   1      40.621  30.615  33.265  1.00  0.00    -0.014 A 
BRANCH  46  47
ATOM     47  C   UNL A   1      41.714  30.039  32.439  1.00  0.00     0.031 A 
ATOM     48  C   UNL A   1      42.384  28.757  32.841  1.00  0.00     0.074 A 
ATOM     49  C   UNL A   1      42.160  30.725  31.368  1.00  0.00     0.049 A 
ATOM     50  N   UNL A   1      43.424  28.165  32.310  1.00  0.00    -0.248 NA
ATOM     51  C   UNL A   1      41.825  28.056  34.008  1.00  0.00     0.031 C 
ATOM     52  C   UNL A   1      41.619  32.002  30.897  1.00  0.00     0.029 A 
ATOM     53  N   UNL A   1      43.186  30.458  30.496  1.00  0.00    -0.354 N 
ATOM     54  C   UNL A   1      43.655  27.035  33.084  1.00  0.00     0.074 A 
ATOM     55  C   UNL A   1      42.669  27.043  34.145  1.00  0.00     0.031 C 
ATOM     56  C   UNL A   1      42.311  32.402  29.819  1.00  0.00     0.029 A 
ATOM     57  C   UNL A   1      43.372  31.436  29.550  1.00  0.00     0.049 A 
ATOM     58  H   UNL A   1      43.735  29.643  30.544  1.00  0.00     0.167 HD
ATOM     59  C   UNL A   1      44.592  26.072  32.915  1.00  0.00     0.037 A 
ATOM     60  C   UNL A   1      44.306  31.557  28.587  1.00  0.00     0.037 A 
ATOM     61  C   UNL A   1      45.559  26.058  31.848  1.00  0.00     0.049 A 
ATOM     62  C   UNL A   1      45.359  30.495  28.446  1.00  0.00     0.074 A 
ATOM     63  C   UNL A   1      46.496  25.086  31.546  1.00  0.00     0.029 A 
ATOM     64  N   UNL A   1      45.719  27.071  30.914  1.00  0.00    -0.354 N 
ATOM     65  N   UNL A   1      45.518  29.394  29.139  1.00  0.00    -0.248 NA
ATOM     66  C   UNL A   1      46.365  30.695  27.393  1.00  0.00     0.031 C 
ATOM     67  C   UNL A   1      47.255  25.531  30.459  1.00  0.00     0.029 A 
ATOM     68  C   UNL A   1      46.764  26.763  30.059  1.00  0.00     0.049 A 
ATOM     69  H   UNL A   1      45.172  27.888  30.867  1.00  0.00     0.167 HD
ATOM     70  C   UNL A   1      46.634  28.767  28.603  1.00  0.00     0.074 A 
ATOM     71  C   UNL A   1      47.099  29.597  27.512  1.00  0.00     0.031 C 
ATOM     72  C   UNL A   1      47.222  27.606  28.984  1.00  0.00     0.037 A 
BRANCH  59  73
ATOM     73  C   UNL A   1      44.620  24.950  33.910  1.00  0.00     0.057 A 
ATOM     74  C   UNL A   1      44.111  23.680  33.606  1.00  0.00     0.134 A 
ATOM     75  C   UNL A   1      45.202  25.125  35.172  1.00  0.00     0.134 A 
ATOM     76  F   UNL A   1      43.532  23.448  32.418  1.00  0.00    -0.206 F 
ATOM     77  C   UNL A   1      44.156  22.634  34.528  1.00  0.00     0.040 A 
ATOM     78  C   UNL A   1      45.276  24.079  36.095  1.00  0.00     0.040 A 
ATOM     79  F   UNL A   1      45.717  26.313  35.526  1.00  0.00    -0.206 F 
ATOM     80  C   UNL A   1      44.747  22.830  35.775  1.00  0.00     0.006 A 
ENDBRANCH  59  73
BRANCH  60  81
ATOM     81  C   UNL A   1      44.288  32.734  27.685  1.00  0.00     0.057 A 
ATOM     82  C   UNL A   1      43.838  32.624  26.365  1.00  0.00     0.134 A 
ATOM     83  C   UNL A   1      44.713  33.997  28.118  1.00  0.00     0.134 A 
ATOM     84  F   UNL A   1      43.438  31.436  25.887  1.00  0.00    -0.206 F 
ATOM     85  C   UNL A   1      43.819  33.722  25.505  1.00  0.00     0.040 A 
ATOM     86  C   UNL A   1      44.678  35.109  27.276  1.00  0.00     0.040 A 
ATOM     87  F   UNL A   1      45.154  34.169  29.373  1.00  0.00    -0.206 F 
ATOM     88  C   UNL A   1      44.235  34.971  25.963  1.00  0.00     0.006 A 
ENDBRANCH  60  81
BRANCH  72  89
ATOM     89  C   UNL A   1      48.432  27.167  28.215  1.00  0.00     0.057 A 
ATOM     90  C   UNL A   1      49.707  27.665  28.508  1.00  0.00     0.134 A 
ATOM     91  C   UNL A   1      48.329  26.204  27.203  1.00  0.00     0.134 A 
ATOM     92  F   UNL A   1      49.869  28.601  29.456  1.00  0.00    -0.206 F 
ATOM     93  C   UNL A   1      50.837  27.229  27.814  1.00  0.00     0.040 A 
ATOM     94  C   UNL A   1      49.454  25.743  26.517  1.00  0.00     0.040 A 
ATOM     95  F   UNL A   1      47.136  25.683  26.877  1.00  0.00    -0.206 F 
ATOM     96  C   UNL A   1      50.712  26.259  26.821  1.00  0.00     0.006 A 
ENDBRANCH  72  89
ENDBRANCH  46  47
ENDBRANCH  38  41
ENDBRANCH  36  37
ENDBRANCH  35  36
ENDBRANCH  34  35
ENDBRANCH  32  34
ENDBRANCH  28  30
ENDBRANCH   4  28
TORSDOF 20
ENDMDL
MODEL 2
REMARK VINA RESULT:      -8.9      4.933      9.831
REMARK SMILES CCCCCCNC(=O)Oc1cccc(-c2ccc([C@@H](C)C(=O)NCCCNC(=O)c3ccc(-c4c5nc(c(-c6c(F)cccc6F)c6ccc([nH]6)c(-c6c(F)cccc6F)c6nc(c(-c7c(F)cccc7F)c7ccc4[nH]7)C=C6)C=C5)cc3)cc2C(F)(F)F)c1
REMARK SMILES IDX 16 1 17 2 18 3 19 4 85 5 86 6 15 7 11 8 12 9 91 10 13 11
REMARK SMILES IDX 14 12 10 13 8 14 7 15 9 17 6 18 5 19 4 20 3 21 2 22 1 23
REMARK SMILES IDX 87 24 88 25 89 26 90 27 20 28 21 29 22 30 23 31 24 32 25 34
REMARK SMILES IDX 26 35 27 36 28 37 29 38 30 40 31 41 32 42 84 43 33 44 83 45
REMARK SMILES IDX 34 46 35 47 36 48 77 49 37 50 82 51 76 52 78 53 38 54 81 55
REMARK SMILES IDX 75 56 74 57 39 59 65 60 48 61 64 62 49 63 52 64 63 65 79 66
REMARK SMILES IDX 50 67 51 68 62 70 80 71 53 72 40 73 41 74 46 75 42 76 43 77
REMARK SMILES IDX 45 78 47 79 44 80 66 81 67 82 72 83 68 84 69 85 71 86 73 87
REMARK SMILES IDX 70 88 54 89 55 90 60 91 56 92 57 93 59 94 61 95 58 96
REMARK H PARENT 7 16 24 33 28 39 78 58 52 69
REMARK Flexibility Score: inf
ROOT
ATOM      1  C   UNL A   1      32.385  24.235  23.889  1.00  0.00    -0.006 A 
ATOM      2  C   UNL A   1      32.908  23.483  22.817  1.00  0.00     0.009 A 
ATOM      3  C   UNL A   1      32.774  22.096  22.739  1.00  0.00     0.005 A 
ATOM      4  C   UNL A   1      32.209  21.373  23.783  1.00  0.00    -0.035 A 
ATOM      5  C   UNL A   1      31.661  22.107  24.846  1.00  0.00     0.018 A 
ATOM      6  C   UNL A   1      31.685  23.527  24.889  1.00  0.00     0.064 A 
ENDROOT
BRANCH   1   7
ATOM      7  C   UNL A   1      32.597  25.701  23.869  1.00  0.00    -0.014 A 
ATOM      8  C   UNL A   1      33.526  27.747  24.792  1.00  0.00     0.133 A 
ATOM      9  C   UNL A   1      32.973  28.505  23.764  1.00  0.00     0.047 A 
ATOM     10  C   UNL A   1      33.369  26.358  24.840  1.00  0.00     0.056 A 
ATOM     11  C   UNL A   1      32.244  27.868  22.769  1.00  0.00     0.004 A 
ATOM     12  C   UNL A   1      32.045  26.486  22.834  1.00  0.00     0.009 A 
BRANCH   8  13
ATOM     13  O   UNL A   1      34.085  28.475  25.858  1.00  0.00    -0.410 OA
BRANCH  13  14
ATOM     14  C   UNL A   1      33.378  28.688  27.030  1.00  0.00     0.412 C 
ATOM     15  N   UNL A   1      34.135  29.288  28.000  1.00  0.00    -0.321 N 
ATOM     16  H   UNL A   1      33.711  29.409  28.880  1.00  0.00     0.167 HD
ATOM     17  O   UNL A   1      32.209  28.386  27.228  1.00  0.00    -0.224 OA
BRANCH  15  18
ATOM     18  C   UNL A   1      35.498  29.761  27.863  1.00  0.00     0.119 C 
BRANCH  18  19
ATOM     19  C   UNL A   1      35.559  31.271  27.626  1.00  0.00     0.021 C 
BRANCH  19  20
ATOM     20  C   UNL A   1      34.335  32.050  28.124  1.00  0.00     0.002 C 
BRANCH  20  21
ATOM     21  C   UNL A   1      34.460  33.576  28.073  1.00  0.00    -0.000 C 
BRANCH  21  22
ATOM     22  C   UNL A   1      35.068  34.228  29.317  1.00  0.00    -0.003 C 
ATOM     23  C   UNL A   1      34.028  34.648  30.344  1.00  0.00     0.004 C 
ENDBRANCH  21  22
ENDBRANCH  20  21
ENDBRANCH  19  20
ENDBRANCH  18  19
ENDBRANCH  15  18
ENDBRANCH  13  14
ENDBRANCH   8  13
ENDBRANCH   1   7
BRANCH   6  24
ATOM     24  C   UNL A   1      30.902  24.166  26.017  1.00  0.00     0.417 C 
ATOM     25  F   UNL A   1      30.101  23.256  26.649  1.00  0.00    -0.166 F 
ATOM     26  F   UNL A   1      31.713  24.669  26.990  1.00  0.00    -0.166 F 
ATOM     27  F   UNL A   1      30.062  25.176  25.669  1.00  0.00    -0.166 F 
ENDBRANCH   6  24
BRANCH   4  28
ATOM     28  C   UNL A   1      32.165  19.854  23.802  1.00  0.00     0.105 C 
ATOM     29  C   UNL A   1      32.498  19.181  22.471  1.00  0.00     0.023 C 
BRANCH  28  30
ATOM     30  C   UNL A   1      32.839  19.221  25.030  1.00  0.00     0.227 C 
ATOM     31  O   UNL A   1      32.194  18.449  25.751  1.00  0.00    -0.274 OA
ATOM     32  N   UNL A   1      34.130  19.436  25.397  1.00  0.00    -0.356 N 
ATOM     33  H   UNL A   1      34.418  18.893  26.168  1.00  0.00     0.163 HD
BRANCH  32  34
ATOM     34  C   UNL A   1      35.165  20.309  24.879  1.00  0.00     0.117 C 
BRANCH  34  35
ATOM     35  C   UNL A   1      35.249  21.627  25.648  1.00  0.00     0.042 C 
BRANCH  35  36
ATOM     36  C   UNL A   1      36.658  22.199  25.751  1.00  0.00     0.118 C 
BRANCH  36  37
ATOM     37  N   UNL A   1      37.668  21.157  25.866  1.00  0.00    -0.352 N 
ATOM     38  C   UNL A   1      39.016  21.234  26.126  1.00  0.00     0.251 C 
ATOM     39  H   UNL A   1      37.330  20.242  25.736  1.00  0.00     0.163 HD
ATOM     40  O   UNL A   1      39.715  20.238  25.953  1.00  0.00    -0.269 OA
BRANCH  38  41
ATOM     41  C   UNL A   1      39.644  22.493  26.590  1.00  0.00     0.039 A 
ATOM     42  C   UNL A   1      40.644  22.423  27.566  1.00  0.00     0.014 A 
ATOM     43  C   UNL A   1      39.226  23.739  26.118  1.00  0.00     0.014 A 
ATOM     44  C   UNL A   1      41.277  23.589  28.008  1.00  0.00     0.010 A 
ATOM     45  C   UNL A   1      39.905  24.895  26.504  1.00  0.00     0.010 A 
ATOM     46  C   UNL A   1      40.943  24.831  27.446  1.00  0.00    -0.014 A 
BRANCH  46  47
ATOM     47  C   UNL A   1      41.688  26.066  27.798  1.00  0.00     0.031 A 
ATOM     48  C   UNL A   1      41.033  27.153  28.601  1.00  0.00     0.074 A 
ATOM     49  C   UNL A   1      42.933  26.244  27.314  1.00  0.00     0.049 A 
ATOM     50  N   UNL A   1      41.486  28.344  28.906  1.00  0.00    -0.248 NA
ATOM     51  C   UNL A   1      39.681  26.876  29.112  1.00  0.00     0.031 C 
ATOM     52  C   UNL A   1      43.664  25.280  26.489  1.00  0.00     0.029 A 
ATOM     53  N   UNL A   1      43.795  27.306  27.426  1.00  0.00    -0.354 N 
ATOM     54  C   UNL A   1      40.473  28.962  29.628  1.00  0.00     0.074 A 
ATOM     55  C   UNL A   1      39.366  28.029  29.684  1.00  0.00     0.031 C 
ATOM     56  C   UNL A   1      44.866  25.791  26.177  1.00  0.00     0.029 A 
ATOM     57  C   UNL A   1      44.972  27.133  26.739  1.00  0.00     0.049 A 
ATOM     58  H   UNL A   1      43.590  28.114  27.949  1.00  0.00     0.167 HD
ATOM     59  C   UNL A   1      40.472  30.187  30.206  1.00  0.00     0.037 A 
ATOM     60  C   UNL A   1      46.013  27.970  26.560  1.00  0.00     0.037 A 
ATOM     61  C   UNL A   1      41.582  31.104  30.164  1.00  0.00     0.049 A 
ATOM     62  C   UNL A   1      45.971  29.339  27.177  1.00  0.00     0.074 A 
ATOM     63  C   UNL A   1      41.708  32.334  30.785  1.00  0.00     0.029 A 
ATOM     64  N   UNL A   1      42.754  30.894  29.451  1.00  0.00    -0.354 N 
ATOM     65  N   UNL A   1      45.037  29.880  27.920  1.00  0.00    -0.248 NA
ATOM     66  C   UNL A   1      47.125  30.214  26.926  1.00  0.00     0.031 C 
ATOM     67  C   UNL A   1      42.936  32.891  30.410  1.00  0.00     0.029 A 
ATOM     68  C   UNL A   1      43.592  31.989  29.589  1.00  0.00     0.049 A 
ATOM     69  H   UNL A   1      42.959  30.088  28.926  1.00  0.00     0.167 HD
ATOM     70  C   UNL A   1      45.492  31.154  28.232  1.00  0.00     0.074 A 
ATOM     71  C   UNL A   1      46.796  31.297  27.618  1.00  0.00     0.031 C 
ATOM     72  C   UNL A   1      44.882  32.120  28.961  1.00  0.00     0.037 A 
BRANCH  59  73
ATOM     73  C   UNL A   1      39.231  30.611  30.933  1.00  0.00     0.057 A 
ATOM     74  C   UNL A   1      38.212  31.331  30.297  1.00  0.00     0.134 A 
ATOM     75  C   UNL A   1      39.030  30.257  32.273  1.00  0.00     0.134 A 
ATOM     76  F   UNL A   1      38.345  31.709  29.016  1.00  0.00    -0.206 F 
ATOM     77  C   UNL A   1      37.050  31.706  30.973  1.00  0.00     0.040 A 
ATOM     78  C   UNL A   1      37.862  30.605  32.954  1.00  0.00     0.040 A 
ATOM     79  F   UNL A   1      39.962  29.559  32.941  1.00  0.00    -0.206 F 
ATOM     80  C   UNL A   1      36.869  31.336  32.305  1.00  0.00     0.006 A 
ENDBRANCH  59  73
BRANCH  60  81
ATOM     81  C   UNL A   1      47.180  27.534  25.755  1.00  0.00     0.057 A 
ATOM     82  C   UNL A   1      47.191  27.683  24.364  1.00  0.00     0.134 A 
ATOM     83  C   UNL A   1      48.313  26.968  26.352  1.00  0.00     0.134 A 
ATOM     84  F   UNL A   1      46.126  28.199  23.733  1.00  0.00    -0.206 F 
ATOM     85  C   UNL A   1      48.280  27.275  23.593  1.00  0.00     0.040 A 
ATOM     86  C   UNL A   1      49.420  26.578  25.597  1.00  0.00     0.040 A 
ATOM     87  F   UNL A   1      48.366  26.801  27.681  1.00  0.00    -0.206 F 
ATOM     88  C   UNL A   1      49.402  26.726  24.212  1.00  0.00     0.006 A 
ENDBRANCH  60  81
BRANCH  72  89
ATOM     89  C   UNL A   1      45.617  33.415  29.134  1.00  0.00     0.057 A 
ATOM     90  C   UNL A   1      46.538  33.602  30.173  1.00  0.00     0.134 A 
ATOM     91  C   UNL A   1      45.440  34.468  28.229  1.00  0.00     0.134 A 
ATOM     92  F   UNL A   1      46.742  32.635  31.082  1.00  0.00    -0.206 F 
ATOM     93  C   UNL A   1      47.247  34.795  30.312  1.00  0.00     0.040 A 
ATOM     94  C   UNL A   1      46.159  35.659  28.344  1.00  0.00     0.040 A 
ATOM     95  F   UNL A   1      44.576  34.352  27.209  1.00  0.00    -0.206 F 
ATOM     96  C   UNL A   1      47.064  35.825  29.390  1.00  0.00     0.006 A 
ENDBRANCH  72  89
ENDBRANCH  46  47
ENDBRANCH  38  41
ENDBRANCH  36  37
ENDBRANCH  35  36
ENDBRANCH  34  35
ENDBRANCH  32  34
ENDBRANCH  28  30
ENDBRANCH   4  28
TORSDOF 20
ENDMDL
MODEL 3
REMARK VINA RESULT:      -8.8      3.932     10.348
REMARK SMILES CCCCCCNC(=O)Oc1cccc(-c2ccc([C@@H](C)C(=O)NCCCNC(=O)c3ccc(-c4c5nc(c(-c6c(F)cccc6F)c6ccc([nH]6)c(-c6c(F)cccc6F)c6nc(c(-c7c(F)cccc7F)c7ccc4[nH]7)C=C6)C=C5)cc3)cc2C(F)(F)F)c1
REMARK SMILES IDX 16 1 17 2 18 3 19 4 85 5 86 6 15 7 11 8 12 9 91 10 13 11
REMARK SMILES IDX 14 12 10 13 8 14 7 15 9 17 6 18 5 19 4 20 3 21 2 22 1 23
REMARK SMILES IDX 87 24 88 25 89 26 90 27 20 28 21 29 22 30 23 31 24 32 25 34
REMARK SMILES IDX 26 35 27 36 28 37 29 38 30 40 31 41 32 42 84 43 33 44 83 45
REMARK SMILES IDX 34 46 35 47 36 48 77 49 37 50 82 51 76 52 78 53 38 54 81 55
REMARK SMILES IDX 75 56 74 57 39 59 65 60 48 61 64 62 49 63 52 64 63 65 79 66
REMARK SMILES IDX 50 67 51 68 62 70 80 71 53 72 40 73 41 74 46 75 42 76 43 77
REMARK SMILES IDX 45 78 47 79 44 80 66 81 67 82 72 83 68 84 69 85 71 86 73 87
REMARK SMILES IDX 70 88 54 89 55 90 60 91 56 92 57 93 59 94 61 95 58 96
REMARK H PARENT 7 16 24 33 28 39 78 58 52 69
REMARK Flexibility Score: inf
ROOT
ATOM      1  C   UNL A   1      36.626  32.317  31.856  1.00  0.00    -0.006 A 
ATOM      2  C   UNL A   1      36.243  30.988  32.128  1.00  0.00     0.009 A 
ATOM      3  C   UNL A   1      36.961  29.889  31.653  1.00  0.00     0.005 A 
ATOM      4  C   UNL A   1      38.034  30.058  30.787  1.00  0.00    -0.035 A 
ATOM      5  C   UNL A   1      38.445  31.374  30.525  1.00  0.00     0.018 A 
ATOM      6  C   UNL A   1      37.797  32.505  31.092  1.00  0.00     0.064 A 
ENDROOT
BRANCH   1   7
ATOM      7  C   UNL A   1      35.781  33.403  32.405  1.00  0.00    -0.014 A 
ATOM      8  C   UNL A   1      33.955  34.996  32.233  1.00  0.00     0.133 A 
ATOM      9  C   UNL A   1      34.197  35.467  33.520  1.00  0.00     0.047 A 
ATOM     10  C   UNL A   1      34.714  33.959  31.681  1.00  0.00     0.056 A 
ATOM     11  C   UNL A   1      35.219  34.900  34.269  1.00  0.00     0.004 A 
ATOM     12  C   UNL A   1      36.011  33.893  33.709  1.00  0.00     0.009 A 
BRANCH   8  13
ATOM     13  O   UNL A   1      33.037  35.741  31.470  1.00  0.00    -0.410 OA
BRANCH  13  14
ATOM     14  C   UNL A   1      33.249  37.084  31.204  1.00  0.00     0.412 C 
ATOM     15  N   UNL A   1      33.352  37.346  29.865  1.00  0.00    -0.321 N 
ATOM     16  H   UNL A   1      33.568  38.272  29.611  1.00  0.00     0.167 HD
ATOM     17  O   UNL A   1      33.346  37.974  32.038  1.00  0.00    -0.224 OA
BRANCH  15  18
ATOM     18  C   UNL A   1      33.179  36.396  28.783  1.00  0.00     0.119 C 
BRANCH  18  19
ATOM     19  C   UNL A   1      34.492  35.703  28.415  1.00  0.00     0.021 C 
BRANCH  19  20
ATOM     20  C   UNL A   1      34.342  34.251  27.940  1.00  0.00     0.002 C 
BRANCH  20  21
ATOM     21  C   UNL A   1      35.593  33.379  28.083  1.00  0.00    -0.000 C 
BRANCH  21  22
ATOM     22  C   UNL A   1      35.336  31.913  28.442  1.00  0.00    -0.003 C 
ATOM     23  C   UNL A   1      34.224  31.280  27.619  1.00  0.00     0.004 C 
ENDBRANCH  21  22
ENDBRANCH  20  21
ENDBRANCH  19  20
ENDBRANCH  18  19
ENDBRANCH  15  18
ENDBRANCH  13  14
ENDBRANCH   8  13
ENDBRANCH   1   7
BRANCH   6  24
ATOM     24  C   UNL A   1      38.468  33.841  30.846  1.00  0.00     0.417 C 
ATOM     25  F   UNL A   1      39.710  33.684  30.295  1.00  0.00    -0.166 F 
ATOM     26  F   UNL A   1      37.776  34.612  29.960  1.00  0.00    -0.166 F 
ATOM     27  F   UNL A   1      38.676  34.619  31.940  1.00  0.00    -0.166 F 
ENDBRANCH   6  24
BRANCH   4  28
ATOM     28  C   UNL A   1      38.759  28.889  30.139  1.00  0.00     0.105 C 
ATOM     29  C   UNL A   1      38.832  27.622  30.989  1.00  0.00     0.023 C 
BRANCH  28  30
ATOM     30  C   UNL A   1      38.384  28.656  28.666  1.00  0.00     0.227 C 
ATOM     31  O   UNL A   1      37.426  29.267  28.176  1.00  0.00    -0.274 OA
ATOM     32  N   UNL A   1      39.043  27.815  27.826  1.00  0.00    -0.356 N 
ATOM     33  H   UNL A   1      38.714  27.843  26.898  1.00  0.00     0.163 HD
BRANCH  32  34
ATOM     34  C   UNL A   1      40.136  26.883  28.028  1.00  0.00     0.117 C 
BRANCH  34  35
ATOM     35  C   UNL A   1      39.687  25.427  27.893  1.00  0.00     0.042 C 
BRANCH  35  36
ATOM     36  C   UNL A   1      39.761  24.883  26.472  1.00  0.00     0.118 C 
BRANCH  36  37
ATOM     37  N   UNL A   1      40.593  23.691  26.382  1.00  0.00    -0.352 N 
ATOM     38  C   UNL A   1      41.948  23.550  26.200  1.00  0.00     0.251 C 
ATOM     39  H   UNL A   1      40.102  22.842  26.464  1.00  0.00     0.163 HD
ATOM     40  O   UNL A   1      42.401  22.440  25.929  1.00  0.00    -0.269 OA
BRANCH  38  41
ATOM     41  C   UNL A   1      42.867  24.707  26.304  1.00  0.00     0.039 A 
ATOM     42  C   UNL A   1      43.391  25.035  27.560  1.00  0.00     0.014 A 
ATOM     43  C   UNL A   1      43.177  25.501  25.198  1.00  0.00     0.014 A 
ATOM     44  C   UNL A   1      44.283  26.105  27.690  1.00  0.00     0.010 A 
ATOM     45  C   UNL A   1      44.120  26.521  25.313  1.00  0.00     0.010 A 
ATOM     46  C   UNL A   1      44.690  26.828  26.558  1.00  0.00    -0.014 A 
BRANCH  46  47
ATOM     47  C   UNL A   1      45.734  27.880  26.645  1.00  0.00     0.031 A 
ATOM     48  C   UNL A   1      45.354  29.328  26.770  1.00  0.00     0.074 A 
ATOM     49  C   UNL A   1      47.030  27.533  26.522  1.00  0.00     0.049 A 
ATOM     50  N   UNL A   1      46.121  30.390  26.746  1.00  0.00    -0.248 NA
ATOM     51  C   UNL A   1      43.921  29.626  26.922  1.00  0.00     0.031 C 
ATOM     52  C   UNL A   1      47.526  26.165  26.355  1.00  0.00     0.029 A 
ATOM     53  N   UNL A   1      48.166  28.303  26.493  1.00  0.00    -0.354 N 
ATOM     54  C   UNL A   1      45.266  31.478  26.863  1.00  0.00     0.074 A 
ATOM     55  C   UNL A   1      43.918  30.951  26.920  1.00  0.00     0.031 C 
ATOM     56  C   UNL A   1      48.864  26.192  26.251  1.00  0.00     0.029 A 
ATOM     57  C   UNL A   1      49.317  27.579  26.297  1.00  0.00     0.049 A 
ATOM     58  H   UNL A   1      48.158  29.281  26.604  1.00  0.00     0.167 HD
ATOM     59  C   UNL A   1      45.577  32.795  26.932  1.00  0.00     0.037 A 
ATOM     60  C   UNL A   1      50.592  27.984  26.145  1.00  0.00     0.037 A 
ATOM     61  C   UNL A   1      46.920  33.313  26.893  1.00  0.00     0.049 A 
ATOM     62  C   UNL A   1      50.906  29.453  26.186  1.00  0.00     0.074 A 
ATOM     63  C   UNL A   1      47.343  34.623  27.037  1.00  0.00     0.029 A 
ATOM     64  N   UNL A   1      48.058  32.547  26.685  1.00  0.00    -0.354 N 
ATOM     65  N   UNL A   1      50.096  30.465  26.371  1.00  0.00    -0.248 NA
ATOM     66  C   UNL A   1      52.312  29.834  25.990  1.00  0.00     0.031 C 
ATOM     67  C   UNL A   1      48.731  34.657  26.869  1.00  0.00     0.029 A 
ATOM     68  C   UNL A   1      49.177  33.362  26.661  1.00  0.00     0.049 A 
ATOM     69  H   UNL A   1      48.067  31.570  26.571  1.00  0.00     0.167 HD
ATOM     70  C   UNL A   1      50.891  31.602  26.324  1.00  0.00     0.074 A 
ATOM     71  C   UNL A   1      52.252  31.154  26.115  1.00  0.00     0.031 C 
ATOM     72  C   UNL A   1      50.525  32.901  26.440  1.00  0.00     0.037 A 
BRANCH  59  73
ATOM     73  C   UNL A   1      44.445  33.770  27.055  1.00  0.00     0.057 A 
ATOM     74  C   UNL A   1      43.909  34.126  28.300  1.00  0.00     0.134 A 
ATOM     75  C   UNL A   1      43.911  34.396  25.921  1.00  0.00     0.134 A 
ATOM     76  F   UNL A   1      44.369  33.557  29.425  1.00  0.00    -0.206 F 
ATOM     77  C   UNL A   1      42.868  35.048  28.411  1.00  0.00     0.040 A 
ATOM     78  C   UNL A   1      42.886  35.339  26.021  1.00  0.00     0.040 A 
ATOM     79  F   UNL A   1      44.384  34.108  24.699  1.00  0.00    -0.206 F 
ATOM     80  C   UNL A   1      42.358  35.664  27.269  1.00  0.00     0.006 A 
ENDBRANCH  59  73
BRANCH  60  81
ATOM     81  C   UNL A   1      51.665  26.982  25.935  1.00  0.00     0.057 A 
ATOM     82  C   UNL A   1      51.989  26.533  24.650  1.00  0.00     0.134 A 
ATOM     83  C   UNL A   1      52.397  26.456  27.006  1.00  0.00     0.134 A 
ATOM     84  F   UNL A   1      51.309  26.985  23.587  1.00  0.00    -0.206 F 
ATOM     85  C   UNL A   1      52.994  25.589  24.437  1.00  0.00     0.040 A 
ATOM     86  C   UNL A   1      53.421  25.529  26.807  1.00  0.00     0.040 A 
ATOM     87  F   UNL A   1      52.137  26.848  28.262  1.00  0.00    -0.206 F 
ATOM     88  C   UNL A   1      53.718  25.089  25.519  1.00  0.00     0.006 A 
ENDBRANCH  60  81
BRANCH  72  89
ATOM     89  C   UNL A   1      51.611  33.930  26.345  1.00  0.00     0.057 A 
ATOM     90  C   UNL A   1      52.300  34.376  27.479  1.00  0.00     0.134 A 
ATOM     91  C   UNL A   1      52.004  34.447  25.104  1.00  0.00     0.134 A 
ATOM     92  F   UNL A   1      51.960  33.931  28.699  1.00  0.00    -0.206 F 
ATOM     93  C   UNL A   1      53.334  35.308  27.385  1.00  0.00     0.040 A 
ATOM     94  C   UNL A   1      53.051  35.362  24.993  1.00  0.00     0.040 A 
ATOM     95  F   UNL A   1      51.388  34.057  23.977  1.00  0.00    -0.206 F 
ATOM     96  C   UNL A   1      53.718  35.798  26.137  1.00  0.00     0.006 A 
ENDBRANCH  72  89
ENDBRANCH  46  47
ENDBRANCH  38  41
ENDBRANCH  36  37
ENDBRANCH  35  36
ENDBRANCH  34  35
ENDBRANCH  32  34
ENDBRANCH  28  30
ENDBRANCH   4  28
TORSDOF 20
ENDMDL
