MODEL 1
REMARK VINA RESULT:     -11.9      0.000      0.000
REMARK SMILES CS(=O)(=O)c1ccc(N2N=C(C(=O)NCCCNC(=O)c3ccc(-c4c5nc(c(-c6c(F)cccc6F)c6ccc([nH]6)c(-c6c(F)cccc6F)c6nc(c(-c7c(F)cccc7F)c7ccc4[nH]7)C=C6)C=C5)cc3)C[C@H]2c2cccs2)cc1
REMARK SMILES IDX 16 1 15 2 14 3 12 4 13 5 11 7 9 8 10 9 76 10 75 11 8 12 5 13
REMARK SMILES IDX 6 14 83 15 7 16 82 17 2 18 1 19 3 20 4 21 77 22 78 23 81 24
REMARK SMILES IDX 79 25 80 26 17 27 18 28 19 29 20 31 21 32 22 33 74 34 23 35
REMARK SMILES IDX 73 36 24 37 25 38 26 39 67 40 27 41 72 42 66 43 68 44 28 45
REMARK SMILES IDX 71 46 65 47 64 48 29 50 55 51 38 52 54 53 39 54 42 55 53 56
REMARK SMILES IDX 69 57 40 58 41 59 52 61 70 62 43 63 30 64 31 65 36 66 32 67
REMARK SMILES IDX 33 68 35 69 37 70 34 71 56 72 57 73 62 74 58 75 59 76 61 77
REMARK SMILES IDX 63 78 60 79 44 80 45 81 50 82 46 83 47 84 49 85 51 86 48 87
REMARK H PARENT 14 6 18 30 68 49 42 60
REMARK Flexibility Score: inf
ROOT
ATOM      1  C   UNL A   1      32.858  27.782  25.942  1.00  0.00     0.042 C 
ENDROOT
BRANCH   1   2
ATOM      2  C   UNL A   1      31.960  26.677  26.481  1.00  0.00     0.118 C 
BRANCH   2   3
ATOM      3  N   UNL A   1      31.008  26.247  25.479  1.00  0.00    -0.351 N 
ATOM      4  C   UNL A   1      31.028  25.334  24.459  1.00  0.00     0.267 C 
ATOM      5  O   UNL A   1      30.058  25.314  23.705  1.00  0.00    -0.268 OA
ATOM      6  H   UNL A   1      30.146  26.718  25.547  1.00  0.00     0.163 HD
BRANCH   4   7
ATOM      7  C   UNL A   1      32.139  24.319  24.237  1.00  0.00     0.128 C 
ATOM      8  N   UNL A   1      33.151  22.451  24.377  1.00  0.00    -0.256 N 
ATOM      9  N   UNL A   1      31.971  23.079  24.590  1.00  0.00    -0.171 NA
ATOM     10  C   UNL A   1      34.179  23.293  23.765  1.00  0.00     0.154 C 
ATOM     11  C   UNL A   1      33.438  24.619  23.563  1.00  0.00     0.097 C 
BRANCH   8  12
ATOM     12  C   UNL A   1      33.226  21.064  24.325  1.00  0.00     0.060 A 
ATOM     13  C   UNL A   1      33.505  18.282  24.164  1.00  0.00     0.067 A 
ATOM     14  C   UNL A   1      32.500  18.916  23.432  1.00  0.00     0.022 A 
ATOM     15  C   UNL A   1      34.362  19.014  24.982  1.00  0.00     0.022 A 
ATOM     16  C   UNL A   1      32.359  20.306  23.525  1.00  0.00     0.029 A 
ATOM     17  C   UNL A   1      34.206  20.393  25.068  1.00  0.00     0.029 A 
BRANCH  13  18
ATOM     18  S   UNL A   1      33.722  16.524  24.072  1.00  0.00     0.175 S 
ATOM     19  C   UNL A   1      35.149  16.227  25.085  1.00  0.00     0.163 C 
ATOM     20  O   UNL A   1      34.071  16.220  22.694  1.00  0.00    -0.224 OA
ATOM     21  O   UNL A   1      32.585  15.896  24.709  1.00  0.00    -0.224 OA
ENDBRANCH  13  18
ENDBRANCH   8  12
BRANCH  10  22
ATOM     22  C   UNL A   1      35.486  23.418  24.538  1.00  0.00     0.030 A 
ATOM     23  C   UNL A   1      35.679  24.102  25.727  1.00  0.00     0.017 A 
ATOM     24  S   UNL A   1      36.974  22.760  23.976  1.00  0.00    -0.147 S 
ATOM     25  C   UNL A   1      37.028  24.057  26.182  1.00  0.00     0.012 A 
ATOM     26  C   UNL A   1      37.826  23.309  25.347  1.00  0.00     0.065 A 
ENDBRANCH  10  22
ENDBRANCH   4   7
ENDBRANCH   2   3
ENDBRANCH   1   2
BRANCH   1  27
ATOM     27  C   UNL A   1      33.923  28.197  26.948  1.00  0.00     0.118 C 
BRANCH  27  28
ATOM     28  N   UNL A   1      33.779  29.594  27.341  1.00  0.00    -0.352 N 
ATOM     29  C   UNL A   1      34.616  30.401  28.067  1.00  0.00     0.251 C 
ATOM     30  H   UNL A   1      32.948  30.027  27.036  1.00  0.00     0.163 HD
ATOM     31  O   UNL A   1      34.198  31.466  28.513  1.00  0.00    -0.269 OA
BRANCH  29  32
ATOM     32  C   UNL A   1      36.013  29.993  28.311  1.00  0.00     0.039 A 
ATOM     33  C   UNL A   1      36.354  29.437  29.546  1.00  0.00     0.014 A 
ATOM     34  C   UNL A   1      36.995  30.198  27.339  1.00  0.00     0.014 A 
ATOM     35  C   UNL A   1      37.672  29.046  29.786  1.00  0.00     0.010 A 
ATOM     36  C   UNL A   1      38.278  29.709  27.538  1.00  0.00     0.010 A 
ATOM     37  C   UNL A   1      38.638  29.155  28.774  1.00  0.00    -0.014 A 
BRANCH  37  38
ATOM     38  C   UNL A   1      40.047  28.752  28.998  1.00  0.00     0.031 A 
ATOM     39  C   UNL A   1      41.009  29.725  29.626  1.00  0.00     0.074 A 
ATOM     40  C   UNL A   1      40.473  27.544  28.582  1.00  0.00     0.049 A 
ATOM     41  N   UNL A   1      42.295  29.602  29.832  1.00  0.00    -0.248 NA
ATOM     42  C   UNL A   1      40.459  31.026  30.046  1.00  0.00     0.031 C 
ATOM     43  C   UNL A   1      39.645  26.534  27.919  1.00  0.00     0.029 A 
ATOM     44  N   UNL A   1      41.714  26.966  28.647  1.00  0.00    -0.354 N 
ATOM     45  C   UNL A   1      42.706  30.811  30.378  1.00  0.00     0.074 A 
ATOM     46  C   UNL A   1      41.550  31.678  30.415  1.00  0.00     0.031 C 
ATOM     47  C   UNL A   1      40.395  25.448  27.669  1.00  0.00     0.029 A 
ATOM     48  C   UNL A   1      41.761  25.701  28.113  1.00  0.00     0.049 A 
ATOM     49  H   UNL A   1      42.497  27.414  29.041  1.00  0.00     0.167 HD
ATOM     50  C   UNL A   1      43.932  31.160  30.834  1.00  0.00     0.037 A 
ATOM     51  C   UNL A   1      42.794  24.846  27.995  1.00  0.00     0.037 A 
ATOM     52  C   UNL A   1      45.069  30.280  30.832  1.00  0.00     0.049 A 
ATOM     53  C   UNL A   1      44.145  25.258  28.513  1.00  0.00     0.074 A 
ATOM     54  C   UNL A   1      46.339  30.510  31.328  1.00  0.00     0.029 A 
ATOM     55  N   UNL A   1      45.070  28.996  30.305  1.00  0.00    -0.354 N 
ATOM     56  N   UNL A   1      44.505  26.380  29.089  1.00  0.00    -0.248 NA
ATOM     57  C   UNL A   1      45.232  24.279  28.372  1.00  0.00     0.031 C 
ATOM     58  C   UNL A   1      47.123  29.384  31.059  1.00  0.00     0.029 A 
ATOM     59  C   UNL A   1      46.325  28.429  30.449  1.00  0.00     0.049 A 
ATOM     60  H   UNL A   1      44.294  28.555  29.891  1.00  0.00     0.167 HD
ATOM     61  C   UNL A   1      45.846  26.224  29.419  1.00  0.00     0.074 A 
ATOM     62  C   UNL A   1      46.230  24.897  28.985  1.00  0.00     0.031 C 
ATOM     63  C   UNL A   1      46.682  27.098  30.030  1.00  0.00     0.037 A 
BRANCH  50  64
ATOM     64  C   UNL A   1      44.103  32.551  31.379  1.00  0.00     0.057 A 
ATOM     65  C   UNL A   1      43.949  32.838  32.741  1.00  0.00     0.134 A 
ATOM     66  C   UNL A   1      44.456  33.609  30.532  1.00  0.00     0.134 A 
ATOM     67  F   UNL A   1      43.597  31.875  33.605  1.00  0.00    -0.206 F 
ATOM     68  C   UNL A   1      44.113  34.134  33.237  1.00  0.00     0.040 A 
ATOM     69  C   UNL A   1      44.653  34.902  31.021  1.00  0.00     0.040 A 
ATOM     70  F   UNL A   1      44.624  33.404  29.217  1.00  0.00    -0.206 F 
ATOM     71  C   UNL A   1      44.474  35.167  32.376  1.00  0.00     0.006 A 
ENDBRANCH  50  64
BRANCH  51  72
ATOM     72  C   UNL A   1      42.590  23.504  27.392  1.00  0.00     0.057 A 
ATOM     73  C   UNL A   1      42.729  23.306  26.013  1.00  0.00     0.134 A 
ATOM     74  C   UNL A   1      42.230  22.396  28.169  1.00  0.00     0.134 A 
ATOM     75  F   UNL A   1      43.057  24.332  25.213  1.00  0.00    -0.206 F 
ATOM     76  C   UNL A   1      42.488  22.064  25.423  1.00  0.00     0.040 A 
ATOM     77  C   UNL A   1      42.014  21.141  27.595  1.00  0.00     0.040 A 
ATOM     78  F   UNL A   1      42.091  22.515  29.497  1.00  0.00    -0.206 F 
ATOM     79  C   UNL A   1      42.132  20.976  26.217  1.00  0.00     0.006 A 
ENDBRANCH  51  72
BRANCH  63  80
ATOM     80  C   UNL A   1      48.076  26.625  30.325  1.00  0.00     0.057 A 
ATOM     81  C   UNL A   1      48.403  25.956  31.510  1.00  0.00     0.134 A 
ATOM     82  C   UNL A   1      49.098  26.813  29.384  1.00  0.00     0.134 A 
ATOM     83  F   UNL A   1      47.473  25.754  32.457  1.00  0.00    -0.206 F 
ATOM     84  C   UNL A   1      49.705  25.518  31.764  1.00  0.00     0.040 A 
ATOM     85  C   UNL A   1      50.394  26.352  29.612  1.00  0.00     0.040 A 
ATOM     86  F   UNL A   1      48.850  27.436  28.222  1.00  0.00    -0.206 F 
ATOM     87  C   UNL A   1      50.702  25.710  30.809  1.00  0.00     0.006 A 
ENDBRANCH  63  80
ENDBRANCH  37  38
ENDBRANCH  29  32
ENDBRANCH  27  28
ENDBRANCH   1  27
TORSDOF 13
ENDMDL
MODEL 2
REMARK VINA RESULT:     -11.7      3.519      7.164
REMARK SMILES CS(=O)(=O)c1ccc(N2N=C(C(=O)NCCCNC(=O)c3ccc(-c4c5nc(c(-c6c(F)cccc6F)c6ccc([nH]6)c(-c6c(F)cccc6F)c6nc(c(-c7c(F)cccc7F)c7ccc4[nH]7)C=C6)C=C5)cc3)C[C@H]2c2cccs2)cc1
REMARK SMILES IDX 16 1 15 2 14 3 12 4 13 5 11 7 9 8 10 9 76 10 75 11 8 12 5 13
REMARK SMILES IDX 6 14 83 15 7 16 82 17 2 18 1 19 3 20 4 21 77 22 78 23 81 24
REMARK SMILES IDX 79 25 80 26 17 27 18 28 19 29 20 31 21 32 22 33 74 34 23 35
REMARK SMILES IDX 73 36 24 37 25 38 26 39 67 40 27 41 72 42 66 43 68 44 28 45
REMARK SMILES IDX 71 46 65 47 64 48 29 50 55 51 38 52 54 53 39 54 42 55 53 56
REMARK SMILES IDX 69 57 40 58 41 59 52 61 70 62 43 63 30 64 31 65 36 66 32 67
REMARK SMILES IDX 33 68 35 69 37 70 34 71 56 72 57 73 62 74 58 75 59 76 61 77
REMARK SMILES IDX 63 78 60 79 44 80 45 81 50 82 46 83 47 84 49 85 51 86 48 87
REMARK H PARENT 14 6 18 30 68 49 42 60
REMARK Flexibility Score: inf
ROOT
ATOM      1  C   UNL A   1      33.269  27.675  25.165  1.00  0.00     0.042 C 
ENDROOT
BRANCH   1   2
ATOM      2  C   UNL A   1      32.105  27.270  24.271  1.00  0.00     0.118 C 
BRANCH   2   3
ATOM      3  N   UNL A   1      32.578  26.746  23.006  1.00  0.00    -0.351 N 
ATOM      4  C   UNL A   1      33.351  25.679  22.634  1.00  0.00     0.267 C 
ATOM      5  O   UNL A   1      33.666  25.601  21.449  1.00  0.00    -0.268 OA
ATOM      6  H   UNL A   1      32.273  27.279  22.237  1.00  0.00     0.163 HD
BRANCH   4   7
ATOM      7  C   UNL A   1      33.793  24.569  23.575  1.00  0.00     0.128 C 
ATOM      8  N   UNL A   1      35.102  23.126  24.436  1.00  0.00    -0.256 N 
ATOM      9  N   UNL A   1      35.036  24.188  23.598  1.00  0.00    -0.171 NA
ATOM     10  C   UNL A   1      33.838  22.802  25.096  1.00  0.00     0.154 C 
ATOM     11  C   UNL A   1      32.902  23.893  24.565  1.00  0.00     0.097 C 
BRANCH   8  12
ATOM     12  C   UNL A   1      36.318  22.693  24.949  1.00  0.00     0.060 A 
ATOM     13  C   UNL A   1      38.834  21.920  25.908  1.00  0.00     0.067 A 
ATOM     14  C   UNL A   1      38.079  21.021  25.153  1.00  0.00     0.022 A 
ATOM     15  C   UNL A   1      38.346  23.192  26.200  1.00  0.00     0.022 A 
ATOM     16  C   UNL A   1      36.818  21.410  24.686  1.00  0.00     0.029 A 
ATOM     17  C   UNL A   1      37.089  23.561  25.733  1.00  0.00     0.029 A 
BRANCH  13  18
ATOM     18  S   UNL A   1      40.438  21.470  26.515  1.00  0.00     0.175 S 
ATOM     19  C   UNL A   1      40.554  19.738  26.145  1.00  0.00     0.163 C 
ATOM     20  O   UNL A   1      40.395  21.626  27.959  1.00  0.00    -0.224 OA
ATOM     21  O   UNL A   1      41.431  22.161  25.720  1.00  0.00    -0.224 OA
ENDBRANCH  13  18
ENDBRANCH   8  12
BRANCH  10  22
ATOM     22  C   UNL A   1      33.324  21.382  24.890  1.00  0.00     0.030 A 
ATOM     23  C   UNL A   1      33.458  20.320  25.769  1.00  0.00     0.017 A 
ATOM     24  S   UNL A   1      32.541  20.870  23.445  1.00  0.00    -0.147 S 
ATOM     25  C   UNL A   1      32.894  19.111  25.270  1.00  0.00     0.012 A 
ATOM     26  C   UNL A   1      32.313  19.287  24.036  1.00  0.00     0.065 A 
ENDBRANCH  10  22
ENDBRANCH   4   7
ENDBRANCH   2   3
ENDBRANCH   1   2
BRANCH   1  27
ATOM     27  C   UNL A   1      33.802  29.058  24.821  1.00  0.00     0.118 C 
BRANCH  27  28
ATOM     28  N   UNL A   1      32.989  30.114  25.416  1.00  0.00    -0.352 N 
ATOM     29  C   UNL A   1      33.120  30.763  26.615  1.00  0.00     0.251 C 
ATOM     30  H   UNL A   1      32.224  30.406  24.867  1.00  0.00     0.163 HD
ATOM     31  O   UNL A   1      32.186  31.433  27.048  1.00  0.00    -0.269 OA
BRANCH  29  32
ATOM     32  C   UNL A   1      34.375  30.658  27.383  1.00  0.00     0.039 A 
ATOM     33  C   UNL A   1      35.154  31.800  27.575  1.00  0.00     0.014 A 
ATOM     34  C   UNL A   1      34.805  29.424  27.879  1.00  0.00     0.014 A 
ATOM     35  C   UNL A   1      36.341  31.712  28.303  1.00  0.00     0.010 A 
ATOM     36  C   UNL A   1      35.926  29.358  28.693  1.00  0.00     0.010 A 
ATOM     37  C   UNL A   1      36.723  30.495  28.889  1.00  0.00    -0.014 A 
BRANCH  37  38
ATOM     38  C   UNL A   1      37.980  30.366  29.666  1.00  0.00     0.031 A 
ATOM     39  C   UNL A   1      39.154  29.641  29.065  1.00  0.00     0.074 A 
ATOM     40  C   UNL A   1      38.042  30.841  30.924  1.00  0.00     0.049 A 
ATOM     41  N   UNL A   1      40.310  29.347  29.603  1.00  0.00    -0.248 NA
ATOM     42  C   UNL A   1      38.997  29.148  27.685  1.00  0.00     0.031 C 
ATOM     43  C   UNL A   1      36.954  31.521  31.630  1.00  0.00     0.029 A 
ATOM     44  N   UNL A   1      39.065  30.815  31.836  1.00  0.00    -0.354 N 
ATOM     45  C   UNL A   1      40.999  28.618  28.642  1.00  0.00     0.074 A 
ATOM     46  C   UNL A   1      40.113  28.459  27.511  1.00  0.00     0.031 C 
ATOM     47  C   UNL A   1      37.380  31.877  32.853  1.00  0.00     0.029 A 
ATOM     48  C   UNL A   1      38.751  31.412  33.032  1.00  0.00     0.049 A 
ATOM     49  H   UNL A   1      39.942  30.408  31.651  1.00  0.00     0.167 HD
ATOM     50  C   UNL A   1      42.267  28.146  28.686  1.00  0.00     0.037 A 
ATOM     51  C   UNL A   1      39.490  31.564  34.147  1.00  0.00     0.037 A 
ATOM     52  C   UNL A   1      43.156  28.341  29.798  1.00  0.00     0.049 A 
ATOM     53  C   UNL A   1      40.897  31.032  34.169  1.00  0.00     0.074 A 
ATOM     54  C   UNL A   1      44.480  27.961  29.920  1.00  0.00     0.029 A 
ATOM     55  N   UNL A   1      42.810  28.974  30.983  1.00  0.00    -0.354 N 
ATOM     56  N   UNL A   1      41.560  30.405  33.228  1.00  0.00    -0.248 NA
ATOM     57  C   UNL A   1      41.662  31.241  35.406  1.00  0.00     0.031 C 
ATOM     58  C   UNL A   1      44.922  28.321  31.197  1.00  0.00     0.029 A 
ATOM     59  C   UNL A   1      43.890  28.979  31.849  1.00  0.00     0.049 A 
ATOM     60  H   UNL A   1      41.926  29.362  31.179  1.00  0.00     0.167 HD
ATOM     61  C   UNL A   1      42.832  30.183  33.742  1.00  0.00     0.074 A 
ATOM     62  C   UNL A   1      42.847  30.751  35.074  1.00  0.00     0.031 C 
ATOM     63  C   UNL A   1      43.893  29.569  33.163  1.00  0.00     0.037 A 
BRANCH  50  64
ATOM     64  C   UNL A   1      42.766  27.378  27.494  1.00  0.00     0.057 A 
ATOM     65  C   UNL A   1      43.396  28.011  26.415  1.00  0.00     0.134 A 
ATOM     66  C   UNL A   1      42.641  25.985  27.441  1.00  0.00     0.134 A 
ATOM     67  F   UNL A   1      43.536  29.345  26.394  1.00  0.00    -0.206 F 
ATOM     68  C   UNL A   1      43.860  27.288  25.313  1.00  0.00     0.040 A 
ATOM     69  C   UNL A   1      43.128  25.248  26.360  1.00  0.00     0.040 A 
ATOM     70  F   UNL A   1      42.052  25.314  28.442  1.00  0.00    -0.206 F 
ATOM     71  C   UNL A   1      43.733  25.901  25.288  1.00  0.00     0.006 A 
ENDBRANCH  50  64
BRANCH  51  72
ATOM     72  C   UNL A   1      38.931  32.276  35.325  1.00  0.00     0.057 A 
ATOM     73  C   UNL A   1      39.080  33.662  35.465  1.00  0.00     0.134 A 
ATOM     74  C   UNL A   1      38.259  31.594  36.346  1.00  0.00     0.134 A 
ATOM     75  F   UNL A   1      39.727  34.369  34.528  1.00  0.00    -0.206 F 
ATOM     76  C   UNL A   1      38.609  34.339  36.591  1.00  0.00     0.040 A 
ATOM     77  C   UNL A   1      37.758  32.264  37.465  1.00  0.00     0.040 A 
ATOM     78  F   UNL A   1      38.073  30.269  36.268  1.00  0.00    -0.206 F 
ATOM     79  C   UNL A   1      37.942  33.639  37.594  1.00  0.00     0.006 A 
ENDBRANCH  51  72
BRANCH  63  80
ATOM     80  C   UNL A   1      45.177  29.537  33.939  1.00  0.00     0.057 A 
ATOM     81  C   UNL A   1      45.506  28.478  34.794  1.00  0.00     0.134 A 
ATOM     82  C   UNL A   1      46.113  30.569  33.797  1.00  0.00     0.134 A 
ATOM     83  F   UNL A   1      44.648  27.463  34.983  1.00  0.00    -0.206 F 
ATOM     84  C   UNL A   1      46.709  28.462  35.503  1.00  0.00     0.040 A 
ATOM     85  C   UNL A   1      47.332  30.549  34.475  1.00  0.00     0.040 A 
ATOM     86  F   UNL A   1      45.865  31.609  32.985  1.00  0.00    -0.206 F 
ATOM     87  C   UNL A   1      47.628  29.497  35.338  1.00  0.00     0.006 A 
ENDBRANCH  63  80
ENDBRANCH  37  38
ENDBRANCH  29  32
ENDBRANCH  27  28
ENDBRANCH   1  27
TORSDOF 13
ENDMDL
MODEL 3
REMARK VINA RESULT:     -11.7      4.783      9.440
REMARK SMILES CS(=O)(=O)c1ccc(N2N=C(C(=O)NCCCNC(=O)c3ccc(-c4c5nc(c(-c6c(F)cccc6F)c6ccc([nH]6)c(-c6c(F)cccc6F)c6nc(c(-c7c(F)cccc7F)c7ccc4[nH]7)C=C6)C=C5)cc3)C[C@H]2c2cccs2)cc1
REMARK SMILES IDX 16 1 15 2 14 3 12 4 13 5 11 7 9 8 10 9 76 10 75 11 8 12 5 13
REMARK SMILES IDX 6 14 83 15 7 16 82 17 2 18 1 19 3 20 4 21 77 22 78 23 81 24
REMARK SMILES IDX 79 25 80 26 17 27 18 28 19 29 20 31 21 32 22 33 74 34 23 35
REMARK SMILES IDX 73 36 24 37 25 38 26 39 67 40 27 41 72 42 66 43 68 44 28 45
REMARK SMILES IDX 71 46 65 47 64 48 29 50 55 51 38 52 54 53 39 54 42 55 53 56
REMARK SMILES IDX 69 57 40 58 41 59 52 61 70 62 43 63 30 64 31 65 36 66 32 67
REMARK SMILES IDX 33 68 35 69 37 70 34 71 56 72 57 73 62 74 58 75 59 76 61 77
REMARK SMILES IDX 63 78 60 79 44 80 45 81 50 82 46 83 47 84 49 85 51 86 48 87
REMARK H PARENT 14 6 18 30 68 49 42 60
REMARK Flexibility Score: inf
ROOT
ATOM      1  C   UNL A   1      37.616  23.246  25.574  1.00  0.00     0.042 C 
ENDROOT
BRANCH   1   2
ATOM      2  C   UNL A   1      36.253  23.919  25.484  1.00  0.00     0.118 C 
BRANCH   2   3
ATOM      3  N   UNL A   1      35.655  23.709  24.181  1.00  0.00    -0.351 N 
ATOM      4  C   UNL A   1      34.530  24.171  23.552  1.00  0.00     0.267 C 
ATOM      5  O   UNL A   1      34.256  23.676  22.460  1.00  0.00    -0.268 OA
ATOM      6  H   UNL A   1      36.179  23.094  23.618  1.00  0.00     0.163 HD
BRANCH   4   7
ATOM      7  C   UNL A   1      33.642  25.282  24.088  1.00  0.00     0.128 C 
ATOM      8  N   UNL A   1      32.392  27.006  24.020  1.00  0.00    -0.256 N 
ATOM      9  N   UNL A   1      32.998  26.058  23.266  1.00  0.00    -0.171 NA
ATOM     10  C   UNL A   1      32.565  26.828  25.462  1.00  0.00     0.154 C 
ATOM     11  C   UNL A   1      33.380  25.533  25.537  1.00  0.00     0.097 C 
BRANCH   8  12
ATOM     12  C   UNL A   1      31.360  27.780  23.505  1.00  0.00     0.060 A 
ATOM     13  C   UNL A   1      29.313  29.441  22.559  1.00  0.00     0.067 A 
ATOM     14  C   UNL A   1      28.992  28.205  23.122  1.00  0.00     0.022 A 
ATOM     15  C   UNL A   1      30.639  29.853  22.451  1.00  0.00     0.022 A 
ATOM     16  C   UNL A   1      30.020  27.375  23.583  1.00  0.00     0.029 A 
ATOM     17  C   UNL A   1      31.650  29.014  22.909  1.00  0.00     0.029 A 
BRANCH  13  18
ATOM     18  S   UNL A   1      28.041  30.526  21.967  1.00  0.00     0.175 S 
ATOM     19  C   UNL A   1      28.823  32.119  21.956  1.00  0.00     0.163 C 
ATOM     20  O   UNL A   1      26.999  30.537  22.980  1.00  0.00    -0.224 OA
ATOM     21  O   UNL A   1      27.744  30.166  20.597  1.00  0.00    -0.224 OA
ENDBRANCH  13  18
ENDBRANCH   8  12
BRANCH  10  22
ATOM     22  C   UNL A   1      33.185  28.003  26.208  1.00  0.00     0.030 A 
ATOM     23  C   UNL A   1      34.537  28.228  26.414  1.00  0.00     0.017 A 
ATOM     24  S   UNL A   1      32.249  29.216  26.992  1.00  0.00    -0.147 S 
ATOM     25  C   UNL A   1      34.794  29.402  27.178  1.00  0.00     0.012 A 
ATOM     26  C   UNL A   1      33.635  30.063  27.509  1.00  0.00     0.065 A 
ENDBRANCH  10  22
ENDBRANCH   4   7
ENDBRANCH   2   3
ENDBRANCH   1   2
BRANCH   1  27
ATOM     27  C   UNL A   1      38.541  23.954  26.554  1.00  0.00     0.118 C 
BRANCH  27  28
ATOM     28  N   UNL A   1      39.910  24.017  26.055  1.00  0.00    -0.352 N 
ATOM     29  C   UNL A   1      40.893  24.945  26.279  1.00  0.00     0.251 C 
ATOM     30  H   UNL A   1      40.169  23.273  25.462  1.00  0.00     0.163 HD
ATOM     31  O   UNL A   1      41.889  24.960  25.561  1.00  0.00    -0.269 OA
BRANCH  29  32
ATOM     32  C   UNL A   1      40.755  25.922  27.376  1.00  0.00     0.039 A 
ATOM     33  C   UNL A   1      39.924  25.620  28.457  1.00  0.00     0.014 A 
ATOM     34  C   UNL A   1      41.413  27.154  27.319  1.00  0.00     0.014 A 
ATOM     35  C   UNL A   1      39.790  26.537  29.501  1.00  0.00     0.010 A 
ATOM     36  C   UNL A   1      41.365  28.015  28.405  1.00  0.00     0.010 A 
ATOM     37  C   UNL A   1      40.530  27.730  29.494  1.00  0.00    -0.014 A 
BRANCH  37  38
ATOM     38  C   UNL A   1      40.408  28.726  30.586  1.00  0.00     0.031 A 
ATOM     39  C   UNL A   1      39.352  29.795  30.502  1.00  0.00     0.074 A 
ATOM     40  C   UNL A   1      41.280  28.707  31.611  1.00  0.00     0.049 A 
ATOM     41  N   UNL A   1      39.131  30.806  31.304  1.00  0.00    -0.248 NA
ATOM     42  C   UNL A   1      38.443  29.744  29.343  1.00  0.00     0.031 C 
ATOM     43  C   UNL A   1      42.374  27.748  31.778  1.00  0.00     0.029 A 
ATOM     44  N   UNL A   1      41.388  29.528  32.704  1.00  0.00    -0.354 N 
ATOM     45  C   UNL A   1      38.083  31.517  30.733  1.00  0.00     0.074 A 
ATOM     46  C   UNL A   1      37.751  30.863  29.488  1.00  0.00     0.031 C 
ATOM     47  C   UNL A   1      43.021  28.016  32.924  1.00  0.00     0.029 A 
ATOM     48  C   UNL A   1      42.417  29.188  33.548  1.00  0.00     0.049 A 
ATOM     49  H   UNL A   1      40.784  30.288  32.869  1.00  0.00     0.167 HD
ATOM     50  C   UNL A   1      37.435  32.603  31.216  1.00  0.00     0.037 A 
ATOM     51  C   UNL A   1      42.825  29.763  34.695  1.00  0.00     0.037 A 
ATOM     52  C   UNL A   1      37.744  33.226  32.475  1.00  0.00     0.049 A 
ATOM     53  C   UNL A   1      42.086  30.967  35.211  1.00  0.00     0.074 A 
ATOM     54  C   UNL A   1      37.109  34.291  33.088  1.00  0.00     0.029 A 
ATOM     55  N   UNL A   1      38.777  32.837  33.314  1.00  0.00    -0.354 N 
ATOM     56  N   UNL A   1      41.054  31.590  34.696  1.00  0.00    -0.248 NA
ATOM     57  C   UNL A   1      42.565  31.543  36.476  1.00  0.00     0.031 C 
ATOM     58  C   UNL A   1      37.788  34.577  34.277  1.00  0.00     0.029 A 
ATOM     59  C   UNL A   1      38.810  33.653  34.432  1.00  0.00     0.049 A 
ATOM     60  H   UNL A   1      39.397  32.091  33.140  1.00  0.00     0.167 HD
ATOM     61  C   UNL A   1      40.732  32.600  35.594  1.00  0.00     0.074 A 
ATOM     62  C   UNL A   1      41.675  32.501  36.688  1.00  0.00     0.031 C 
ATOM     63  C   UNL A   1      39.743  33.524  35.522  1.00  0.00     0.037 A 
BRANCH  50  64
ATOM     64  C   UNL A   1      36.326  33.182  30.383  1.00  0.00     0.057 A 
ATOM     65  C   UNL A   1      36.578  34.059  29.320  1.00  0.00     0.134 A 
ATOM     66  C   UNL A   1      34.993  32.832  30.628  1.00  0.00     0.134 A 
ATOM     67  F   UNL A   1      37.831  34.448  29.039  1.00  0.00    -0.206 F 
ATOM     68  C   UNL A   1      35.540  34.589  28.549  1.00  0.00     0.040 A 
ATOM     69  C   UNL A   1      33.950  33.330  29.845  1.00  0.00     0.040 A 
ATOM     70  F   UNL A   1      34.681  31.993  31.627  1.00  0.00    -0.206 F 
ATOM     71  C   UNL A   1      34.223  34.217  28.806  1.00  0.00     0.006 A 
ENDBRANCH  50  64
BRANCH  51  72
ATOM     72  C   UNL A   1      43.968  29.192  35.454  1.00  0.00     0.057 A 
ATOM     73  C   UNL A   1      45.273  29.655  35.246  1.00  0.00     0.134 A 
ATOM     74  C   UNL A   1      43.791  28.159  36.382  1.00  0.00     0.134 A 
ATOM     75  F   UNL A   1      45.509  30.632  34.358  1.00  0.00    -0.206 F 
ATOM     76  C   UNL A   1      46.364  29.092  35.909  1.00  0.00     0.040 A 
ATOM     77  C   UNL A   1      44.871  27.606  37.074  1.00  0.00     0.040 A 
ATOM     78  F   UNL A   1      42.566  27.677  36.636  1.00  0.00    -0.206 F 
ATOM     79  C   UNL A   1      46.163  28.066  36.830  1.00  0.00     0.006 A 
ENDBRANCH  51  72
BRANCH  63  80
ATOM     80  C   UNL A   1      39.589  34.459  36.686  1.00  0.00     0.057 A 
ATOM     81  C   UNL A   1      38.891  34.099  37.845  1.00  0.00     0.134 A 
ATOM     82  C   UNL A   1      40.183  35.728  36.655  1.00  0.00     0.134 A 
ATOM     83  F   UNL A   1      38.290  32.903  37.934  1.00  0.00    -0.206 F 
ATOM     84  C   UNL A   1      38.763  34.981  38.921  1.00  0.00     0.040 A 
ATOM     85  C   UNL A   1      40.090  36.605  37.736  1.00  0.00     0.040 A 
ATOM     86  F   UNL A   1      40.876  36.131  35.579  1.00  0.00    -0.206 F 
ATOM     87  C   UNL A   1      39.371  36.235  38.870  1.00  0.00     0.006 A 
ENDBRANCH  63  80
ENDBRANCH  37  38
ENDBRANCH  29  32
ENDBRANCH  27  28
ENDBRANCH   1  27
TORSDOF 13
ENDMDL
