MODEL 1
REMARK VINA RESULT:     -12.9      0.000      0.000
REMARK SMILES COc1cccc(-c2c(C(=O)NCCCNC(=O)c3ccc(-c4c5nc(c(-c6c(F)cccc6F)c6ccc([nH]6)c(-c6c(F)cccc6F)c6nc(c(-c7c(F)cccc7F)c7ccc4[nH]7)C=C6)C=C5)cc3)nnn2-c2ccc(OC(F)(F)F)cc2)c1
REMARK SMILES IDX 13 1 12 2 10 3 11 4 9 6 8 7 75 8 73 9 74 10 7 11 3 12 4 13
REMARK SMILES IDX 87 14 5 15 6 16 2 17 1 18 76 19 77 20 86 21 78 22 85 23
REMARK SMILES IDX 79 24 80 25 81 26 82 27 83 28 84 29 14 30 15 31 16 32 17 33
REMARK SMILES IDX 18 35 19 36 20 37 72 38 21 39 71 40 22 41 23 42 24 43 65 44
REMARK SMILES IDX 25 45 70 46 64 47 66 48 26 49 69 50 63 51 62 52 27 54 53 55
REMARK SMILES IDX 36 56 52 57 37 58 40 59 51 60 67 61 38 62 39 63 50 65 68 66
REMARK SMILES IDX 41 67 28 68 29 69 34 70 30 71 31 72 33 73 35 74 32 75 54 76
REMARK SMILES IDX 55 77 60 78 56 79 57 80 59 81 61 82 58 83 42 84 43 85 48 86
REMARK SMILES IDX 44 87 45 88 47 89 49 90 46 91
REMARK H PARENT 12 5 16 34 66 53 40 64
REMARK Flexibility Score: inf
ROOT
ATOM      1  C   UNL A   1      33.259  27.221  26.255  1.00  0.00     0.118 C 
ENDROOT
BRANCH   1   2
ATOM      2  N   UNL A   1      33.076  27.467  24.848  1.00  0.00    -0.351 N 
ATOM      3  C   UNL A   1      32.655  26.716  23.786  1.00  0.00     0.274 C 
ATOM      4  O   UNL A   1      32.536  27.380  22.748  1.00  0.00    -0.267 OA
ATOM      5  H   UNL A   1      33.310  28.388  24.592  1.00  0.00     0.163 HD
BRANCH   3   6
ATOM      6  C   UNL A   1      32.370  25.274  23.771  1.00  0.00     0.178 A 
ATOM      7  C   UNL A   1      33.066  24.074  23.949  1.00  0.00     0.108 A 
ATOM      8  N   UNL A   1      32.080  23.092  23.769  1.00  0.00    -0.212 N 
ATOM      9  N   UNL A   1      31.063  24.949  23.423  1.00  0.00    -0.124 NA
ATOM     10  N   UNL A   1      30.941  23.643  23.323  1.00  0.00    -0.061 NA
BRANCH   7  11
ATOM     11  C   UNL A   1      34.472  23.688  24.070  1.00  0.00     0.006 A 
ATOM     12  C   UNL A   1      36.532  23.717  25.376  1.00  0.00     0.119 A 
ATOM     13  C   UNL A   1      37.185  23.057  24.331  1.00  0.00     0.046 A 
ATOM     14  C   UNL A   1      35.177  24.030  25.243  1.00  0.00     0.056 A 
ATOM     15  C   UNL A   1      36.505  22.739  23.155  1.00  0.00     0.005 A 
ATOM     16  C   UNL A   1      35.159  23.078  23.014  1.00  0.00     0.011 A 
BRANCH  12  17
ATOM     17  O   UNL A   1      37.320  23.985  26.460  1.00  0.00    -0.497 OA
ATOM     18  C   UNL A   1      38.674  23.555  26.411  1.00  0.00     0.278 C 
ENDBRANCH  12  17
ENDBRANCH   7  11
BRANCH   8  19
ATOM     19  C   UNL A   1      32.186  21.686  23.909  1.00  0.00     0.067 A 
ATOM     20  C   UNL A   1      32.123  20.873  22.776  1.00  0.00     0.032 A 
ATOM     21  C   UNL A   1      32.380  21.111  25.169  1.00  0.00     0.032 A 
ATOM     22  C   UNL A   1      32.351  19.499  22.905  1.00  0.00     0.049 A 
ATOM     23  C   UNL A   1      32.581  19.737  25.293  1.00  0.00     0.049 A 
ATOM     24  C   UNL A   1      32.596  18.925  24.159  1.00  0.00     0.129 A 
BRANCH  24  25
ATOM     25  O   UNL A   1      32.829  17.580  24.137  1.00  0.00    -0.406 OA
BRANCH  25  26
ATOM     26  C   UNL A   1      34.178  17.154  24.034  1.00  0.00     0.573 C 
ATOM     27  F   UNL A   1      34.507  16.315  25.041  1.00  0.00    -0.132 F 
ATOM     28  F   UNL A   1      34.405  16.545  22.850  1.00  0.00    -0.132 F 
ATOM     29  F   UNL A   1      34.983  18.235  24.112  1.00  0.00    -0.132 F 
ENDBRANCH  25  26
ENDBRANCH  24  25
ENDBRANCH   8  19
ENDBRANCH   3   6
ENDBRANCH   1   2
BRANCH   1  30
ATOM     30  C   UNL A   1      33.418  28.501  27.072  1.00  0.00     0.042 C 
BRANCH  30  31
ATOM     31  C   UNL A   1      34.862  28.958  27.133  1.00  0.00     0.118 C 
BRANCH  31  32
ATOM     32  N   UNL A   1      35.072  29.939  28.203  1.00  0.00    -0.352 N 
ATOM     33  C   UNL A   1      36.164  30.087  29.040  1.00  0.00     0.251 C 
ATOM     34  H   UNL A   1      34.337  30.578  28.343  1.00  0.00     0.163 HD
ATOM     35  O   UNL A   1      36.112  30.761  30.042  1.00  0.00    -0.269 OA
BRANCH  33  36
ATOM     36  C   UNL A   1      37.389  29.352  28.679  1.00  0.00     0.039 A 
ATOM     37  C   UNL A   1      38.148  29.760  27.582  1.00  0.00     0.014 A 
ATOM     38  C   UNL A   1      37.843  28.371  29.552  1.00  0.00     0.014 A 
ATOM     39  C   UNL A   1      39.437  29.255  27.440  1.00  0.00     0.010 A 
ATOM     40  C   UNL A   1      39.165  27.994  29.493  1.00  0.00     0.010 A 
ATOM     41  C   UNL A   1      39.967  28.408  28.427  1.00  0.00    -0.014 A 
BRANCH  41  42
ATOM     42  C   UNL A   1      41.388  28.054  28.399  1.00  0.00     0.031 A 
ATOM     43  C   UNL A   1      41.753  26.807  27.655  1.00  0.00     0.074 A 
ATOM     44  C   UNL A   1      42.372  28.877  28.820  1.00  0.00     0.049 A 
ATOM     45  N   UNL A   1      42.319  25.739  28.118  1.00  0.00    -0.248 NA
ATOM     46  C   UNL A   1      41.392  26.714  26.231  1.00  0.00     0.031 C 
ATOM     47  C   UNL A   1      42.275  30.264  29.290  1.00  0.00     0.029 A 
ATOM     48  N   UNL A   1      43.716  28.657  28.813  1.00  0.00    -0.354 N 
ATOM     49  C   UNL A   1      42.539  24.900  27.024  1.00  0.00     0.074 A 
ATOM     50  C   UNL A   1      41.844  25.499  25.913  1.00  0.00     0.031 C 
ATOM     51  C   UNL A   1      43.501  30.827  29.289  1.00  0.00     0.029 A 
ATOM     52  C   UNL A   1      44.480  29.794  29.015  1.00  0.00     0.049 A 
ATOM     53  H   UNL A   1      44.110  27.765  28.675  1.00  0.00     0.167 HD
ATOM     54  C   UNL A   1      43.428  23.866  27.075  1.00  0.00     0.037 A 
ATOM     55  C   UNL A   1      45.826  29.894  28.957  1.00  0.00     0.037 A 
ATOM     56  C   UNL A   1      43.766  23.530  28.433  1.00  0.00     0.049 A 
ATOM     57  C   UNL A   1      46.384  28.535  29.133  1.00  0.00     0.074 A 
ATOM     58  C   UNL A   1      43.058  23.103  29.540  1.00  0.00     0.029 A 
ATOM     59  N   UNL A   1      44.984  23.939  28.917  1.00  0.00    -0.354 N 
ATOM     60  N   UNL A   1      46.321  27.859  30.247  1.00  0.00    -0.248 NA
ATOM     61  C   UNL A   1      46.659  27.749  27.942  1.00  0.00     0.031 C 
ATOM     62  C   UNL A   1      43.680  23.754  30.646  1.00  0.00     0.029 A 
ATOM     63  C   UNL A   1      44.754  24.494  30.147  1.00  0.00     0.049 A 
ATOM     64  H   UNL A   1      45.855  23.850  28.466  1.00  0.00     0.167 HD
ATOM     65  C   UNL A   1      46.120  26.545  29.852  1.00  0.00     0.074 A 
ATOM     66  C   UNL A   1      46.454  26.523  28.431  1.00  0.00     0.031 C 
ATOM     67  C   UNL A   1      45.438  25.664  30.643  1.00  0.00     0.037 A 
BRANCH  54  68
ATOM     68  C   UNL A   1      44.248  23.364  25.909  1.00  0.00     0.057 A 
ATOM     69  C   UNL A   1      44.268  21.985  25.614  1.00  0.00     0.134 A 
ATOM     70  C   UNL A   1      45.239  24.123  25.256  1.00  0.00     0.134 A 
ATOM     71  F   UNL A   1      43.385  21.147  26.179  1.00  0.00    -0.206 F 
ATOM     72  C   UNL A   1      45.247  21.400  24.800  1.00  0.00     0.040 A 
ATOM     73  C   UNL A   1      46.190  23.556  24.401  1.00  0.00     0.040 A 
ATOM     74  F   UNL A   1      45.403  25.431  25.487  1.00  0.00    -0.206 F 
ATOM     75  C   UNL A   1      46.218  22.185  24.196  1.00  0.00     0.006 A 
ENDBRANCH  54  68
BRANCH  55  76
ATOM     76  C   UNL A   1      46.641  31.050  28.535  1.00  0.00     0.057 A 
ATOM     77  C   UNL A   1      47.553  31.654  29.409  1.00  0.00     0.134 A 
ATOM     78  C   UNL A   1      46.733  31.423  27.182  1.00  0.00     0.134 A 
ATOM     79  F   UNL A   1      47.562  31.333  30.711  1.00  0.00    -0.206 F 
ATOM     80  C   UNL A   1      48.521  32.558  28.959  1.00  0.00     0.040 A 
ATOM     81  C   UNL A   1      47.691  32.330  26.721  1.00  0.00     0.040 A 
ATOM     82  F   UNL A   1      45.953  30.853  26.251  1.00  0.00    -0.206 F 
ATOM     83  C   UNL A   1      48.601  32.889  27.610  1.00  0.00     0.006 A 
ENDBRANCH  55  76
BRANCH  67  84
ATOM     84  C   UNL A   1      45.146  26.068  32.062  1.00  0.00     0.057 A 
ATOM     85  C   UNL A   1      44.016  26.803  32.453  1.00  0.00     0.134 A 
ATOM     86  C   UNL A   1      45.954  25.563  33.087  1.00  0.00     0.134 A 
ATOM     87  F   UNL A   1      43.127  27.239  31.554  1.00  0.00    -0.206 F 
ATOM     88  C   UNL A   1      43.732  27.062  33.797  1.00  0.00     0.040 A 
ATOM     89  C   UNL A   1      45.662  25.786  34.435  1.00  0.00     0.040 A 
ATOM     90  F   UNL A   1      47.018  24.798  32.794  1.00  0.00    -0.206 F 
ATOM     91  C   UNL A   1      44.553  26.547  34.794  1.00  0.00     0.006 A 
ENDBRANCH  67  84
ENDBRANCH  41  42
ENDBRANCH  33  36
ENDBRANCH  31  32
ENDBRANCH  30  31
ENDBRANCH   1  30
TORSDOF 15
ENDMDL
MODEL 2
REMARK VINA RESULT:     -12.7      4.844      9.415
REMARK SMILES COc1cccc(-c2c(C(=O)NCCCNC(=O)c3ccc(-c4c5nc(c(-c6c(F)cccc6F)c6ccc([nH]6)c(-c6c(F)cccc6F)c6nc(c(-c7c(F)cccc7F)c7ccc4[nH]7)C=C6)C=C5)cc3)nnn2-c2ccc(OC(F)(F)F)cc2)c1
REMARK SMILES IDX 13 1 12 2 10 3 11 4 9 6 8 7 75 8 73 9 74 10 7 11 3 12 4 13
REMARK SMILES IDX 87 14 5 15 6 16 2 17 1 18 76 19 77 20 86 21 78 22 85 23
REMARK SMILES IDX 79 24 80 25 81 26 82 27 83 28 84 29 14 30 15 31 16 32 17 33
REMARK SMILES IDX 18 35 19 36 20 37 72 38 21 39 71 40 22 41 23 42 24 43 65 44
REMARK SMILES IDX 25 45 70 46 64 47 66 48 26 49 69 50 63 51 62 52 27 54 53 55
REMARK SMILES IDX 36 56 52 57 37 58 40 59 51 60 67 61 38 62 39 63 50 65 68 66
REMARK SMILES IDX 41 67 28 68 29 69 34 70 30 71 31 72 33 73 35 74 32 75 54 76
REMARK SMILES IDX 55 77 60 78 56 79 57 80 59 81 61 82 58 83 42 84 43 85 48 86
REMARK SMILES IDX 44 87 45 88 47 89 49 90 46 91
REMARK H PARENT 12 5 16 34 66 53 40 64
REMARK Flexibility Score: inf
ROOT
ATOM      1  C   UNL A   1      35.365  23.906  24.972  1.00  0.00     0.118 C 
ENDROOT
BRANCH   1   2
ATOM      2  N   UNL A   1      34.299  23.211  25.644  1.00  0.00    -0.351 N 
ATOM      3  C   UNL A   1      32.933  23.264  25.595  1.00  0.00     0.274 C 
ATOM      4  O   UNL A   1      32.395  22.383  26.277  1.00  0.00    -0.267 OA
ATOM      5  H   UNL A   1      34.629  22.545  26.290  1.00  0.00     0.163 HD
BRANCH   3   6
ATOM      6  C   UNL A   1      32.105  24.232  24.862  1.00  0.00     0.178 A 
ATOM      7  C   UNL A   1      31.840  25.606  24.889  1.00  0.00     0.108 A 
ATOM      8  N   UNL A   1      30.909  25.781  23.853  1.00  0.00    -0.212 N 
ATOM      9  N   UNL A   1      31.279  23.669  23.895  1.00  0.00    -0.124 NA
ATOM     10  N   UNL A   1      30.498  24.594  23.382  1.00  0.00    -0.061 NA
BRANCH   7  11
ATOM     11  C   UNL A   1      32.148  26.714  25.794  1.00  0.00     0.006 A 
ATOM     12  C   UNL A   1      33.781  28.316  26.639  1.00  0.00     0.119 A 
ATOM     13  C   UNL A   1      32.832  28.776  27.555  1.00  0.00     0.046 A 
ATOM     14  C   UNL A   1      33.437  27.286  25.760  1.00  0.00     0.056 A 
ATOM     15  C   UNL A   1      31.563  28.198  27.617  1.00  0.00     0.005 A 
ATOM     16  C   UNL A   1      31.231  27.151  26.757  1.00  0.00     0.011 A 
BRANCH  12  17
ATOM     17  O   UNL A   1      34.987  28.956  26.700  1.00  0.00    -0.497 OA
ATOM     18  C   UNL A   1      35.172  29.913  27.735  1.00  0.00     0.278 C 
ENDBRANCH  12  17
ENDBRANCH   7  11
BRANCH   8  19
ATOM     19  C   UNL A   1      30.338  26.981  23.362  1.00  0.00     0.067 A 
ATOM     20  C   UNL A   1      28.966  27.200  23.501  1.00  0.00     0.032 A 
ATOM     21  C   UNL A   1      31.141  27.957  22.766  1.00  0.00     0.032 A 
ATOM     22  C   UNL A   1      28.427  28.435  23.127  1.00  0.00     0.049 A 
ATOM     23  C   UNL A   1      30.593  29.177  22.371  1.00  0.00     0.049 A 
ATOM     24  C   UNL A   1      29.237  29.435  22.575  1.00  0.00     0.129 A 
BRANCH  24  25
ATOM     25  O   UNL A   1      28.588  30.600  22.281  1.00  0.00    -0.406 OA
BRANCH  25  26
ATOM     26  C   UNL A   1      28.479  31.564  23.315  1.00  0.00     0.573 C 
ATOM     27  F   UNL A   1      29.438  31.393  24.251  1.00  0.00    -0.132 F 
ATOM     28  F   UNL A   1      28.554  32.818  22.819  1.00  0.00    -0.132 F 
ATOM     29  F   UNL A   1      27.278  31.422  23.918  1.00  0.00    -0.132 F 
ENDBRANCH  25  26
ENDBRANCH  24  25
ENDBRANCH   8  19
ENDBRANCH   3   6
ENDBRANCH   1   2
BRANCH   1  30
ATOM     30  C   UNL A   1      36.749  23.362  25.320  1.00  0.00     0.042 C 
BRANCH  30  31
ATOM     31  C   UNL A   1      37.547  24.339  26.161  1.00  0.00     0.118 C 
BRANCH  31  32
ATOM     32  N   UNL A   1      38.981  24.040  26.119  1.00  0.00    -0.352 N 
ATOM     33  C   UNL A   1      40.040  24.806  26.574  1.00  0.00     0.251 C 
ATOM     34  H   UNL A   1      39.224  23.177  25.712  1.00  0.00     0.163 HD
ATOM     35  O   UNL A   1      41.182  24.571  26.255  1.00  0.00    -0.269 OA
BRANCH  33  36
ATOM     36  C   UNL A   1      39.712  25.953  27.440  1.00  0.00     0.039 A 
ATOM     37  C   UNL A   1      39.278  25.737  28.748  1.00  0.00     0.014 A 
ATOM     38  C   UNL A   1      40.011  27.228  26.974  1.00  0.00     0.014 A 
ATOM     39  C   UNL A   1      39.266  26.813  29.631  1.00  0.00     0.010 A 
ATOM     40  C   UNL A   1      40.143  28.250  27.887  1.00  0.00     0.010 A 
ATOM     41  C   UNL A   1      39.749  28.063  29.213  1.00  0.00    -0.014 A 
BRANCH  41  42
ATOM     42  C   UNL A   1      39.946  29.135  30.192  1.00  0.00     0.031 A 
ATOM     43  C   UNL A   1      38.761  30.003  30.483  1.00  0.00     0.074 A 
ATOM     44  C   UNL A   1      41.044  29.243  30.971  1.00  0.00     0.049 A 
ATOM     45  N   UNL A   1      38.646  31.280  30.305  1.00  0.00    -0.248 NA
ATOM     46  C   UNL A   1      37.533  29.363  30.981  1.00  0.00     0.031 C 
ATOM     47  C   UNL A   1      42.187  28.329  31.084  1.00  0.00     0.029 A 
ATOM     48  N   UNL A   1      41.312  30.178  31.924  1.00  0.00    -0.354 N 
ATOM     49  C   UNL A   1      37.398  31.641  30.815  1.00  0.00     0.074 A 
ATOM     50  C   UNL A   1      36.712  30.408  31.107  1.00  0.00     0.031 C 
ATOM     51  C   UNL A   1      42.889  28.620  32.199  1.00  0.00     0.029 A 
ATOM     52  C   UNL A   1      42.367  29.850  32.761  1.00  0.00     0.049 A 
ATOM     53  H   UNL A   1      40.801  31.014  32.011  1.00  0.00     0.167 HD
ATOM     54  C   UNL A   1      37.092  32.934  31.125  1.00  0.00     0.037 A 
ATOM     55  C   UNL A   1      42.788  30.533  33.849  1.00  0.00     0.037 A 
ATOM     56  C   UNL A   1      38.010  33.855  30.507  1.00  0.00     0.049 A 
ATOM     57  C   UNL A   1      42.283  31.919  33.730  1.00  0.00     0.074 A 
ATOM     58  C   UNL A   1      38.372  34.150  29.207  1.00  0.00     0.029 A 
ATOM     59  N   UNL A   1      38.980  34.425  31.293  1.00  0.00    -0.354 N 
ATOM     60  N   UNL A   1      42.697  32.773  32.835  1.00  0.00    -0.248 NA
ATOM     61  C   UNL A   1      41.010  32.239  34.354  1.00  0.00     0.031 C 
ATOM     62  C   UNL A   1      39.772  34.417  29.268  1.00  0.00     0.029 A 
ATOM     63  C   UNL A   1      40.159  34.315  30.606  1.00  0.00     0.049 A 
ATOM     64  H   UNL A   1      38.852  34.834  32.179  1.00  0.00     0.167 HD
ATOM     65  C   UNL A   1      41.564  33.487  32.477  1.00  0.00     0.074 A 
ATOM     66  C   UNL A   1      40.589  33.196  33.524  1.00  0.00     0.031 C 
ATOM     67  C   UNL A   1      41.429  34.021  31.228  1.00  0.00     0.037 A 
BRANCH  54  68
ATOM     68  C   UNL A   1      36.169  33.368  32.241  1.00  0.00     0.057 A 
ATOM     69  C   UNL A   1      35.130  34.282  31.970  1.00  0.00     0.134 A 
ATOM     70  C   UNL A   1      36.435  33.162  33.608  1.00  0.00     0.134 A 
ATOM     71  F   UNL A   1      34.784  34.577  30.707  1.00  0.00    -0.206 F 
ATOM     72  C   UNL A   1      34.467  34.993  32.978  1.00  0.00     0.040 A 
ATOM     73  C   UNL A   1      35.744  33.829  34.626  1.00  0.00     0.040 A 
ATOM     74  F   UNL A   1      37.439  32.384  34.032  1.00  0.00    -0.206 F 
ATOM     75  C   UNL A   1      34.778  34.774  34.313  1.00  0.00     0.006 A 
ENDBRANCH  54  68
BRANCH  55  76
ATOM     76  C   UNL A   1      43.401  30.002  35.082  1.00  0.00     0.057 A 
ATOM     77  C   UNL A   1      42.747  29.043  35.864  1.00  0.00     0.134 A 
ATOM     78  C   UNL A   1      44.755  30.231  35.380  1.00  0.00     0.134 A 
ATOM     79  F   UNL A   1      41.463  28.734  35.629  1.00  0.00    -0.206 F 
ATOM     80  C   UNL A   1      43.410  28.331  36.869  1.00  0.00     0.040 A 
ATOM     81  C   UNL A   1      45.428  29.532  36.386  1.00  0.00     0.040 A 
ATOM     82  F   UNL A   1      45.493  31.079  34.646  1.00  0.00    -0.206 F 
ATOM     83  C   UNL A   1      44.758  28.565  37.124  1.00  0.00     0.006 A 
ENDBRANCH  55  76
BRANCH  67  84
ATOM     84  C   UNL A   1      42.642  34.054  30.338  1.00  0.00     0.057 A 
ATOM     85  C   UNL A   1      43.016  33.007  29.481  1.00  0.00     0.134 A 
ATOM     86  C   UNL A   1      43.366  35.245  30.229  1.00  0.00     0.134 A 
ATOM     87  F   UNL A   1      42.319  31.866  29.434  1.00  0.00    -0.206 F 
ATOM     88  C   UNL A   1      44.089  33.126  28.594  1.00  0.00     0.040 A 
ATOM     89  C   UNL A   1      44.420  35.388  29.323  1.00  0.00     0.040 A 
ATOM     90  F   UNL A   1      43.029  36.312  30.972  1.00  0.00    -0.206 F 
ATOM     91  C   UNL A   1      44.792  34.322  28.508  1.00  0.00     0.006 A 
ENDBRANCH  67  84
ENDBRANCH  41  42
ENDBRANCH  33  36
ENDBRANCH  31  32
ENDBRANCH  30  31
ENDBRANCH   1  30
TORSDOF 15
ENDMDL
MODEL 3
REMARK VINA RESULT:     -12.5      1.705      5.888
REMARK SMILES COc1cccc(-c2c(C(=O)NCCCNC(=O)c3ccc(-c4c5nc(c(-c6c(F)cccc6F)c6ccc([nH]6)c(-c6c(F)cccc6F)c6nc(c(-c7c(F)cccc7F)c7ccc4[nH]7)C=C6)C=C5)cc3)nnn2-c2ccc(OC(F)(F)F)cc2)c1
REMARK SMILES IDX 13 1 12 2 10 3 11 4 9 6 8 7 75 8 73 9 74 10 7 11 3 12 4 13
REMARK SMILES IDX 87 14 5 15 6 16 2 17 1 18 76 19 77 20 86 21 78 22 85 23
REMARK SMILES IDX 79 24 80 25 81 26 82 27 83 28 84 29 14 30 15 31 16 32 17 33
REMARK SMILES IDX 18 35 19 36 20 37 72 38 21 39 71 40 22 41 23 42 24 43 65 44
REMARK SMILES IDX 25 45 70 46 64 47 66 48 26 49 69 50 63 51 62 52 27 54 53 55
REMARK SMILES IDX 36 56 52 57 37 58 40 59 51 60 67 61 38 62 39 63 50 65 68 66
REMARK SMILES IDX 41 67 28 68 29 69 34 70 30 71 31 72 33 73 35 74 32 75 54 76
REMARK SMILES IDX 55 77 60 78 56 79 57 80 59 81 61 82 58 83 42 84 43 85 48 86
REMARK SMILES IDX 44 87 45 88 47 89 49 90 46 91
REMARK H PARENT 12 5 16 34 66 53 40 64
REMARK Flexibility Score: inf
ROOT
ATOM      1  C   UNL A   1      33.361  27.149  26.254  1.00  0.00     0.118 C 
ENDROOT
BRANCH   1   2
ATOM      2  N   UNL A   1      32.992  27.366  24.880  1.00  0.00    -0.351 N 
ATOM      3  C   UNL A   1      32.504  26.576  23.877  1.00  0.00     0.274 C 
ATOM      4  O   UNL A   1      32.211  27.218  22.860  1.00  0.00    -0.267 OA
ATOM      5  H   UNL A   1      33.122  28.300  24.597  1.00  0.00     0.163 HD
BRANCH   3   6
ATOM      6  C   UNL A   1      32.330  25.116  23.897  1.00  0.00     0.178 A 
ATOM      7  C   UNL A   1      33.120  23.976  24.085  1.00  0.00     0.108 A 
ATOM      8  N   UNL A   1      32.209  22.918  23.946  1.00  0.00    -0.212 N 
ATOM      9  N   UNL A   1      31.046  24.684  23.584  1.00  0.00    -0.124 NA
ATOM     10  N   UNL A   1      31.023  23.371  23.513  1.00  0.00    -0.061 NA
BRANCH   7  11
ATOM     11  C   UNL A   1      34.554  23.701  24.184  1.00  0.00     0.006 A 
ATOM     12  C   UNL A   1      36.616  23.851  25.478  1.00  0.00     0.119 A 
ATOM     13  C   UNL A   1      37.311  23.284  24.406  1.00  0.00     0.046 A 
ATOM     14  C   UNL A   1      35.239  24.057  25.364  1.00  0.00     0.056 A 
ATOM     15  C   UNL A   1      36.649  22.954  23.223  1.00  0.00     0.005 A 
ATOM     16  C   UNL A   1      35.279  23.187  23.102  1.00  0.00     0.011 A 
BRANCH  12  17
ATOM     17  O   UNL A   1      37.389  24.143  26.566  1.00  0.00    -0.497 OA
ATOM     18  C   UNL A   1      38.738  23.695  26.554  1.00  0.00     0.278 C 
ENDBRANCH  12  17
ENDBRANCH   7  11
BRANCH   8  19
ATOM     19  C   UNL A   1      32.425  21.528  24.113  1.00  0.00     0.067 A 
ATOM     20  C   UNL A   1      32.807  21.033  25.361  1.00  0.00     0.032 A 
ATOM     21  C   UNL A   1      32.233  20.647  23.044  1.00  0.00     0.032 A 
ATOM     22  C   UNL A   1      32.900  19.651  25.552  1.00  0.00     0.049 A 
ATOM     23  C   UNL A   1      32.352  19.271  23.236  1.00  0.00     0.049 A 
ATOM     24  C   UNL A   1      32.659  18.762  24.497  1.00  0.00     0.129 A 
BRANCH  24  25
ATOM     25  O   UNL A   1      32.756  17.441  24.829  1.00  0.00    -0.406 OA
BRANCH  25  26
ATOM     26  C   UNL A   1      33.914  16.744  24.398  1.00  0.00     0.573 C 
ATOM     27  F   UNL A   1      33.798  16.344  23.113  1.00  0.00    -0.132 F 
ATOM     28  F   UNL A   1      35.018  17.509  24.533  1.00  0.00    -0.132 F 
ATOM     29  F   UNL A   1      34.070  15.643  25.165  1.00  0.00    -0.132 F 
ENDBRANCH  25  26
ENDBRANCH  24  25
ENDBRANCH   8  19
ENDBRANCH   3   6
ENDBRANCH   1   2
BRANCH   1  30
ATOM     30  C   UNL A   1      33.363  28.430  27.085  1.00  0.00     0.042 C 
BRANCH  30  31
ATOM     31  C   UNL A   1      34.619  29.250  26.859  1.00  0.00     0.118 C 
BRANCH  31  32
ATOM     32  N   UNL A   1      34.392  30.671  27.137  1.00  0.00    -0.352 N 
ATOM     33  C   UNL A   1      34.988  31.472  28.096  1.00  0.00     0.251 C 
ATOM     34  H   UNL A   1      33.726  31.115  26.565  1.00  0.00     0.163 HD
ATOM     35  O   UNL A   1      34.537  32.552  28.395  1.00  0.00    -0.269 OA
BRANCH  33  36
ATOM     36  C   UNL A   1      36.182  30.931  28.771  1.00  0.00     0.039 A 
ATOM     37  C   UNL A   1      36.147  29.655  29.332  1.00  0.00     0.014 A 
ATOM     38  C   UNL A   1      37.367  31.651  28.677  1.00  0.00     0.014 A 
ATOM     39  C   UNL A   1      37.350  29.051  29.687  1.00  0.00     0.010 A 
ATOM     40  C   UNL A   1      38.558  30.995  28.886  1.00  0.00     0.010 A 
ATOM     41  C   UNL A   1      38.564  29.703  29.417  1.00  0.00    -0.014 A 
BRANCH  41  42
ATOM     42  C   UNL A   1      39.830  28.986  29.583  1.00  0.00     0.031 A 
ATOM     43  C   UNL A   1      40.343  28.847  30.983  1.00  0.00     0.074 A 
ATOM     44  C   UNL A   1      40.431  28.291  28.594  1.00  0.00     0.049 A 
ATOM     45  N   UNL A   1      41.455  29.293  31.472  1.00  0.00    -0.248 NA
ATOM     46  C   UNL A   1      39.487  28.179  31.975  1.00  0.00     0.031 C 
ATOM     47  C   UNL A   1      39.952  28.024  27.232  1.00  0.00     0.029 A 
ATOM     48  N   UNL A   1      41.587  27.573  28.650  1.00  0.00    -0.354 N 
ATOM     49  C   UNL A   1      41.525  28.829  32.787  1.00  0.00     0.074 A 
ATOM     50  C   UNL A   1      40.237  28.251  33.077  1.00  0.00     0.031 C 
ATOM     51  C   UNL A   1      40.676  27.025  26.686  1.00  0.00     0.029 A 
ATOM     52  C   UNL A   1      41.782  26.724  27.573  1.00  0.00     0.049 A 
ATOM     53  H   UNL A   1      42.228  27.650  29.393  1.00  0.00     0.167 HD
ATOM     54  C   UNL A   1      42.701  28.795  33.479  1.00  0.00     0.037 A 
ATOM     55  C   UNL A   1      42.779  25.825  27.412  1.00  0.00     0.037 A 
ATOM     56  C   UNL A   1      43.698  29.630  32.862  1.00  0.00     0.049 A 
ATOM     57  C   UNL A   1      43.888  26.223  28.307  1.00  0.00     0.074 A 
ATOM     58  C   UNL A   1      43.799  30.975  32.566  1.00  0.00     0.029 A 
ATOM     59  N   UNL A   1      44.691  29.022  32.135  1.00  0.00    -0.354 N 
ATOM     60  N   UNL A   1      44.611  27.296  28.143  1.00  0.00    -0.248 NA
ATOM     61  C   UNL A   1      43.937  25.636  29.637  1.00  0.00     0.031 C 
ATOM     62  C   UNL A   1      44.482  31.025  31.315  1.00  0.00     0.029 A 
ATOM     63  C   UNL A   1      44.795  29.712  30.956  1.00  0.00     0.049 A 
ATOM     64  H   UNL A   1      45.225  28.242  32.408  1.00  0.00     0.167 HD
ATOM     65  C   UNL A   1      44.855  27.758  29.427  1.00  0.00     0.074 A 
ATOM     66  C   UNL A   1      44.519  26.638  30.301  1.00  0.00     0.031 C 
ATOM     67  C   UNL A   1      45.039  29.088  29.677  1.00  0.00     0.037 A 
BRANCH  54  68
ATOM     68  C   UNL A   1      43.068  27.766  34.524  1.00  0.00     0.057 A 
ATOM     69  C   UNL A   1      43.302  26.431  34.134  1.00  0.00     0.134 A 
ATOM     70  C   UNL A   1      42.911  27.959  35.909  1.00  0.00     0.134 A 
ATOM     71  F   UNL A   1      43.457  26.108  32.841  1.00  0.00    -0.206 F 
ATOM     72  C   UNL A   1      43.299  25.366  35.044  1.00  0.00     0.040 A 
ATOM     73  C   UNL A   1      42.957  26.910  36.833  1.00  0.00     0.040 A 
ATOM     74  F   UNL A   1      42.607  29.153  36.434  1.00  0.00    -0.206 F 
ATOM     75  C   UNL A   1      43.118  25.602  36.400  1.00  0.00     0.006 A 
ENDBRANCH  54  68
BRANCH  55  76
ATOM     76  C   UNL A   1      42.739  24.530  26.706  1.00  0.00     0.057 A 
ATOM     77  C   UNL A   1      43.350  24.364  25.457  1.00  0.00     0.134 A 
ATOM     78  C   UNL A   1      42.325  23.356  27.358  1.00  0.00     0.134 A 
ATOM     79  F   UNL A   1      43.808  25.425  24.778  1.00  0.00    -0.206 F 
ATOM     80  C   UNL A   1      43.564  23.098  24.901  1.00  0.00     0.040 A 
ATOM     81  C   UNL A   1      42.525  22.086  26.810  1.00  0.00     0.040 A 
ATOM     82  F   UNL A   1      41.791  23.398  28.589  1.00  0.00    -0.206 F 
ATOM     83  C   UNL A   1      43.162  21.954  25.583  1.00  0.00     0.006 A 
ENDBRANCH  55  76
BRANCH  67  84
ATOM     84  C   UNL A   1      45.242  30.007  28.504  1.00  0.00     0.057 A 
ATOM     85  C   UNL A   1      44.197  30.638  27.810  1.00  0.00     0.134 A 
ATOM     86  C   UNL A   1      46.543  30.390  28.164  1.00  0.00     0.134 A 
ATOM     87  F   UNL A   1      42.918  30.418  28.134  1.00  0.00    -0.206 F 
ATOM     88  C   UNL A   1      44.439  31.568  26.795  1.00  0.00     0.040 A 
ATOM     89  C   UNL A   1      46.798  31.343  27.174  1.00  0.00     0.040 A 
ATOM     90  F   UNL A   1      47.594  29.877  28.825  1.00  0.00    -0.206 F 
ATOM     91  C   UNL A   1      45.744  31.928  26.479  1.00  0.00     0.006 A 
ENDBRANCH  67  84
ENDBRANCH  41  42
ENDBRANCH  33  36
ENDBRANCH  31  32
ENDBRANCH  30  31
ENDBRANCH   1  30
TORSDOF 15
ENDMDL
