MODEL 1
REMARK VINA RESULT:     -12.4      0.000      0.000
REMARK SMILES O=C(NCCCNC(=O)c1cc(F)ccc1N1CCCc2ccccc21)c1ccc(-c2c3nc(c(-c4c(F)cccc4F)c4ccc([nH]4)c(-c4c(F)cccc4F)c4nc(c(-c5c(F)cccc5F)c5ccc2[nH]5)C=C4)C=C3)cc1
REMARK SMILES IDX 4 1 3 2 1 3 2 4 27 6 28 7 80 8 29 9 79 10 30 11 31 12 32 13
REMARK SMILES IDX 73 14 33 15 78 16 72 17 74 18 34 19 77 20 71 21 70 22 35 24
REMARK SMILES IDX 61 25 44 26 60 27 45 28 48 29 59 30 75 31 46 32 47 33 58 35
REMARK SMILES IDX 76 36 49 37 36 38 37 39 42 40 38 41 39 42 41 43 43 44 40 45
REMARK SMILES IDX 62 46 63 47 68 48 64 49 65 50 67 51 69 52 66 53 50 54 51 55
REMARK SMILES IDX 56 56 52 57 53 58 55 59 57 60 54 61 5 62 6 63 7 64 8 65 9 67
REMARK SMILES IDX 10 68 11 69 16 70 12 71 15 72 13 73 14 74 17 75 18 76 26 77
REMARK SMILES IDX 19 78 21 79 25 80 20 81 22 82 24 83 23 84
REMARK H PARENT 3 5 74 23 48 34 7 66
REMARK Flexibility Score: inf
ROOT
ATOM      1  C   UNL A   1      38.856  20.073  25.919  1.00  0.00     0.118 C 
ENDROOT
BRANCH   1   2
ATOM      2  N   UNL A   1      40.056  19.252  25.828  1.00  0.00    -0.352 N 
ATOM      3  O   UNL A   1      42.250  18.760  25.726  1.00  0.00    -0.269 OA
ATOM      4  C   UNL A   1      41.375  19.572  26.028  1.00  0.00     0.251 C 
ATOM      5  H   UNL A   1      39.893  18.312  25.582  1.00  0.00     0.163 HD
BRANCH   4   6
ATOM      6  C   UNL A   1      41.758  20.888  26.580  1.00  0.00     0.039 A 
ATOM      7  C   UNL A   1      41.784  21.110  27.957  1.00  0.00     0.014 A 
ATOM      8  C   UNL A   1      42.130  21.914  25.703  1.00  0.00     0.014 A 
ATOM      9  C   UNL A   1      42.011  22.389  28.450  1.00  0.00     0.010 A 
ATOM     10  C   UNL A   1      42.462  23.175  26.207  1.00  0.00     0.010 A 
ATOM     11  C   UNL A   1      42.372  23.433  27.583  1.00  0.00    -0.014 A 
BRANCH  11  12
ATOM     12  C   UNL A   1      42.715  24.760  28.150  1.00  0.00     0.031 A 
ATOM     13  C   UNL A   1      44.134  25.123  28.482  1.00  0.00     0.074 A 
ATOM     14  C   UNL A   1      41.727  25.660  28.329  1.00  0.00     0.049 A 
ATOM     15  N   UNL A   1      44.601  26.243  28.975  1.00  0.00    -0.248 NA
ATOM     16  C   UNL A   1      45.164  24.101  28.238  1.00  0.00     0.031 C 
ATOM     17  C   UNL A   1      40.309  25.419  28.042  1.00  0.00     0.029 A 
ATOM     18  N   UNL A   1      41.759  26.956  28.773  1.00  0.00    -0.354 N 
ATOM     19  C   UNL A   1      45.971  26.056  29.113  1.00  0.00     0.074 A 
ATOM     20  C   UNL A   1      46.259  24.707  28.678  1.00  0.00     0.031 C 
ATOM     21  C   UNL A   1      39.619  26.547  28.262  1.00  0.00     0.029 A 
ATOM     22  C   UNL A   1      40.529  27.565  28.774  1.00  0.00     0.049 A 
ATOM     23  H   UNL A   1      42.585  27.408  29.061  1.00  0.00     0.167 HD
ATOM     24  C   UNL A   1      46.900  26.937  29.555  1.00  0.00     0.037 A 
ATOM     25  C   UNL A   1      40.162  28.801  29.161  1.00  0.00     0.037 A 
ATOM     26  C   UNL A   1      46.608  28.284  29.972  1.00  0.00     0.049 A 
ATOM     27  C   UNL A   1      41.207  29.742  29.681  1.00  0.00     0.074 A 
ATOM     28  C   UNL A   1      47.488  29.258  30.409  1.00  0.00     0.029 A 
ATOM     29  N   UNL A   1      45.341  28.847  30.004  1.00  0.00    -0.354 N 
ATOM     30  N   UNL A   1      42.499  29.555  29.794  1.00  0.00    -0.248 NA
ATOM     31  C   UNL A   1      40.745  31.060  30.138  1.00  0.00     0.031 C 
ATOM     32  C   UNL A   1      46.749  30.395  30.750  1.00  0.00     0.029 A 
ATOM     33  C   UNL A   1      45.414  30.148  30.476  1.00  0.00     0.049 A 
ATOM     34  H   UNL A   1      44.512  28.390  29.731  1.00  0.00     0.167 HD
ATOM     35  C   UNL A   1      43.008  30.732  30.322  1.00  0.00     0.074 A 
ATOM     36  C   UNL A   1      41.887  31.634  30.491  1.00  0.00     0.031 C 
ATOM     37  C   UNL A   1      44.290  31.035  30.638  1.00  0.00     0.037 A 
BRANCH  24  38
ATOM     38  C   UNL A   1      48.328  26.477  29.623  1.00  0.00     0.057 A 
ATOM     39  C   UNL A   1      48.821  25.845  30.772  1.00  0.00     0.134 A 
ATOM     40  C   UNL A   1      49.236  26.733  28.588  1.00  0.00     0.134 A 
ATOM     41  F   UNL A   1      48.005  25.579  31.805  1.00  0.00    -0.206 F 
ATOM     42  C   UNL A   1      50.165  25.495  30.896  1.00  0.00     0.040 A 
ATOM     43  C   UNL A   1      50.580  26.367  28.690  1.00  0.00     0.040 A 
ATOM     44  F   UNL A   1      48.829  27.326  27.456  1.00  0.00    -0.206 F 
ATOM     45  C   UNL A   1      51.050  25.754  29.852  1.00  0.00     0.006 A 
ENDBRANCH  24  38
BRANCH  25  46
ATOM     46  C   UNL A   1      38.738  29.202  29.060  1.00  0.00     0.057 A 
ATOM     47  C   UNL A   1      37.880  29.132  30.165  1.00  0.00     0.134 A 
ATOM     48  C   UNL A   1      38.188  29.615  27.842  1.00  0.00     0.134 A 
ATOM     49  F   UNL A   1      38.345  28.732  31.358  1.00  0.00    -0.206 F 
ATOM     50  C   UNL A   1      36.523  29.431  30.057  1.00  0.00     0.040 A 
ATOM     51  C   UNL A   1      36.837  29.943  27.725  1.00  0.00     0.040 A 
ATOM     52  F   UNL A   1      38.964  29.717  26.751  1.00  0.00    -0.206 F 
ATOM     53  C   UNL A   1      35.998  29.841  28.834  1.00  0.00     0.006 A 
ENDBRANCH  25  46
BRANCH  37  54
ATOM     54  C   UNL A   1      44.561  32.404  31.185  1.00  0.00     0.057 A 
ATOM     55  C   UNL A   1      44.505  32.646  32.563  1.00  0.00     0.134 A 
ATOM     56  C   UNL A   1      44.803  33.496  30.344  1.00  0.00     0.134 A 
ATOM     57  F   UNL A   1      44.268  31.642  33.422  1.00  0.00    -0.206 F 
ATOM     58  C   UNL A   1      44.667  33.929  33.086  1.00  0.00     0.040 A 
ATOM     59  C   UNL A   1      44.991  34.782  30.856  1.00  0.00     0.040 A 
ATOM     60  F   UNL A   1      44.880  33.328  29.015  1.00  0.00    -0.206 F 
ATOM     61  C   UNL A   1      44.912  35.002  32.231  1.00  0.00     0.006 A 
ENDBRANCH  37  54
ENDBRANCH  11  12
ENDBRANCH   4   6
ENDBRANCH   1   2
BRANCH   1  62
ATOM     62  C   UNL A   1      37.836  19.758  24.834  1.00  0.00     0.042 C 
BRANCH  62  63
ATOM     63  C   UNL A   1      36.803  20.853  24.618  1.00  0.00     0.118 C 
BRANCH  63  64
ATOM     64  N   UNL A   1      35.981  21.084  25.796  1.00  0.00    -0.352 N 
ATOM     65  C   UNL A   1      34.624  20.968  25.980  1.00  0.00     0.253 C 
ATOM     66  H   UNL A   1      36.479  21.372  26.595  1.00  0.00     0.163 HD
ATOM     67  O   UNL A   1      34.145  21.316  27.059  1.00  0.00    -0.269 OA
BRANCH  65  68
ATOM     68  C   UNL A   1      33.775  20.404  24.908  1.00  0.00     0.066 A 
ATOM     69  C   UNL A   1      33.622  19.007  24.877  1.00  0.00     0.055 A 
ATOM     70  C   UNL A   1      33.052  21.213  24.007  1.00  0.00     0.054 A 
ATOM     71  C   UNL A   1      32.859  18.411  23.886  1.00  0.00     0.124 A 
ATOM     72  C   UNL A   1      32.280  20.567  23.017  1.00  0.00     0.030 A 
ATOM     73  F   UNL A   1      32.764  17.077  23.842  1.00  0.00    -0.207 F 
ATOM     74  C   UNL A   1      32.198  19.178  22.941  1.00  0.00     0.041 A 
BRANCH  70  75
ATOM     75  N   UNL A   1      32.995  22.618  24.054  1.00  0.00    -0.341 N 
ATOM     76  C   UNL A   1      34.009  23.380  23.322  1.00  0.00     0.123 C 
ATOM     77  C   UNL A   1      32.042  23.380  24.771  1.00  0.00     0.044 A 
ATOM     78  C   UNL A   1      33.321  24.435  22.461  1.00  0.00     0.027 C 
ATOM     79  C   UNL A   1      31.783  24.724  24.438  1.00  0.00    -0.024 A 
ATOM     80  C   UNL A   1      31.322  22.812  25.837  1.00  0.00     0.026 A 
ATOM     81  C   UNL A   1      32.551  25.414  23.341  1.00  0.00     0.039 C 
ATOM     82  C   UNL A   1      30.824  25.456  25.159  1.00  0.00     0.006 A 
ATOM     83  C   UNL A   1      30.373  23.545  26.551  1.00  0.00     0.002 A 
ATOM     84  C   UNL A   1      30.120  24.867  26.208  1.00  0.00     0.000 A 
ENDBRANCH  70  75
ENDBRANCH  65  68
ENDBRANCH  63  64
ENDBRANCH  62  63
ENDBRANCH   1  62
TORSDOF 11
ENDMDL
MODEL 2
REMARK VINA RESULT:     -12.4      0.459      1.387
REMARK SMILES O=C(NCCCNC(=O)c1cc(F)ccc1N1CCCc2ccccc21)c1ccc(-c2c3nc(c(-c4c(F)cccc4F)c4ccc([nH]4)c(-c4c(F)cccc4F)c4nc(c(-c5c(F)cccc5F)c5ccc2[nH]5)C=C4)C=C3)cc1
REMARK SMILES IDX 4 1 3 2 1 3 2 4 27 6 28 7 80 8 29 9 79 10 30 11 31 12 32 13
REMARK SMILES IDX 73 14 33 15 78 16 72 17 74 18 34 19 77 20 71 21 70 22 35 24
REMARK SMILES IDX 61 25 44 26 60 27 45 28 48 29 59 30 75 31 46 32 47 33 58 35
REMARK SMILES IDX 76 36 49 37 36 38 37 39 42 40 38 41 39 42 41 43 43 44 40 45
REMARK SMILES IDX 62 46 63 47 68 48 64 49 65 50 67 51 69 52 66 53 50 54 51 55
REMARK SMILES IDX 56 56 52 57 53 58 55 59 57 60 54 61 5 62 6 63 7 64 8 65 9 67
REMARK SMILES IDX 10 68 11 69 16 70 12 71 15 72 13 73 14 74 17 75 18 76 26 77
REMARK SMILES IDX 19 78 21 79 25 80 20 81 22 82 24 83 23 84
REMARK H PARENT 3 5 74 23 48 34 7 66
REMARK Flexibility Score: inf
ROOT
ATOM      1  C   UNL A   1      38.893  20.112  25.899  1.00  0.00     0.118 C 
ENDROOT
BRANCH   1   2
ATOM      2  N   UNL A   1      40.071  19.255  25.882  1.00  0.00    -0.352 N 
ATOM      3  O   UNL A   1      42.252  18.699  25.861  1.00  0.00    -0.269 OA
ATOM      4  C   UNL A   1      41.394  19.549  26.096  1.00  0.00     0.251 C 
ATOM      5  H   UNL A   1      39.887  18.307  25.683  1.00  0.00     0.163 HD
BRANCH   4   6
ATOM      6  C   UNL A   1      41.801  20.884  26.586  1.00  0.00     0.039 A 
ATOM      7  C   UNL A   1      41.857  21.161  27.951  1.00  0.00     0.014 A 
ATOM      8  C   UNL A   1      42.164  21.868  25.660  1.00  0.00     0.014 A 
ATOM      9  C   UNL A   1      42.107  22.457  28.386  1.00  0.00     0.010 A 
ATOM     10  C   UNL A   1      42.519  23.145  26.104  1.00  0.00     0.010 A 
ATOM     11  C   UNL A   1      42.460  23.461  27.470  1.00  0.00    -0.014 A 
BRANCH  11  12
ATOM     12  C   UNL A   1      42.827  24.807  27.974  1.00  0.00     0.031 A 
ATOM     13  C   UNL A   1      44.264  25.205  28.156  1.00  0.00     0.074 A 
ATOM     14  C   UNL A   1      41.842  25.689  28.235  1.00  0.00     0.049 A 
ATOM     15  N   UNL A   1      44.752  26.345  28.578  1.00  0.00    -0.248 NA
ATOM     16  C   UNL A   1      45.287  24.200  27.829  1.00  0.00     0.031 C 
ATOM     17  C   UNL A   1      40.409  25.413  28.096  1.00  0.00     0.029 A 
ATOM     18  N   UNL A   1      41.888  26.995  28.648  1.00  0.00    -0.354 N 
ATOM     19  C   UNL A   1      46.133  26.190  28.582  1.00  0.00     0.074 A 
ATOM     20  C   UNL A   1      46.406  24.838  28.145  1.00  0.00     0.031 C 
ATOM     21  C   UNL A   1      39.718  26.530  28.363  1.00  0.00     0.029 A 
ATOM     22  C   UNL A   1      40.651  27.578  28.762  1.00  0.00     0.049 A 
ATOM     23  H   UNL A   1      42.728  27.469  28.844  1.00  0.00     0.167 HD
ATOM     24  C   UNL A   1      47.081  27.099  28.912  1.00  0.00     0.037 A 
ATOM     25  C   UNL A   1      40.296  28.814  29.160  1.00  0.00     0.037 A 
ATOM     26  C   UNL A   1      46.801  28.449  29.330  1.00  0.00     0.049 A 
ATOM     27  C   UNL A   1      41.366  29.787  29.555  1.00  0.00     0.074 A 
ATOM     28  C   UNL A   1      47.698  29.450  29.659  1.00  0.00     0.029 A 
ATOM     29  N   UNL A   1      45.531  28.986  29.478  1.00  0.00    -0.354 N 
ATOM     30  N   UNL A   1      42.667  29.629  29.541  1.00  0.00    -0.248 NA
ATOM     31  C   UNL A   1      40.923  31.104  30.030  1.00  0.00     0.031 C 
ATOM     32  C   UNL A   1      46.971  30.578  30.050  1.00  0.00     0.029 A 
ATOM     33  C   UNL A   1      45.621  30.297  29.916  1.00  0.00     0.049 A 
ATOM     34  H   UNL A   1      44.690  28.506  29.299  1.00  0.00     0.167 HD
ATOM     35  C   UNL A   1      43.199  30.828  29.993  1.00  0.00     0.074 A 
ATOM     36  C   UNL A   1      42.080  31.710  30.257  1.00  0.00     0.031 C 
ATOM     37  C   UNL A   1      44.498  31.164  30.174  1.00  0.00     0.037 A 
BRANCH  24  38
ATOM     38  C   UNL A   1      48.519  26.671  28.845  1.00  0.00     0.057 A 
ATOM     39  C   UNL A   1      49.246  26.797  27.654  1.00  0.00     0.134 A 
ATOM     40  C   UNL A   1      49.159  26.061  29.930  1.00  0.00     0.134 A 
ATOM     41  F   UNL A   1      48.689  27.364  26.573  1.00  0.00    -0.206 F 
ATOM     42  C   UNL A   1      50.552  26.319  27.541  1.00  0.00     0.040 A 
ATOM     43  C   UNL A   1      50.474  25.599  29.837  1.00  0.00     0.040 A 
ATOM     44  F   UNL A   1      48.523  25.918  31.103  1.00  0.00    -0.206 F 
ATOM     45  C   UNL A   1      51.171  25.719  28.635  1.00  0.00     0.006 A 
ENDBRANCH  24  38
BRANCH  25  46
ATOM     46  C   UNL A   1      38.861  29.183  29.195  1.00  0.00     0.057 A 
ATOM     47  C   UNL A   1      38.109  29.080  30.373  1.00  0.00     0.134 A 
ATOM     48  C   UNL A   1      38.192  29.597  28.037  1.00  0.00     0.134 A 
ATOM     49  F   UNL A   1      38.691  28.678  31.513  1.00  0.00    -0.206 F 
ATOM     50  C   UNL A   1      36.741  29.349  30.393  1.00  0.00     0.040 A 
ATOM     51  C   UNL A   1      36.829  29.894  28.049  1.00  0.00     0.040 A 
ATOM     52  F   UNL A   1      38.862  29.728  26.882  1.00  0.00    -0.206 F 
ATOM     53  C   UNL A   1      36.098  29.760  29.228  1.00  0.00     0.006 A 
ENDBRANCH  25  46
BRANCH  37  54
ATOM     54  C   UNL A   1      44.791  32.550  30.664  1.00  0.00     0.057 A 
ATOM     55  C   UNL A   1      44.989  33.600  29.758  1.00  0.00     0.134 A 
ATOM     56  C   UNL A   1      44.949  32.829  32.026  1.00  0.00     0.134 A 
ATOM     57  F   UNL A   1      44.860  33.394  28.439  1.00  0.00    -0.206 F 
ATOM     58  C   UNL A   1      45.349  34.877  30.189  1.00  0.00     0.040 A 
ATOM     59  C   UNL A   1      45.286  34.109  32.473  1.00  0.00     0.040 A 
ATOM     60  F   UNL A   1      44.762  31.870  32.944  1.00  0.00    -0.206 F 
ATOM     61  C   UNL A   1      45.498  35.134  31.551  1.00  0.00     0.006 A 
ENDBRANCH  37  54
ENDBRANCH  11  12
ENDBRANCH   4   6
ENDBRANCH   1   2
BRANCH   1  62
ATOM     62  C   UNL A   1      37.857  19.720  24.855  1.00  0.00     0.042 C 
BRANCH  62  63
ATOM     63  C   UNL A   1      36.803  20.785  24.597  1.00  0.00     0.118 C 
BRANCH  63  64
ATOM     64  N   UNL A   1      35.982  21.051  25.769  1.00  0.00    -0.352 N 
ATOM     65  C   UNL A   1      34.625  20.945  25.957  1.00  0.00     0.253 C 
ATOM     66  H   UNL A   1      36.482  21.360  26.559  1.00  0.00     0.163 HD
ATOM     67  O   UNL A   1      34.148  21.324  27.026  1.00  0.00    -0.269 OA
BRANCH  65  68
ATOM     68  C   UNL A   1      33.773  20.354  24.901  1.00  0.00     0.066 A 
ATOM     69  C   UNL A   1      33.610  18.958  24.914  1.00  0.00     0.055 A 
ATOM     70  C   UNL A   1      33.058  21.140  23.974  1.00  0.00     0.054 A 
ATOM     71  C   UNL A   1      32.844  18.337  23.940  1.00  0.00     0.124 A 
ATOM     72  C   UNL A   1      32.283  20.469  23.003  1.00  0.00     0.030 A 
ATOM     73  F   UNL A   1      32.738  17.003  23.938  1.00  0.00    -0.207 F 
ATOM     74  C   UNL A   1      32.191  19.078  22.971  1.00  0.00     0.041 A 
BRANCH  70  75
ATOM     75  N   UNL A   1      33.011  22.546  23.977  1.00  0.00    -0.341 N 
ATOM     76  C   UNL A   1      34.012  23.277  23.196  1.00  0.00     0.123 C 
ATOM     77  C   UNL A   1      32.082  23.337  24.692  1.00  0.00     0.044 A 
ATOM     78  C   UNL A   1      33.310  24.308  22.319  1.00  0.00     0.027 C 
ATOM     79  C   UNL A   1      31.824  24.672  24.323  1.00  0.00    -0.024 A 
ATOM     80  C   UNL A   1      31.384  22.809  25.794  1.00  0.00     0.026 A 
ATOM     81  C   UNL A   1      32.569  25.320  23.185  1.00  0.00     0.039 C 
ATOM     82  C   UNL A   1      30.888  25.434  25.043  1.00  0.00     0.006 A 
ATOM     83  C   UNL A   1      30.459  23.572  26.507  1.00  0.00     0.002 A 
ATOM     84  C   UNL A   1      30.206  24.885  26.127  1.00  0.00     0.000 A 
ENDBRANCH  70  75
ENDBRANCH  65  68
ENDBRANCH  63  64
ENDBRANCH  62  63
ENDBRANCH   1  62
TORSDOF 11
ENDMDL
MODEL 3
REMARK VINA RESULT:     -12.3      4.837      9.553
REMARK SMILES O=C(NCCCNC(=O)c1cc(F)ccc1N1CCCc2ccccc21)c1ccc(-c2c3nc(c(-c4c(F)cccc4F)c4ccc([nH]4)c(-c4c(F)cccc4F)c4nc(c(-c5c(F)cccc5F)c5ccc2[nH]5)C=C4)C=C3)cc1
REMARK SMILES IDX 4 1 3 2 1 3 2 4 27 6 28 7 80 8 29 9 79 10 30 11 31 12 32 13
REMARK SMILES IDX 73 14 33 15 78 16 72 17 74 18 34 19 77 20 71 21 70 22 35 24
REMARK SMILES IDX 61 25 44 26 60 27 45 28 48 29 59 30 75 31 46 32 47 33 58 35
REMARK SMILES IDX 76 36 49 37 36 38 37 39 42 40 38 41 39 42 41 43 43 44 40 45
REMARK SMILES IDX 62 46 63 47 68 48 64 49 65 50 67 51 69 52 66 53 50 54 51 55
REMARK SMILES IDX 56 56 52 57 53 58 55 59 57 60 54 61 5 62 6 63 7 64 8 65 9 67
REMARK SMILES IDX 10 68 11 69 16 70 12 71 15 72 13 73 14 74 17 75 18 76 26 77
REMARK SMILES IDX 19 78 21 79 25 80 20 81 22 82 24 83 23 84
REMARK H PARENT 3 5 74 23 48 34 7 66
REMARK Flexibility Score: inf
ROOT
ATOM      1  C   UNL A   1      32.668  32.485  26.876  1.00  0.00     0.118 C 
ENDROOT
BRANCH   1   2
ATOM      2  N   UNL A   1      32.528  33.828  27.423  1.00  0.00    -0.352 N 
ATOM      3  O   UNL A   1      32.789  35.535  28.867  1.00  0.00    -0.269 OA
ATOM      4  C   UNL A   1      33.188  34.446  28.455  1.00  0.00     0.251 C 
ATOM      5  H   UNL A   1      31.847  34.384  26.978  1.00  0.00     0.163 HD
BRANCH   4   6
ATOM      6  C   UNL A   1      34.359  33.807  29.093  1.00  0.00     0.039 A 
ATOM      7  C   UNL A   1      35.656  34.217  28.786  1.00  0.00     0.014 A 
ATOM      8  C   UNL A   1      34.153  32.800  30.043  1.00  0.00     0.014 A 
ATOM      9  C   UNL A   1      36.743  33.513  29.290  1.00  0.00     0.010 A 
ATOM     10  C   UNL A   1      35.250  32.163  30.630  1.00  0.00     0.010 A 
ATOM     11  C   UNL A   1      36.555  32.490  30.233  1.00  0.00    -0.014 A 
BRANCH  11  12
ATOM     12  C   UNL A   1      37.740  31.832  30.835  1.00  0.00     0.031 A 
ATOM     13  C   UNL A   1      38.190  32.161  32.230  1.00  0.00     0.074 A 
ATOM     14  C   UNL A   1      38.393  30.896  30.117  1.00  0.00     0.049 A 
ATOM     15  N   UNL A   1      39.199  31.668  32.904  1.00  0.00    -0.248 NA
ATOM     16  C   UNL A   1      37.417  33.174  32.964  1.00  0.00     0.031 C 
ATOM     17  C   UNL A   1      38.046  30.494  28.750  1.00  0.00     0.029 A 
ATOM     18  N   UNL A   1      39.463  30.101  30.434  1.00  0.00    -0.354 N 
ATOM     19  C   UNL A   1      39.192  32.320  34.132  1.00  0.00     0.074 A 
ATOM     20  C   UNL A   1      38.094  33.262  34.102  1.00  0.00     0.031 C 
ATOM     21  C   UNL A   1      38.850  29.492  28.370  1.00  0.00     0.029 A 
ATOM     22  C   UNL A   1      39.813  29.229  29.434  1.00  0.00     0.049 A 
ATOM     23  H   UNL A   1      39.934  30.149  31.297  1.00  0.00     0.167 HD
ATOM     24  C   UNL A   1      40.021  32.137  35.186  1.00  0.00     0.037 A 
ATOM     25  C   UNL A   1      40.809  28.327  29.364  1.00  0.00     0.037 A 
ATOM     26  C   UNL A   1      41.102  31.185  35.214  1.00  0.00     0.049 A 
ATOM     27  C   UNL A   1      41.735  28.174  30.534  1.00  0.00     0.074 A 
ATOM     28  C   UNL A   1      41.978  30.911  36.249  1.00  0.00     0.029 A 
ATOM     29  N   UNL A   1      41.454  30.354  34.161  1.00  0.00    -0.354 N 
ATOM     30  N   UNL A   1      41.707  28.788  31.691  1.00  0.00    -0.248 NA
ATOM     31  C   UNL A   1      42.837  27.213  30.387  1.00  0.00     0.031 C 
ATOM     32  C   UNL A   1      42.889  29.947  35.807  1.00  0.00     0.029 A 
ATOM     33  C   UNL A   1      42.549  29.583  34.515  1.00  0.00     0.049 A 
ATOM     34  H   UNL A   1      40.993  30.317  33.291  1.00  0.00     0.167 HD
ATOM     35  C   UNL A   1      42.776  28.280  32.415  1.00  0.00     0.074 A 
ATOM     36  C   UNL A   1      43.424  27.296  31.573  1.00  0.00     0.031 C 
ATOM     37  C   UNL A   1      43.183  28.606  33.665  1.00  0.00     0.037 A 
BRANCH  24  38
ATOM     38  C   UNL A   1      39.806  32.988  36.405  1.00  0.00     0.057 A 
ATOM     39  C   UNL A   1      38.840  32.640  37.358  1.00  0.00     0.134 A 
ATOM     40  C   UNL A   1      40.495  34.192  36.596  1.00  0.00     0.134 A 
ATOM     41  F   UNL A   1      38.137  31.503  37.230  1.00  0.00    -0.206 F 
ATOM     42  C   UNL A   1      38.556  33.463  38.447  1.00  0.00     0.040 A 
ATOM     43  C   UNL A   1      40.237  35.014  37.695  1.00  0.00     0.040 A 
ATOM     44  F   UNL A   1      41.440  34.580  35.727  1.00  0.00    -0.206 F 
ATOM     45  C   UNL A   1      39.257  34.655  38.620  1.00  0.00     0.006 A 
ENDBRANCH  24  38
BRANCH  25  46
ATOM     46  C   UNL A   1      40.966  27.507  28.139  1.00  0.00     0.057 A 
ATOM     47  C   UNL A   1      41.731  27.954  27.055  1.00  0.00     0.134 A 
ATOM     48  C   UNL A   1      40.308  26.280  28.002  1.00  0.00     0.134 A 
ATOM     49  F   UNL A   1      42.377  29.128  27.121  1.00  0.00    -0.206 F 
ATOM     50  C   UNL A   1      41.816  27.225  25.869  1.00  0.00     0.040 A 
ATOM     51  C   UNL A   1      40.405  25.527  26.831  1.00  0.00     0.040 A 
ATOM     52  F   UNL A   1      39.571  25.793  29.012  1.00  0.00    -0.206 F 
ATOM     53  C   UNL A   1      41.153  26.005  25.757  1.00  0.00     0.006 A 
ENDBRANCH  25  46
BRANCH  37  54
ATOM     54  C   UNL A   1      44.375  27.880  34.214  1.00  0.00     0.057 A 
ATOM     55  C   UNL A   1      44.217  26.677  34.912  1.00  0.00     0.134 A 
ATOM     56  C   UNL A   1      45.667  28.409  34.114  1.00  0.00     0.134 A 
ATOM     57  F   UNL A   1      43.003  26.122  35.050  1.00  0.00    -0.206 F 
ATOM     58  C   UNL A   1      45.302  26.031  35.506  1.00  0.00     0.040 A 
ATOM     59  C   UNL A   1      46.764  27.761  34.684  1.00  0.00     0.040 A 
ATOM     60  F   UNL A   1      45.885  29.552  33.448  1.00  0.00    -0.206 F 
ATOM     61  C   UNL A   1      46.581  26.573  35.392  1.00  0.00     0.006 A 
ENDBRANCH  37  54
ENDBRANCH  11  12
ENDBRANCH   4   6
ENDBRANCH   1   2
BRANCH   1  62
ATOM     62  C   UNL A   1      31.335  31.853  26.501  1.00  0.00     0.042 C 
BRANCH  62  63
ATOM     63  C   UNL A   1      31.403  30.352  26.271  1.00  0.00     0.118 C 
BRANCH  63  64
ATOM     64  N   UNL A   1      32.270  29.998  25.157  1.00  0.00    -0.352 N 
ATOM     65  C   UNL A   1      32.001  29.328  23.988  1.00  0.00     0.253 C 
ATOM     66  H   UNL A   1      33.207  30.286  25.258  1.00  0.00     0.163 HD
ATOM     67  O   UNL A   1      32.937  29.063  23.233  1.00  0.00    -0.269 OA
BRANCH  65  68
ATOM     68  C   UNL A   1      30.608  28.969  23.642  1.00  0.00     0.066 A 
ATOM     69  C   UNL A   1      29.842  29.941  22.975  1.00  0.00     0.055 A 
ATOM     70  C   UNL A   1      30.078  27.681  23.862  1.00  0.00     0.054 A 
ATOM     71  C   UNL A   1      28.522  29.679  22.641  1.00  0.00     0.124 A 
ATOM     72  C   UNL A   1      28.732  27.453  23.501  1.00  0.00     0.030 A 
ATOM     73  F   UNL A   1      27.792  30.632  22.049  1.00  0.00    -0.207 F 
ATOM     74  C   UNL A   1      27.952  28.448  22.914  1.00  0.00     0.041 A 
BRANCH  70  75
ATOM     75  N   UNL A   1      30.805  26.587  24.363  1.00  0.00    -0.341 N 
ATOM     76  C   UNL A   1      30.838  26.378  25.813  1.00  0.00     0.123 C 
ATOM     77  C   UNL A   1      31.538  25.659  23.586  1.00  0.00     0.044 A 
ATOM     78  C   UNL A   1      30.478  24.928  26.120  1.00  0.00     0.027 C 
ATOM     79  C   UNL A   1      31.869  24.386  24.089  1.00  0.00    -0.024 A 
ATOM     80  C   UNL A   1      31.954  25.984  22.282  1.00  0.00     0.026 A 
ATOM     81  C   UNL A   1      31.501  23.987  25.494  1.00  0.00     0.039 C 
ATOM     82  C   UNL A   1      32.590  23.479  23.292  1.00  0.00     0.006 A 
ATOM     83  C   UNL A   1      32.672  25.081  21.497  1.00  0.00     0.002 A 
ATOM     84  C   UNL A   1      32.985  23.824  22.001  1.00  0.00     0.000 A 
ENDBRANCH  70  75
ENDBRANCH  65  68
ENDBRANCH  63  64
ENDBRANCH  62  63
ENDBRANCH   1  62
TORSDOF 11
ENDMDL
