MODEL 1
REMARK VINA RESULT:     -12.6      0.000      0.000
REMARK SMILES Cc1c(C[NH2+]Cc2cccc(F)c2)c(C(=O)NCCCNC(=O)c2ccc(-c3c4nc(c(-c5c(F)cccc5F)c5ccc([nH]5)c(-c5c(F)cccc5F)c5nc(c(-c6c(F)cccc6F)c6ccc3[nH]6)C=C5)C=C4)cc2)c(C)n1Cc1c(F)cccc1Cl
REMARK SMILES IDX 18 1 17 2 15 3 16 4 14 6 1 7 2 8 3 9 80 10 78 11 79 12 4 13
REMARK SMILES IDX 5 14 6 17 7 18 8 19 13 20 9 21 11 22 10 23 12 24 81 25 82 26
REMARK SMILES IDX 83 27 88 28 84 29 85 30 87 31 89 32 86 33 19 34 20 35 21 36
REMARK SMILES IDX 22 37 23 39 24 40 25 41 77 42 26 43 76 44 27 45 28 46 29 47
REMARK SMILES IDX 70 48 30 49 75 50 69 51 71 52 31 53 74 54 68 55 67 56 32 58
REMARK SMILES IDX 58 59 41 60 57 61 42 62 45 63 56 64 72 65 43 66 44 67 55 69
REMARK SMILES IDX 73 70 46 71 33 72 34 73 39 74 35 75 36 76 38 77 40 78 37 79
REMARK SMILES IDX 59 80 60 81 65 82 61 83 62 84 64 85 66 86 63 87 47 88 48 89
REMARK SMILES IDX 53 90 49 91 50 92 52 93 54 94 51 95
REMARK H PARENT 17 5 5 15 5 16 21 38 71 57 45 68
REMARK Flexibility Score: inf
ROOT
ATOM      1  C   UNL A   1      37.832  23.061  25.765  1.00  0.00     0.118 C 
ENDROOT
BRANCH   1   2
ATOM      2  N   UNL A   1      37.480  23.199  24.364  1.00  0.00    -0.352 N 
ATOM      3  C   UNL A   1      36.351  23.124  23.600  1.00  0.00     0.253 C 
ATOM      4  O   UNL A   1      36.612  23.234  22.377  1.00  0.00    -0.269 OA
ATOM      5  H   UNL A   1      38.271  23.403  23.814  1.00  0.00     0.163 HD
BRANCH   3   6
ATOM      6  C   UNL A   1      34.978  22.836  24.056  1.00  0.00     0.069 A 
ATOM      7  C   UNL A   1      31.313  23.665  24.452  1.00  0.00     0.065 C 
ATOM      8  C   UNL A   1      32.699  23.117  24.338  1.00  0.00     0.025 A 
ATOM      9  C   UNL A   1      33.854  23.756  23.885  1.00  0.00     0.040 A 
ATOM     10  N   UNL A   1      33.072  21.843  24.733  1.00  0.00    -0.343 N 
ATOM     11  C   UNL A   1      34.456  21.853  24.908  1.00  0.00     0.028 A 
ATOM     12  C   UNL A   1      35.109  21.025  25.959  1.00  0.00     0.065 C 
BRANCH   9  13
ATOM     13  C   UNL A   1      33.930  25.181  23.371  1.00  0.00     0.300 C 
BRANCH  13  14
ATOM     14  N   UNL A   1      33.967  26.084  24.520  1.00  0.00    -0.339 N 
ATOM     15  H   UNL A   1      34.829  26.629  24.473  1.00  0.00     0.346 HD
ATOM     16  H   UNL A   1      33.917  25.502  25.356  1.00  0.00     0.346 HD
BRANCH  14  17
ATOM     17  C   UNL A   1      32.841  27.011  24.583  1.00  0.00     0.297 C 
BRANCH  17  18
ATOM     18  C   UNL A   1      32.963  28.163  25.564  1.00  0.00     0.009 A 
ATOM     19  C   UNL A   1      31.863  28.887  26.052  1.00  0.00     0.010 A 
ATOM     20  C   UNL A   1      34.241  28.508  26.039  1.00  0.00     0.048 A 
ATOM     21  C   UNL A   1      32.033  29.951  26.945  1.00  0.00     0.004 A 
ATOM     22  C   UNL A   1      34.399  29.563  26.935  1.00  0.00     0.123 A 
ATOM     23  C   UNL A   1      33.308  30.294  27.385  1.00  0.00     0.039 A 
ATOM     24  F   UNL A   1      35.626  29.879  27.373  1.00  0.00    -0.207 F 
ENDBRANCH  17  18
ENDBRANCH  14  17
ENDBRANCH  13  14
ENDBRANCH   9  13
BRANCH  10  25
ATOM     25  C   UNL A   1      32.159  20.750  25.126  1.00  0.00     0.162 C 
BRANCH  25  26
ATOM     26  C   UNL A   1      32.474  19.429  24.452  1.00  0.00     0.026 A 
ATOM     27  C   UNL A   1      32.789  18.309  25.234  1.00  0.00     0.129 A 
ATOM     28  C   UNL A   1      32.427  19.217  23.065  1.00  0.00     0.048 A 
ATOM     29  F   UNL A   1      32.682  18.365  26.564  1.00  0.00    -0.207 F 
ATOM     30  C   UNL A   1      33.151  17.077  24.692  1.00  0.00     0.040 A 
ATOM     31  C   UNL A   1      32.764  17.970  22.507  1.00  0.00     0.021 A 
ATOM     32  Cl  UNL A   1      31.882  20.428  21.960  1.00  0.00    -0.084 Cl
ATOM     33  C   UNL A   1      33.153  16.907  23.318  1.00  0.00     0.005 A 
ENDBRANCH  25  26
ENDBRANCH  10  25
ENDBRANCH   3   6
ENDBRANCH   1   2
BRANCH   1  34
ATOM     34  C   UNL A   1      38.778  21.895  26.065  1.00  0.00     0.042 C 
BRANCH  34  35
ATOM     35  C   UNL A   1      40.128  22.300  26.689  1.00  0.00     0.118 C 
BRANCH  35  36
ATOM     36  N   UNL A   1      41.289  21.941  25.889  1.00  0.00    -0.352 N 
ATOM     37  C   UNL A   1      42.398  22.713  25.616  1.00  0.00     0.251 C 
ATOM     38  H   UNL A   1      41.281  21.039  25.495  1.00  0.00     0.163 HD
ATOM     39  O   UNL A   1      43.289  22.230  24.898  1.00  0.00    -0.269 OA
BRANCH  37  40
ATOM     40  C   UNL A   1      42.508  24.138  26.077  1.00  0.00     0.039 A 
ATOM     41  C   UNL A   1      42.347  24.397  27.428  1.00  0.00     0.014 A 
ATOM     42  C   UNL A   1      42.588  25.254  25.224  1.00  0.00     0.014 A 
ATOM     43  C   UNL A   1      42.329  25.736  27.909  1.00  0.00     0.010 A 
ATOM     44  C   UNL A   1      42.470  26.621  25.714  1.00  0.00     0.010 A 
ATOM     45  C   UNL A   1      42.319  26.920  27.083  1.00  0.00    -0.014 A 
BRANCH  45  46
ATOM     46  C   UNL A   1      41.594  28.211  27.733  1.00  0.00     0.031 A 
ATOM     47  C   UNL A   1      42.738  29.164  27.840  1.00  0.00     0.074 A 
ATOM     48  C   UNL A   1      40.420  28.665  28.337  1.00  0.00     0.049 A 
ATOM     49  N   UNL A   1      43.804  28.782  28.490  1.00  0.00    -0.248 NA
ATOM     50  C   UNL A   1      42.949  30.302  26.944  1.00  0.00     0.031 C 
ATOM     51  C   UNL A   1      39.224  27.886  28.698  1.00  0.00     0.029 A 
ATOM     52  N   UNL A   1      39.997  29.961  28.792  1.00  0.00    -0.354 N 
ATOM     53  C   UNL A   1      44.716  29.795  28.363  1.00  0.00     0.074 A 
ATOM     54  C   UNL A   1      44.237  30.555  27.213  1.00  0.00     0.031 C 
ATOM     55  C   UNL A   1      38.205  28.686  29.139  1.00  0.00     0.029 A 
ATOM     56  C   UNL A   1      38.610  30.092  29.187  1.00  0.00     0.049 A 
ATOM     57  H   UNL A   1      40.620  30.723  28.834  1.00  0.00     0.167 HD
ATOM     58  C   UNL A   1      45.193  30.265  29.551  1.00  0.00     0.037 A 
ATOM     59  C   UNL A   1      37.866  31.202  29.602  1.00  0.00     0.037 A 
ATOM     60  C   UNL A   1      44.520  31.471  29.951  1.00  0.00     0.049 A 
ATOM     61  C   UNL A   1      38.836  32.092  30.245  1.00  0.00     0.074 A 
ATOM     62  C   UNL A   1      44.126  32.604  29.268  1.00  0.00     0.029 A 
ATOM     63  N   UNL A   1      43.747  31.406  31.087  1.00  0.00    -0.354 N 
ATOM     64  N   UNL A   1      39.262  31.861  31.448  1.00  0.00    -0.248 NA
ATOM     65  C   UNL A   1      39.259  33.354  29.652  1.00  0.00     0.031 C 
ATOM     66  C   UNL A   1      42.824  32.870  29.738  1.00  0.00     0.029 A 
ATOM     67  C   UNL A   1      42.623  32.182  30.927  1.00  0.00     0.049 A 
ATOM     68  H   UNL A   1      43.966  30.883  31.892  1.00  0.00     0.167 HD
ATOM     69  C   UNL A   1      40.369  32.636  31.530  1.00  0.00     0.074 A 
ATOM     70  C   UNL A   1      40.156  33.709  30.574  1.00  0.00     0.031 C 
ATOM     71  C   UNL A   1      41.512  31.972  31.825  1.00  0.00     0.037 A 
BRANCH  58  72
ATOM     72  C   UNL A   1      45.594  29.162  30.499  1.00  0.00     0.057 A 
ATOM     73  C   UNL A   1      44.668  28.308  31.136  1.00  0.00     0.134 A 
ATOM     74  C   UNL A   1      46.944  28.849  30.649  1.00  0.00     0.134 A 
ATOM     75  F   UNL A   1      43.355  28.590  31.137  1.00  0.00    -0.206 F 
ATOM     76  C   UNL A   1      45.062  27.136  31.781  1.00  0.00     0.040 A 
ATOM     77  C   UNL A   1      47.356  27.707  31.345  1.00  0.00     0.040 A 
ATOM     78  F   UNL A   1      47.886  29.642  30.116  1.00  0.00    -0.206 F 
ATOM     79  C   UNL A   1      46.412  26.828  31.880  1.00  0.00     0.006 A 
ENDBRANCH  58  72
BRANCH  59  80
ATOM     80  C   UNL A   1      36.441  31.783  29.875  1.00  0.00     0.057 A 
ATOM     81  C   UNL A   1      35.873  32.810  29.113  1.00  0.00     0.134 A 
ATOM     82  C   UNL A   1      35.803  31.638  31.161  1.00  0.00     0.134 A 
ATOM     83  F   UNL A   1      36.336  33.073  27.885  1.00  0.00    -0.206 F 
ATOM     84  C   UNL A   1      34.853  33.670  29.617  1.00  0.00     0.040 A 
ATOM     85  C   UNL A   1      34.829  32.510  31.684  1.00  0.00     0.040 A 
ATOM     86  F   UNL A   1      36.147  30.667  32.018  1.00  0.00    -0.206 F 
ATOM     87  C   UNL A   1      34.362  33.554  30.918  1.00  0.00     0.006 A 
ENDBRANCH  59  80
BRANCH  71  88
ATOM     88  C   UNL A   1      41.465  30.934  32.937  1.00  0.00     0.057 A 
ATOM     89  C   UNL A   1      41.914  31.342  34.202  1.00  0.00     0.134 A 
ATOM     90  C   UNL A   1      40.991  29.603  32.869  1.00  0.00     0.134 A 
ATOM     91  F   UNL A   1      42.405  32.579  34.373  1.00  0.00    -0.206 F 
ATOM     92  C   UNL A   1      41.904  30.504  35.320  1.00  0.00     0.040 A 
ATOM     93  C   UNL A   1      40.917  28.775  33.999  1.00  0.00     0.040 A 
ATOM     94  F   UNL A   1      40.611  29.021  31.723  1.00  0.00    -0.206 F 
ATOM     95  C   UNL A   1      41.384  29.221  35.227  1.00  0.00     0.006 A 
ENDBRANCH  71  88
ENDBRANCH  45  46
ENDBRANCH  37  40
ENDBRANCH  35  36
ENDBRANCH  34  35
ENDBRANCH   1  34
TORSDOF 16
ENDMDL
MODEL 2
REMARK VINA RESULT:     -12.6      3.255      7.677
REMARK SMILES Cc1c(C[NH2+]Cc2cccc(F)c2)c(C(=O)NCCCNC(=O)c2ccc(-c3c4nc(c(-c5c(F)cccc5F)c5ccc([nH]5)c(-c5c(F)cccc5F)c5nc(c(-c6c(F)cccc6F)c6ccc3[nH]6)C=C5)C=C4)cc2)c(C)n1Cc1c(F)cccc1Cl
REMARK SMILES IDX 18 1 17 2 15 3 16 4 14 6 1 7 2 8 3 9 80 10 78 11 79 12 4 13
REMARK SMILES IDX 5 14 6 17 7 18 8 19 13 20 9 21 11 22 10 23 12 24 81 25 82 26
REMARK SMILES IDX 83 27 88 28 84 29 85 30 87 31 89 32 86 33 19 34 20 35 21 36
REMARK SMILES IDX 22 37 23 39 24 40 25 41 77 42 26 43 76 44 27 45 28 46 29 47
REMARK SMILES IDX 70 48 30 49 75 50 69 51 71 52 31 53 74 54 68 55 67 56 32 58
REMARK SMILES IDX 58 59 41 60 57 61 42 62 45 63 56 64 72 65 43 66 44 67 55 69
REMARK SMILES IDX 73 70 46 71 33 72 34 73 39 74 35 75 36 76 38 77 40 78 37 79
REMARK SMILES IDX 59 80 60 81 65 82 61 83 62 84 64 85 66 86 63 87 47 88 48 89
REMARK SMILES IDX 53 90 49 91 50 92 52 93 54 94 51 95
REMARK H PARENT 17 5 5 15 5 16 21 38 71 57 45 68
REMARK Flexibility Score: inf
ROOT
ATOM      1  C   UNL A   1      32.691  27.004  26.606  1.00  0.00     0.118 C 
ENDROOT
BRANCH   1   2
ATOM      2  N   UNL A   1      31.345  26.574  26.276  1.00  0.00    -0.352 N 
ATOM      3  C   UNL A   1      30.735  25.440  25.822  1.00  0.00     0.253 C 
ATOM      4  O   UNL A   1      29.513  25.628  25.605  1.00  0.00    -0.269 OA
ATOM      5  H   UNL A   1      30.692  27.298  26.421  1.00  0.00     0.163 HD
BRANCH   3   6
ATOM      6  C   UNL A   1      31.374  24.153  25.488  1.00  0.00     0.069 A 
ATOM      7  C   UNL A   1      32.588  21.521  23.066  1.00  0.00     0.065 C 
ATOM      8  C   UNL A   1      32.251  22.461  24.178  1.00  0.00     0.025 A 
ATOM      9  C   UNL A   1      31.512  23.644  24.124  1.00  0.00     0.040 A 
ATOM     10  N   UNL A   1      32.596  22.260  25.504  1.00  0.00    -0.343 N 
ATOM     11  C   UNL A   1      31.750  23.056  26.276  1.00  0.00     0.028 A 
ATOM     12  C   UNL A   1      31.287  22.617  27.621  1.00  0.00     0.065 C 
BRANCH   9  13
ATOM     13  C   UNL A   1      30.907  24.250  22.873  1.00  0.00     0.300 C 
BRANCH  13  14
ATOM     14  N   UNL A   1      31.994  24.728  22.020  1.00  0.00    -0.339 N 
ATOM     15  H   UNL A   1      32.150  24.039  21.283  1.00  0.00     0.346 HD
ATOM     16  H   UNL A   1      32.809  24.850  22.620  1.00  0.00     0.346 HD
BRANCH  14  17
ATOM     17  C   UNL A   1      31.733  26.020  21.393  1.00  0.00     0.297 C 
BRANCH  17  18
ATOM     18  C   UNL A   1      31.444  27.182  22.327  1.00  0.00     0.009 A 
ATOM     19  C   UNL A   1      30.150  27.551  22.730  1.00  0.00     0.010 A 
ATOM     20  C   UNL A   1      32.528  27.912  22.846  1.00  0.00     0.048 A 
ATOM     21  C   UNL A   1      29.939  28.641  23.582  1.00  0.00     0.004 A 
ATOM     22  C   UNL A   1      32.308  28.990  23.701  1.00  0.00     0.123 A 
ATOM     23  C   UNL A   1      31.022  29.367  24.065  1.00  0.00     0.039 A 
ATOM     24  F   UNL A   1      33.354  29.676  24.182  1.00  0.00    -0.207 F 
ENDBRANCH  17  18
ENDBRANCH  14  17
ENDBRANCH  13  14
ENDBRANCH   9  13
BRANCH  10  25
ATOM     25  C   UNL A   1      33.517  21.226  26.018  1.00  0.00     0.162 C 
BRANCH  25  26
ATOM     26  C   UNL A   1      34.968  21.478  25.661  1.00  0.00     0.026 A 
ATOM     27  C   UNL A   1      35.721  20.462  25.056  1.00  0.00     0.129 A 
ATOM     28  C   UNL A   1      35.628  22.703  25.849  1.00  0.00     0.048 A 
ATOM     29  F   UNL A   1      35.132  19.327  24.672  1.00  0.00    -0.207 F 
ATOM     30  C   UNL A   1      37.076  20.592  24.754  1.00  0.00     0.040 A 
ATOM     31  C   UNL A   1      36.988  22.855  25.523  1.00  0.00     0.021 A 
ATOM     32  Cl  UNL A   1      34.813  24.119  26.411  1.00  0.00    -0.084 Cl
ATOM     33  C   UNL A   1      37.720  21.791  25.001  1.00  0.00     0.005 A 
ENDBRANCH  25  26
ENDBRANCH  10  25
ENDBRANCH   3   6
ENDBRANCH   1   2
BRANCH   1  34
ATOM     34  C   UNL A   1      32.767  28.377  27.278  1.00  0.00     0.042 C 
BRANCH  34  35
ATOM     35  C   UNL A   1      34.187  28.965  27.395  1.00  0.00     0.118 C 
BRANCH  35  36
ATOM     36  N   UNL A   1      34.223  30.398  27.642  1.00  0.00    -0.352 N 
ATOM     37  C   UNL A   1      35.289  31.152  28.087  1.00  0.00     0.251 C 
ATOM     38  H   UNL A   1      33.387  30.888  27.472  1.00  0.00     0.163 HD
ATOM     39  O   UNL A   1      35.120  32.372  28.248  1.00  0.00    -0.269 OA
BRANCH  37  40
ATOM     40  C   UNL A   1      36.600  30.527  28.470  1.00  0.00     0.039 A 
ATOM     41  C   UNL A   1      37.496  30.228  27.458  1.00  0.00     0.014 A 
ATOM     42  C   UNL A   1      36.921  30.062  29.759  1.00  0.00     0.014 A 
ATOM     43  C   UNL A   1      38.705  29.534  27.747  1.00  0.00     0.010 A 
ATOM     44  C   UNL A   1      38.113  29.268  30.027  1.00  0.00     0.010 A 
ATOM     45  C   UNL A   1      39.052  28.955  29.024  1.00  0.00    -0.014 A 
BRANCH  45  46
ATOM     46  C   UNL A   1      40.029  27.670  28.958  1.00  0.00     0.031 A 
ATOM     47  C   UNL A   1      40.984  27.973  30.065  1.00  0.00     0.074 A 
ATOM     48  C   UNL A   1      40.380  26.552  28.198  1.00  0.00     0.049 A 
ATOM     49  N   UNL A   1      41.620  29.113  30.040  1.00  0.00    -0.248 NA
ATOM     50  C   UNL A   1      40.963  27.319  31.374  1.00  0.00     0.031 C 
ATOM     51  C   UNL A   1      39.869  26.157  26.874  1.00  0.00     0.029 A 
ATOM     52  N   UNL A   1      41.303  25.473  28.420  1.00  0.00    -0.354 N 
ATOM     53  C   UNL A   1      42.351  29.172  31.196  1.00  0.00     0.074 A 
ATOM     54  C   UNL A   1      41.711  28.189  32.064  1.00  0.00     0.031 C 
ATOM     55  C   UNL A   1      40.327  24.924  26.496  1.00  0.00     0.029 A 
ATOM     56  C   UNL A   1      41.249  24.367  27.487  1.00  0.00     0.049 A 
ATOM     57  H   UNL A   1      41.940  25.485  29.170  1.00  0.00     0.167 HD
ATOM     58  C   UNL A   1      43.683  29.391  30.999  1.00  0.00     0.037 A 
ATOM     59  C   UNL A   1      41.939  23.151  27.452  1.00  0.00     0.037 A 
ATOM     60  C   UNL A   1      44.436  28.168  31.066  1.00  0.00     0.049 A 
ATOM     61  C   UNL A   1      43.224  23.423  28.099  1.00  0.00     0.074 A 
ATOM     62  C   UNL A   1      44.389  27.075  31.909  1.00  0.00     0.029 A 
ATOM     63  N   UNL A   1      45.047  27.748  29.909  1.00  0.00    -0.354 N 
ATOM     64  N   UNL A   1      44.174  24.042  27.468  1.00  0.00    -0.248 NA
ATOM     65  C   UNL A   1      43.573  22.893  29.411  1.00  0.00     0.031 C 
ATOM     66  C   UNL A   1      44.493  25.960  31.053  1.00  0.00     0.029 A 
ATOM     67  C   UNL A   1      44.989  26.377  29.825  1.00  0.00     0.049 A 
ATOM     68  H   UNL A   1      45.464  28.340  29.241  1.00  0.00     0.167 HD
ATOM     69  C   UNL A   1      45.002  24.425  28.469  1.00  0.00     0.074 A 
ATOM     70  C   UNL A   1      44.766  23.476  29.544  1.00  0.00     0.031 C 
ATOM     71  C   UNL A   1      45.232  25.757  28.544  1.00  0.00     0.037 A 
BRANCH  58  72
ATOM     72  C   UNL A   1      43.955  30.503  30.016  1.00  0.00     0.057 A 
ATOM     73  C   UNL A   1      43.755  30.377  28.624  1.00  0.00     0.134 A 
ATOM     74  C   UNL A   1      44.270  31.774  30.493  1.00  0.00     0.134 A 
ATOM     75  F   UNL A   1      43.555  29.175  28.061  1.00  0.00    -0.206 F 
ATOM     76  C   UNL A   1      43.746  31.482  27.774  1.00  0.00     0.040 A 
ATOM     77  C   UNL A   1      44.322  32.882  29.641  1.00  0.00     0.040 A 
ATOM     78  F   UNL A   1      44.524  31.963  31.798  1.00  0.00    -0.206 F 
ATOM     79  C   UNL A   1      44.023  32.743  28.284  1.00  0.00     0.006 A 
ENDBRANCH  58  72
BRANCH  59  80
ATOM     80  C   UNL A   1      42.021  21.720  26.827  1.00  0.00     0.057 A 
ATOM     81  C   UNL A   1      41.583  20.569  27.490  1.00  0.00     0.134 A 
ATOM     82  C   UNL A   1      42.935  21.420  25.753  1.00  0.00     0.134 A 
ATOM     83  F   UNL A   1      40.718  20.663  28.507  1.00  0.00    -0.206 F 
ATOM     84  C   UNL A   1      42.083  19.268  27.186  1.00  0.00     0.040 A 
ATOM     85  C   UNL A   1      43.469  20.146  25.476  1.00  0.00     0.040 A 
ATOM     86  F   UNL A   1      43.419  22.374  24.945  1.00  0.00    -0.206 F 
ATOM     87  C   UNL A   1      43.061  19.058  26.213  1.00  0.00     0.006 A 
ENDBRANCH  59  80
BRANCH  71  88
ATOM     88  C   UNL A   1      45.528  26.502  27.249  1.00  0.00     0.057 A 
ATOM     89  C   UNL A   1      46.875  26.770  26.969  1.00  0.00     0.134 A 
ATOM     90  C   UNL A   1      44.611  26.935  26.263  1.00  0.00     0.134 A 
ATOM     91  F   UNL A   1      47.827  26.421  27.848  1.00  0.00    -0.206 F 
ATOM     92  C   UNL A   1      47.295  27.423  25.806  1.00  0.00     0.040 A 
ATOM     93  C   UNL A   1      45.027  27.534  25.065  1.00  0.00     0.040 A 
ATOM     94  F   UNL A   1      43.282  26.843  26.410  1.00  0.00    -0.206 F 
ATOM     95  C   UNL A   1      46.372  27.788  24.837  1.00  0.00     0.006 A 
ENDBRANCH  71  88
ENDBRANCH  45  46
ENDBRANCH  37  40
ENDBRANCH  35  36
ENDBRANCH  34  35
ENDBRANCH   1  34
TORSDOF 16
ENDMDL
MODEL 3
REMARK VINA RESULT:     -12.6      2.337      5.228
REMARK SMILES Cc1c(C[NH2+]Cc2cccc(F)c2)c(C(=O)NCCCNC(=O)c2ccc(-c3c4nc(c(-c5c(F)cccc5F)c5ccc([nH]5)c(-c5c(F)cccc5F)c5nc(c(-c6c(F)cccc6F)c6ccc3[nH]6)C=C5)C=C4)cc2)c(C)n1Cc1c(F)cccc1Cl
REMARK SMILES IDX 18 1 17 2 15 3 16 4 14 6 1 7 2 8 3 9 80 10 78 11 79 12 4 13
REMARK SMILES IDX 5 14 6 17 7 18 8 19 13 20 9 21 11 22 10 23 12 24 81 25 82 26
REMARK SMILES IDX 83 27 88 28 84 29 85 30 87 31 89 32 86 33 19 34 20 35 21 36
REMARK SMILES IDX 22 37 23 39 24 40 25 41 77 42 26 43 76 44 27 45 28 46 29 47
REMARK SMILES IDX 70 48 30 49 75 50 69 51 71 52 31 53 74 54 68 55 67 56 32 58
REMARK SMILES IDX 58 59 41 60 57 61 42 62 45 63 56 64 72 65 43 66 44 67 55 69
REMARK SMILES IDX 73 70 46 71 33 72 34 73 39 74 35 75 36 76 38 77 40 78 37 79
REMARK SMILES IDX 59 80 60 81 65 82 61 83 62 84 64 85 66 86 63 87 47 88 48 89
REMARK SMILES IDX 53 90 49 91 50 92 52 93 54 94 51 95
REMARK H PARENT 17 5 5 15 5 16 21 38 71 57 45 68
REMARK Flexibility Score: inf
ROOT
ATOM      1  C   UNL A   1      35.811  22.204  24.313  1.00  0.00     0.118 C 
ENDROOT
BRANCH   1   2
ATOM      2  N   UNL A   1      34.647  22.269  25.179  1.00  0.00    -0.352 N 
ATOM      3  C   UNL A   1      33.543  23.059  25.319  1.00  0.00     0.253 C 
ATOM      4  O   UNL A   1      32.865  22.731  26.323  1.00  0.00    -0.269 OA
ATOM      5  H   UNL A   1      34.657  21.545  25.846  1.00  0.00     0.163 HD
BRANCH   3   6
ATOM      6  C   UNL A   1      33.178  24.240  24.513  1.00  0.00     0.069 A 
ATOM      7  C   UNL A   1      32.078  25.931  21.319  1.00  0.00     0.065 C 
ATOM      8  C   UNL A   1      32.443  25.458  22.689  1.00  0.00     0.025 A 
ATOM      9  C   UNL A   1      32.829  24.179  23.094  1.00  0.00     0.040 A 
ATOM     10  N   UNL A   1      32.505  26.271  23.808  1.00  0.00    -0.343 N 
ATOM     11  C   UNL A   1      33.295  25.616  24.752  1.00  0.00     0.028 A 
ATOM     12  C   UNL A   1      34.175  26.373  25.685  1.00  0.00     0.065 C 
BRANCH   9  13
ATOM     13  C   UNL A   1      32.931  22.961  22.195  1.00  0.00     0.300 C 
BRANCH  13  14
ATOM     14  N   UNL A   1      31.758  22.120  22.427  1.00  0.00    -0.339 N 
ATOM     15  H   UNL A   1      30.940  22.599  22.050  1.00  0.00     0.346 HD
ATOM     16  H   UNL A   1      31.695  21.970  23.433  1.00  0.00     0.346 HD
BRANCH  14  17
ATOM     17  C   UNL A   1      31.843  20.801  21.807  1.00  0.00     0.297 C 
BRANCH  17  18
ATOM     18  C   UNL A   1      32.255  19.651  22.709  1.00  0.00     0.009 A 
ATOM     19  C   UNL A   1      32.526  18.355  22.241  1.00  0.00     0.010 A 
ATOM     20  C   UNL A   1      32.406  19.898  24.086  1.00  0.00     0.048 A 
ATOM     21  C   UNL A   1      32.888  17.327  23.119  1.00  0.00     0.004 A 
ATOM     22  C   UNL A   1      32.776  18.871  24.950  1.00  0.00     0.123 A 
ATOM     23  C   UNL A   1      33.008  17.585  24.481  1.00  0.00     0.039 A 
ATOM     24  F   UNL A   1      32.910  19.125  26.259  1.00  0.00    -0.207 F 
ENDBRANCH  17  18
ENDBRANCH  14  17
ENDBRANCH  13  14
ENDBRANCH   9  13
BRANCH  10  25
ATOM     25  C   UNL A   1      32.027  27.666  23.899  1.00  0.00     0.162 C 
BRANCH  25  26
ATOM     26  C   UNL A   1      30.547  27.818  23.610  1.00  0.00     0.026 A 
ATOM     27  C   UNL A   1      30.113  28.790  22.698  1.00  0.00     0.129 A 
ATOM     28  C   UNL A   1      29.545  27.006  24.166  1.00  0.00     0.048 A 
ATOM     29  F   UNL A   1      31.002  29.486  21.985  1.00  0.00    -0.207 F 
ATOM     30  C   UNL A   1      28.769  29.035  22.424  1.00  0.00     0.040 A 
ATOM     31  C   UNL A   1      28.186  27.226  23.876  1.00  0.00     0.021 A 
ATOM     32  Cl  UNL A   1      29.903  25.644  25.166  1.00  0.00    -0.084 Cl
ATOM     33  C   UNL A   1      27.795  28.258  23.027  1.00  0.00     0.005 A 
ENDBRANCH  25  26
ENDBRANCH  10  25
ENDBRANCH   3   6
ENDBRANCH   1   2
BRANCH   1  34
ATOM     34  C   UNL A   1      36.717  23.436  24.381  1.00  0.00     0.042 C 
BRANCH  34  35
ATOM     35  C   UNL A   1      37.355  23.696  25.760  1.00  0.00     0.118 C 
BRANCH  35  36
ATOM     36  N   UNL A   1      38.406  22.757  26.120  1.00  0.00    -0.352 N 
ATOM     37  C   UNL A   1      39.533  23.000  26.876  1.00  0.00     0.251 C 
ATOM     38  H   UNL A   1      38.300  21.838  25.783  1.00  0.00     0.163 HD
ATOM     39  O   UNL A   1      40.326  22.064  27.068  1.00  0.00    -0.269 OA
BRANCH  37  40
ATOM     40  C   UNL A   1      39.870  24.374  27.381  1.00  0.00     0.039 A 
ATOM     41  C   UNL A   1      39.292  24.788  28.570  1.00  0.00     0.014 A 
ATOM     42  C   UNL A   1      40.591  25.342  26.657  1.00  0.00     0.014 A 
ATOM     43  C   UNL A   1      39.484  26.117  29.041  1.00  0.00     0.010 A 
ATOM     44  C   UNL A   1      40.700  26.726  27.099  1.00  0.00     0.010 A 
ATOM     45  C   UNL A   1      40.135  27.177  28.308  1.00  0.00    -0.014 A 
BRANCH  45  46
ATOM     46  C   UNL A   1      39.630  28.672  28.659  1.00  0.00     0.031 A 
ATOM     47  C   UNL A   1      40.929  29.383  28.844  1.00  0.00     0.074 A 
ATOM     48  C   UNL A   1      38.511  29.440  28.990  1.00  0.00     0.049 A 
ATOM     49  N   UNL A   1      41.780  28.904  29.711  1.00  0.00    -0.248 NA
ATOM     50  C   UNL A   1      41.512  30.301  27.865  1.00  0.00     0.031 C 
ATOM     51  C   UNL A   1      37.133  28.980  29.233  1.00  0.00     0.029 A 
ATOM     52  N   UNL A   1      38.326  30.849  29.203  1.00  0.00    -0.354 N 
ATOM     53  C   UNL A   1      42.902  29.682  29.619  1.00  0.00     0.074 A 
ATOM     54  C   UNL A   1      42.772  30.332  28.319  1.00  0.00     0.031 C 
ATOM     55  C   UNL A   1      36.264  30.027  29.389  1.00  0.00     0.029 A 
ATOM     56  C   UNL A   1      36.960  31.313  29.333  1.00  0.00     0.049 A 
ATOM     57  H   UNL A   1      39.089  31.468  29.258  1.00  0.00     0.167 HD
ATOM     58  C   UNL A   1      43.297  30.229  30.804  1.00  0.00     0.037 A 
ATOM     59  C   UNL A   1      36.429  32.600  29.473  1.00  0.00     0.037 A 
ATOM     60  C   UNL A   1      42.858  31.592  30.931  1.00  0.00     0.049 A 
ATOM     61  C   UNL A   1      37.469  33.369  30.159  1.00  0.00     0.074 A 
ATOM     62  C   UNL A   1      42.826  32.660  30.055  1.00  0.00     0.029 A 
ATOM     63  N   UNL A   1      41.936  31.861  31.915  1.00  0.00    -0.354 N 
ATOM     64  N   UNL A   1      37.658  33.250  31.437  1.00  0.00    -0.248 NA
ATOM     65  C   UNL A   1      38.242  34.413  29.497  1.00  0.00     0.031 C 
ATOM     66  C   UNL A   1      41.561  33.249  30.257  1.00  0.00     0.029 A 
ATOM     67  C   UNL A   1      41.046  32.810  31.469  1.00  0.00     0.049 A 
ATOM     68  H   UNL A   1      41.916  31.439  32.804  1.00  0.00     0.167 HD
ATOM     69  C   UNL A   1      38.886  33.792  31.614  1.00  0.00     0.074 A 
ATOM     70  C   UNL A   1      39.055  34.723  30.510  1.00  0.00     0.031 C 
ATOM     71  C   UNL A   1      39.800  32.970  32.181  1.00  0.00     0.037 A 
BRANCH  58  72
ATOM     72  C   UNL A   1      43.304  29.231  31.936  1.00  0.00     0.057 A 
ATOM     73  C   UNL A   1      42.132  28.672  32.489  1.00  0.00     0.134 A 
ATOM     74  C   UNL A   1      44.518  28.700  32.370  1.00  0.00     0.134 A 
ATOM     75  F   UNL A   1      40.924  29.190  32.213  1.00  0.00    -0.206 F 
ATOM     76  C   UNL A   1      42.165  27.562  33.332  1.00  0.00     0.040 A 
ATOM     77  C   UNL A   1      44.568  27.624  33.262  1.00  0.00     0.040 A 
ATOM     78  F   UNL A   1      45.677  29.213  31.929  1.00  0.00    -0.206 F 
ATOM     79  C   UNL A   1      43.389  27.028  33.715  1.00  0.00     0.006 A 
ENDBRANCH  58  72
BRANCH  59  80
ATOM     80  C   UNL A   1      35.144  33.489  29.422  1.00  0.00     0.057 A 
ATOM     81  C   UNL A   1      34.860  34.366  28.371  1.00  0.00     0.134 A 
ATOM     82  C   UNL A   1      34.403  33.809  30.618  1.00  0.00     0.134 A 
ATOM     83  F   UNL A   1      35.451  34.206  27.180  1.00  0.00    -0.206 F 
ATOM     84  C   UNL A   1      34.013  35.503  28.523  1.00  0.00     0.040 A 
ATOM     85  C   UNL A   1      33.601  34.954  30.792  1.00  0.00     0.040 A 
ATOM     86  F   UNL A   1      34.474  33.050  31.720  1.00  0.00    -0.206 F 
ATOM     87  C   UNL A   1      33.420  35.828  29.744  1.00  0.00     0.006 A 
ENDBRANCH  59  80
BRANCH  71  88
ATOM     88  C   UNL A   1      39.365  32.149  33.387  1.00  0.00     0.057 A 
ATOM     89  C   UNL A   1      39.640  32.691  34.651  1.00  0.00     0.134 A 
ATOM     90  C   UNL A   1      38.683  30.911  33.400  1.00  0.00     0.134 A 
ATOM     91  F   UNL A   1      40.304  33.852  34.754  1.00  0.00    -0.206 F 
ATOM     92  C   UNL A   1      39.277  32.061  35.845  1.00  0.00     0.040 A 
ATOM     93  C   UNL A   1      38.257  30.302  34.591  1.00  0.00     0.040 A 
ATOM     94  F   UNL A   1      38.421  30.209  32.289  1.00  0.00    -0.206 F 
ATOM     95  C   UNL A   1      38.563  30.872  35.818  1.00  0.00     0.006 A 
ENDBRANCH  71  88
ENDBRANCH  45  46
ENDBRANCH  37  40
ENDBRANCH  35  36
ENDBRANCH  34  35
ENDBRANCH   1  34
TORSDOF 16
ENDMDL
