MODEL 1
REMARK VINA RESULT:     -12.4      0.000      0.000
REMARK SMILES C[C@]12CCC(=O)N1[C@@H](C(=O)N1C[C@H](O)C[C@@H]1C(=O)NCCCNC(=O)c1ccc(-c3c4nc(c(-c5c(F)cccc5F)c5ccc([nH]5)c(-c5c(F)cccc5F)c5nc(c(-c6c(F)cccc6F)c6ccc3[nH]6)C=C5)C=C4)cc1)CS2
REMARK SMILES IDX 21 1 20 2 19 3 17 4 18 5 16 7 11 8 12 9 13 10 15 11 9 12
REMARK SMILES IDX 10 13 8 14 1 15 2 16 3 17 7 18 81 19 4 20 5 21 80 22 6 23
REMARK SMILES IDX 14 24 22 26 23 27 24 28 25 30 26 31 27 32 79 33 28 34 78 35
REMARK SMILES IDX 29 36 30 37 31 38 72 39 32 40 77 41 71 42 73 43 33 44 76 45
REMARK SMILES IDX 70 46 69 47 34 49 60 50 43 51 59 52 44 53 47 54 58 55 74 56
REMARK SMILES IDX 45 57 46 58 57 60 75 61 48 62 35 63 36 64 41 65 37 66 38 67
REMARK SMILES IDX 40 68 42 69 39 70 61 71 62 72 67 73 63 74 64 75 66 76 68 77
REMARK SMILES IDX 65 78 49 79 50 80 55 81 51 82 52 83 54 84 56 85 53 86
REMARK H PARENT 19 6 14 25 23 29 73 48 47 59
REMARK Flexibility Score: inf
ROOT
ATOM      1  C   UNL A   1      37.393  23.444  25.405  1.00  0.00     0.042 C 
ENDROOT
BRANCH   1   2
ATOM      2  C   UNL A   1      36.963  21.983  25.541  1.00  0.00     0.117 C 
BRANCH   2   3
ATOM      3  N   UNL A   1      35.757  21.808  26.336  1.00  0.00    -0.354 N 
ATOM      4  C   UNL A   1      34.579  21.183  26.032  1.00  0.00     0.242 C 
ATOM      5  O   UNL A   1      33.707  21.134  26.904  1.00  0.00    -0.273 OA
ATOM      6  H   UNL A   1      35.796  22.201  27.238  1.00  0.00     0.163 HD
BRANCH   4   7
ATOM      7  C   UNL A   1      34.379  20.535  24.645  1.00  0.00     0.177 C 
ATOM      8  N   UNL A   1      32.983  20.662  24.185  1.00  0.00    -0.326 N 
ATOM      9  C   UNL A   1      32.278  19.388  24.298  1.00  0.00     0.152 C 
ATOM     10  C   UNL A   1      33.208  18.481  25.092  1.00  0.00     0.136 C 
ATOM     11  C   UNL A   1      34.599  19.021  24.764  1.00  0.00     0.069 C 
BRANCH   8  12
ATOM     12  C   UNL A   1      32.337  21.682  23.523  1.00  0.00     0.247 C 
ATOM     13  O   UNL A   1      32.283  21.682  22.285  1.00  0.00    -0.272 OA
BRANCH  12  14
ATOM     14  C   UNL A   1      31.697  22.866  24.268  1.00  0.00     0.186 C 
ATOM     15  C   UNL A   1      31.085  26.065  24.482  1.00  0.00     0.047 C 
ATOM     16  C   UNL A   1      31.928  25.080  25.297  1.00  0.00     0.087 C 
ATOM     17  C   UNL A   1      33.132  25.754  25.942  1.00  0.00     0.049 C 
ATOM     18  N   UNL A   1      32.515  24.057  24.482  1.00  0.00    -0.315 N 
ATOM     19  S   UNL A   1      30.833  24.168  26.445  1.00  0.00    -0.131 SA
ATOM     20  C   UNL A   1      34.300  25.454  24.996  1.00  0.00     0.103 C 
ATOM     21  C   UNL A   1      33.830  24.287  24.171  1.00  0.00     0.224 C 
ATOM     22  C   UNL A   1      31.067  22.542  25.616  1.00  0.00     0.107 C 
ATOM     23  O   UNL A   1      34.548  23.640  23.427  1.00  0.00    -0.275 OA
ENDBRANCH  12  14
ENDBRANCH   8  12
BRANCH  10  24
ATOM     24  O   UNL A   1      32.961  18.575  26.493  1.00  0.00    -0.391 OA
ATOM     25  H   UNL A   1      33.087  19.492  26.783  1.00  0.00     0.211 HD
ENDBRANCH  10  24
ENDBRANCH   4   7
ENDBRANCH   2   3
ENDBRANCH   1   2
BRANCH   1  26
ATOM     26  C   UNL A   1      38.342  23.958  26.495  1.00  0.00     0.118 C 
BRANCH  26  27
ATOM     27  N   UNL A   1      39.741  23.850  26.108  1.00  0.00    -0.352 N 
ATOM     28  C   UNL A   1      40.827  24.616  26.457  1.00  0.00     0.251 C 
ATOM     29  H   UNL A   1      39.942  23.104  25.496  1.00  0.00     0.163 HD
ATOM     30  O   UNL A   1      41.885  24.444  25.855  1.00  0.00    -0.269 OA
BRANCH  28  31
ATOM     31  C   UNL A   1      40.767  25.649  27.527  1.00  0.00     0.039 A 
ATOM     32  C   UNL A   1      39.741  25.556  28.476  1.00  0.00     0.014 A 
ATOM     33  C   UNL A   1      41.625  26.752  27.557  1.00  0.00     0.014 A 
ATOM     34  C   UNL A   1      39.598  26.536  29.467  1.00  0.00     0.010 A 
ATOM     35  C   UNL A   1      41.510  27.709  28.575  1.00  0.00     0.010 A 
ATOM     36  C   UNL A   1      40.492  27.616  29.537  1.00  0.00    -0.014 A 
BRANCH  36  37
ATOM     37  C   UNL A   1      40.360  28.642  30.609  1.00  0.00     0.031 A 
ATOM     38  C   UNL A   1      39.334  29.741  30.508  1.00  0.00     0.074 A 
ATOM     39  C   UNL A   1      41.181  28.605  31.677  1.00  0.00     0.049 A 
ATOM     40  N   UNL A   1      39.100  30.732  31.333  1.00  0.00    -0.248 NA
ATOM     41  C   UNL A   1      38.471  29.734  29.318  1.00  0.00     0.031 C 
ATOM     42  C   UNL A   1      42.240  27.620  31.895  1.00  0.00     0.029 A 
ATOM     43  N   UNL A   1      41.257  29.425  32.779  1.00  0.00    -0.354 N 
ATOM     44  C   UNL A   1      38.068  31.468  30.762  1.00  0.00     0.074 A 
ATOM     45  C   UNL A   1      37.750  30.831  29.501  1.00  0.00     0.031 C 
ATOM     46  C   UNL A   1      42.852  27.885  33.061  1.00  0.00     0.029 A 
ATOM     47  C   UNL A   1      42.248  29.071  33.661  1.00  0.00     0.049 A 
ATOM     48  H   UNL A   1      40.658  30.193  32.920  1.00  0.00     0.167 HD
ATOM     49  C   UNL A   1      37.432  32.562  31.247  1.00  0.00     0.037 A 
ATOM     50  C   UNL A   1      42.634  29.638  34.820  1.00  0.00     0.037 A 
ATOM     51  C   UNL A   1      37.727  33.195  32.507  1.00  0.00     0.049 A 
ATOM     52  C   UNL A   1      41.911  30.850  35.339  1.00  0.00     0.074 A 
ATOM     53  C   UNL A   1      37.105  34.287  33.090  1.00  0.00     0.029 A 
ATOM     54  N   UNL A   1      38.725  32.793  33.379  1.00  0.00    -0.354 N 
ATOM     55  N   UNL A   1      40.909  31.504  34.807  1.00  0.00    -0.248 NA
ATOM     56  C   UNL A   1      42.369  31.396  36.626  1.00  0.00     0.031 C 
ATOM     57  C   UNL A   1      37.747  34.563  34.303  1.00  0.00     0.029 A 
ATOM     58  C   UNL A   1      38.745  33.621  34.490  1.00  0.00     0.049 A 
ATOM     59  H   UNL A   1      39.332  32.031  33.232  1.00  0.00     0.167 HD
ATOM     60  C   UNL A   1      40.604  32.524  35.699  1.00  0.00     0.074 A 
ATOM     61  C   UNL A   1      41.516  32.393  36.815  1.00  0.00     0.031 C 
ATOM     62  C   UNL A   1      39.653  33.484  35.598  1.00  0.00     0.037 A 
BRANCH  49  63
ATOM     63  C   UNL A   1      36.333  33.148  30.409  1.00  0.00     0.057 A 
ATOM     64  C   UNL A   1      34.984  32.916  30.704  1.00  0.00     0.134 A 
ATOM     65  C   UNL A   1      36.626  33.989  29.327  1.00  0.00     0.134 A 
ATOM     66  F   UNL A   1      34.639  32.113  31.722  1.00  0.00    -0.206 F 
ATOM     67  C   UNL A   1      33.963  33.483  29.940  1.00  0.00     0.040 A 
ATOM     68  C   UNL A   1      35.613  34.579  28.570  1.00  0.00     0.040 A 
ATOM     69  F   UNL A   1      37.897  34.259  28.998  1.00  0.00    -0.206 F 
ATOM     70  C   UNL A   1      34.277  34.322  28.872  1.00  0.00     0.006 A 
ENDBRANCH  49  63
BRANCH  50  71
ATOM     71  C   UNL A   1      43.762  29.054  35.587  1.00  0.00     0.057 A 
ATOM     72  C   UNL A   1      45.074  29.500  35.393  1.00  0.00     0.134 A 
ATOM     73  C   UNL A   1      43.555  28.033  36.520  1.00  0.00     0.134 A 
ATOM     74  F   UNL A   1      45.334  30.461  34.496  1.00  0.00    -0.206 F 
ATOM     75  C   UNL A   1      46.145  28.939  36.090  1.00  0.00     0.040 A 
ATOM     76  C   UNL A   1      44.613  27.477  37.240  1.00  0.00     0.040 A 
ATOM     77  F   UNL A   1      42.319  27.568  36.753  1.00  0.00    -0.206 F 
ATOM     78  C   UNL A   1      45.914  27.926  37.020  1.00  0.00     0.006 A 
ENDBRANCH  50  71
BRANCH  62  79
ATOM     79  C   UNL A   1      39.535  34.453  36.737  1.00  0.00     0.057 A 
ATOM     80  C   UNL A   1      38.821  34.139  37.899  1.00  0.00     0.134 A 
ATOM     81  C   UNL A   1      40.166  35.702  36.681  1.00  0.00     0.134 A 
ATOM     82  F   UNL A   1      38.182  32.965  38.008  1.00  0.00    -0.206 F 
ATOM     83  C   UNL A   1      38.721  35.042  38.959  1.00  0.00     0.040 A 
ATOM     84  C   UNL A   1      40.091  36.605  37.742  1.00  0.00     0.040 A 
ATOM     85  F   UNL A   1      40.870  36.062  35.597  1.00  0.00    -0.206 F 
ATOM     86  C   UNL A   1      39.362  36.277  38.884  1.00  0.00     0.006 A 
ENDBRANCH  62  79
ENDBRANCH  36  37
ENDBRANCH  28  31
ENDBRANCH  26  27
ENDBRANCH   1  26
TORSDOF 13
ENDMDL
MODEL 2
REMARK VINA RESULT:     -12.3      0.328      6.211
REMARK SMILES C[C@]12CCC(=O)N1[C@@H](C(=O)N1C[C@H](O)C[C@@H]1C(=O)NCCCNC(=O)c1ccc(-c3c4nc(c(-c5c(F)cccc5F)c5ccc([nH]5)c(-c5c(F)cccc5F)c5nc(c(-c6c(F)cccc6F)c6ccc3[nH]6)C=C5)C=C4)cc1)CS2
REMARK SMILES IDX 21 1 20 2 19 3 17 4 18 5 16 7 11 8 12 9 13 10 15 11 9 12
REMARK SMILES IDX 10 13 8 14 1 15 2 16 3 17 7 18 81 19 4 20 5 21 80 22 6 23
REMARK SMILES IDX 14 24 22 26 23 27 24 28 25 30 26 31 27 32 79 33 28 34 78 35
REMARK SMILES IDX 29 36 30 37 31 38 72 39 32 40 77 41 71 42 73 43 33 44 76 45
REMARK SMILES IDX 70 46 69 47 34 49 60 50 43 51 59 52 44 53 47 54 58 55 74 56
REMARK SMILES IDX 45 57 46 58 57 60 75 61 48 62 35 63 36 64 41 65 37 66 38 67
REMARK SMILES IDX 40 68 42 69 39 70 61 71 62 72 67 73 63 74 64 75 66 76 68 77
REMARK SMILES IDX 65 78 49 79 50 80 55 81 51 82 52 83 54 84 56 85 53 86
REMARK H PARENT 19 6 14 25 23 29 73 48 47 59
REMARK Flexibility Score: inf
ROOT
ATOM      1  C   UNL A   1      37.328  23.433  25.435  1.00  0.00     0.042 C 
ENDROOT
BRANCH   1   2
ATOM      2  C   UNL A   1      36.937  21.971  25.653  1.00  0.00     0.117 C 
BRANCH   2   3
ATOM      3  N   UNL A   1      35.713  21.809  26.423  1.00  0.00    -0.354 N 
ATOM      4  C   UNL A   1      34.530  21.209  26.091  1.00  0.00     0.242 C 
ATOM      5  O   UNL A   1      33.642  21.167  26.946  1.00  0.00    -0.273 OA
ATOM      6  H   UNL A   1      35.742  22.193  27.330  1.00  0.00     0.163 HD
BRANCH   4   7
ATOM      7  C   UNL A   1      34.345  20.578  24.693  1.00  0.00     0.177 C 
ATOM      8  N   UNL A   1      32.954  20.713  24.220  1.00  0.00    -0.326 N 
ATOM      9  C   UNL A   1      32.247  19.439  24.308  1.00  0.00     0.152 C 
ATOM     10  C   UNL A   1      33.166  18.521  25.101  1.00  0.00     0.136 C 
ATOM     11  C   UNL A   1      34.562  19.063  24.796  1.00  0.00     0.069 C 
BRANCH   8  12
ATOM     12  C   UNL A   1      32.318  21.742  23.562  1.00  0.00     0.247 C 
ATOM     13  O   UNL A   1      32.291  21.766  22.324  1.00  0.00    -0.272 OA
BRANCH  12  14
ATOM     14  C   UNL A   1      31.654  22.908  24.316  1.00  0.00     0.186 C 
ATOM     15  C   UNL A   1      30.981  26.093  24.554  1.00  0.00     0.047 C 
ATOM     16  C   UNL A   1      31.841  25.118  25.362  1.00  0.00     0.087 C 
ATOM     17  C   UNL A   1      33.031  25.810  26.015  1.00  0.00     0.049 C 
ATOM     18  N   UNL A   1      32.449  24.112  24.541  1.00  0.00    -0.315 N 
ATOM     19  S   UNL A   1      30.761  24.176  26.501  1.00  0.00    -0.131 SA
ATOM     20  C   UNL A   1      34.207  25.539  25.069  1.00  0.00     0.103 C 
ATOM     21  C   UNL A   1      33.760  24.370  24.234  1.00  0.00     0.224 C 
ATOM     22  C   UNL A   1      31.027  22.562  25.660  1.00  0.00     0.107 C 
ATOM     23  O   UNL A   1      34.491  23.742  23.487  1.00  0.00    -0.275 OA
ENDBRANCH  12  14
ENDBRANCH   8  12
BRANCH  10  24
ATOM     24  O   UNL A   1      32.903  18.597  26.501  1.00  0.00    -0.391 OA
ATOM     25  H   UNL A   1      33.274  17.818  26.943  1.00  0.00     0.211 HD
ENDBRANCH  10  24
ENDBRANCH   4   7
ENDBRANCH   2   3
ENDBRANCH   1   2
BRANCH   1  26
ATOM     26  C   UNL A   1      38.267  24.030  26.489  1.00  0.00     0.118 C 
BRANCH  26  27
ATOM     27  N   UNL A   1      39.670  23.888  26.126  1.00  0.00    -0.352 N 
ATOM     28  C   UNL A   1      40.770  24.621  26.502  1.00  0.00     0.251 C 
ATOM     29  H   UNL A   1      39.862  23.142  25.512  1.00  0.00     0.163 HD
ATOM     30  O   UNL A   1      41.834  24.426  25.917  1.00  0.00    -0.269 OA
BRANCH  28  31
ATOM     31  C   UNL A   1      40.718  25.646  27.578  1.00  0.00     0.039 A 
ATOM     32  C   UNL A   1      39.685  25.561  28.522  1.00  0.00     0.014 A 
ATOM     33  C   UNL A   1      41.591  26.737  27.622  1.00  0.00     0.014 A 
ATOM     34  C   UNL A   1      39.551  26.535  29.519  1.00  0.00     0.010 A 
ATOM     35  C   UNL A   1      41.483  27.688  28.646  1.00  0.00     0.010 A 
ATOM     36  C   UNL A   1      40.459  27.602  29.602  1.00  0.00    -0.014 A 
BRANCH  36  37
ATOM     37  C   UNL A   1      40.335  28.622  30.682  1.00  0.00     0.031 A 
ATOM     38  C   UNL A   1      41.205  28.558  31.910  1.00  0.00     0.074 A 
ATOM     39  C   UNL A   1      39.419  29.604  30.575  1.00  0.00     0.049 A 
ATOM     40  N   UNL A   1      41.214  29.344  32.959  1.00  0.00    -0.248 NA
ATOM     41  C   UNL A   1      42.181  27.461  31.974  1.00  0.00     0.031 C 
ATOM     42  C   UNL A   1      38.489  29.774  29.459  1.00  0.00     0.029 A 
ATOM     43  N   UNL A   1      39.117  30.644  31.422  1.00  0.00    -0.354 N 
ATOM     44  C   UNL A   1      42.189  28.835  33.808  1.00  0.00     0.074 A 
ATOM     45  C   UNL A   1      42.723  27.650  33.169  1.00  0.00     0.031 C 
ATOM     46  C   UNL A   1      37.727  30.857  29.684  1.00  0.00     0.029 A 
ATOM     47  C   UNL A   1      38.097  31.445  30.970  1.00  0.00     0.049 A 
ATOM     48  H   UNL A   1      39.587  30.799  32.272  1.00  0.00     0.167 HD
ATOM     49  C   UNL A   1      42.615  29.317  35.002  1.00  0.00     0.037 A 
ATOM     50  C   UNL A   1      37.517  32.525  31.526  1.00  0.00     0.037 A 
ATOM     51  C   UNL A   1      42.106  30.503  35.640  1.00  0.00     0.049 A 
ATOM     52  C   UNL A   1      38.009  33.042  32.849  1.00  0.00     0.074 A 
ATOM     53  C   UNL A   1      42.507  31.081  36.834  1.00  0.00     0.029 A 
ATOM     54  N   UNL A   1      41.086  31.295  35.138  1.00  0.00    -0.354 N 
ATOM     55  N   UNL A   1      38.962  32.574  33.615  1.00  0.00    -0.248 NA
ATOM     56  C   UNL A   1      37.348  34.245  33.379  1.00  0.00     0.031 C 
ATOM     57  C   UNL A   1      41.710  32.207  37.068  1.00  0.00     0.029 A 
ATOM     58  C   UNL A   1      40.836  32.349  36.003  1.00  0.00     0.049 A 
ATOM     59  H   UNL A   1      40.608  31.133  34.293  1.00  0.00     0.167 HD
ATOM     60  C   UNL A   1      39.028  33.432  34.705  1.00  0.00     0.074 A 
ATOM     61  C   UNL A   1      38.031  34.459  34.495  1.00  0.00     0.031 C 
ATOM     62  C   UNL A   1      39.844  33.369  35.786  1.00  0.00     0.037 A 
BRANCH  49  63
ATOM     63  C   UNL A   1      43.705  28.558  35.701  1.00  0.00     0.057 A 
ATOM     64  C   UNL A   1      45.056  28.858  35.492  1.00  0.00     0.134 A 
ATOM     65  C   UNL A   1      43.400  27.551  36.627  1.00  0.00     0.134 A 
ATOM     66  F   UNL A   1      45.414  29.805  34.612  1.00  0.00    -0.206 F 
ATOM     67  C   UNL A   1      46.068  28.169  36.163  1.00  0.00     0.040 A 
ATOM     68  C   UNL A   1      44.402  26.872  37.321  1.00  0.00     0.040 A 
ATOM     69  F   UNL A   1      42.125  27.223  36.881  1.00  0.00    -0.206 F 
ATOM     70  C   UNL A   1      45.741  27.176  37.085  1.00  0.00     0.006 A 
ENDBRANCH  49  63
BRANCH  50  71
ATOM     71  C   UNL A   1      36.405  33.211  30.821  1.00  0.00     0.057 A 
ATOM     72  C   UNL A   1      35.084  33.085  31.263  1.00  0.00     0.134 A 
ATOM     73  C   UNL A   1      36.638  33.994  29.685  1.00  0.00     0.134 A 
ATOM     74  F   UNL A   1      34.799  32.329  32.333  1.00  0.00    -0.206 F 
ATOM     75  C   UNL A   1      34.028  33.704  30.592  1.00  0.00     0.040 A 
ATOM     76  C   UNL A   1      35.595  34.636  29.017  1.00  0.00     0.040 A 
ATOM     77  F   UNL A   1      37.884  34.156  29.217  1.00  0.00    -0.206 F 
ATOM     78  C   UNL A   1      34.284  34.486  29.466  1.00  0.00     0.006 A 
ENDBRANCH  50  71
BRANCH  62  79
ATOM     79  C   UNL A   1      39.708  34.456  36.810  1.00  0.00     0.057 A 
ATOM     80  C   UNL A   1      38.927  34.289  37.960  1.00  0.00     0.134 A 
ATOM     81  C   UNL A   1      40.388  35.671  36.660  1.00  0.00     0.134 A 
ATOM     82  F   UNL A   1      38.239  33.154  38.156  1.00  0.00    -0.206 F 
ATOM     83  C   UNL A   1      38.811  35.301  38.915  1.00  0.00     0.040 A 
ATOM     84  C   UNL A   1      40.297  36.682  37.617  1.00  0.00     0.040 A 
ATOM     85  F   UNL A   1      41.158  35.892  35.583  1.00  0.00    -0.206 F 
ATOM     86  C   UNL A   1      39.502  36.500  38.747  1.00  0.00     0.006 A 
ENDBRANCH  62  79
ENDBRANCH  36  37
ENDBRANCH  28  31
ENDBRANCH  26  27
ENDBRANCH   1  26
TORSDOF 13
ENDMDL
MODEL 3
REMARK VINA RESULT:     -12.3      5.556     10.451
REMARK SMILES C[C@]12CCC(=O)N1[C@@H](C(=O)N1C[C@H](O)C[C@@H]1C(=O)NCCCNC(=O)c1ccc(-c3c4nc(c(-c5c(F)cccc5F)c5ccc([nH]5)c(-c5c(F)cccc5F)c5nc(c(-c6c(F)cccc6F)c6ccc3[nH]6)C=C5)C=C4)cc1)CS2
REMARK SMILES IDX 21 1 20 2 19 3 17 4 18 5 16 7 11 8 12 9 13 10 15 11 9 12
REMARK SMILES IDX 10 13 8 14 1 15 2 16 3 17 7 18 81 19 4 20 5 21 80 22 6 23
REMARK SMILES IDX 14 24 22 26 23 27 24 28 25 30 26 31 27 32 79 33 28 34 78 35
REMARK SMILES IDX 29 36 30 37 31 38 72 39 32 40 77 41 71 42 73 43 33 44 76 45
REMARK SMILES IDX 70 46 69 47 34 49 60 50 43 51 59 52 44 53 47 54 58 55 74 56
REMARK SMILES IDX 45 57 46 58 57 60 75 61 48 62 35 63 36 64 41 65 37 66 38 67
REMARK SMILES IDX 40 68 42 69 39 70 61 71 62 72 67 73 63 74 64 75 66 76 68 77
REMARK SMILES IDX 65 78 49 79 50 80 55 81 51 82 52 83 54 84 56 85 53 86
REMARK H PARENT 19 6 14 25 23 29 73 48 47 59
REMARK Flexibility Score: inf
ROOT
ATOM      1  C   UNL A   1      34.391  29.621  27.244  1.00  0.00     0.042 C 
ENDROOT
BRANCH   1   2
ATOM      2  C   UNL A   1      33.273  30.042  26.290  1.00  0.00     0.117 C 
BRANCH   2   3
ATOM      3  N   UNL A   1      33.427  29.504  24.947  1.00  0.00    -0.354 N 
ATOM      4  C   UNL A   1      32.493  29.006  24.080  1.00  0.00     0.242 C 
ATOM      5  O   UNL A   1      32.875  28.640  22.965  1.00  0.00    -0.273 OA
ATOM      6  H   UNL A   1      34.352  29.497  24.608  1.00  0.00     0.163 HD
BRANCH   4   7
ATOM      7  C   UNL A   1      31.006  28.946  24.491  1.00  0.00     0.177 C 
ATOM      8  N   UNL A   1      30.304  27.834  23.820  1.00  0.00    -0.326 N 
ATOM      9  C   UNL A   1      29.443  28.331  22.751  1.00  0.00     0.152 C 
ATOM     10  C   UNL A   1      29.808  29.800  22.587  1.00  0.00     0.136 C 
ATOM     11  C   UNL A   1      30.294  30.204  23.978  1.00  0.00     0.069 C 
BRANCH   8  12
ATOM     12  C   UNL A   1      30.190  26.503  24.154  1.00  0.00     0.247 C 
ATOM     13  O   UNL A   1      29.156  25.881  23.878  1.00  0.00    -0.272 OA
BRANCH  12  14
ATOM     14  C   UNL A   1      31.304  25.748  24.901  1.00  0.00     0.186 C 
ATOM     15  C   UNL A   1      34.472  25.082  25.311  1.00  0.00     0.047 C 
ATOM     16  C   UNL A   1      33.263  24.276  24.830  1.00  0.00     0.087 C 
ATOM     17  C   UNL A   1      33.657  23.195  23.830  1.00  0.00     0.049 C 
ATOM     18  N   UNL A   1      32.325  25.078  24.101  1.00  0.00    -0.315 N 
ATOM     19  S   UNL A   1      32.319  23.691  26.284  1.00  0.00    -0.131 SA
ATOM     20  C   UNL A   1      33.373  23.812  22.456  1.00  0.00     0.103 C 
ATOM     21  C   UNL A   1      32.433  24.953  22.740  1.00  0.00     0.224 C 
ATOM     22  C   UNL A   1      30.841  24.727  25.931  1.00  0.00     0.107 C 
ATOM     23  O   UNL A   1      31.833  25.577  21.880  1.00  0.00    -0.275 OA
ENDBRANCH  12  14
ENDBRANCH   8  12
BRANCH  10  24
ATOM     24  O   UNL A   1      30.851  29.977  21.631  1.00  0.00    -0.391 OA
ATOM     25  H   UNL A   1      31.412  29.185  21.614  1.00  0.00     0.211 HD
ENDBRANCH  10  24
ENDBRANCH   4   7
ENDBRANCH   2   3
ENDBRANCH   1   2
BRANCH   1  26
ATOM     26  C   UNL A   1      35.230  30.764  27.826  1.00  0.00     0.118 C 
BRANCH  26  27
ATOM     27  N   UNL A   1      35.252  30.751  29.281  1.00  0.00    -0.352 N 
ATOM     28  C   UNL A   1      36.199  30.277  30.157  1.00  0.00     0.251 C 
ATOM     29  H   UNL A   1      34.459  31.149  29.708  1.00  0.00     0.163 HD
ATOM     30  O   UNL A   1      35.913  30.207  31.351  1.00  0.00    -0.269 OA
BRANCH  28  31
ATOM     31  C   UNL A   1      37.549  29.835  29.714  1.00  0.00     0.039 A 
ATOM     32  C   UNL A   1      38.476  29.458  30.696  1.00  0.00     0.014 A 
ATOM     33  C   UNL A   1      37.955  29.881  28.377  1.00  0.00     0.014 A 
ATOM     34  C   UNL A   1      39.780  29.095  30.340  1.00  0.00     0.010 A 
ATOM     35  C   UNL A   1      39.248  29.475  28.017  1.00  0.00     0.010 A 
ATOM     36  C   UNL A   1      40.177  29.084  28.994  1.00  0.00    -0.014 A 
BRANCH  36  37
ATOM     37  C   UNL A   1      41.556  28.668  28.612  1.00  0.00     0.031 A 
ATOM     38  C   UNL A   1      41.854  27.243  28.225  1.00  0.00     0.074 A 
ATOM     39  C   UNL A   1      42.558  29.568  28.632  1.00  0.00     0.049 A 
ATOM     40  N   UNL A   1      43.000  26.699  27.891  1.00  0.00    -0.248 NA
ATOM     41  C   UNL A   1      40.723  26.305  28.227  1.00  0.00     0.031 C 
ATOM     42  C   UNL A   1      42.424  30.974  29.014  1.00  0.00     0.029 A 
ATOM     43  N   UNL A   1      43.892  29.432  28.328  1.00  0.00    -0.354 N 
ATOM     44  C   UNL A   1      42.729  25.358  27.649  1.00  0.00     0.074 A 
ATOM     45  C   UNL A   1      41.319  25.162  27.913  1.00  0.00     0.031 C 
ATOM     46  C   UNL A   1      43.622  31.572  28.914  1.00  0.00     0.029 A 
ATOM     47  C   UNL A   1      44.614  30.589  28.484  1.00  0.00     0.049 A 
ATOM     48  H   UNL A   1      44.292  28.584  28.029  1.00  0.00     0.167 HD
ATOM     49  C   UNL A   1      43.571  24.381  27.231  1.00  0.00     0.037 A 
ATOM     50  C   UNL A   1      45.926  30.836  28.307  1.00  0.00     0.037 A 
ATOM     51  C   UNL A   1      44.971  24.566  26.948  1.00  0.00     0.049 A 
ATOM     52  C   UNL A   1      46.838  29.737  27.840  1.00  0.00     0.074 A 
ATOM     53  C   UNL A   1      45.888  23.635  26.485  1.00  0.00     0.029 A 
ATOM     54  N   UNL A   1      45.657  25.759  27.100  1.00  0.00    -0.354 N 
ATOM     55  N   UNL A   1      46.556  28.486  27.573  1.00  0.00    -0.248 NA
ATOM     56  C   UNL A   1      48.253  30.088  27.640  1.00  0.00     0.031 C 
ATOM     57  C   UNL A   1      47.136  24.261  26.383  1.00  0.00     0.029 A 
ATOM     58  C   UNL A   1      46.988  25.588  26.751  1.00  0.00     0.049 A 
ATOM     59  H   UNL A   1      45.260  26.604  27.410  1.00  0.00     0.167 HD
ATOM     60  C   UNL A   1      47.748  27.907  27.158  1.00  0.00     0.074 A 
ATOM     61  C   UNL A   1      48.755  28.946  27.191  1.00  0.00     0.031 C 
ATOM     62  C   UNL A   1      47.984  26.626  26.784  1.00  0.00     0.037 A 
BRANCH  49  63
ATOM     63  C   UNL A   1      42.992  23.009  27.040  1.00  0.00     0.057 A 
ATOM     64  C   UNL A   1      42.689  22.184  28.130  1.00  0.00     0.134 A 
ATOM     65  C   UNL A   1      42.691  22.529  25.759  1.00  0.00     0.134 A 
ATOM     66  F   UNL A   1      42.962  22.583  29.381  1.00  0.00    -0.206 F 
ATOM     67  C   UNL A   1      42.127  20.919  27.952  1.00  0.00     0.040 A 
ATOM     68  C   UNL A   1      42.107  21.275  25.570  1.00  0.00     0.040 A 
ATOM     69  F   UNL A   1      42.946  23.274  24.674  1.00  0.00    -0.206 F 
ATOM     70  C   UNL A   1      41.829  20.464  26.669  1.00  0.00     0.006 A 
ENDBRANCH  49  63
BRANCH  50  71
ATOM     71  C   UNL A   1      46.462  32.196  28.561  1.00  0.00     0.057 A 
ATOM     72  C   UNL A   1      46.923  32.566  29.829  1.00  0.00     0.134 A 
ATOM     73  C   UNL A   1      46.513  33.158  27.546  1.00  0.00     0.134 A 
ATOM     74  F   UNL A   1      46.877  31.692  30.845  1.00  0.00    -0.206 F 
ATOM     75  C   UNL A   1      47.404  33.850  30.084  1.00  0.00     0.040 A 
ATOM     76  C   UNL A   1      47.012  34.440  27.781  1.00  0.00     0.040 A 
ATOM     77  F   UNL A   1      46.090  32.861  26.309  1.00  0.00    -0.206 F 
ATOM     78  C   UNL A   1      47.452  34.791  29.056  1.00  0.00     0.006 A 
ENDBRANCH  50  71
BRANCH  62  79
ATOM     79  C   UNL A   1      49.380  26.283  26.357  1.00  0.00     0.057 A 
ATOM     80  C   UNL A   1      49.862  26.610  25.084  1.00  0.00     0.134 A 
ATOM     81  C   UNL A   1      50.261  25.645  27.239  1.00  0.00     0.134 A 
ATOM     82  F   UNL A   1      49.063  27.209  24.188  1.00  0.00    -0.206 F 
ATOM     83  C   UNL A   1      51.166  26.296  24.696  1.00  0.00     0.040 A 
ATOM     84  C   UNL A   1      51.573  25.345  26.870  1.00  0.00     0.040 A 
ATOM     85  F   UNL A   1      49.864  25.310  28.476  1.00  0.00    -0.206 F 
ATOM     86  C   UNL A   1      52.027  25.667  25.592  1.00  0.00     0.006 A 
ENDBRANCH  62  79
ENDBRANCH  36  37
ENDBRANCH  28  31
ENDBRANCH  26  27
ENDBRANCH   1  26
TORSDOF 13
ENDMDL
