MODEL 1
REMARK VINA RESULT:     -12.6      0.000      0.000
REMARK SMILES CCc1ccc(S(=O)(=O)c2nnn(-c3ccc(C(=O)NCCCNC(=O)c4ccc(-c5c6nc(c(-c7c(F)cccc7F)c7ccc([nH]7)c(-c7c(F)cccc7F)c7nc(c(-c8c(F)cccc8F)c8ccc5[nH]8)C=C7)C=C6)cc4)cc3)c2C)cc1
REMARK SMILES IDX 21 1 20 2 18 3 19 4 17 6 14 7 15 8 82 9 16 10 81 11 13 12
REMARK SMILES IDX 10 13 11 14 83 15 12 16 84 17 7 18 8 19 9 20 6 21 3 22 4 23
REMARK SMILES IDX 86 24 5 25 85 26 2 27 1 28 22 29 23 30 24 31 25 32 26 34
REMARK SMILES IDX 27 35 28 36 80 37 29 38 79 39 30 40 31 41 32 42 73 43 33 44
REMARK SMILES IDX 78 45 72 46 74 47 34 48 77 49 71 50 70 51 35 53 61 54 44 55
REMARK SMILES IDX 60 56 45 57 48 58 59 59 75 60 46 61 47 62 58 64 76 65 49 66
REMARK SMILES IDX 36 67 37 68 42 69 38 70 39 71 41 72 43 73 40 74 62 75 63 76
REMARK SMILES IDX 68 77 64 78 65 79 67 80 69 81 66 82 50 83 51 84 56 85 52 86
REMARK SMILES IDX 53 87 55 88 57 89 54 90
REMARK H PARENT 20 5 24 33 74 52 48 63
REMARK Flexibility Score: inf
ROOT
ATOM      1  C   UNL A   1      35.939  20.664  24.659  1.00  0.00     0.118 C 
ENDROOT
BRANCH   1   2
ATOM      2  N   UNL A   1      34.928  19.681  25.033  1.00  0.00    -0.352 N 
ATOM      3  C   UNL A   1      33.644  19.809  25.513  1.00  0.00     0.251 C 
ATOM      4  O   UNL A   1      32.973  18.786  25.648  1.00  0.00    -0.269 OA
ATOM      5  H   UNL A   1      35.219  18.747  24.921  1.00  0.00     0.163 HD
BRANCH   3   6
ATOM      6  C   UNL A   1      33.019  21.130  25.811  1.00  0.00     0.039 A 
ATOM      7  C   UNL A   1      32.036  23.723  26.122  1.00  0.00     0.067 A 
ATOM      8  C   UNL A   1      31.572  22.947  25.060  1.00  0.00     0.029 A 
ATOM      9  C   UNL A   1      32.871  23.177  27.093  1.00  0.00     0.029 A 
ATOM     10  C   UNL A   1      32.094  21.659  24.891  1.00  0.00     0.016 A 
ATOM     11  C   UNL A   1      33.314  21.871  26.955  1.00  0.00     0.016 A 
BRANCH   7  12
ATOM     12  N   UNL A   1      31.741  25.092  26.200  1.00  0.00    -0.216 N 
ATOM     13  C   UNL A   1      31.839  27.257  26.160  1.00  0.00     0.205 A 
ATOM     14  N   UNL A   1      30.660  26.880  26.749  1.00  0.00    -0.117 NA
ATOM     15  C   UNL A   1      32.519  26.133  25.724  1.00  0.00     0.081 A 
ATOM     16  N   UNL A   1      30.575  25.557  26.685  1.00  0.00    -0.061 NA
ATOM     17  C   UNL A   1      33.666  25.960  24.794  1.00  0.00     0.070 C 
BRANCH  13  18
ATOM     18  S   UNL A   1      32.204  28.908  25.800  1.00  0.00     0.227 S 
ATOM     19  O   UNL A   1      33.546  28.858  25.239  1.00  0.00    -0.217 OA
ATOM     20  O   UNL A   1      31.885  29.662  26.989  1.00  0.00    -0.217 OA
BRANCH  18  21
ATOM     21  C   UNL A   1      31.096  29.400  24.506  1.00  0.00     0.073 A 
ATOM     22  C   UNL A   1      29.260  30.045  22.485  1.00  0.00    -0.048 A 
ATOM     23  C   UNL A   1      30.059  28.893  22.388  1.00  0.00     0.005 A 
ATOM     24  C   UNL A   1      29.387  30.857  23.618  1.00  0.00     0.005 A 
ATOM     25  C   UNL A   1      30.970  28.565  23.395  1.00  0.00     0.021 A 
ATOM     26  C   UNL A   1      30.316  30.555  24.610  1.00  0.00     0.021 A 
BRANCH  22  27
ATOM     27  C   UNL A   1      28.247  30.345  21.404  1.00  0.00     0.032 C 
ATOM     28  C   UNL A   1      28.140  31.816  21.015  1.00  0.00     0.009 C 
ENDBRANCH  22  27
ENDBRANCH  18  21
ENDBRANCH  13  18
ENDBRANCH   7  12
ENDBRANCH   3   6
ENDBRANCH   1   2
BRANCH   1  29
ATOM     29  C   UNL A   1      37.031  20.812  25.731  1.00  0.00     0.042 C 
BRANCH  29  30
ATOM     30  C   UNL A   1      38.422  20.861  25.134  1.00  0.00     0.118 C 
BRANCH  30  31
ATOM     31  N   UNL A   1      39.218  19.672  25.458  1.00  0.00    -0.352 N 
ATOM     32  C   UNL A   1      40.536  19.611  25.875  1.00  0.00     0.251 C 
ATOM     33  H   UNL A   1      38.755  18.807  25.366  1.00  0.00     0.163 HD
ATOM     34  O   UNL A   1      41.186  18.580  25.766  1.00  0.00    -0.269 OA
BRANCH  32  35
ATOM     35  C   UNL A   1      41.137  20.818  26.466  1.00  0.00     0.039 A 
ATOM     36  C   UNL A   1      41.855  21.751  25.713  1.00  0.00     0.014 A 
ATOM     37  C   UNL A   1      40.912  21.022  27.821  1.00  0.00     0.014 A 
ATOM     38  C   UNL A   1      42.280  22.920  26.339  1.00  0.00     0.010 A 
ATOM     39  C   UNL A   1      41.085  22.266  28.348  1.00  0.00     0.010 A 
ATOM     40  C   UNL A   1      41.873  23.170  27.660  1.00  0.00    -0.014 A 
BRANCH  40  41
ATOM     41  C   UNL A   1      42.157  24.420  28.345  1.00  0.00     0.031 A 
ATOM     42  C   UNL A   1      41.089  25.435  28.181  1.00  0.00     0.074 A 
ATOM     43  C   UNL A   1      43.162  24.537  29.245  1.00  0.00     0.049 A 
ATOM     44  N   UNL A   1      41.148  26.526  27.495  1.00  0.00    -0.248 NA
ATOM     45  C   UNL A   1      39.738  25.114  28.675  1.00  0.00     0.031 C 
ATOM     46  C   UNL A   1      44.084  23.501  29.732  1.00  0.00     0.029 A 
ATOM     47  N   UNL A   1      43.511  25.612  30.003  1.00  0.00    -0.354 N 
ATOM     48  C   UNL A   1      39.921  27.152  27.682  1.00  0.00     0.074 A 
ATOM     49  C   UNL A   1      39.034  26.147  28.206  1.00  0.00     0.031 C 
ATOM     50  C   UNL A   1      44.713  23.933  30.850  1.00  0.00     0.029 A 
ATOM     51  C   UNL A   1      44.378  25.326  31.057  1.00  0.00     0.049 A 
ATOM     52  H   UNL A   1      43.177  26.520  29.822  1.00  0.00     0.167 HD
ATOM     53  C   UNL A   1      39.833  28.511  27.670  1.00  0.00     0.037 A 
ATOM     54  C   UNL A   1      44.767  26.186  32.034  1.00  0.00     0.037 A 
ATOM     55  C   UNL A   1      41.019  29.092  27.083  1.00  0.00     0.049 A 
ATOM     56  C   UNL A   1      44.496  27.558  31.536  1.00  0.00     0.074 A 
ATOM     57  C   UNL A   1      41.651  28.982  25.859  1.00  0.00     0.029 A 
ATOM     58  N   UNL A   1      41.960  29.606  27.943  1.00  0.00    -0.354 N 
ATOM     59  N   UNL A   1      45.138  28.100  30.538  1.00  0.00    -0.248 NA
ATOM     60  C   UNL A   1      43.184  28.120  31.817  1.00  0.00     0.031 C 
ATOM     61  C   UNL A   1      43.045  28.962  26.166  1.00  0.00     0.029 A 
ATOM     62  C   UNL A   1      43.190  29.154  27.541  1.00  0.00     0.049 A 
ATOM     63  H   UNL A   1      41.782  30.196  28.711  1.00  0.00     0.167 HD
ATOM     64  C   UNL A   1      44.156  28.741  29.797  1.00  0.00     0.074 A 
ATOM     65  C   UNL A   1      42.982  28.778  30.671  1.00  0.00     0.031 C 
ATOM     66  C   UNL A   1      44.287  28.906  28.447  1.00  0.00     0.037 A 
BRANCH  53  67
ATOM     67  C   UNL A   1      38.907  29.314  28.555  1.00  0.00     0.057 A 
ATOM     68  C   UNL A   1      39.004  29.155  29.950  1.00  0.00     0.134 A 
ATOM     69  C   UNL A   1      37.750  29.989  28.114  1.00  0.00     0.134 A 
ATOM     70  F   UNL A   1      40.056  28.531  30.501  1.00  0.00    -0.206 F 
ATOM     71  C   UNL A   1      37.982  29.544  30.825  1.00  0.00     0.040 A 
ATOM     72  C   UNL A   1      36.748  30.428  28.984  1.00  0.00     0.040 A 
ATOM     73  F   UNL A   1      37.466  30.177  26.821  1.00  0.00    -0.206 F 
ATOM     74  C   UNL A   1      36.843  30.173  30.341  1.00  0.00     0.006 A 
ENDBRANCH  53  67
BRANCH  54  75
ATOM     75  C   UNL A   1      45.054  25.914  33.464  1.00  0.00     0.057 A 
ATOM     76  C   UNL A   1      44.022  25.630  34.373  1.00  0.00     0.134 A 
ATOM     77  C   UNL A   1      46.358  25.632  33.908  1.00  0.00     0.134 A 
ATOM     78  F   UNL A   1      42.741  25.826  34.030  1.00  0.00    -0.206 F 
ATOM     79  C   UNL A   1      44.270  25.071  35.636  1.00  0.00     0.040 A 
ATOM     80  C   UNL A   1      46.619  25.076  35.166  1.00  0.00     0.040 A 
ATOM     81  F   UNL A   1      47.413  25.798  33.098  1.00  0.00    -0.206 F 
ATOM     82  C   UNL A   1      45.572  24.780  36.030  1.00  0.00     0.006 A 
ENDBRANCH  54  75
BRANCH  66  83
ATOM     83  C   UNL A   1      45.623  28.593  27.824  1.00  0.00     0.057 A 
ATOM     84  C   UNL A   1      45.970  27.352  27.264  1.00  0.00     0.134 A 
ATOM     85  C   UNL A   1      46.534  29.638  27.645  1.00  0.00     0.134 A 
ATOM     86  F   UNL A   1      45.128  26.315  27.298  1.00  0.00    -0.206 F 
ATOM     87  C   UNL A   1      47.184  27.155  26.596  1.00  0.00     0.040 A 
ATOM     88  C   UNL A   1      47.733  29.464  26.951  1.00  0.00     0.040 A 
ATOM     89  F   UNL A   1      46.248  30.867  28.103  1.00  0.00    -0.206 F 
ATOM     90  C   UNL A   1      48.067  28.217  26.431  1.00  0.00     0.006 A 
ENDBRANCH  66  83
ENDBRANCH  40  41
ENDBRANCH  32  35
ENDBRANCH  30  31
ENDBRANCH  29  30
ENDBRANCH   1  29
TORSDOF 14
ENDMDL
MODEL 2
REMARK VINA RESULT:     -12.5      2.628      6.294
REMARK SMILES CCc1ccc(S(=O)(=O)c2nnn(-c3ccc(C(=O)NCCCNC(=O)c4ccc(-c5c6nc(c(-c7c(F)cccc7F)c7ccc([nH]7)c(-c7c(F)cccc7F)c7nc(c(-c8c(F)cccc8F)c8ccc5[nH]8)C=C7)C=C6)cc4)cc3)c2C)cc1
REMARK SMILES IDX 21 1 20 2 18 3 19 4 17 6 14 7 15 8 82 9 16 10 81 11 13 12
REMARK SMILES IDX 10 13 11 14 83 15 12 16 84 17 7 18 8 19 9 20 6 21 3 22 4 23
REMARK SMILES IDX 86 24 5 25 85 26 2 27 1 28 22 29 23 30 24 31 25 32 26 34
REMARK SMILES IDX 27 35 28 36 80 37 29 38 79 39 30 40 31 41 32 42 73 43 33 44
REMARK SMILES IDX 78 45 72 46 74 47 34 48 77 49 71 50 70 51 35 53 61 54 44 55
REMARK SMILES IDX 60 56 45 57 48 58 59 59 75 60 46 61 47 62 58 64 76 65 49 66
REMARK SMILES IDX 36 67 37 68 42 69 38 70 39 71 41 72 43 73 40 74 62 75 63 76
REMARK SMILES IDX 68 77 64 78 65 79 67 80 69 81 66 82 50 83 51 84 56 85 52 86
REMARK SMILES IDX 53 87 55 88 57 89 54 90
REMARK H PARENT 20 5 24 33 74 52 48 63
REMARK Flexibility Score: inf
ROOT
ATOM      1  C   UNL A   1      37.538  21.546  25.328  1.00  0.00     0.118 C 
ENDROOT
BRANCH   1   2
ATOM      2  N   UNL A   1      36.609  20.450  25.073  1.00  0.00    -0.352 N 
ATOM      3  C   UNL A   1      35.234  20.381  25.075  1.00  0.00     0.251 C 
ATOM      4  O   UNL A   1      34.709  19.327  24.718  1.00  0.00    -0.269 OA
ATOM      5  H   UNL A   1      37.050  19.596  24.859  1.00  0.00     0.163 HD
BRANCH   3   6
ATOM      6  C   UNL A   1      34.366  21.541  25.427  1.00  0.00     0.039 A 
ATOM      7  C   UNL A   1      32.945  23.896  25.900  1.00  0.00     0.067 A 
ATOM      8  C   UNL A   1      32.799  23.253  24.671  1.00  0.00     0.029 A 
ATOM      9  C   UNL A   1      33.677  23.309  26.929  1.00  0.00     0.029 A 
ATOM     10  C   UNL A   1      33.541  22.090  24.429  1.00  0.00     0.016 A 
ATOM     11  C   UNL A   1      34.339  22.113  26.699  1.00  0.00     0.016 A 
BRANCH   7  12
ATOM     12  N   UNL A   1      32.428  25.182  26.110  1.00  0.00    -0.216 N 
ATOM     13  C   UNL A   1      32.131  27.328  26.197  1.00  0.00     0.205 A 
ATOM     14  N   UNL A   1      31.145  26.717  26.927  1.00  0.00    -0.117 NA
ATOM     15  C   UNL A   1      32.923  26.366  25.593  1.00  0.00     0.081 A 
ATOM     16  N   UNL A   1      31.288  25.404  26.791  1.00  0.00    -0.061 NA
ATOM     17  C   UNL A   1      33.923  26.444  24.495  1.00  0.00     0.070 C 
BRANCH  13  18
ATOM     18  S   UNL A   1      32.135  29.030  25.895  1.00  0.00     0.227 S 
ATOM     19  O   UNL A   1      33.464  29.289  25.358  1.00  0.00    -0.217 OA
ATOM     20  O   UNL A   1      31.648  29.656  27.100  1.00  0.00    -0.217 OA
BRANCH  18  21
ATOM     21  C   UNL A   1      30.963  29.316  24.596  1.00  0.00     0.073 A 
ATOM     22  C   UNL A   1      29.198  29.892  22.492  1.00  0.00    -0.048 A 
ATOM     23  C   UNL A   1      29.416  30.823  23.522  1.00  0.00     0.005 A 
ATOM     24  C   UNL A   1      29.892  28.676  22.529  1.00  0.00     0.005 A 
ATOM     25  C   UNL A   1      30.298  30.543  24.568  1.00  0.00     0.021 A 
ATOM     26  C   UNL A   1      30.748  28.376  23.586  1.00  0.00     0.021 A 
BRANCH  22  27
ATOM     27  C   UNL A   1      28.277  30.245  21.348  1.00  0.00     0.032 C 
ATOM     28  C   UNL A   1      28.034  31.740  21.158  1.00  0.00     0.009 C 
ENDBRANCH  22  27
ENDBRANCH  18  21
ENDBRANCH  13  18
ENDBRANCH   7  12
ENDBRANCH   3   6
ENDBRANCH   1   2
BRANCH   1  29
ATOM     29  C   UNL A   1      38.934  21.045  25.730  1.00  0.00     0.042 C 
BRANCH  29  30
ATOM     30  C   UNL A   1      39.777  22.132  26.362  1.00  0.00     0.118 C 
BRANCH  30  31
ATOM     31  N   UNL A   1      41.141  22.174  25.824  1.00  0.00    -0.352 N 
ATOM     32  C   UNL A   1      42.014  23.248  25.784  1.00  0.00     0.251 C 
ATOM     33  H   UNL A   1      41.479  21.331  25.442  1.00  0.00     0.163 HD
ATOM     34  O   UNL A   1      42.958  23.265  25.006  1.00  0.00    -0.269 OA
BRANCH  32  35
ATOM     35  C   UNL A   1      41.784  24.368  26.710  1.00  0.00     0.039 A 
ATOM     36  C   UNL A   1      42.318  24.404  28.001  1.00  0.00     0.014 A 
ATOM     37  C   UNL A   1      41.041  25.435  26.221  1.00  0.00     0.014 A 
ATOM     38  C   UNL A   1      42.145  25.560  28.757  1.00  0.00     0.010 A 
ATOM     39  C   UNL A   1      41.112  26.642  26.846  1.00  0.00     0.010 A 
ATOM     40  C   UNL A   1      41.549  26.682  28.157  1.00  0.00    -0.014 A 
BRANCH  40  41
ATOM     41  C   UNL A   1      41.449  27.969  28.825  1.00  0.00     0.031 A 
ATOM     42  C   UNL A   1      42.516  28.919  28.431  1.00  0.00     0.074 A 
ATOM     43  C   UNL A   1      40.348  28.335  29.523  1.00  0.00     0.049 A 
ATOM     44  N   UNL A   1      43.503  29.327  29.155  1.00  0.00    -0.248 NA
ATOM     45  C   UNL A   1      42.613  29.315  27.015  1.00  0.00     0.031 C 
ATOM     46  C   UNL A   1      39.089  27.598  29.707  1.00  0.00     0.029 A 
ATOM     47  N   UNL A   1      40.084  29.515  30.147  1.00  0.00    -0.354 N 
ATOM     48  C   UNL A   1      44.200  30.231  28.361  1.00  0.00     0.074 A 
ATOM     49  C   UNL A   1      43.756  30.004  27.012  1.00  0.00     0.031 C 
ATOM     50  C   UNL A   1      38.134  28.430  30.182  1.00  0.00     0.029 A 
ATOM     51  C   UNL A   1      38.748  29.701  30.503  1.00  0.00     0.049 A 
ATOM     52  H   UNL A   1      40.781  30.185  30.332  1.00  0.00     0.167 HD
ATOM     53  C   UNL A   1      44.855  31.282  28.927  1.00  0.00     0.037 A 
ATOM     54  C   UNL A   1      38.201  30.837  31.008  1.00  0.00     0.037 A 
ATOM     55  C   UNL A   1      45.021  31.072  30.348  1.00  0.00     0.049 A 
ATOM     56  C   UNL A   1      39.321  31.656  31.540  1.00  0.00     0.074 A 
ATOM     57  C   UNL A   1      45.624  30.098  31.122  1.00  0.00     0.029 A 
ATOM     58  N   UNL A   1      44.158  31.733  31.188  1.00  0.00    -0.354 N 
ATOM     59  N   UNL A   1      40.035  31.311  32.575  1.00  0.00    -0.248 NA
ATOM     60  C   UNL A   1      39.955  32.588  30.621  1.00  0.00     0.031 C 
ATOM     61  C   UNL A   1      44.740  29.907  32.225  1.00  0.00     0.029 A 
ATOM     62  C   UNL A   1      43.703  30.834  32.116  1.00  0.00     0.049 A 
ATOM     63  H   UNL A   1      43.911  32.685  31.133  1.00  0.00     0.167 HD
ATOM     64  C   UNL A   1      41.340  31.612  32.215  1.00  0.00     0.074 A 
ATOM     65  C   UNL A   1      41.222  32.461  31.028  1.00  0.00     0.031 C 
ATOM     66  C   UNL A   1      42.392  30.901  32.721  1.00  0.00     0.037 A 
BRANCH  53  67
ATOM     67  C   UNL A   1      44.956  32.658  28.309  1.00  0.00     0.057 A 
ATOM     68  C   UNL A   1      46.229  33.146  27.957  1.00  0.00     0.134 A 
ATOM     69  C   UNL A   1      43.932  33.628  28.322  1.00  0.00     0.134 A 
ATOM     70  F   UNL A   1      47.291  32.328  27.906  1.00  0.00    -0.206 F 
ATOM     71  C   UNL A   1      46.479  34.506  27.737  1.00  0.00     0.040 A 
ATOM     72  C   UNL A   1      44.162  34.980  28.053  1.00  0.00     0.040 A 
ATOM     73  F   UNL A   1      42.676  33.353  28.690  1.00  0.00    -0.206 F 
ATOM     74  C   UNL A   1      45.445  35.430  27.797  1.00  0.00     0.006 A 
ENDBRANCH  53  67
BRANCH  54  75
ATOM     75  C   UNL A   1      36.849  31.405  30.789  1.00  0.00     0.057 A 
ATOM     76  C   UNL A   1      36.005  31.713  31.866  1.00  0.00     0.134 A 
ATOM     77  C   UNL A   1      36.472  31.936  29.542  1.00  0.00     0.134 A 
ATOM     78  F   UNL A   1      36.299  31.288  33.104  1.00  0.00    -0.206 F 
ATOM     79  C   UNL A   1      34.869  32.524  31.720  1.00  0.00     0.040 A 
ATOM     80  C   UNL A   1      35.341  32.745  29.382  1.00  0.00     0.040 A 
ATOM     81  F   UNL A   1      37.242  31.765  28.458  1.00  0.00    -0.206 F 
ATOM     82  C   UNL A   1      34.543  33.055  30.476  1.00  0.00     0.006 A 
ENDBRANCH  54  75
BRANCH  66  83
ATOM     83  C   UNL A   1      42.120  29.950  33.857  1.00  0.00     0.057 A 
ATOM     84  C   UNL A   1      41.808  28.589  33.699  1.00  0.00     0.134 A 
ATOM     85  C   UNL A   1      42.337  30.396  35.164  1.00  0.00     0.134 A 
ATOM     86  F   UNL A   1      41.674  28.043  32.486  1.00  0.00    -0.206 F 
ATOM     87  C   UNL A   1      41.680  27.727  34.794  1.00  0.00     0.040 A 
ATOM     88  C   UNL A   1      42.246  29.539  36.263  1.00  0.00     0.040 A 
ATOM     89  F   UNL A   1      42.693  31.670  35.391  1.00  0.00    -0.206 F 
ATOM     90  C   UNL A   1      41.907  28.201  36.082  1.00  0.00     0.006 A 
ENDBRANCH  66  83
ENDBRANCH  40  41
ENDBRANCH  32  35
ENDBRANCH  30  31
ENDBRANCH  29  30
ENDBRANCH   1  29
TORSDOF 14
ENDMDL
MODEL 3
REMARK VINA RESULT:     -12.4      3.431      7.206
REMARK SMILES CCc1ccc(S(=O)(=O)c2nnn(-c3ccc(C(=O)NCCCNC(=O)c4ccc(-c5c6nc(c(-c7c(F)cccc7F)c7ccc([nH]7)c(-c7c(F)cccc7F)c7nc(c(-c8c(F)cccc8F)c8ccc5[nH]8)C=C7)C=C6)cc4)cc3)c2C)cc1
REMARK SMILES IDX 21 1 20 2 18 3 19 4 17 6 14 7 15 8 82 9 16 10 81 11 13 12
REMARK SMILES IDX 10 13 11 14 83 15 12 16 84 17 7 18 8 19 9 20 6 21 3 22 4 23
REMARK SMILES IDX 86 24 5 25 85 26 2 27 1 28 22 29 23 30 24 31 25 32 26 34
REMARK SMILES IDX 27 35 28 36 80 37 29 38 79 39 30 40 31 41 32 42 73 43 33 44
REMARK SMILES IDX 78 45 72 46 74 47 34 48 77 49 71 50 70 51 35 53 61 54 44 55
REMARK SMILES IDX 60 56 45 57 48 58 59 59 75 60 46 61 47 62 58 64 76 65 49 66
REMARK SMILES IDX 36 67 37 68 42 69 38 70 39 71 41 72 43 73 40 74 62 75 63 76
REMARK SMILES IDX 68 77 64 78 65 79 67 80 69 81 66 82 50 83 51 84 56 85 52 86
REMARK SMILES IDX 53 87 55 88 57 89 54 90
REMARK H PARENT 20 5 24 33 74 52 48 63
REMARK Flexibility Score: inf
ROOT
ATOM      1  C   UNL A   1      38.788  22.223  26.079  1.00  0.00     0.118 C 
ENDROOT
BRANCH   1   2
ATOM      2  N   UNL A   1      38.474  20.860  25.664  1.00  0.00    -0.352 N 
ATOM      3  C   UNL A   1      37.403  20.321  24.987  1.00  0.00     0.251 C 
ATOM      4  O   UNL A   1      37.454  19.130  24.680  1.00  0.00    -0.269 OA
ATOM      5  H   UNL A   1      39.159  20.199  25.917  1.00  0.00     0.163 HD
BRANCH   3   6
ATOM      6  C   UNL A   1      36.226  21.131  24.558  1.00  0.00     0.039 A 
ATOM      7  C   UNL A   1      34.117  22.865  23.986  1.00  0.00     0.067 A 
ATOM      8  C   UNL A   1      35.394  23.178  23.521  1.00  0.00     0.029 A 
ATOM      9  C   UNL A   1      33.862  21.644  24.607  1.00  0.00     0.029 A 
ATOM     10  C   UNL A   1      36.454  22.319  23.840  1.00  0.00     0.016 A 
ATOM     11  C   UNL A   1      34.910  20.768  24.842  1.00  0.00     0.016 A 
BRANCH   7  12
ATOM     12  N   UNL A   1      33.071  23.798  23.913  1.00  0.00    -0.216 N 
ATOM     13  C   UNL A   1      31.431  25.138  24.369  1.00  0.00     0.205 A 
ATOM     14  N   UNL A   1      31.539  25.023  23.008  1.00  0.00    -0.117 NA
ATOM     15  C   UNL A   1      32.451  24.427  24.977  1.00  0.00     0.081 A 
ATOM     16  N   UNL A   1      32.602  24.272  22.743  1.00  0.00    -0.061 NA
ATOM     17  C   UNL A   1      32.981  24.435  26.366  1.00  0.00     0.070 C 
BRANCH  13  18
ATOM     18  S   UNL A   1      30.339  26.252  25.115  1.00  0.00     0.227 S 
ATOM     19  O   UNL A   1      29.847  25.533  26.282  1.00  0.00    -0.217 OA
ATOM     20  O   UNL A   1      29.466  26.727  24.069  1.00  0.00    -0.217 OA
BRANCH  18  21
ATOM     21  C   UNL A   1      31.320  27.611  25.694  1.00  0.00     0.073 A 
ATOM     22  C   UNL A   1      32.973  29.656  26.673  1.00  0.00    -0.048 A 
ATOM     23  C   UNL A   1      32.331  28.768  27.553  1.00  0.00     0.005 A 
ATOM     24  C   UNL A   1      32.784  29.489  25.295  1.00  0.00     0.005 A 
ATOM     25  C   UNL A   1      31.512  27.745  27.070  1.00  0.00     0.021 A 
ATOM     26  C   UNL A   1      31.942  28.493  24.807  1.00  0.00     0.021 A 
BRANCH  22  27
ATOM     27  C   UNL A   1      33.893  30.720  27.224  1.00  0.00     0.032 C 
ATOM     28  C   UNL A   1      35.193  30.195  27.827  1.00  0.00     0.009 C 
ENDBRANCH  22  27
ENDBRANCH  18  21
ENDBRANCH  13  18
ENDBRANCH   7  12
ENDBRANCH   3   6
ENDBRANCH   1   2
BRANCH   1  29
ATOM     29  C   UNL A   1      40.081  22.296  26.907  1.00  0.00     0.042 C 
BRANCH  29  30
ATOM     30  C   UNL A   1      40.795  23.622  26.744  1.00  0.00     0.118 C 
BRANCH  30  31
ATOM     31  N   UNL A   1      42.064  23.494  26.019  1.00  0.00    -0.352 N 
ATOM     32  C   UNL A   1      42.882  24.503  25.541  1.00  0.00     0.251 C 
ATOM     33  H   UNL A   1      42.372  22.574  25.850  1.00  0.00     0.163 HD
ATOM     34  O   UNL A   1      43.702  24.286  24.658  1.00  0.00    -0.269 OA
BRANCH  32  35
ATOM     35  C   UNL A   1      42.750  25.846  26.128  1.00  0.00     0.039 A 
ATOM     36  C   UNL A   1      42.032  26.874  25.511  1.00  0.00     0.014 A 
ATOM     37  C   UNL A   1      43.336  26.038  27.373  1.00  0.00     0.014 A 
ATOM     38  C   UNL A   1      41.864  28.071  26.203  1.00  0.00     0.010 A 
ATOM     39  C   UNL A   1      42.941  27.089  28.144  1.00  0.00     0.010 A 
ATOM     40  C   UNL A   1      42.314  28.158  27.531  1.00  0.00    -0.014 A 
BRANCH  40  41
ATOM     41  C   UNL A   1      42.062  29.318  28.370  1.00  0.00     0.031 A 
ATOM     42  C   UNL A   1      43.122  30.350  28.277  1.00  0.00     0.074 A 
ATOM     43  C   UNL A   1      40.863  29.534  28.960  1.00  0.00     0.049 A 
ATOM     44  N   UNL A   1      43.984  30.666  29.183  1.00  0.00    -0.248 NA
ATOM     45  C   UNL A   1      43.381  30.970  26.965  1.00  0.00     0.031 C 
ATOM     46  C   UNL A   1      39.630  28.740  28.854  1.00  0.00     0.029 A 
ATOM     47  N   UNL A   1      40.460  30.590  29.717  1.00  0.00    -0.354 N 
ATOM     48  C   UNL A   1      44.731  31.706  28.641  1.00  0.00     0.074 A 
ATOM     49  C   UNL A   1      44.478  31.685  27.225  1.00  0.00     0.031 C 
ATOM     50  C   UNL A   1      38.580  29.456  29.317  1.00  0.00     0.029 A 
ATOM     51  C   UNL A   1      39.082  30.677  29.912  1.00  0.00     0.049 A 
ATOM     52  H   UNL A   1      41.092  31.243  30.096  1.00  0.00     0.167 HD
ATOM     53  C   UNL A   1      45.253  32.672  29.447  1.00  0.00     0.037 A 
ATOM     54  C   UNL A   1      38.416  31.700  30.507  1.00  0.00     0.037 A 
ATOM     55  C   UNL A   1      45.243  32.242  30.827  1.00  0.00     0.049 A 
ATOM     56  C   UNL A   1      39.414  32.457  31.306  1.00  0.00     0.074 A 
ATOM     57  C   UNL A   1      45.790  31.176  31.516  1.00  0.00     0.029 A 
ATOM     58  N   UNL A   1      44.246  32.734  31.634  1.00  0.00    -0.354 N 
ATOM     59  N   UNL A   1      40.004  31.972  32.363  1.00  0.00    -0.248 NA
ATOM     60  C   UNL A   1      40.114  33.543  30.638  1.00  0.00     0.031 C 
ATOM     61  C   UNL A   1      44.781  30.784  32.446  1.00  0.00     0.029 A 
ATOM     62  C   UNL A   1      43.720  31.685  32.341  1.00  0.00     0.049 A 
ATOM     63  H   UNL A   1      43.960  33.675  31.693  1.00  0.00     0.167 HD
ATOM     64  C   UNL A   1      41.328  32.366  32.236  1.00  0.00     0.074 A 
ATOM     65  C   UNL A   1      41.322  33.390  31.189  1.00  0.00     0.031 C 
ATOM     66  C   UNL A   1      42.340  31.615  32.764  1.00  0.00     0.037 A 
BRANCH  53  67
ATOM     67  C   UNL A   1      45.362  34.132  29.069  1.00  0.00     0.057 A 
ATOM     68  C   UNL A   1      46.579  34.798  29.305  1.00  0.00     0.134 A 
ATOM     69  C   UNL A   1      44.271  34.976  28.776  1.00  0.00     0.134 A 
ATOM     70  F   UNL A   1      47.696  34.113  29.595  1.00  0.00    -0.206 F 
ATOM     71  C   UNL A   1      46.677  36.195  29.348  1.00  0.00     0.040 A 
ATOM     72  C   UNL A   1      44.370  36.370  28.765  1.00  0.00     0.040 A 
ATOM     73  F   UNL A   1      43.030  34.518  28.582  1.00  0.00    -0.206 F 
ATOM     74  C   UNL A   1      45.566  36.985  29.088  1.00  0.00     0.006 A 
ENDBRANCH  53  67
BRANCH  54  75
ATOM     75  C   UNL A   1      37.077  32.256  30.196  1.00  0.00     0.057 A 
ATOM     76  C   UNL A   1      35.985  32.047  31.052  1.00  0.00     0.134 A 
ATOM     77  C   UNL A   1      36.906  33.248  29.214  1.00  0.00     0.134 A 
ATOM     78  F   UNL A   1      36.062  31.151  32.047  1.00  0.00    -0.206 F 
ATOM     79  C   UNL A   1      34.805  32.800  30.958  1.00  0.00     0.040 A 
ATOM     80  C   UNL A   1      35.733  34.005  29.107  1.00  0.00     0.040 A 
ATOM     81  F   UNL A   1      37.908  33.580  28.387  1.00  0.00    -0.206 F 
ATOM     82  C   UNL A   1      34.682  33.793  29.991  1.00  0.00     0.006 A 
ENDBRANCH  54  75
BRANCH  66  83
ATOM     83  C   UNL A   1      41.972  30.486  33.691  1.00  0.00     0.057 A 
ATOM     84  C   UNL A   1      41.739  29.163  33.282  1.00  0.00     0.134 A 
ATOM     85  C   UNL A   1      42.009  30.719  35.069  1.00  0.00     0.134 A 
ATOM     86  F   UNL A   1      41.777  28.817  31.991  1.00  0.00    -0.206 F 
ATOM     87  C   UNL A   1      41.514  28.132  34.202  1.00  0.00     0.040 A 
ATOM     88  C   UNL A   1      41.820  29.693  35.999  1.00  0.00     0.040 A 
ATOM     89  F   UNL A   1      42.281  31.947  35.538  1.00  0.00    -0.206 F 
ATOM     90  C   UNL A   1      41.563  28.396  35.567  1.00  0.00     0.006 A 
ENDBRANCH  66  83
ENDBRANCH  40  41
ENDBRANCH  32  35
ENDBRANCH  30  31
ENDBRANCH  29  30
ENDBRANCH   1  29
TORSDOF 14
ENDMDL
