MODEL 1
REMARK VINA RESULT:     -13.0      0.000      0.000
REMARK SMILES O=C(Cn1nc(-c2ccc(Br)cc2)ccc1=O)N[C@H](C(=O)NCCCNC(=O)c1ccc(-c2c3nc(c(-c4c(F)cccc4F)c4ccc([nH]4)c(-c4c(F)cccc4F)c4nc(c(-c5c(F)cccc5F)c5ccc2[nH]5)C=C4)C=C3)cc1)c1ccccc1
REMARK SMILES IDX 23 1 22 2 20 3 21 4 19 6 18 7 1 8 2 9 3 11 4 12 5 13 16 14
REMARK SMILES IDX 6 15 15 16 17 17 14 18 7 19 8 20 13 21 9 22 12 23 10 24
REMARK SMILES IDX 11 25 83 26 84 27 88 28 85 29 87 30 86 31 24 32 25 33 26 34
REMARK SMILES IDX 27 35 28 37 29 38 30 39 82 40 31 41 81 42 32 43 33 44 34 45
REMARK SMILES IDX 75 46 35 47 80 48 74 49 76 50 36 51 79 52 73 53 72 54 37 56
REMARK SMILES IDX 63 57 46 58 62 59 47 60 50 61 61 62 77 63 48 64 49 65 60 67
REMARK SMILES IDX 78 68 51 69 38 70 39 71 44 72 40 73 41 74 43 75 45 76 42 77
REMARK SMILES IDX 64 78 65 79 70 80 66 81 67 82 69 83 71 84 68 85 52 86 53 87
REMARK SMILES IDX 58 88 54 89 55 90 57 91 59 92 56 93
REMARK H PARENT 22 5 18 10 26 36 76 55 50 66
REMARK Flexibility Score: inf
ROOT
ATOM      1  C   UNL A   1      36.444  21.062  25.610  1.00  0.00     0.117 C 
ENDROOT
BRANCH   1   2
ATOM      2  N   UNL A   1      35.821  21.993  24.689  1.00  0.00    -0.354 N 
ATOM      3  C   UNL A   1      34.521  22.065  24.259  1.00  0.00     0.247 C 
ATOM      4  O   UNL A   1      34.321  22.755  23.255  1.00  0.00    -0.272 OA
ATOM      5  H   UNL A   1      36.423  22.677  24.317  1.00  0.00     0.163 HD
BRANCH   3   6
ATOM      6  C   UNL A   1      33.436  21.163  24.922  1.00  0.00     0.202 C 
BRANCH   6   7
ATOM      7  N   UNL A   1      32.180  21.862  25.235  1.00  0.00    -0.339 N 
ATOM      8  O   UNL A   1      32.951  22.948  27.091  1.00  0.00    -0.273 OA
ATOM      9  C   UNL A   1      32.090  22.820  26.222  1.00  0.00     0.242 C 
ATOM     10  H   UNL A   1      31.373  21.637  24.718  1.00  0.00     0.164 HD
BRANCH   9  11
ATOM     11  C   UNL A   1      30.770  23.596  26.303  1.00  0.00     0.248 C 
BRANCH  11  12
ATOM     12  N   UNL A   1      30.752  24.860  25.569  1.00  0.00    -0.220 N 
ATOM     13  N   UNL A   1      31.262  25.959  26.235  1.00  0.00    -0.169 NA
ATOM     14  C   UNL A   1      30.611  24.832  24.185  1.00  0.00     0.267 A 
ATOM     15  C   UNL A   1      31.405  27.050  25.550  1.00  0.00     0.091 A 
ATOM     16  C   UNL A   1      30.557  26.149  23.518  1.00  0.00     0.075 A 
ATOM     17  O   UNL A   1      30.490  23.818  23.508  1.00  0.00    -0.268 OA
ATOM     18  C   UNL A   1      30.933  27.250  24.167  1.00  0.00     0.036 A 
BRANCH  15  19
ATOM     19  C   UNL A   1      32.172  28.172  26.122  1.00  0.00     0.002 A 
ATOM     20  C   UNL A   1      31.655  29.461  25.944  1.00  0.00     0.011 A 
ATOM     21  C   UNL A   1      33.342  27.963  26.852  1.00  0.00     0.011 A 
ATOM     22  C   UNL A   1      32.310  30.554  26.511  1.00  0.00     0.016 A 
ATOM     23  C   UNL A   1      34.002  29.063  27.407  1.00  0.00     0.016 A 
ATOM     24  C   UNL A   1      33.482  30.350  27.237  1.00  0.00     0.018 A 
ATOM     25  Br  UNL A   1      34.375  31.831  28.001  1.00  0.00    -0.051 Br
ENDBRANCH  15  19
ENDBRANCH  11  12
ENDBRANCH   9  11
ENDBRANCH   6   7
BRANCH   6  26
ATOM     26  C   UNL A   1      33.253  19.797  24.264  1.00  0.00    -0.016 A 
ATOM     27  C   UNL A   1      34.006  18.671  24.621  1.00  0.00     0.006 A 
ATOM     28  C   UNL A   1      32.313  19.642  23.227  1.00  0.00     0.006 A 
ATOM     29  C   UNL A   1      33.872  17.455  23.949  1.00  0.00     0.000 A 
ATOM     30  C   UNL A   1      32.157  18.418  22.568  1.00  0.00     0.000 A 
ATOM     31  C   UNL A   1      32.948  17.328  22.920  1.00  0.00     0.000 A 
ENDBRANCH   6  26
ENDBRANCH   3   6
ENDBRANCH   1   2
BRANCH   1  32
ATOM     32  C   UNL A   1      37.691  20.428  25.001  1.00  0.00     0.042 C 
BRANCH  32  33
ATOM     33  C   UNL A   1      38.972  20.662  25.796  1.00  0.00     0.118 C 
BRANCH  33  34
ATOM     34  N   UNL A   1      39.888  19.530  25.770  1.00  0.00    -0.352 N 
ATOM     35  C   UNL A   1      41.252  19.487  25.972  1.00  0.00     0.251 C 
ATOM     36  H   UNL A   1      39.469  18.660  25.577  1.00  0.00     0.163 HD
ATOM     37  O   UNL A   1      41.866  18.451  25.784  1.00  0.00    -0.269 OA
BRANCH  35  38
ATOM     38  C   UNL A   1      41.977  20.717  26.371  1.00  0.00     0.039 A 
ATOM     39  C   UNL A   1      42.192  21.022  27.715  1.00  0.00     0.014 A 
ATOM     40  C   UNL A   1      42.421  21.594  25.376  1.00  0.00     0.014 A 
ATOM     41  C   UNL A   1      42.652  22.286  28.067  1.00  0.00     0.010 A 
ATOM     42  C   UNL A   1      42.979  22.825  25.732  1.00  0.00     0.010 A 
ATOM     43  C   UNL A   1      43.034  23.212  27.081  1.00  0.00    -0.014 A 
BRANCH  43  44
ATOM     44  C   UNL A   1      43.443  24.582  27.488  1.00  0.00     0.031 A 
ATOM     45  C   UNL A   1      44.882  25.019  27.388  1.00  0.00     0.074 A 
ATOM     46  C   UNL A   1      42.506  25.464  27.888  1.00  0.00     0.049 A 
ATOM     47  N   UNL A   1      45.413  26.189  27.648  1.00  0.00    -0.248 NA
ATOM     48  C   UNL A   1      45.855  24.009  26.944  1.00  0.00     0.031 C 
ATOM     49  C   UNL A   1      41.079  25.171  28.027  1.00  0.00     0.029 A 
ATOM     50  N   UNL A   1      42.610  26.789  28.224  1.00  0.00    -0.354 N 
ATOM     51  C   UNL A   1      46.777  26.050  27.419  1.00  0.00     0.074 A 
ATOM     52  C   UNL A   1      46.998  24.672  27.037  1.00  0.00     0.031 C 
ATOM     53  C   UNL A   1      40.433  26.295  28.369  1.00  0.00     0.029 A 
ATOM     54  C   UNL A   1      41.405  27.371  28.531  1.00  0.00     0.049 A 
ATOM     55  H   UNL A   1      43.465  27.277  28.245  1.00  0.00     0.167 HD
ATOM     56  C   UNL A   1      47.756  26.986  27.503  1.00  0.00     0.037 A 
ATOM     57  C   UNL A   1      41.112  28.628  28.913  1.00  0.00     0.037 A 
ATOM     58  C   UNL A   1      47.537  28.360  27.872  1.00  0.00     0.049 A 
ATOM     59  C   UNL A   1      42.219  29.634  29.041  1.00  0.00     0.074 A 
ATOM     60  C   UNL A   1      48.459  29.391  27.957  1.00  0.00     0.029 A 
ATOM     61  N   UNL A   1      46.308  28.897  28.229  1.00  0.00    -0.354 N 
ATOM     62  N   UNL A   1      43.498  29.495  28.792  1.00  0.00    -0.248 NA
ATOM     63  C   UNL A   1      41.838  30.974  29.508  1.00  0.00     0.031 C 
ATOM     64  C   UNL A   1      47.795  30.536  28.412  1.00  0.00     0.029 A 
ATOM     65  C   UNL A   1      46.451  30.235  28.561  1.00  0.00     0.049 A 
ATOM     66  H   UNL A   1      45.458  28.400  28.244  1.00  0.00     0.167 HD
ATOM     67  C   UNL A   1      44.074  30.730  29.058  1.00  0.00     0.074 A 
ATOM     68  C   UNL A   1      42.998  31.612  29.464  1.00  0.00     0.031 C 
ATOM     69  C   UNL A   1      45.376  31.100  28.976  1.00  0.00     0.037 A 
BRANCH  56  70
ATOM     70  C   UNL A   1      49.161  26.534  27.215  1.00  0.00     0.057 A 
ATOM     71  C   UNL A   1      50.015  26.153  28.258  1.00  0.00     0.134 A 
ATOM     72  C   UNL A   1      49.672  26.472  25.911  1.00  0.00     0.134 A 
ATOM     73  F   UNL A   1      49.596  26.195  29.532  1.00  0.00    -0.206 F 
ATOM     74  C   UNL A   1      51.318  25.716  28.015  1.00  0.00     0.040 A 
ATOM     75  C   UNL A   1      50.965  26.010  25.653  1.00  0.00     0.040 A 
ATOM     76  F   UNL A   1      48.906  26.811  24.863  1.00  0.00    -0.206 F 
ATOM     77  C   UNL A   1      51.793  25.632  26.708  1.00  0.00     0.006 A 
ENDBRANCH  56  70
BRANCH  57  78
ATOM     78  C   UNL A   1      39.706  28.999  29.208  1.00  0.00     0.057 A 
ATOM     79  C   UNL A   1      38.850  29.461  28.202  1.00  0.00     0.134 A 
ATOM     80  C   UNL A   1      39.189  28.905  30.505  1.00  0.00     0.134 A 
ATOM     81  F   UNL A   1      39.288  29.578  26.940  1.00  0.00    -0.206 F 
ATOM     82  C   UNL A   1      37.532  29.828  28.475  1.00  0.00     0.040 A 
ATOM     83  C   UNL A   1      37.865  29.245  30.787  1.00  0.00     0.040 A 
ATOM     84  F   UNL A   1      39.955  28.451  31.507  1.00  0.00    -0.206 F 
ATOM     85  C   UNL A   1      37.035  29.715  29.771  1.00  0.00     0.006 A 
ENDBRANCH  57  78
BRANCH  69  86
ATOM     86  C   UNL A   1      45.697  32.527  29.315  1.00  0.00     0.057 A 
ATOM     87  C   UNL A   1      45.609  33.530  28.341  1.00  0.00     0.134 A 
ATOM     88  C   UNL A   1      46.095  32.910  30.602  1.00  0.00     0.134 A 
ATOM     89  F   UNL A   1      45.240  33.230  27.086  1.00  0.00    -0.206 F 
ATOM     90  C   UNL A   1      45.900  34.861  28.636  1.00  0.00     0.040 A 
ATOM     91  C   UNL A   1      46.362  34.244  30.917  1.00  0.00     0.040 A 
ATOM     92  F   UNL A   1      46.185  32.002  31.586  1.00  0.00    -0.206 F 
ATOM     93  C   UNL A   1      46.269  35.224  29.930  1.00  0.00     0.006 A 
ENDBRANCH  69  86
ENDBRANCH  43  44
ENDBRANCH  35  38
ENDBRANCH  33  34
ENDBRANCH  32  33
ENDBRANCH   1  32
TORSDOF 15
ENDMDL
MODEL 2
REMARK VINA RESULT:     -12.9      0.631      6.071
REMARK SMILES O=C(Cn1nc(-c2ccc(Br)cc2)ccc1=O)N[C@H](C(=O)NCCCNC(=O)c1ccc(-c2c3nc(c(-c4c(F)cccc4F)c4ccc([nH]4)c(-c4c(F)cccc4F)c4nc(c(-c5c(F)cccc5F)c5ccc2[nH]5)C=C4)C=C3)cc1)c1ccccc1
REMARK SMILES IDX 23 1 22 2 20 3 21 4 19 6 18 7 1 8 2 9 3 11 4 12 5 13 16 14
REMARK SMILES IDX 6 15 15 16 17 17 14 18 7 19 8 20 13 21 9 22 12 23 10 24
REMARK SMILES IDX 11 25 83 26 84 27 88 28 85 29 87 30 86 31 24 32 25 33 26 34
REMARK SMILES IDX 27 35 28 37 29 38 30 39 82 40 31 41 81 42 32 43 33 44 34 45
REMARK SMILES IDX 75 46 35 47 80 48 74 49 76 50 36 51 79 52 73 53 72 54 37 56
REMARK SMILES IDX 63 57 46 58 62 59 47 60 50 61 61 62 77 63 48 64 49 65 60 67
REMARK SMILES IDX 78 68 51 69 38 70 39 71 44 72 40 73 41 74 43 75 45 76 42 77
REMARK SMILES IDX 64 78 65 79 70 80 66 81 67 82 69 83 71 84 68 85 52 86 53 87
REMARK SMILES IDX 58 88 54 89 55 90 57 91 59 92 56 93
REMARK H PARENT 22 5 18 10 26 36 76 55 50 66
REMARK Flexibility Score: inf
ROOT
ATOM      1  C   UNL A   1      36.635  21.098  25.681  1.00  0.00     0.117 C 
ENDROOT
BRANCH   1   2
ATOM      2  N   UNL A   1      35.990  21.958  24.709  1.00  0.00    -0.354 N 
ATOM      3  C   UNL A   1      34.695  21.957  24.257  1.00  0.00     0.247 C 
ATOM      4  O   UNL A   1      34.483  22.591  23.218  1.00  0.00    -0.272 OA
ATOM      5  H   UNL A   1      36.570  22.648  24.313  1.00  0.00     0.163 HD
BRANCH   3   6
ATOM      6  C   UNL A   1      33.637  21.043  24.947  1.00  0.00     0.202 C 
BRANCH   6   7
ATOM      7  N   UNL A   1      32.358  21.712  25.234  1.00  0.00    -0.339 N 
ATOM      8  O   UNL A   1      33.064  22.815  27.106  1.00  0.00    -0.273 OA
ATOM      9  C   UNL A   1      32.225  22.667  26.220  1.00  0.00     0.242 C 
ATOM     10  H   UNL A   1      31.567  21.469  24.700  1.00  0.00     0.164 HD
BRANCH   9  11
ATOM     11  C   UNL A   1      30.886  23.411  26.274  1.00  0.00     0.248 C 
BRANCH  11  12
ATOM     12  N   UNL A   1      30.855  24.679  25.547  1.00  0.00    -0.220 N 
ATOM     13  N   UNL A   1      31.379  25.774  26.209  1.00  0.00    -0.169 NA
ATOM     14  C   UNL A   1      30.689  24.659  24.166  1.00  0.00     0.267 A 
ATOM     15  C   UNL A   1      31.511  26.869  25.527  1.00  0.00     0.091 A 
ATOM     16  C   UNL A   1      30.624  25.979  23.507  1.00  0.00     0.075 A 
ATOM     17  O   UNL A   1      30.555  23.648  23.486  1.00  0.00    -0.268 OA
ATOM     18  C   UNL A   1      31.013  27.076  24.154  1.00  0.00     0.036 A 
BRANCH  15  19
ATOM     19  C   UNL A   1      32.289  27.987  26.091  1.00  0.00     0.002 A 
ATOM     20  C   UNL A   1      31.629  29.211  26.255  1.00  0.00     0.011 A 
ATOM     21  C   UNL A   1      33.617  27.829  26.489  1.00  0.00     0.011 A 
ATOM     22  C   UNL A   1      32.302  30.287  26.834  1.00  0.00     0.016 A 
ATOM     23  C   UNL A   1      34.290  28.913  27.057  1.00  0.00     0.016 A 
ATOM     24  C   UNL A   1      33.629  30.134  27.229  1.00  0.00     0.018 A 
ATOM     25  Br  UNL A   1      34.544  31.594  28.009  1.00  0.00    -0.051 Br
ENDBRANCH  15  19
ENDBRANCH  11  12
ENDBRANCH   9  11
ENDBRANCH   6   7
BRANCH   6  26
ATOM     26  C   UNL A   1      33.498  19.651  24.333  1.00  0.00    -0.016 A 
ATOM     27  C   UNL A   1      34.377  18.600  24.623  1.00  0.00     0.006 A 
ATOM     28  C   UNL A   1      32.469  19.397  23.406  1.00  0.00     0.006 A 
ATOM     29  C   UNL A   1      34.273  17.361  23.987  1.00  0.00     0.000 A 
ATOM     30  C   UNL A   1      32.347  18.149  22.786  1.00  0.00     0.000 A 
ATOM     31  C   UNL A   1      33.258  17.135  23.066  1.00  0.00     0.000 A 
ENDBRANCH   6  26
ENDBRANCH   3   6
ENDBRANCH   1   2
BRANCH   1  32
ATOM     32  C   UNL A   1      37.830  20.371  25.074  1.00  0.00     0.042 C 
BRANCH  32  33
ATOM     33  C   UNL A   1      39.163  20.670  25.753  1.00  0.00     0.118 C 
BRANCH  33  34
ATOM     34  N   UNL A   1      40.024  19.502  25.887  1.00  0.00    -0.352 N 
ATOM     35  C   UNL A   1      41.380  19.422  26.125  1.00  0.00     0.251 C 
ATOM     36  H   UNL A   1      39.566  18.636  25.791  1.00  0.00     0.163 HD
ATOM     37  O   UNL A   1      41.946  18.343  26.079  1.00  0.00    -0.269 OA
BRANCH  35  38
ATOM     38  C   UNL A   1      42.157  20.656  26.388  1.00  0.00     0.039 A 
ATOM     39  C   UNL A   1      42.274  21.172  27.679  1.00  0.00     0.014 A 
ATOM     40  C   UNL A   1      42.752  21.324  25.313  1.00  0.00     0.014 A 
ATOM     41  C   UNL A   1      42.795  22.448  27.864  1.00  0.00     0.010 A 
ATOM     42  C   UNL A   1      43.367  22.563  25.518  1.00  0.00     0.010 A 
ATOM     43  C   UNL A   1      43.331  23.169  26.784  1.00  0.00    -0.014 A 
BRANCH  43  44
ATOM     44  C   UNL A   1      43.804  24.562  27.001  1.00  0.00     0.031 A 
ATOM     45  C   UNL A   1      42.854  25.635  27.466  1.00  0.00     0.074 A 
ATOM     46  C   UNL A   1      45.110  24.851  26.846  1.00  0.00     0.049 A 
ATOM     47  N   UNL A   1      43.099  26.890  27.758  1.00  0.00    -0.248 NA
ATOM     48  C   UNL A   1      41.441  25.254  27.618  1.00  0.00     0.031 C 
ATOM     49  C   UNL A   1      46.135  23.905  26.403  1.00  0.00     0.029 A 
ATOM     50  N   UNL A   1      45.802  26.014  27.067  1.00  0.00    -0.354 N 
ATOM     51  C   UNL A   1      41.875  27.448  28.106  1.00  0.00     0.074 A 
ATOM     52  C   UNL A   1      40.882  26.408  27.952  1.00  0.00     0.031 C 
ATOM     53  C   UNL A   1      47.332  24.510  26.435  1.00  0.00     0.029 A 
ATOM     54  C   UNL A   1      47.151  25.899  26.842  1.00  0.00     0.049 A 
ATOM     55  H   UNL A   1      45.373  26.851  27.358  1.00  0.00     0.167 HD
ATOM     56  C   UNL A   1      41.602  28.707  28.531  1.00  0.00     0.037 A 
ATOM     57  C   UNL A   1      48.136  26.812  26.939  1.00  0.00     0.037 A 
ATOM     58  C   UNL A   1      42.590  29.742  28.696  1.00  0.00     0.049 A 
ATOM     59  C   UNL A   1      47.802  28.210  27.369  1.00  0.00     0.074 A 
ATOM     60  C   UNL A   1      42.416  31.039  29.149  1.00  0.00     0.029 A 
ATOM     61  N   UNL A   1      43.939  29.600  28.404  1.00  0.00    -0.354 N 
ATOM     62  N   UNL A   1      46.645  28.714  27.723  1.00  0.00    -0.248 NA
ATOM     63  C   UNL A   1      48.914  29.169  27.408  1.00  0.00     0.031 C 
ATOM     64  C   UNL A   1      43.651  31.695  29.083  1.00  0.00     0.029 A 
ATOM     65  C   UNL A   1      44.604  30.792  28.640  1.00  0.00     0.049 A 
ATOM     66  H   UNL A   1      44.361  28.773  28.078  1.00  0.00     0.167 HD
ATOM     67  C   UNL A   1      46.890  30.043  28.041  1.00  0.00     0.074 A 
ATOM     68  C   UNL A   1      48.312  30.259  27.860  1.00  0.00     0.031 C 
ATOM     69  C   UNL A   1      46.018  31.000  28.444  1.00  0.00     0.037 A 
BRANCH  56  70
ATOM     70  C   UNL A   1      40.163  29.036  28.818  1.00  0.00     0.057 A 
ATOM     71  C   UNL A   1      39.277  29.329  27.773  1.00  0.00     0.134 A 
ATOM     72  C   UNL A   1      39.649  29.062  30.122  1.00  0.00     0.134 A 
ATOM     73  F   UNL A   1      39.701  29.332  26.500  1.00  0.00    -0.206 F 
ATOM     74  C   UNL A   1      37.933  29.622  28.012  1.00  0.00     0.040 A 
ATOM     75  C   UNL A   1      38.300  29.325  30.373  1.00  0.00     0.040 A 
ATOM     76  F   UNL A   1      40.438  28.779  31.169  1.00  0.00    -0.206 F 
ATOM     77  C   UNL A   1      37.438  29.610  29.315  1.00  0.00     0.006 A 
ENDBRANCH  56  70
BRANCH  57  78
ATOM     78  C   UNL A   1      49.532  26.426  26.614  1.00  0.00     0.057 A 
ATOM     79  C   UNL A   1      50.395  25.926  27.596  1.00  0.00     0.134 A 
ATOM     80  C   UNL A   1      50.035  26.554  25.315  1.00  0.00     0.134 A 
ATOM     81  F   UNL A   1      49.972  25.785  28.861  1.00  0.00    -0.206 F 
ATOM     82  C   UNL A   1      51.713  25.579  27.302  1.00  0.00     0.040 A 
ATOM     83  C   UNL A   1      51.344  26.186  25.001  1.00  0.00     0.040 A 
ATOM     84  F   UNL A   1      49.250  27.009  24.328  1.00  0.00    -0.206 F 
ATOM     85  C   UNL A   1      52.189  25.703  25.999  1.00  0.00     0.006 A 
ENDBRANCH  57  78
BRANCH  69  86
ATOM     86  C   UNL A   1      46.587  32.358  28.734  1.00  0.00     0.057 A 
ATOM     87  C   UNL A   1      47.084  32.668  30.006  1.00  0.00     0.134 A 
ATOM     88  C   UNL A   1      46.643  33.361  27.756  1.00  0.00     0.134 A 
ATOM     89  F   UNL A   1      47.054  31.756  30.990  1.00  0.00    -0.206 F 
ATOM     90  C   UNL A   1      47.620  33.923  30.294  1.00  0.00     0.040 A 
ATOM     91  C   UNL A   1      47.204  34.611  28.025  1.00  0.00     0.040 A 
ATOM     92  F   UNL A   1      46.199  33.124  26.513  1.00  0.00    -0.206 F 
ATOM     93  C   UNL A   1      47.690  34.897  29.300  1.00  0.00     0.006 A 
ENDBRANCH  69  86
ENDBRANCH  43  44
ENDBRANCH  35  38
ENDBRANCH  33  34
ENDBRANCH  32  33
ENDBRANCH   1  32
TORSDOF 15
ENDMDL
MODEL 3
REMARK VINA RESULT:     -12.5      4.750      6.842
REMARK SMILES O=C(Cn1nc(-c2ccc(Br)cc2)ccc1=O)N[C@H](C(=O)NCCCNC(=O)c1ccc(-c2c3nc(c(-c4c(F)cccc4F)c4ccc([nH]4)c(-c4c(F)cccc4F)c4nc(c(-c5c(F)cccc5F)c5ccc2[nH]5)C=C4)C=C3)cc1)c1ccccc1
REMARK SMILES IDX 23 1 22 2 20 3 21 4 19 6 18 7 1 8 2 9 3 11 4 12 5 13 16 14
REMARK SMILES IDX 6 15 15 16 17 17 14 18 7 19 8 20 13 21 9 22 12 23 10 24
REMARK SMILES IDX 11 25 83 26 84 27 88 28 85 29 87 30 86 31 24 32 25 33 26 34
REMARK SMILES IDX 27 35 28 37 29 38 30 39 82 40 31 41 81 42 32 43 33 44 34 45
REMARK SMILES IDX 75 46 35 47 80 48 74 49 76 50 36 51 79 52 73 53 72 54 37 56
REMARK SMILES IDX 63 57 46 58 62 59 47 60 50 61 61 62 77 63 48 64 49 65 60 67
REMARK SMILES IDX 78 68 51 69 38 70 39 71 44 72 40 73 41 74 43 75 45 76 42 77
REMARK SMILES IDX 64 78 65 79 70 80 66 81 67 82 69 83 71 84 68 85 52 86 53 87
REMARK SMILES IDX 58 88 54 89 55 90 57 91 59 92 56 93
REMARK H PARENT 22 5 18 10 26 36 76 55 50 66
REMARK Flexibility Score: inf
ROOT
ATOM      1  C   UNL A   1      36.315  22.415  25.999  1.00  0.00     0.117 C 
ENDROOT
BRANCH   1   2
ATOM      2  N   UNL A   1      35.715  22.785  24.733  1.00  0.00    -0.354 N 
ATOM      3  C   UNL A   1      34.575  22.316  24.131  1.00  0.00     0.247 C 
ATOM      4  O   UNL A   1      34.450  22.576  22.930  1.00  0.00    -0.272 OA
ATOM      5  H   UNL A   1      36.198  23.479  24.229  1.00  0.00     0.163 HD
BRANCH   3   6
ATOM      6  C   UNL A   1      33.624  21.362  24.915  1.00  0.00     0.202 C 
BRANCH   6   7
ATOM      7  N   UNL A   1      32.289  21.924  25.178  1.00  0.00    -0.339 N 
ATOM      8  O   UNL A   1      32.836  22.969  27.135  1.00  0.00    -0.273 OA
ATOM      9  C   UNL A   1      32.047  22.811  26.204  1.00  0.00     0.242 C 
ATOM     10  H   UNL A   1      31.541  21.655  24.597  1.00  0.00     0.164 HD
BRANCH   9  11
ATOM     11  C   UNL A   1      30.656  23.457  26.236  1.00  0.00     0.248 C 
BRANCH  11  12
ATOM     12  N   UNL A   1      30.549  24.727  25.520  1.00  0.00    -0.220 N 
ATOM     13  N   UNL A   1      31.024  25.843  26.185  1.00  0.00    -0.169 NA
ATOM     14  C   UNL A   1      30.365  24.709  24.141  1.00  0.00     0.267 A 
ATOM     15  C   UNL A   1      31.089  26.948  25.510  1.00  0.00     0.091 A 
ATOM     16  C   UNL A   1      30.222  26.028  23.494  1.00  0.00     0.075 A 
ATOM     17  O   UNL A   1      30.276  23.698  23.454  1.00  0.00    -0.268 OA
ATOM     18  C   UNL A   1      30.562  27.140  24.145  1.00  0.00     0.036 A 
BRANCH  15  19
ATOM     19  C   UNL A   1      31.814  28.101  26.073  1.00  0.00     0.002 A 
ATOM     20  C   UNL A   1      32.947  27.832  26.850  1.00  0.00     0.011 A 
ATOM     21  C   UNL A   1      31.421  29.414  25.807  1.00  0.00     0.011 A 
ATOM     22  C   UNL A   1      33.702  28.887  27.361  1.00  0.00     0.016 A 
ATOM     23  C   UNL A   1      32.174  30.468  26.332  1.00  0.00     0.016 A 
ATOM     24  C   UNL A   1      33.310  30.200  27.102  1.00  0.00     0.018 A 
ATOM     25  Br  UNL A   1      34.330  31.631  27.799  1.00  0.00    -0.051 Br
ENDBRANCH  15  19
ENDBRANCH  11  12
ENDBRANCH   9  11
ENDBRANCH   6   7
BRANCH   6  26
ATOM     26  C   UNL A   1      33.614  19.918  24.417  1.00  0.00    -0.016 A 
ATOM     27  C   UNL A   1      34.655  19.016  24.676  1.00  0.00     0.006 A 
ATOM     28  C   UNL A   1      32.541  19.457  23.632  1.00  0.00     0.006 A 
ATOM     29  C   UNL A   1      34.657  17.726  24.142  1.00  0.00     0.000 A 
ATOM     30  C   UNL A   1      32.527  18.157  23.116  1.00  0.00     0.000 A 
ATOM     31  C   UNL A   1      33.594  17.296  23.359  1.00  0.00     0.000 A 
ENDBRANCH   6  26
ENDBRANCH   3   6
ENDBRANCH   1   2
BRANCH   1  32
ATOM     32  C   UNL A   1      37.838  22.448  25.922  1.00  0.00     0.042 C 
BRANCH  32  33
ATOM     33  C   UNL A   1      38.469  23.743  26.425  1.00  0.00     0.118 C 
BRANCH  33  34
ATOM     34  N   UNL A   1      39.889  23.856  26.121  1.00  0.00    -0.352 N 
ATOM     35  C   UNL A   1      40.810  24.802  26.520  1.00  0.00     0.251 C 
ATOM     36  H   UNL A   1      40.247  23.148  25.538  1.00  0.00     0.163 HD
ATOM     37  O   UNL A   1      41.937  24.794  26.054  1.00  0.00    -0.269 OA
BRANCH  35  38
ATOM     38  C   UNL A   1      40.412  25.859  27.480  1.00  0.00     0.039 A 
ATOM     39  C   UNL A   1      40.900  27.160  27.362  1.00  0.00     0.014 A 
ATOM     40  C   UNL A   1      39.558  25.528  28.536  1.00  0.00     0.014 A 
ATOM     41  C   UNL A   1      40.711  28.062  28.402  1.00  0.00     0.010 A 
ATOM     42  C   UNL A   1      39.285  26.470  29.532  1.00  0.00     0.010 A 
ATOM     43  C   UNL A   1      39.916  27.724  29.511  1.00  0.00    -0.014 A 
BRANCH  43  44
ATOM     44  C   UNL A   1      39.801  28.680  30.643  1.00  0.00     0.031 A 
ATOM     45  C   UNL A   1      40.726  28.586  31.829  1.00  0.00     0.074 A 
ATOM     46  C   UNL A   1      38.904  29.683  30.577  1.00  0.00     0.049 A 
ATOM     47  N   UNL A   1      40.806  29.364  32.882  1.00  0.00    -0.248 NA
ATOM     48  C   UNL A   1      41.684  27.470  31.841  1.00  0.00     0.031 C 
ATOM     49  C   UNL A   1      37.952  29.890  29.485  1.00  0.00     0.029 A 
ATOM     50  N   UNL A   1      38.666  30.729  31.431  1.00  0.00    -0.354 N 
ATOM     51  C   UNL A   1      41.803  28.821  33.684  1.00  0.00     0.074 A 
ATOM     52  C   UNL A   1      42.273  27.627  33.017  1.00  0.00     0.031 C 
ATOM     53  C   UNL A   1      37.268  31.022  29.709  1.00  0.00     0.029 A 
ATOM     54  C   UNL A   1      37.691  31.587  30.986  1.00  0.00     0.049 A 
ATOM     55  H   UNL A   1      39.146  30.853  32.282  1.00  0.00     0.167 HD
ATOM     56  C   UNL A   1      42.296  29.282  34.861  1.00  0.00     0.037 A 
ATOM     57  C   UNL A   1      37.182  32.700  31.546  1.00  0.00     0.037 A 
ATOM     58  C   UNL A   1      41.838  30.477  35.522  1.00  0.00     0.049 A 
ATOM     59  C   UNL A   1      37.714  33.165  32.870  1.00  0.00     0.074 A 
ATOM     60  C   UNL A   1      42.295  31.042  36.701  1.00  0.00     0.029 A 
ATOM     61  N   UNL A   1      40.810  31.289  35.065  1.00  0.00    -0.354 N 
ATOM     62  N   UNL A   1      38.676  32.658  33.601  1.00  0.00    -0.248 NA
ATOM     63  C   UNL A   1      37.082  34.358  33.449  1.00  0.00     0.031 C 
ATOM     64  C   UNL A   1      41.509  32.166  36.982  1.00  0.00     0.029 A 
ATOM     65  C   UNL A   1      40.599  32.333  35.951  1.00  0.00     0.049 A 
ATOM     66  H   UNL A   1      40.305  31.144  34.232  1.00  0.00     0.167 HD
ATOM     67  C   UNL A   1      38.776  33.476  34.719  1.00  0.00     0.074 A 
ATOM     68  C   UNL A   1      37.791  34.527  34.555  1.00  0.00     0.031 C 
ATOM     69  C   UNL A   1      39.607  33.366  35.785  1.00  0.00     0.037 A 
BRANCH  56  70
ATOM     70  C   UNL A   1      43.372  28.463  35.520  1.00  0.00     0.057 A 
ATOM     71  C   UNL A   1      44.722  28.687  35.219  1.00  0.00     0.134 A 
ATOM     72  C   UNL A   1      43.079  27.457  36.451  1.00  0.00     0.134 A 
ATOM     73  F   UNL A   1      45.076  29.627  34.330  1.00  0.00    -0.206 F 
ATOM     74  C   UNL A   1      45.739  27.950  35.828  1.00  0.00     0.040 A 
ATOM     75  C   UNL A   1      44.089  26.733  37.088  1.00  0.00     0.040 A 
ATOM     76  F   UNL A   1      41.808  27.198  36.795  1.00  0.00    -0.206 F 
ATOM     77  C   UNL A   1      45.425  26.977  36.775  1.00  0.00     0.006 A 
ENDBRANCH  56  70
BRANCH  57  78
ATOM     78  C   UNL A   1      36.101  33.445  30.853  1.00  0.00     0.057 A 
ATOM     79  C   UNL A   1      36.365  34.214  29.714  1.00  0.00     0.134 A 
ATOM     80  C   UNL A   1      34.783  33.408  31.319  1.00  0.00     0.134 A 
ATOM     81  F   UNL A   1      37.610  34.293  29.223  1.00  0.00    -0.206 F 
ATOM     82  C   UNL A   1      35.358  34.932  29.069  1.00  0.00     0.040 A 
ATOM     83  C   UNL A   1      33.761  34.100  30.667  1.00  0.00     0.040 A 
ATOM     84  F   UNL A   1      34.465  32.673  32.394  1.00  0.00    -0.206 F 
ATOM     85  C   UNL A   1      34.050  34.871  29.542  1.00  0.00     0.006 A 
ENDBRANCH  57  78
BRANCH  69  86
ATOM     86  C   UNL A   1      39.494  34.424  36.844  1.00  0.00     0.057 A 
ATOM     87  C   UNL A   1      38.749  34.193  38.008  1.00  0.00     0.134 A 
ATOM     88  C   UNL A   1      40.118  35.672  36.713  1.00  0.00     0.134 A 
ATOM     89  F   UNL A   1      38.120  33.023  38.193  1.00  0.00    -0.206 F 
ATOM     90  C   UNL A   1      38.634  35.162  39.004  1.00  0.00     0.040 A 
ATOM     91  C   UNL A   1      40.033  36.639  37.717  1.00  0.00     0.040 A 
ATOM     92  F   UNL A   1      40.859  35.952  35.630  1.00  0.00    -0.206 F 
ATOM     93  C   UNL A   1      39.285  36.387  38.865  1.00  0.00     0.006 A 
ENDBRANCH  69  86
ENDBRANCH  43  44
ENDBRANCH  35  38
ENDBRANCH  33  34
ENDBRANCH  32  33
ENDBRANCH   1  32
TORSDOF 15
ENDMDL
