MODEL 1
REMARK VINA RESULT:     -13.0      0.000      0.000
REMARK SMILES C[NH+]1CCN(C(=O)c2ccc3c(c2)N(CC(=O)NCCCNC(=O)c2ccc(-c4c5nc(c(-c6c(F)cccc6F)c6ccc([nH]6)c(-c6c(F)cccc6F)c6nc(c(-c7c(F)cccc7F)c7ccc4[nH]7)C=C6)C=C5)cc2)C(=O)CO3)CC1
REMARK SMILES IDX 20 1 19 2 18 3 16 4 17 5 15 7 14 8 8 9 9 10 13 11 10 12
REMARK SMILES IDX 12 13 11 14 82 15 79 16 81 17 80 18 6 19 1 20 2 21 3 22
REMARK SMILES IDX 84 23 4 25 83 26 5 27 7 28 21 29 22 30 23 31 24 33 25 34
REMARK SMILES IDX 26 35 78 36 27 37 77 38 28 39 29 40 30 41 71 42 31 43 76 44
REMARK SMILES IDX 70 45 72 46 32 47 75 48 69 49 68 50 33 52 59 53 42 54 58 55
REMARK SMILES IDX 43 56 46 57 57 58 73 59 44 60 45 61 56 63 74 64 47 65 34 66
REMARK SMILES IDX 35 67 40 68 36 69 37 70 39 71 41 72 38 73 60 74 61 75 66 76
REMARK SMILES IDX 62 77 63 78 65 79 67 80 64 81 48 82 49 83 54 84 50 85 51 86
REMARK SMILES IDX 53 87 55 88 52 89
REMARK H PARENT 18 6 2 24 22 32 72 51 46 62
REMARK Flexibility Score: inf
ROOT
ATOM      1  C   UNL A   1      40.750  21.612  26.814  1.00  0.00     0.042 C 
ENDROOT
BRANCH   1   2
ATOM      2  C   UNL A   1      39.411  21.512  26.087  1.00  0.00     0.117 C 
BRANCH   2   3
ATOM      3  N   UNL A   1      38.553  22.650  26.343  1.00  0.00    -0.354 N 
ATOM      4  C   UNL A   1      37.475  23.095  25.640  1.00  0.00     0.240 C 
ATOM      5  O   UNL A   1      36.832  24.032  26.120  1.00  0.00    -0.273 OA
ATOM      6  H   UNL A   1      38.783  23.181  27.140  1.00  0.00     0.163 HD
BRANCH   4   7
ATOM      7  C   UNL A   1      37.036  22.432  24.328  1.00  0.00     0.225 C 
BRANCH   7   8
ATOM      8  N   UNL A   1      35.685  21.872  24.348  1.00  0.00    -0.296 N 
ATOM      9  C   UNL A   1      33.528  24.652  23.043  1.00  0.00     0.042 A 
ATOM     10  C   UNL A   1      32.318  23.982  22.854  1.00  0.00     0.018 A 
ATOM     11  C   UNL A   1      34.637  23.987  23.587  1.00  0.00     0.044 A 
ATOM     12  C   UNL A   1      32.227  22.631  23.170  1.00  0.00     0.049 A 
ATOM     13  C   UNL A   1      34.562  22.621  23.888  1.00  0.00     0.087 A 
ATOM     14  C   UNL A   1      33.337  21.960  23.689  1.00  0.00     0.143 A 
ATOM     15  O   UNL A   1      33.160  20.623  23.916  1.00  0.00    -0.482 OA
ATOM     16  C   UNL A   1      35.502  20.579  24.822  1.00  0.00     0.265 C 
ATOM     17  C   UNL A   1      34.055  20.111  24.884  1.00  0.00     0.330 C 
ATOM     18  O   UNL A   1      36.417  19.865  25.233  1.00  0.00    -0.270 OA
BRANCH   9  19
ATOM     19  C   UNL A   1      33.588  26.094  22.717  1.00  0.00     0.254 C 
ATOM     20  C   UNL A   1      32.007  29.887  26.515  1.00  0.00     0.332 C 
ATOM     21  N   UNL A   1      32.934  29.074  25.728  1.00  0.00    -0.334 N 
ATOM     22  C   UNL A   1      32.746  29.329  24.283  1.00  0.00     0.283 C 
ATOM     23  C   UNL A   1      32.713  27.639  26.000  1.00  0.00     0.283 C 
ATOM     24  H   UNL A   1      33.885  29.329  25.995  1.00  0.00     0.347 HD
ATOM     25  C   UNL A   1      33.660  28.450  23.404  1.00  0.00     0.181 C 
ATOM     26  C   UNL A   1      33.665  26.750  25.180  1.00  0.00     0.181 C 
ATOM     27  N   UNL A   1      33.554  27.028  23.743  1.00  0.00    -0.327 N 
ATOM     28  O   UNL A   1      33.688  26.389  21.528  1.00  0.00    -0.269 OA
ENDBRANCH   9  19
ENDBRANCH   7   8
ENDBRANCH   4   7
ENDBRANCH   2   3
ENDBRANCH   1   2
BRANCH   1  29
ATOM     29  C   UNL A   1      41.115  23.024  27.273  1.00  0.00     0.118 C 
BRANCH  29  30
ATOM     30  N   UNL A   1      41.515  23.891  26.174  1.00  0.00    -0.352 N 
ATOM     31  C   UNL A   1      41.559  25.259  26.085  1.00  0.00     0.251 C 
ATOM     32  H   UNL A   1      41.802  23.417  25.361  1.00  0.00     0.163 HD
ATOM     33  O   UNL A   1      41.771  25.781  24.990  1.00  0.00    -0.269 OA
BRANCH  31  34
ATOM     34  C   UNL A   1      41.341  26.118  27.269  1.00  0.00     0.039 A 
ATOM     35  C   UNL A   1      42.264  27.136  27.534  1.00  0.00     0.014 A 
ATOM     36  C   UNL A   1      40.277  25.899  28.147  1.00  0.00     0.014 A 
ATOM     37  C   UNL A   1      42.087  27.970  28.641  1.00  0.00     0.010 A 
ATOM     38  C   UNL A   1      40.066  26.770  29.217  1.00  0.00     0.010 A 
ATOM     39  C   UNL A   1      40.968  27.814  29.474  1.00  0.00    -0.014 A 
BRANCH  39  40
ATOM     40  C   UNL A   1      40.720  28.738  30.610  1.00  0.00     0.031 A 
ATOM     41  C   UNL A   1      39.641  29.782  30.523  1.00  0.00     0.074 A 
ATOM     42  C   UNL A   1      41.514  28.682  31.696  1.00  0.00     0.049 A 
ATOM     43  N   UNL A   1      39.337  30.730  31.372  1.00  0.00    -0.248 NA
ATOM     44  C   UNL A   1      38.808  29.774  29.309  1.00  0.00     0.031 C 
ATOM     45  C   UNL A   1      42.621  27.744  31.888  1.00  0.00     0.029 A 
ATOM     46  N   UNL A   1      41.520  29.442  32.840  1.00  0.00    -0.354 N 
ATOM     47  C   UNL A   1      38.295  31.441  30.791  1.00  0.00     0.074 A 
ATOM     48  C   UNL A   1      38.044  30.839  29.499  1.00  0.00     0.031 C 
ATOM     49  C   UNL A   1      43.191  27.975  33.082  1.00  0.00     0.029 A 
ATOM     50  C   UNL A   1      42.514  29.098  33.724  1.00  0.00     0.049 A 
ATOM     51  H   UNL A   1      40.874  30.165  33.010  1.00  0.00     0.167 HD
ATOM     52  C   UNL A   1      37.601  32.490  31.294  1.00  0.00     0.037 A 
ATOM     53  C   UNL A   1      42.850  29.634  34.912  1.00  0.00     0.037 A 
ATOM     54  C   UNL A   1      37.829  33.070  32.593  1.00  0.00     0.049 A 
ATOM     55  C   UNL A   1      42.060  30.792  35.451  1.00  0.00     0.074 A 
ATOM     56  C   UNL A   1      37.134  34.093  33.214  1.00  0.00     0.029 A 
ATOM     57  N   UNL A   1      38.828  32.674  33.468  1.00  0.00    -0.354 N 
ATOM     58  N   UNL A   1      41.041  31.417  34.914  1.00  0.00    -0.248 NA
ATOM     59  C   UNL A   1      42.464  31.318  36.763  1.00  0.00     0.031 C 
ATOM     60  C   UNL A   1      37.735  34.341  34.453  1.00  0.00     0.029 A 
ATOM     61  C   UNL A   1      38.779  33.445  34.618  1.00  0.00     0.049 A 
ATOM     62  H   UNL A   1      39.477  31.953  33.298  1.00  0.00     0.167 HD
ATOM     63  C   UNL A   1      40.666  32.390  35.831  1.00  0.00     0.074 A 
ATOM     64  C   UNL A   1      41.559  32.266  36.964  1.00  0.00     0.031 C 
ATOM     65  C   UNL A   1      39.670  33.304  35.741  1.00  0.00     0.037 A 
BRANCH  52  66
ATOM     66  C   UNL A   1      36.519  33.079  30.438  1.00  0.00     0.057 A 
ATOM     67  C   UNL A   1      36.806  33.969  29.396  1.00  0.00     0.134 A 
ATOM     68  C   UNL A   1      35.179  32.720  30.632  1.00  0.00     0.134 A 
ATOM     69  F   UNL A   1      38.069  34.362  29.166  1.00  0.00    -0.206 F 
ATOM     70  C   UNL A   1      35.797  34.500  28.590  1.00  0.00     0.040 A 
ATOM     71  C   UNL A   1      34.164  33.225  29.816  1.00  0.00     0.040 A 
ATOM     72  F   UNL A   1      34.836  31.867  31.608  1.00  0.00    -0.206 F 
ATOM     73  C   UNL A   1      34.472  34.121  28.795  1.00  0.00     0.006 A 
ENDBRANCH  52  66
BRANCH  53  74
ATOM     74  C   UNL A   1      43.982  29.068  35.686  1.00  0.00     0.057 A 
ATOM     75  C   UNL A   1      43.776  28.051  36.625  1.00  0.00     0.134 A 
ATOM     76  C   UNL A   1      45.291  29.533  35.514  1.00  0.00     0.134 A 
ATOM     77  F   UNL A   1      42.540  27.579  36.846  1.00  0.00    -0.206 F 
ATOM     78  C   UNL A   1      44.827  27.527  37.378  1.00  0.00     0.040 A 
ATOM     79  C   UNL A   1      46.356  29.003  36.244  1.00  0.00     0.040 A 
ATOM     80  F   UNL A   1      45.555  30.502  34.625  1.00  0.00    -0.206 F 
ATOM     81  C   UNL A   1      46.123  28.002  37.185  1.00  0.00     0.006 A 
ENDBRANCH  53  74
BRANCH  65  82
ATOM     82  C   UNL A   1      39.473  34.220  36.913  1.00  0.00     0.057 A 
ATOM     83  C   UNL A   1      38.794  33.805  38.066  1.00  0.00     0.134 A 
ATOM     84  C   UNL A   1      39.999  35.517  36.900  1.00  0.00     0.134 A 
ATOM     85  F   UNL A   1      38.255  32.579  38.133  1.00  0.00    -0.206 F 
ATOM     86  C   UNL A   1      38.630  34.657  39.159  1.00  0.00     0.040 A 
ATOM     87  C   UNL A   1      39.861  36.370  37.996  1.00  0.00     0.040 A 
ATOM     88  F   UNL A   1      40.666  35.972  35.828  1.00  0.00    -0.206 F 
ATOM     89  C   UNL A   1      39.170  35.942  39.127  1.00  0.00     0.006 A 
ENDBRANCH  65  82
ENDBRANCH  39  40
ENDBRANCH  31  34
ENDBRANCH  29  30
ENDBRANCH   1  29
TORSDOF 12
ENDMDL
MODEL 2
REMARK VINA RESULT:     -12.9      2.712      7.878
REMARK SMILES C[NH+]1CCN(C(=O)c2ccc3c(c2)N(CC(=O)NCCCNC(=O)c2ccc(-c4c5nc(c(-c6c(F)cccc6F)c6ccc([nH]6)c(-c6c(F)cccc6F)c6nc(c(-c7c(F)cccc7F)c7ccc4[nH]7)C=C6)C=C5)cc2)C(=O)CO3)CC1
REMARK SMILES IDX 20 1 19 2 18 3 16 4 17 5 15 7 14 8 8 9 9 10 13 11 10 12
REMARK SMILES IDX 12 13 11 14 82 15 79 16 81 17 80 18 6 19 1 20 2 21 3 22
REMARK SMILES IDX 84 23 4 25 83 26 5 27 7 28 21 29 22 30 23 31 24 33 25 34
REMARK SMILES IDX 26 35 78 36 27 37 77 38 28 39 29 40 30 41 71 42 31 43 76 44
REMARK SMILES IDX 70 45 72 46 32 47 75 48 69 49 68 50 33 52 59 53 42 54 58 55
REMARK SMILES IDX 43 56 46 57 57 58 73 59 44 60 45 61 56 63 74 64 47 65 34 66
REMARK SMILES IDX 35 67 40 68 36 69 37 70 39 71 41 72 38 73 60 74 61 75 66 76
REMARK SMILES IDX 62 77 63 78 65 79 67 80 64 81 48 82 49 83 54 84 50 85 51 86
REMARK SMILES IDX 53 87 55 88 52 89
REMARK H PARENT 18 6 2 24 22 32 72 51 46 62
REMARK Flexibility Score: inf
ROOT
ATOM      1  C   UNL A   1      33.327  28.804  23.363  1.00  0.00     0.042 C 
ENDROOT
BRANCH   1   2
ATOM      2  C   UNL A   1      32.737  27.500  22.831  1.00  0.00     0.117 C 
BRANCH   2   3
ATOM      3  N   UNL A   1      33.722  26.442  22.736  1.00  0.00    -0.354 N 
ATOM      4  C   UNL A   1      33.544  25.092  22.753  1.00  0.00     0.240 C 
ATOM      5  O   UNL A   1      34.535  24.386  22.545  1.00  0.00    -0.273 OA
ATOM      6  H   UNL A   1      34.656  26.742  22.647  1.00  0.00     0.163 HD
BRANCH   4   7
ATOM      7  C   UNL A   1      32.163  24.461  22.970  1.00  0.00     0.225 C 
BRANCH   7   8
ATOM      8  N   UNL A   1      31.772  24.313  24.371  1.00  0.00    -0.296 N 
ATOM      9  C   UNL A   1      33.763  21.365  25.566  1.00  0.00     0.042 A 
ATOM     10  C   UNL A   1      33.539  21.434  26.942  1.00  0.00     0.018 A 
ATOM     11  C   UNL A   1      33.145  22.273  24.694  1.00  0.00     0.044 A 
ATOM     12  C   UNL A   1      32.727  22.440  27.454  1.00  0.00     0.049 A 
ATOM     13  C   UNL A   1      32.343  23.303  25.201  1.00  0.00     0.087 A 
ATOM     14  C   UNL A   1      32.129  23.361  26.590  1.00  0.00     0.143 A 
ATOM     15  O   UNL A   1      31.394  24.342  27.196  1.00  0.00    -0.482 OA
ATOM     16  C   UNL A   1      30.826  25.183  24.899  1.00  0.00     0.265 C 
ATOM     17  C   UNL A   1      30.419  24.901  26.339  1.00  0.00     0.330 C 
ATOM     18  O   UNL A   1      30.288  26.083  24.253  1.00  0.00    -0.270 OA
BRANCH   9  19
ATOM     19  C   UNL A   1      34.615  20.271  25.049  1.00  0.00     0.254 C 
ATOM     20  C   UNL A   1      32.875  14.965  25.406  1.00  0.00     0.332 C 
ATOM     21  N   UNL A   1      33.139  16.257  24.772  1.00  0.00    -0.334 N 
ATOM     22  C   UNL A   1      34.580  16.586  24.849  1.00  0.00     0.283 C 
ATOM     23  C   UNL A   1      32.362  17.322  25.439  1.00  0.00     0.283 C 
ATOM     24  H   UNL A   1      32.860  16.193  23.793  1.00  0.00     0.347 HD
ATOM     25  C   UNL A   1      34.903  17.969  24.247  1.00  0.00     0.181 C 
ATOM     26  C   UNL A   1      32.623  18.700  24.804  1.00  0.00     0.181 C 
ATOM     27  N   UNL A   1      34.053  19.027  24.801  1.00  0.00    -0.327 N 
ATOM     28  O   UNL A   1      35.798  20.540  24.845  1.00  0.00    -0.269 OA
ENDBRANCH   9  19
ENDBRANCH   7   8
ENDBRANCH   4   7
ENDBRANCH   2   3
ENDBRANCH   1   2
BRANCH   1  29
ATOM     29  C   UNL A   1      33.389  28.893  24.889  1.00  0.00     0.118 C 
BRANCH  29  30
ATOM     30  N   UNL A   1      32.600  29.993  25.424  1.00  0.00    -0.352 N 
ATOM     31  C   UNL A   1      32.789  30.770  26.537  1.00  0.00     0.251 C 
ATOM     32  H   UNL A   1      31.798  30.217  24.898  1.00  0.00     0.163 HD
ATOM     33  O   UNL A   1      31.894  31.540  26.890  1.00  0.00    -0.269 OA
BRANCH  31  34
ATOM     34  C   UNL A   1      34.035  30.693  27.331  1.00  0.00     0.039 A 
ATOM     35  C   UNL A   1      34.431  29.448  27.833  1.00  0.00     0.014 A 
ATOM     36  C   UNL A   1      34.783  31.833  27.633  1.00  0.00     0.014 A 
ATOM     37  C   UNL A   1      35.604  29.338  28.583  1.00  0.00     0.010 A 
ATOM     38  C   UNL A   1      35.987  31.713  28.329  1.00  0.00     0.010 A 
ATOM     39  C   UNL A   1      36.410  30.465  28.810  1.00  0.00    -0.014 A 
BRANCH  39  40
ATOM     40  C   UNL A   1      37.700  30.354  29.537  1.00  0.00     0.031 A 
ATOM     41  C   UNL A   1      38.860  29.618  28.927  1.00  0.00     0.074 A 
ATOM     42  C   UNL A   1      37.806  30.861  30.781  1.00  0.00     0.049 A 
ATOM     43  N   UNL A   1      40.029  29.342  29.445  1.00  0.00    -0.248 NA
ATOM     44  C   UNL A   1      38.671  29.102  27.561  1.00  0.00     0.031 C 
ATOM     45  C   UNL A   1      36.743  31.563  31.502  1.00  0.00     0.029 A 
ATOM     46  N   UNL A   1      38.856  30.850  31.665  1.00  0.00    -0.354 N 
ATOM     47  C   UNL A   1      40.708  28.607  28.481  1.00  0.00     0.074 A 
ATOM     48  C   UNL A   1      39.805  28.446  27.361  1.00  0.00     0.031 C 
ATOM     49  C   UNL A   1      37.199  31.925  32.712  1.00  0.00     0.029 A 
ATOM     50  C   UNL A   1      38.571  31.452  32.866  1.00  0.00     0.049 A 
ATOM     51  H   UNL A   1      39.731  30.447  31.458  1.00  0.00     0.167 HD
ATOM     52  C   UNL A   1      41.972  28.123  28.520  1.00  0.00     0.037 A 
ATOM     53  C   UNL A   1      39.326  31.598  33.972  1.00  0.00     0.037 A 
ATOM     54  C   UNL A   1      42.883  28.309  29.620  1.00  0.00     0.049 A 
ATOM     55  C   UNL A   1      40.728  31.058  33.986  1.00  0.00     0.074 A 
ATOM     56  C   UNL A   1      44.204  27.910  29.723  1.00  0.00     0.029 A 
ATOM     57  N   UNL A   1      42.564  28.949  30.808  1.00  0.00    -0.354 N 
ATOM     58  N   UNL A   1      41.374  30.415  33.044  1.00  0.00    -0.248 NA
ATOM     59  C   UNL A   1      41.507  31.268  35.214  1.00  0.00     0.031 C 
ATOM     60  C   UNL A   1      44.675  28.279  30.989  1.00  0.00     0.029 A 
ATOM     61  C   UNL A   1      43.658  28.941  31.656  1.00  0.00     0.049 A 
ATOM     62  H   UNL A   1      41.689  29.349  31.017  1.00  0.00     0.167 HD
ATOM     63  C   UNL A   1      42.641  30.167  33.556  1.00  0.00     0.074 A 
ATOM     64  C   UNL A   1      42.677  30.738  34.886  1.00  0.00     0.031 C 
ATOM     65  C   UNL A   1      43.681  29.521  32.974  1.00  0.00     0.037 A 
BRANCH  52  66
ATOM     66  C   UNL A   1      42.454  27.347  27.329  1.00  0.00     0.057 A 
ATOM     67  C   UNL A   1      43.007  27.981  26.210  1.00  0.00     0.134 A 
ATOM     68  C   UNL A   1      42.403  25.947  27.320  1.00  0.00     0.134 A 
ATOM     69  F   UNL A   1      43.074  29.320  26.152  1.00  0.00    -0.206 F 
ATOM     70  C   UNL A   1      43.472  27.253  25.113  1.00  0.00     0.040 A 
ATOM     71  C   UNL A   1      42.887  25.207  26.240  1.00  0.00     0.040 A 
ATOM     72  F   UNL A   1      41.892  25.277  28.364  1.00  0.00    -0.206 F 
ATOM     73  C   UNL A   1      43.419  25.860  25.130  1.00  0.00     0.006 A 
ENDBRANCH  52  66
BRANCH  53  74
ATOM     74  C   UNL A   1      38.777  32.302  35.156  1.00  0.00     0.057 A 
ATOM     75  C   UNL A   1      38.801  33.699  35.238  1.00  0.00     0.134 A 
ATOM     76  C   UNL A   1      38.224  31.600  36.233  1.00  0.00     0.134 A 
ATOM     77  F   UNL A   1      39.335  34.423  34.244  1.00  0.00    -0.206 F 
ATOM     78  C   UNL A   1      38.311  34.374  36.357  1.00  0.00     0.040 A 
ATOM     79  C   UNL A   1      37.710  32.263  37.350  1.00  0.00     0.040 A 
ATOM     80  F   UNL A   1      38.166  30.261  36.211  1.00  0.00    -0.206 F 
ATOM     81  C   UNL A   1      37.760  33.653  37.416  1.00  0.00     0.006 A 
ENDBRANCH  53  74
BRANCH  65  82
ATOM     82  C   UNL A   1      44.956  29.430  33.760  1.00  0.00     0.057 A 
ATOM     83  C   UNL A   1      45.232  28.337  34.590  1.00  0.00     0.134 A 
ATOM     84  C   UNL A   1      45.930  30.430  33.656  1.00  0.00     0.134 A 
ATOM     85  F   UNL A   1      44.332  27.354  34.743  1.00  0.00    -0.206 F 
ATOM     86  C   UNL A   1      46.428  28.251  35.305  1.00  0.00     0.040 A 
ATOM     87  C   UNL A   1      47.139  30.343  34.348  1.00  0.00     0.040 A 
ATOM     88  F   UNL A   1      45.729  31.499  32.872  1.00  0.00    -0.206 F 
ATOM     89  C   UNL A   1      47.387  29.254  35.180  1.00  0.00     0.006 A 
ENDBRANCH  65  82
ENDBRANCH  39  40
ENDBRANCH  31  34
ENDBRANCH  29  30
ENDBRANCH   1  29
TORSDOF 12
ENDMDL
MODEL 3
REMARK VINA RESULT:     -12.8      4.120      8.600
REMARK SMILES C[NH+]1CCN(C(=O)c2ccc3c(c2)N(CC(=O)NCCCNC(=O)c2ccc(-c4c5nc(c(-c6c(F)cccc6F)c6ccc([nH]6)c(-c6c(F)cccc6F)c6nc(c(-c7c(F)cccc7F)c7ccc4[nH]7)C=C6)C=C5)cc2)C(=O)CO3)CC1
REMARK SMILES IDX 20 1 19 2 18 3 16 4 17 5 15 7 14 8 8 9 9 10 13 11 10 12
REMARK SMILES IDX 12 13 11 14 82 15 79 16 81 17 80 18 6 19 1 20 2 21 3 22
REMARK SMILES IDX 84 23 4 25 83 26 5 27 7 28 21 29 22 30 23 31 24 33 25 34
REMARK SMILES IDX 26 35 78 36 27 37 77 38 28 39 29 40 30 41 71 42 31 43 76 44
REMARK SMILES IDX 70 45 72 46 32 47 75 48 69 49 68 50 33 52 59 53 42 54 58 55
REMARK SMILES IDX 43 56 46 57 57 58 73 59 44 60 45 61 56 63 74 64 47 65 34 66
REMARK SMILES IDX 35 67 40 68 36 69 37 70 39 71 41 72 38 73 60 74 61 75 66 76
REMARK SMILES IDX 62 77 63 78 65 79 67 80 64 81 48 82 49 83 54 84 50 85 51 86
REMARK SMILES IDX 53 87 55 88 52 89
REMARK H PARENT 18 6 2 24 22 32 72 51 46 62
REMARK Flexibility Score: inf
ROOT
ATOM      1  C   UNL A   1      32.190  27.666  27.752  1.00  0.00     0.042 C 
ENDROOT
BRANCH   1   2
ATOM      2  C   UNL A   1      31.466  26.802  26.723  1.00  0.00     0.117 C 
BRANCH   2   3
ATOM      3  N   UNL A   1      31.603  25.385  26.991  1.00  0.00    -0.354 N 
ATOM      4  C   UNL A   1      31.318  24.322  26.189  1.00  0.00     0.240 C 
ATOM      5  O   UNL A   1      31.625  23.201  26.603  1.00  0.00    -0.273 OA
ATOM      6  H   UNL A   1      31.952  25.157  27.884  1.00  0.00     0.163 HD
BRANCH   4   7
ATOM      7  C   UNL A   1      30.689  24.502  24.803  1.00  0.00     0.225 C 
BRANCH   7   8
ATOM      8  N   UNL A   1      31.638  24.824  23.738  1.00  0.00    -0.296 N 
ATOM      9  C   UNL A   1      31.620  28.574  23.604  1.00  0.00     0.042 A 
ATOM     10  C   UNL A   1      32.707  28.815  22.762  1.00  0.00     0.018 A 
ATOM     11  C   UNL A   1      31.216  27.263  23.895  1.00  0.00     0.044 A 
ATOM     12  C   UNL A   1      33.421  27.741  22.243  1.00  0.00     0.049 A 
ATOM     13  C   UNL A   1      31.942  26.174  23.394  1.00  0.00     0.087 A 
ATOM     14  C   UNL A   1      33.036  26.433  22.550  1.00  0.00     0.143 A 
ATOM     15  O   UNL A   1      33.835  25.451  22.033  1.00  0.00    -0.482 OA
ATOM     16  C   UNL A   1      32.258  23.785  23.055  1.00  0.00     0.265 C 
ATOM     17  C   UNL A   1      33.165  24.212  21.909  1.00  0.00     0.330 C 
ATOM     18  O   UNL A   1      32.055  22.593  23.292  1.00  0.00    -0.270 OA
BRANCH   9  19
ATOM     19  C   UNL A   1      30.867  29.736  24.125  1.00  0.00     0.254 C 
ATOM     20  C   UNL A   1      27.715  32.805  20.666  1.00  0.00     0.332 C 
ATOM     21  N   UNL A   1      28.007  31.797  21.686  1.00  0.00    -0.334 N 
ATOM     22  C   UNL A   1      28.675  32.419  22.851  1.00  0.00     0.283 C 
ATOM     23  C   UNL A   1      28.884  30.746  21.129  1.00  0.00     0.283 C 
ATOM     24  H   UNL A   1      27.124  31.382  21.985  1.00  0.00     0.347 HD
ATOM     25  C   UNL A   1      29.060  31.387  23.931  1.00  0.00     0.181 C 
ATOM     26  C   UNL A   1      29.222  29.671  22.178  1.00  0.00     0.181 C 
ATOM     27  N   UNL A   1      29.823  30.265  23.378  1.00  0.00    -0.327 N 
ATOM     28  O   UNL A   1      31.205  30.166  25.226  1.00  0.00    -0.269 OA
ENDBRANCH   9  19
ENDBRANCH   7   8
ENDBRANCH   4   7
ENDBRANCH   2   3
ENDBRANCH   1   2
BRANCH   1  29
ATOM     29  C   UNL A   1      33.438  28.371  27.218  1.00  0.00     0.118 C 
BRANCH  29  30
ATOM     30  N   UNL A   1      33.422  29.808  27.456  1.00  0.00    -0.352 N 
ATOM     31  C   UNL A   1      34.369  30.634  28.004  1.00  0.00     0.251 C 
ATOM     32  H   UNL A   1      32.594  30.261  27.176  1.00  0.00     0.163 HD
ATOM     33  O   UNL A   1      34.069  31.800  28.263  1.00  0.00    -0.269 OA
BRANCH  31  34
ATOM     34  C   UNL A   1      35.735  30.152  28.304  1.00  0.00     0.039 A 
ATOM     35  C   UNL A   1      36.694  30.186  27.285  1.00  0.00     0.014 A 
ATOM     36  C   UNL A   1      36.066  29.617  29.551  1.00  0.00     0.014 A 
ATOM     37  C   UNL A   1      37.995  29.743  27.534  1.00  0.00     0.010 A 
ATOM     38  C   UNL A   1      37.380  29.232  29.818  1.00  0.00     0.010 A 
ATOM     39  C   UNL A   1      38.358  29.292  28.813  1.00  0.00    -0.014 A 
BRANCH  39  40
ATOM     40  C   UNL A   1      39.754  28.891  29.120  1.00  0.00     0.031 A 
ATOM     41  C   UNL A   1      40.691  29.847  29.807  1.00  0.00     0.074 A 
ATOM     42  C   UNL A   1      40.202  27.685  28.718  1.00  0.00     0.049 A 
ATOM     43  N   UNL A   1      41.964  29.707  30.075  1.00  0.00    -0.248 NA
ATOM     44  C   UNL A   1      40.126  31.140  30.224  1.00  0.00     0.031 C 
ATOM     45  C   UNL A   1      39.407  26.681  28.008  1.00  0.00     0.029 A 
ATOM     46  N   UNL A   1      41.440  27.105  28.837  1.00  0.00    -0.354 N 
ATOM     47  C   UNL A   1      42.357  30.897  30.674  1.00  0.00     0.074 A 
ATOM     48  C   UNL A   1      41.197  31.762  30.695  1.00  0.00     0.031 C 
ATOM     49  C   UNL A   1      40.174  25.606  27.765  1.00  0.00     0.029 A 
ATOM     50  C   UNL A   1      41.521  25.856  28.270  1.00  0.00     0.049 A 
ATOM     51  H   UNL A   1      42.200  27.543  29.286  1.00  0.00     0.167 HD
ATOM     52  C   UNL A   1      43.570  31.232  31.176  1.00  0.00     0.037 A 
ATOM     53  C   UNL A   1      42.563  25.012  28.159  1.00  0.00     0.037 A 
ATOM     54  C   UNL A   1      44.717  30.361  31.184  1.00  0.00     0.049 A 
ATOM     55  C   UNL A   1      43.896  25.405  28.730  1.00  0.00     0.074 A 
ATOM     56  C   UNL A   1      45.969  30.590  31.727  1.00  0.00     0.029 A 
ATOM     57  N   UNL A   1      44.749  29.094  30.624  1.00  0.00    -0.354 N 
ATOM     58  N   UNL A   1      44.237  26.512  29.344  1.00  0.00    -0.248 NA
ATOM     59  C   UNL A   1      44.989  24.432  28.595  1.00  0.00     0.031 C 
ATOM     60  C   UNL A   1      46.771  29.473  31.465  1.00  0.00     0.029 A 
ATOM     61  C   UNL A   1      46.005  28.535  30.793  1.00  0.00     0.049 A 
ATOM     62  H   UNL A   1      43.991  28.656  30.173  1.00  0.00     0.167 HD
ATOM     63  C   UNL A   1      45.573  26.357  29.692  1.00  0.00     0.074 A 
ATOM     64  C   UNL A   1      45.977  25.045  29.230  1.00  0.00     0.031 C 
ATOM     65  C   UNL A   1      46.390  27.225  30.336  1.00  0.00     0.037 A 
BRANCH  52  66
ATOM     66  C   UNL A   1      43.721  32.604  31.766  1.00  0.00     0.057 A 
ATOM     67  C   UNL A   1      44.116  33.701  30.990  1.00  0.00     0.134 A 
ATOM     68  C   UNL A   1      43.428  32.838  33.115  1.00  0.00     0.134 A 
ATOM     69  F   UNL A   1      44.423  33.540  29.693  1.00  0.00    -0.206 F 
ATOM     70  C   UNL A   1      44.236  34.978  31.540  1.00  0.00     0.040 A 
ATOM     71  C   UNL A   1      43.521  34.116  33.670  1.00  0.00     0.040 A 
ATOM     72  F   UNL A   1      43.037  31.832  33.913  1.00  0.00    -0.206 F 
ATOM     73  C   UNL A   1      43.930  35.189  32.882  1.00  0.00     0.006 A 
ENDBRANCH  52  66
BRANCH  53  74
ATOM     74  C   UNL A   1      42.386  23.699  27.494  1.00  0.00     0.057 A 
ATOM     75  C   UNL A   1      42.125  22.543  28.239  1.00  0.00     0.134 A 
ATOM     76  C   UNL A   1      42.480  23.564  26.104  1.00  0.00     0.134 A 
ATOM     77  F   UNL A   1      42.043  22.608  29.576  1.00  0.00    -0.206 F 
ATOM     78  C   UNL A   1      41.981  21.297  27.628  1.00  0.00     0.040 A 
ATOM     79  C   UNL A   1      42.316  22.328  25.477  1.00  0.00     0.040 A 
ATOM     80  F   UNL A   1      42.721  24.636  25.334  1.00  0.00    -0.206 F 
ATOM     81  C   UNL A   1      42.073  21.189  26.241  1.00  0.00     0.006 A 
ENDBRANCH  53  74
BRANCH  65  82
ATOM     82  C   UNL A   1      47.793  26.770  30.608  1.00  0.00     0.057 A 
ATOM     83  C   UNL A   1      48.847  27.067  29.734  1.00  0.00     0.134 A 
ATOM     84  C   UNL A   1      48.098  26.059  31.775  1.00  0.00     0.134 A 
ATOM     85  F   UNL A   1      48.616  27.733  28.593  1.00  0.00    -0.206 F 
ATOM     86  C   UNL A   1      50.153  26.655  30.003  1.00  0.00     0.040 A 
ATOM     87  C   UNL A   1      49.404  25.662  32.066  1.00  0.00     0.040 A 
ATOM     88  F   UNL A   1      47.135  25.750  32.656  1.00  0.00    -0.206 F 
ATOM     89  C   UNL A   1      50.434  25.955  31.175  1.00  0.00     0.006 A 
ENDBRANCH  65  82
ENDBRANCH  39  40
ENDBRANCH  31  34
ENDBRANCH  29  30
ENDBRANCH   1  29
TORSDOF 12
ENDMDL
