MODEL 1
REMARK VINA RESULT:     -13.2      0.000      0.000
REMARK SMILES O=C(COc1c(Cl)cc(/C=C2/C(=O)NC(=O)N=C2O)cc1Cl)NCCCNC(=O)c1ccc(-c2c3nc(c(-c4c(F)cccc4F)c4ccc([nH]4)c(-c4c(F)cccc4F)c4nc(c(-c5c(F)cccc5F)c5ccc2[nH]5)C=C4)C=C3)cc1
REMARK SMILES IDX 24 1 23 2 1 3 2 4 3 6 4 7 5 8 6 9 21 10 7 11 8 12 20 13
REMARK SMILES IDX 22 14 9 15 10 16 11 17 12 18 18 19 13 20 14 21 17 22 15 23
REMARK SMILES IDX 16 25 19 26 25 28 26 29 27 30 28 31 29 33 30 34 31 35 83 36
REMARK SMILES IDX 32 37 82 38 33 39 34 40 35 41 76 42 36 43 81 44 75 45 77 46
REMARK SMILES IDX 37 47 80 48 74 49 73 50 38 52 64 53 47 54 63 55 48 56 51 57
REMARK SMILES IDX 62 58 78 59 49 60 50 61 61 63 79 64 52 65 39 66 40 67 45 68
REMARK SMILES IDX 41 69 42 70 44 71 46 72 43 73 65 74 66 75 71 76 67 77 68 78
REMARK SMILES IDX 70 79 72 80 69 81 53 82 54 83 59 84 55 85 56 86 58 87 60 88
REMARK SMILES IDX 57 89
REMARK H PARENT 23 5 14 24 19 27 27 32 77 51 51 62
REMARK Flexibility Score: inf
ROOT
ATOM      1  C   UNL A   1      32.769  29.318  24.621  1.00  0.00     0.117 C 
ENDROOT
BRANCH   1   2
ATOM      2  N   UNL A   1      33.316  28.170  25.304  1.00  0.00    -0.353 N 
ATOM      3  O   UNL A   1      31.928  26.568  24.401  1.00  0.00    -0.271 OA
ATOM      4  C   UNL A   1      32.968  26.875  24.972  1.00  0.00     0.257 C 
ATOM      5  H   UNL A   1      33.961  28.316  26.034  1.00  0.00     0.163 HD
BRANCH   4   6
ATOM      6  C   UNL A   1      34.056  25.858  25.329  1.00  0.00     0.329 C 
BRANCH   6   7
ATOM      7  O   UNL A   1      33.563  24.874  26.239  1.00  0.00    -0.481 OA
BRANCH   7   8
ATOM      8  C   UNL A   1      33.341  23.605  25.768  1.00  0.00     0.157 A 
ATOM      9  C   UNL A   1      32.104  23.052  25.405  1.00  0.00     0.085 A 
ATOM     10  C   UNL A   1      34.499  22.862  25.477  1.00  0.00     0.085 A 
ATOM     11  Cl  UNL A   1      30.573  23.817  25.588  1.00  0.00    -0.080 Cl
ATOM     12  C   UNL A   1      32.042  21.795  24.788  1.00  0.00     0.032 A 
ATOM     13  C   UNL A   1      34.428  21.616  24.841  1.00  0.00     0.032 A 
ATOM     14  Cl  UNL A   1      36.072  23.454  25.900  1.00  0.00    -0.080 Cl
ATOM     15  C   UNL A   1      33.194  21.055  24.519  1.00  0.00    -0.021 A 
BRANCH  15  16
ATOM     16  C   UNL A   1      33.024  19.780  23.811  1.00  0.00     0.027 C 
ATOM     17  C   UNL A   1      32.934  18.520  24.276  1.00  0.00     0.102 C 
ATOM     18  C   UNL A   1      32.806  17.448  23.256  1.00  0.00     0.264 C 
ATOM     19  C   UNL A   1      32.973  18.021  25.652  1.00  0.00     0.228 C 
ATOM     20  O   UNL A   1      32.588  17.653  22.068  1.00  0.00    -0.269 OA
ATOM     21  N   UNL A   1      32.979  16.189  23.752  1.00  0.00    -0.272 N 
ATOM     22  N   UNL A   1      33.117  16.805  26.024  1.00  0.00    -0.157 NA
ATOM     23  C   UNL A   1      33.234  15.849  25.055  1.00  0.00     0.351 C 
ATOM     24  H   UNL A   1      32.914  15.447  23.108  1.00  0.00     0.175 HD
ATOM     25  O   UNL A   1      33.548  14.689  25.312  1.00  0.00    -0.246 OA
BRANCH  19  26
ATOM     26  O   UNL A   1      32.795  18.926  26.618  1.00  0.00    -0.493 OA
ATOM     27  H   UNL A   1      32.797  19.840  26.409  1.00  0.00     0.295 HD
ENDBRANCH  19  26
ENDBRANCH  15  16
ENDBRANCH   7   8
ENDBRANCH   6   7
ENDBRANCH   4   6
ENDBRANCH   1   2
BRANCH   1  28
ATOM     28  C   UNL A   1      31.596  29.949  25.338  1.00  0.00     0.042 C 
BRANCH  28  29
ATOM     29  C   UNL A   1      31.931  30.466  26.728  1.00  0.00     0.118 C 
BRANCH  29  30
ATOM     30  N   UNL A   1      31.911  31.920  26.832  1.00  0.00    -0.352 N 
ATOM     31  C   UNL A   1      32.791  32.777  27.445  1.00  0.00     0.251 C 
ATOM     32  H   UNL A   1      31.147  32.357  26.391  1.00  0.00     0.163 HD
ATOM     33  O   UNL A   1      32.523  33.973  27.519  1.00  0.00    -0.269 OA
BRANCH  31  34
ATOM     34  C   UNL A   1      34.046  32.268  28.043  1.00  0.00     0.039 A 
ATOM     35  C   UNL A   1      35.062  33.177  28.348  1.00  0.00     0.014 A 
ATOM     36  C   UNL A   1      34.235  30.908  28.293  1.00  0.00     0.014 A 
ATOM     37  C   UNL A   1      36.241  32.725  28.946  1.00  0.00     0.010 A 
ATOM     38  C   UNL A   1      35.358  30.476  28.993  1.00  0.00     0.010 A 
ATOM     39  C   UNL A   1      36.388  31.374  29.301  1.00  0.00    -0.014 A 
BRANCH  39  40
ATOM     40  C   UNL A   1      37.633  30.884  29.946  1.00  0.00     0.031 A 
ATOM     41  C   UNL A   1      37.934  31.243  31.379  1.00  0.00     0.074 A 
ATOM     42  C   UNL A   1      38.506  30.138  29.242  1.00  0.00     0.049 A 
ATOM     43  N   UNL A   1      38.959  30.903  32.120  1.00  0.00    -0.248 NA
ATOM     44  C   UNL A   1      36.971  32.121  32.063  1.00  0.00     0.031 C 
ATOM     45  C   UNL A   1      38.363  29.771  27.832  1.00  0.00     0.029 A 
ATOM     46  N   UNL A   1      39.687  29.549  29.619  1.00  0.00    -0.354 N 
ATOM     47  C   UNL A   1      38.766  31.532  33.344  1.00  0.00     0.074 A 
ATOM     48  C   UNL A   1      37.569  32.333  33.225  1.00  0.00     0.031 C 
ATOM     49  C   UNL A   1      39.391  28.986  27.475  1.00  0.00     0.029 A 
ATOM     50  C   UNL A   1      40.284  28.823  28.617  1.00  0.00     0.049 A 
ATOM     51  H   UNL A   1      40.070  29.640  30.522  1.00  0.00     0.167 HD
ATOM     52  C   UNL A   1      39.498  31.427  34.478  1.00  0.00     0.037 A 
ATOM     53  C   UNL A   1      41.421  28.102  28.624  1.00  0.00     0.037 A 
ATOM     54  C   UNL A   1      40.680  30.615  34.602  1.00  0.00     0.049 A 
ATOM     55  C   UNL A   1      42.217  27.999  29.896  1.00  0.00     0.074 A 
ATOM     56  C   UNL A   1      41.468  30.402  35.719  1.00  0.00     0.029 A 
ATOM     57  N   UNL A   1      41.244  29.882  33.569  1.00  0.00    -0.354 N 
ATOM     58  N   UNL A   1      41.983  28.539  31.068  1.00  0.00    -0.248 NA
ATOM     59  C   UNL A   1      43.429  27.169  29.850  1.00  0.00     0.031 C 
ATOM     60  C   UNL A   1      42.539  29.583  35.349  1.00  0.00     0.029 A 
ATOM     61  C   UNL A   1      42.382  29.231  34.018  1.00  0.00     0.049 A 
ATOM     62  H   UNL A   1      40.890  29.832  32.651  1.00  0.00     0.167 HD
ATOM     63  C   UNL A   1      42.991  28.082  31.907  1.00  0.00     0.074 A 
ATOM     64  C   UNL A   1      43.830  27.209  31.112  1.00  0.00     0.031 C 
ATOM     65  C   UNL A   1      43.202  28.356  33.219  1.00  0.00     0.037 A 
BRANCH  52  66
ATOM     66  C   UNL A   1      39.036  32.210  35.675  1.00  0.00     0.057 A 
ATOM     67  C   UNL A   1      38.221  31.640  36.665  1.00  0.00     0.134 A 
ATOM     68  C   UNL A   1      39.427  33.543  35.854  1.00  0.00     0.134 A 
ATOM     69  F   UNL A   1      37.797  30.372  36.550  1.00  0.00    -0.206 F 
ATOM     70  C   UNL A   1      37.787  32.377  37.769  1.00  0.00     0.040 A 
ATOM     71  C   UNL A   1      39.027  34.278  36.971  1.00  0.00     0.040 A 
ATOM     72  F   UNL A   1      40.211  34.151  34.951  1.00  0.00    -0.206 F 
ATOM     73  C   UNL A   1      38.197  33.698  37.928  1.00  0.00     0.006 A 
ENDBRANCH  52  66
BRANCH  53  74
ATOM     74  C   UNL A   1      41.858  27.386  27.396  1.00  0.00     0.057 A 
ATOM     75  C   UNL A   1      41.525  26.043  27.182  1.00  0.00     0.134 A 
ATOM     76  C   UNL A   1      42.637  28.019  26.420  1.00  0.00     0.134 A 
ATOM     77  F   UNL A   1      40.796  25.376  28.089  1.00  0.00    -0.206 F 
ATOM     78  C   UNL A   1      41.973  25.347  26.058  1.00  0.00     0.040 A 
ATOM     79  C   UNL A   1      43.066  27.344  25.275  1.00  0.00     0.040 A 
ATOM     80  F   UNL A   1      42.982  29.307  26.559  1.00  0.00    -0.206 F 
ATOM     81  C   UNL A   1      42.743  26.000  25.098  1.00  0.00     0.006 A 
ENDBRANCH  53  74
BRANCH  65  82
ATOM     82  C   UNL A   1      44.349  27.655  33.891  1.00  0.00     0.057 A 
ATOM     83  C   UNL A   1      44.212  26.396  34.488  1.00  0.00     0.134 A 
ATOM     84  C   UNL A   1      45.617  28.252  33.928  1.00  0.00     0.134 A 
ATOM     85  F   UNL A   1      43.025  25.771  34.497  1.00  0.00    -0.206 F 
ATOM     86  C   UNL A   1      45.283  25.775  35.136  1.00  0.00     0.040 A 
ATOM     87  C   UNL A   1      46.702  27.626  34.541  1.00  0.00     0.040 A 
ATOM     88  F   UNL A   1      45.824  29.452  33.363  1.00  0.00    -0.206 F 
ATOM     89  C   UNL A   1      46.533  26.389  35.159  1.00  0.00     0.006 A 
ENDBRANCH  65  82
ENDBRANCH  39  40
ENDBRANCH  31  34
ENDBRANCH  29  30
ENDBRANCH  28  29
ENDBRANCH   1  28
TORSDOF 14
ENDMDL
MODEL 2
REMARK VINA RESULT:     -13.0      1.671      2.675
REMARK SMILES O=C(COc1c(Cl)cc(/C=C2/C(=O)NC(=O)N=C2O)cc1Cl)NCCCNC(=O)c1ccc(-c2c3nc(c(-c4c(F)cccc4F)c4ccc([nH]4)c(-c4c(F)cccc4F)c4nc(c(-c5c(F)cccc5F)c5ccc2[nH]5)C=C4)C=C3)cc1
REMARK SMILES IDX 24 1 23 2 1 3 2 4 3 6 4 7 5 8 6 9 21 10 7 11 8 12 20 13
REMARK SMILES IDX 22 14 9 15 10 16 11 17 12 18 18 19 13 20 14 21 17 22 15 23
REMARK SMILES IDX 16 25 19 26 25 28 26 29 27 30 28 31 29 33 30 34 31 35 83 36
REMARK SMILES IDX 32 37 82 38 33 39 34 40 35 41 76 42 36 43 81 44 75 45 77 46
REMARK SMILES IDX 37 47 80 48 74 49 73 50 38 52 64 53 47 54 63 55 48 56 51 57
REMARK SMILES IDX 62 58 78 59 49 60 50 61 61 63 79 64 52 65 39 66 40 67 45 68
REMARK SMILES IDX 41 69 42 70 44 71 46 72 43 73 65 74 66 75 71 76 67 77 68 78
REMARK SMILES IDX 70 79 72 80 69 81 53 82 54 83 59 84 55 85 56 86 58 87 60 88
REMARK SMILES IDX 57 89
REMARK H PARENT 23 5 14 24 19 27 27 32 77 51 51 62
REMARK Flexibility Score: inf
ROOT
ATOM      1  C   UNL A   1      31.320  30.771  26.343  1.00  0.00     0.117 C 
ENDROOT
BRANCH   1   2
ATOM      2  N   UNL A   1      31.701  30.369  25.009  1.00  0.00    -0.353 N 
ATOM      3  O   UNL A   1      33.684  29.323  25.544  1.00  0.00    -0.271 OA
ATOM      4  C   UNL A   1      32.753  29.506  24.768  1.00  0.00     0.257 C 
ATOM      5  H   UNL A   1      31.193  30.723  24.244  1.00  0.00     0.163 HD
BRANCH   4   6
ATOM      6  C   UNL A   1      32.601  28.740  23.451  1.00  0.00     0.329 C 
BRANCH   6   7
ATOM      7  O   UNL A   1      31.900  27.511  23.648  1.00  0.00    -0.481 OA
BRANCH   7   8
ATOM      8  C   UNL A   1      32.626  26.391  23.964  1.00  0.00     0.157 A 
ATOM      9  C   UNL A   1      32.787  25.832  25.241  1.00  0.00     0.085 A 
ATOM     10  C   UNL A   1      33.111  25.660  22.866  1.00  0.00     0.085 A 
ATOM     11  Cl  UNL A   1      32.200  26.508  26.711  1.00  0.00    -0.080 Cl
ATOM     12  C   UNL A   1      33.425  24.594  25.399  1.00  0.00     0.032 A 
ATOM     13  C   UNL A   1      33.728  24.414  23.032  1.00  0.00     0.032 A 
ATOM     14  Cl  UNL A   1      32.972  26.273  21.251  1.00  0.00    -0.080 Cl
ATOM     15  C   UNL A   1      33.920  23.883  24.305  1.00  0.00    -0.021 A 
BRANCH  15  16
ATOM     16  C   UNL A   1      34.512  22.566  24.573  1.00  0.00     0.027 C 
ATOM     17  C   UNL A   1      33.947  21.346  24.652  1.00  0.00     0.102 C 
ATOM     18  C   UNL A   1      34.856  20.220  24.986  1.00  0.00     0.264 C 
ATOM     19  C   UNL A   1      32.549  20.946  24.491  1.00  0.00     0.228 C 
ATOM     20  O   UNL A   1      36.079  20.303  24.998  1.00  0.00    -0.269 OA
ATOM     21  N   UNL A   1      34.208  19.063  25.309  1.00  0.00    -0.272 N 
ATOM     22  N   UNL A   1      32.032  19.818  24.805  1.00  0.00    -0.157 NA
ATOM     23  C   UNL A   1      32.853  18.863  25.335  1.00  0.00     0.351 C 
ATOM     24  H   UNL A   1      34.773  18.292  25.548  1.00  0.00     0.175 HD
ATOM     25  O   UNL A   1      32.419  17.823  25.824  1.00  0.00    -0.246 OA
BRANCH  19  26
ATOM     26  O   UNL A   1      31.738  21.837  23.915  1.00  0.00    -0.493 OA
ATOM     27  H   UNL A   1      31.922  22.146  23.049  1.00  0.00     0.295 HD
ENDBRANCH  19  26
ENDBRANCH  15  16
ENDBRANCH   7   8
ENDBRANCH   6   7
ENDBRANCH   4   6
ENDBRANCH   1   2
BRANCH   1  28
ATOM     28  C   UNL A   1      31.255  32.271  26.529  1.00  0.00     0.042 C 
BRANCH  28  29
ATOM     29  C   UNL A   1      32.557  32.888  27.013  1.00  0.00     0.118 C 
BRANCH  29  30
ATOM     30  N   UNL A   1      32.387  34.193  27.641  1.00  0.00    -0.352 N 
ATOM     31  C   UNL A   1      33.083  34.779  28.669  1.00  0.00     0.251 C 
ATOM     32  H   UNL A   1      31.659  34.741  27.268  1.00  0.00     0.163 HD
ATOM     33  O   UNL A   1      32.697  35.849  29.132  1.00  0.00    -0.269 OA
BRANCH  31  34
ATOM     34  C   UNL A   1      34.277  34.119  29.244  1.00  0.00     0.039 A 
ATOM     35  C   UNL A   1      34.096  33.118  30.201  1.00  0.00     0.014 A 
ATOM     36  C   UNL A   1      35.568  34.485  28.860  1.00  0.00     0.014 A 
ATOM     37  C   UNL A   1      35.206  32.455  30.731  1.00  0.00     0.010 A 
ATOM     38  C   UNL A   1      36.663  33.748  29.300  1.00  0.00     0.010 A 
ATOM     39  C   UNL A   1      36.499  32.744  30.263  1.00  0.00    -0.014 A 
BRANCH  39  40
ATOM     40  C   UNL A   1      37.685  32.039  30.812  1.00  0.00     0.031 A 
ATOM     41  C   UNL A   1      38.182  32.360  32.198  1.00  0.00     0.074 A 
ATOM     42  C   UNL A   1      38.333  31.128  30.060  1.00  0.00     0.049 A 
ATOM     43  N   UNL A   1      39.190  31.845  32.857  1.00  0.00    -0.248 NA
ATOM     44  C   UNL A   1      37.469  33.418  32.934  1.00  0.00     0.031 C 
ATOM     45  C   UNL A   1      37.991  30.769  28.682  1.00  0.00     0.029 A 
ATOM     46  N   UNL A   1      39.413  30.333  30.351  1.00  0.00    -0.354 N 
ATOM     47  C   UNL A   1      39.235  32.522  34.070  1.00  0.00     0.074 A 
ATOM     48  C   UNL A   1      38.203  33.533  34.029  1.00  0.00     0.031 C 
ATOM     49  C   UNL A   1      38.816  29.797  28.264  1.00  0.00     0.029 A 
ATOM     50  C   UNL A   1      39.767  29.488  29.327  1.00  0.00     0.049 A 
ATOM     51  H   UNL A   1      39.890  30.365  31.212  1.00  0.00     0.167 HD
ATOM     52  C   UNL A   1      40.038  32.301  35.137  1.00  0.00     0.037 A 
ATOM     53  C   UNL A   1      40.744  28.565  29.257  1.00  0.00     0.037 A 
ATOM     54  C   UNL A   1      41.053  31.281  35.184  1.00  0.00     0.049 A 
ATOM     55  C   UNL A   1      41.623  28.336  30.457  1.00  0.00     0.074 A 
ATOM     56  C   UNL A   1      41.889  30.944  36.234  1.00  0.00     0.029 A 
ATOM     57  N   UNL A   1      41.371  30.436  34.132  1.00  0.00    -0.354 N 
ATOM     58  N   UNL A   1      41.605  28.932  31.625  1.00  0.00    -0.248 NA
ATOM     59  C   UNL A   1      42.648  27.290  30.333  1.00  0.00     0.031 C 
ATOM     60  C   UNL A   1      42.749  29.930  35.799  1.00  0.00     0.029 A 
ATOM     61  C   UNL A   1      42.403  29.589  34.501  1.00  0.00     0.049 A 
ATOM     62  H   UNL A   1      40.928  30.437  33.252  1.00  0.00     0.167 HD
ATOM     63  C   UNL A   1      42.585  28.307  32.387  1.00  0.00     0.074 A 
ATOM     64  C   UNL A   1      43.167  27.277  31.552  1.00  0.00     0.031 C 
ATOM     65  C   UNL A   1      42.966  28.560  33.664  1.00  0.00     0.037 A 
BRANCH  52  66
ATOM     66  C   UNL A   1      39.846  33.179  36.342  1.00  0.00     0.057 A 
ATOM     67  C   UNL A   1      38.954  32.842  37.371  1.00  0.00     0.134 A 
ATOM     68  C   UNL A   1      40.576  34.366  36.488  1.00  0.00     0.134 A 
ATOM     69  F   UNL A   1      38.211  31.727  37.290  1.00  0.00    -0.206 F 
ATOM     70  C   UNL A   1      38.773  33.668  38.482  1.00  0.00     0.040 A 
ATOM     71  C   UNL A   1      40.428  35.181  37.610  1.00  0.00     0.040 A 
ATOM     72  F   UNL A   1      41.452  34.748  35.546  1.00  0.00    -0.206 F 
ATOM     73  C   UNL A   1      39.518  34.838  38.608  1.00  0.00     0.006 A 
ENDBRANCH  52  66
BRANCH  53  74
ATOM     74  C   UNL A   1      40.922  27.757  28.022  1.00  0.00     0.057 A 
ATOM     75  C   UNL A   1      41.714  28.216  26.963  1.00  0.00     0.134 A 
ATOM     76  C   UNL A   1      40.287  26.520  27.861  1.00  0.00     0.134 A 
ATOM     77  F   UNL A   1      42.334  29.402  27.049  1.00  0.00    -0.206 F 
ATOM     78  C   UNL A   1      41.847  27.490  25.779  1.00  0.00     0.040 A 
ATOM     79  C   UNL A   1      40.436  25.767  26.695  1.00  0.00     0.040 A 
ATOM     80  F   UNL A   1      39.523  26.018  28.842  1.00  0.00    -0.206 F 
ATOM     81  C   UNL A   1      41.209  26.258  25.644  1.00  0.00     0.006 A 
ENDBRANCH  53  74
BRANCH  65  82
ATOM     82  C   UNL A   1      44.020  27.667  34.255  1.00  0.00     0.057 A 
ATOM     83  C   UNL A   1      45.381  28.000  34.235  1.00  0.00     0.134 A 
ATOM     84  C   UNL A   1      43.661  26.457  34.865  1.00  0.00     0.134 A 
ATOM     85  F   UNL A   1      45.796  29.139  33.659  1.00  0.00    -0.206 F 
ATOM     86  C   UNL A   1      46.350  27.142  34.761  1.00  0.00     0.040 A 
ATOM     87  C   UNL A   1      44.616  25.609  35.426  1.00  0.00     0.040 A 
ATOM     88  F   UNL A   1      42.374  26.083  34.933  1.00  0.00    -0.206 F 
ATOM     89  C   UNL A   1      45.967  25.945  35.363  1.00  0.00     0.006 A 
ENDBRANCH  65  82
ENDBRANCH  39  40
ENDBRANCH  31  34
ENDBRANCH  29  30
ENDBRANCH  28  29
ENDBRANCH   1  28
TORSDOF 14
ENDMDL
MODEL 3
REMARK VINA RESULT:     -13.0      2.004      2.935
REMARK SMILES O=C(COc1c(Cl)cc(/C=C2/C(=O)NC(=O)N=C2O)cc1Cl)NCCCNC(=O)c1ccc(-c2c3nc(c(-c4c(F)cccc4F)c4ccc([nH]4)c(-c4c(F)cccc4F)c4nc(c(-c5c(F)cccc5F)c5ccc2[nH]5)C=C4)C=C3)cc1
REMARK SMILES IDX 24 1 23 2 1 3 2 4 3 6 4 7 5 8 6 9 21 10 7 11 8 12 20 13
REMARK SMILES IDX 22 14 9 15 10 16 11 17 12 18 18 19 13 20 14 21 17 22 15 23
REMARK SMILES IDX 16 25 19 26 25 28 26 29 27 30 28 31 29 33 30 34 31 35 83 36
REMARK SMILES IDX 32 37 82 38 33 39 34 40 35 41 76 42 36 43 81 44 75 45 77 46
REMARK SMILES IDX 37 47 80 48 74 49 73 50 38 52 64 53 47 54 63 55 48 56 51 57
REMARK SMILES IDX 62 58 78 59 49 60 50 61 61 63 79 64 52 65 39 66 40 67 45 68
REMARK SMILES IDX 41 69 42 70 44 71 46 72 43 73 65 74 66 75 71 76 67 77 68 78
REMARK SMILES IDX 70 79 72 80 69 81 53 82 54 83 59 84 55 85 56 86 58 87 60 88
REMARK SMILES IDX 57 89
REMARK H PARENT 23 5 14 24 19 27 27 32 77 51 51 62
REMARK Flexibility Score: inf
ROOT
ATOM      1  C   UNL A   1      32.154  28.954  24.547  1.00  0.00     0.117 C 
ENDROOT
BRANCH   1   2
ATOM      2  N   UNL A   1      31.374  27.976  25.269  1.00  0.00    -0.353 N 
ATOM      3  O   UNL A   1      31.641  26.212  23.810  1.00  0.00    -0.271 OA
ATOM      4  C   UNL A   1      31.362  26.638  24.925  1.00  0.00     0.257 C 
ATOM      5  H   UNL A   1      30.832  28.274  26.035  1.00  0.00     0.163 HD
BRANCH   4   6
ATOM      6  C   UNL A   1      31.030  25.725  26.108  1.00  0.00     0.329 C 
BRANCH   6   7
ATOM      7  O   UNL A   1      32.154  24.921  26.470  1.00  0.00    -0.481 OA
BRANCH   7   8
ATOM      8  C   UNL A   1      32.232  23.647  25.966  1.00  0.00     0.157 A 
ATOM      9  C   UNL A   1      31.250  22.650  26.056  1.00  0.00     0.085 A 
ATOM     10  C   UNL A   1      33.346  23.394  25.146  1.00  0.00     0.085 A 
ATOM     11  Cl  UNL A   1      29.772  22.776  26.930  1.00  0.00    -0.080 Cl
ATOM     12  C   UNL A   1      31.397  21.443  25.358  1.00  0.00     0.032 A 
ATOM     13  C   UNL A   1      33.473  22.194  24.435  1.00  0.00     0.032 A 
ATOM     14  Cl  UNL A   1      34.619  24.558  24.981  1.00  0.00    -0.080 Cl
ATOM     15  C   UNL A   1      32.513  21.192  24.560  1.00  0.00    -0.021 A 
BRANCH  15  16
ATOM     16  C   UNL A   1      32.538  19.924  23.819  1.00  0.00     0.027 C 
ATOM     17  C   UNL A   1      32.763  18.664  24.238  1.00  0.00     0.102 C 
ATOM     18  C   UNL A   1      32.754  17.611  23.191  1.00  0.00     0.264 C 
ATOM     19  C   UNL A   1      33.051  18.158  25.580  1.00  0.00     0.228 C 
ATOM     20  O   UNL A   1      32.372  17.789  22.040  1.00  0.00    -0.269 OA
ATOM     21  N   UNL A   1      33.237  16.407  23.614  1.00  0.00    -0.272 N 
ATOM     22  N   UNL A   1      33.485  16.993  25.884  1.00  0.00    -0.157 NA
ATOM     23  C   UNL A   1      33.695  16.103  24.869  1.00  0.00     0.351 C 
ATOM     24  H   UNL A   1      33.260  15.681  22.948  1.00  0.00     0.175 HD
ATOM     25  O   UNL A   1      34.270  15.031  25.044  1.00  0.00    -0.246 OA
BRANCH  19  26
ATOM     26  O   UNL A   1      32.793  18.985  26.597  1.00  0.00    -0.493 OA
ATOM     27  H   UNL A   1      32.106  19.617  26.522  1.00  0.00     0.295 HD
ENDBRANCH  19  26
ENDBRANCH  15  16
ENDBRANCH   7   8
ENDBRANCH   6   7
ENDBRANCH   4   6
ENDBRANCH   1   2
BRANCH   1  28
ATOM     28  C   UNL A   1      33.647  28.779  24.709  1.00  0.00     0.042 C 
BRANCH  28  29
ATOM     29  C   UNL A   1      34.132  28.919  26.143  1.00  0.00     0.118 C 
BRANCH  29  30
ATOM     30  N   UNL A   1      33.840  30.220  26.733  1.00  0.00    -0.352 N 
ATOM     31  C   UNL A   1      34.515  30.927  27.697  1.00  0.00     0.251 C 
ATOM     32  H   UNL A   1      33.032  30.661  26.385  1.00  0.00     0.163 HD
ATOM     33  O   UNL A   1      34.028  31.962  28.144  1.00  0.00    -0.269 OA
BRANCH  31  34
ATOM     34  C   UNL A   1      35.810  30.439  28.222  1.00  0.00     0.039 A 
ATOM     35  C   UNL A   1      35.819  29.695  29.404  1.00  0.00     0.014 A 
ATOM     36  C   UNL A   1      37.013  30.717  27.570  1.00  0.00     0.014 A 
ATOM     37  C   UNL A   1      37.024  29.192  29.900  1.00  0.00     0.010 A 
ATOM     38  C   UNL A   1      38.195  30.120  27.999  1.00  0.00     0.010 A 
ATOM     39  C   UNL A   1      38.220  29.376  29.185  1.00  0.00    -0.014 A 
BRANCH  39  40
ATOM     40  C   UNL A   1      39.506  28.837  29.697  1.00  0.00     0.031 A 
ATOM     41  C   UNL A   1      40.141  29.435  30.926  1.00  0.00     0.074 A 
ATOM     42  C   UNL A   1      40.118  27.827  29.048  1.00  0.00     0.049 A 
ATOM     43  N   UNL A   1      41.251  29.096  31.533  1.00  0.00    -0.248 NA
ATOM     44  C   UNL A   1      39.453  30.582  31.541  1.00  0.00     0.031 C 
ATOM     45  C   UNL A   1      39.640  27.200  27.814  1.00  0.00     0.029 A 
ATOM     46  N   UNL A   1      41.274  27.148  29.338  1.00  0.00    -0.354 N 
ATOM     47  C   UNL A   1      41.395  29.991  32.586  1.00  0.00     0.074 A 
ATOM     48  C   UNL A   1      40.303  30.933  32.494  1.00  0.00     0.031 C 
ATOM     49  C   UNL A   1      40.471  26.202  27.478  1.00  0.00     0.029 A 
ATOM     50  C   UNL A   1      41.559  26.140  28.449  1.00  0.00     0.049 A 
ATOM     51  H   UNL A   1      41.846  27.362  30.111  1.00  0.00     0.167 HD
ATOM     52  C   UNL A   1      42.331  30.010  33.565  1.00  0.00     0.037 A 
ATOM     53  C   UNL A   1      42.578  25.261  28.425  1.00  0.00     0.037 A 
ATOM     54  C   UNL A   1      43.408  29.061  33.667  1.00  0.00     0.049 A 
ATOM     55  C   UNL A   1      43.605  25.300  29.524  1.00  0.00     0.074 A 
ATOM     56  C   UNL A   1      44.383  28.964  34.644  1.00  0.00     0.029 A 
ATOM     57  N   UNL A   1      43.653  28.045  32.755  1.00  0.00    -0.354 N 
ATOM     58  N   UNL A   1      43.687  26.105  30.556  1.00  0.00    -0.248 NA
ATOM     59  C   UNL A   1      44.675  24.293  29.463  1.00  0.00     0.031 C 
ATOM     60  C   UNL A   1      45.249  27.922  34.296  1.00  0.00     0.029 A 
ATOM     61  C   UNL A   1      44.775  27.328  33.137  1.00  0.00     0.049 A 
ATOM     62  H   UNL A   1      43.111  27.862  31.953  1.00  0.00     0.167 HD
ATOM     63  C   UNL A   1      44.788  25.677  31.287  1.00  0.00     0.074 A 
ATOM     64  C   UNL A   1      45.333  24.532  30.587  1.00  0.00     0.031 C 
ATOM     65  C   UNL A   1      45.300  26.183  32.437  1.00  0.00     0.037 A 
BRANCH  52  66
ATOM     66  C   UNL A   1      42.226  31.092  34.603  1.00  0.00     0.057 A 
ATOM     67  C   UNL A   1      42.932  32.299  34.491  1.00  0.00     0.134 A 
ATOM     68  C   UNL A   1      41.392  30.936  35.718  1.00  0.00     0.134 A 
ATOM     69  F   UNL A   1      43.761  32.509  33.457  1.00  0.00    -0.206 F 
ATOM     70  C   UNL A   1      42.839  33.295  35.466  1.00  0.00     0.040 A 
ATOM     71  C   UNL A   1      41.264  31.939  36.680  1.00  0.00     0.040 A 
ATOM     72  F   UNL A   1      40.682  29.810  35.886  1.00  0.00    -0.206 F 
ATOM     73  C   UNL A   1      41.995  33.119  36.560  1.00  0.00     0.006 A 
ENDBRANCH  52  66
BRANCH  53  74
ATOM     74  C   UNL A   1      42.661  24.242  27.346  1.00  0.00     0.057 A 
ATOM     75  C   UNL A   1      42.152  22.950  27.528  1.00  0.00     0.134 A 
ATOM     76  C   UNL A   1      43.269  24.526  26.118  1.00  0.00     0.134 A 
ATOM     77  F   UNL A   1      41.573  22.610  28.689  1.00  0.00    -0.206 F 
ATOM     78  C   UNL A   1      42.269  21.970  26.541  1.00  0.00     0.040 A 
ATOM     79  C   UNL A   1      43.367  23.566  25.109  1.00  0.00     0.040 A 
ATOM     80  F   UNL A   1      43.768  25.747  25.876  1.00  0.00    -0.206 F 
ATOM     81  C   UNL A   1      42.875  22.279  25.324  1.00  0.00     0.006 A 
ENDBRANCH  53  74
BRANCH  65  82
ATOM     82  C   UNL A   1      46.473  25.462  33.041  1.00  0.00     0.057 A 
ATOM     83  C   UNL A   1      46.317  24.422  33.967  1.00  0.00     0.134 A 
ATOM     84  C   UNL A   1      47.780  25.813  32.679  1.00  0.00     0.134 A 
ATOM     85  F   UNL A   1      45.093  24.042  34.364  1.00  0.00    -0.206 F 
ATOM     86  C   UNL A   1      47.419  23.786  34.543  1.00  0.00     0.040 A 
ATOM     87  C   UNL A   1      48.888  25.161  33.220  1.00  0.00     0.040 A 
ATOM     88  F   UNL A   1      48.003  26.790  31.787  1.00  0.00    -0.206 F 
ATOM     89  C   UNL A   1      48.710  24.153  34.165  1.00  0.00     0.006 A 
ENDBRANCH  65  82
ENDBRANCH  39  40
ENDBRANCH  31  34
ENDBRANCH  29  30
ENDBRANCH  28  29
ENDBRANCH   1  28
TORSDOF 14
ENDMDL
