MODEL 1
REMARK VINA RESULT:     -11.3      0.000      0.000
REMARK SMILES CC[C@@](O)(C(=O)NCCCNC(=O)c1ccc(-c2c3nc(c(-c4c(F)cccc4F)c4ccc([nH]4)c(-c4c(F)cccc4F)c4nc(c(-c5c(F)cccc5F)c5ccc2[nH]5)C=C4)C=C3)cc1)[C@@H]1CCOc2ccccc21
REMARK SMILES IDX 9 1 8 2 7 3 5 4 6 5 3 7 2 8 1 9 4 10 68 12 69 13 77 14 70 15
REMARK SMILES IDX 72 16 76 17 71 18 73 19 75 20 74 21 10 22 11 23 12 24 13 26
REMARK SMILES IDX 14 27 15 28 67 29 16 30 66 31 17 32 18 33 19 34 60 35 20 36
REMARK SMILES IDX 65 37 59 38 61 39 21 40 64 41 58 42 57 43 22 45 48 46 31 47
REMARK SMILES IDX 47 48 32 49 35 50 46 51 62 52 33 53 34 54 45 56 63 57 36 58
REMARK SMILES IDX 23 59 24 60 29 61 25 62 26 63 28 64 30 65 27 66 49 67 50 68
REMARK SMILES IDX 55 69 51 70 52 71 54 72 56 73 53 74 37 75 38 76 43 77 39 78
REMARK SMILES IDX 40 79 42 80 44 81 41 82
REMARK H PARENT 7 6 4 11 11 25 61 44 35 55
REMARK Flexibility Score: inf
ROOT
ATOM      1  C   UNL A   1      37.638  19.902  24.643  1.00  0.00     0.042 C 
ENDROOT
BRANCH   1   2
ATOM      2  C   UNL A   1      36.183  20.231  25.003  1.00  0.00     0.117 C 
BRANCH   2   3
ATOM      3  N   UNL A   1      36.153  21.324  25.955  1.00  0.00    -0.354 N 
ATOM      4  C   UNL A   1      35.619  22.574  25.779  1.00  0.00     0.252 C 
ATOM      5  O   UNL A   1      36.298  23.509  26.205  1.00  0.00    -0.272 OA
ATOM      6  H   UNL A   1      36.564  21.147  26.831  1.00  0.00     0.163 HD
BRANCH   4   7
ATOM      7  C   UNL A   1      34.235  22.772  25.066  1.00  0.00     0.149 C 
BRANCH   7   8
ATOM      8  C   UNL A   1      34.413  23.673  23.810  1.00  0.00     0.043 C 
ATOM      9  C   UNL A   1      33.461  23.395  22.647  1.00  0.00     0.007 C 
ENDBRANCH   7   8
BRANCH   7  10
ATOM     10  O   UNL A   1      33.794  21.474  24.610  1.00  0.00    -0.379 OA
ATOM     11  H   UNL A   1      33.649  21.501  23.652  1.00  0.00     0.212 HD
ENDBRANCH   7  10
BRANCH   7  12
ATOM     12  C   UNL A   1      33.143  23.351  26.073  1.00  0.00     0.068 C 
ATOM     13  C   UNL A   1      31.782  22.640  25.915  1.00  0.00     0.053 C 
ATOM     14  C   UNL A   1      32.878  24.862  26.086  1.00  0.00     0.001 A 
ATOM     15  C   UNL A   1      30.788  23.237  26.888  1.00  0.00     0.230 C 
ATOM     16  C   UNL A   1      31.570  25.354  26.273  1.00  0.00     0.122 A 
ATOM     17  C   UNL A   1      33.903  25.804  25.904  1.00  0.00     0.008 A 
ATOM     18  O   UNL A   1      30.473  24.571  26.525  1.00  0.00    -0.493 OA
ATOM     19  C   UNL A   1      31.284  26.717  26.175  1.00  0.00     0.047 A 
ATOM     20  C   UNL A   1      33.615  27.172  25.814  1.00  0.00     0.001 A 
ATOM     21  C   UNL A   1      32.304  27.628  25.933  1.00  0.00     0.004 A 
ENDBRANCH   7  12
ENDBRANCH   4   7
ENDBRANCH   2   3
ENDBRANCH   1   2
BRANCH   1  22
ATOM     22  C   UNL A   1      38.631  20.286  25.739  1.00  0.00     0.118 C 
BRANCH  22  23
ATOM     23  N   UNL A   1      39.743  19.352  25.805  1.00  0.00    -0.352 N 
ATOM     24  C   UNL A   1      41.068  19.598  26.057  1.00  0.00     0.251 C 
ATOM     25  H   UNL A   1      39.511  18.409  25.646  1.00  0.00     0.163 HD
ATOM     26  O   UNL A   1      41.907  18.737  25.817  1.00  0.00    -0.269 OA
BRANCH  24  27
ATOM     27  C   UNL A   1      41.487  20.903  26.612  1.00  0.00     0.039 A 
ATOM     28  C   UNL A   1      41.957  21.888  25.739  1.00  0.00     0.014 A 
ATOM     29  C   UNL A   1      41.466  21.136  27.991  1.00  0.00     0.014 A 
ATOM     30  C   UNL A   1      42.370  23.122  26.245  1.00  0.00     0.010 A 
ATOM     31  C   UNL A   1      41.820  22.387  28.487  1.00  0.00     0.010 A 
ATOM     32  C   UNL A   1      42.285  23.388  27.621  1.00  0.00    -0.014 A 
BRANCH  32  33
ATOM     33  C   UNL A   1      42.687  24.703  28.177  1.00  0.00     0.031 A 
ATOM     34  C   UNL A   1      41.657  25.773  28.402  1.00  0.00     0.074 A 
ATOM     35  C   UNL A   1      43.990  24.957  28.407  1.00  0.00     0.049 A 
ATOM     36  N   UNL A   1      41.821  27.012  28.790  1.00  0.00    -0.248 NA
ATOM     37  C   UNL A   1      40.258  25.410  28.127  1.00  0.00     0.031 C 
ATOM     38  C   UNL A   1      45.087  24.015  28.184  1.00  0.00     0.029 A 
ATOM     39  N   UNL A   1      44.612  26.093  28.861  1.00  0.00    -0.354 N 
ATOM     40  C   UNL A   1      40.553  27.580  28.786  1.00  0.00     0.074 A 
ATOM     41  C   UNL A   1      39.637  26.565  28.315  1.00  0.00     0.031 C 
ATOM     42  C   UNL A   1      46.247  24.608  28.505  1.00  0.00     0.029 A 
ATOM     43  C   UNL A   1      45.979  25.981  28.923  1.00  0.00     0.049 A 
ATOM     44  H   UNL A   1      44.125  26.909  29.117  1.00  0.00     0.167 HD
ATOM     45  C   UNL A   1      40.185  28.828  29.161  1.00  0.00     0.037 A 
ATOM     46  C   UNL A   1      46.913  26.889  29.264  1.00  0.00     0.037 A 
ATOM     47  C   UNL A   1      41.098  29.827  29.651  1.00  0.00     0.049 A 
ATOM     48  C   UNL A   1      46.481  28.266  29.681  1.00  0.00     0.074 A 
ATOM     49  C   UNL A   1      40.817  31.099  30.119  1.00  0.00     0.029 A 
ATOM     50  N   UNL A   1      42.473  29.666  29.731  1.00  0.00    -0.354 N 
ATOM     51  N   UNL A   1      45.271  28.768  29.741  1.00  0.00    -0.248 NA
ATOM     52  C   UNL A   1      47.540  29.202  30.081  1.00  0.00     0.031 C 
ATOM     53  C   UNL A   1      42.027  31.722  30.444  1.00  0.00     0.029 A 
ATOM     54  C   UNL A   1      43.058  30.822  30.221  1.00  0.00     0.049 A 
ATOM     55  H   UNL A   1      42.963  28.849  29.478  1.00  0.00     0.167 HD
ATOM     56  C   UNL A   1      45.421  30.067  30.208  1.00  0.00     0.074 A 
ATOM     57  C   UNL A   1      46.839  30.272  30.426  1.00  0.00     0.031 C 
ATOM     58  C   UNL A   1      44.470  31.007  30.435  1.00  0.00     0.037 A 
BRANCH  45  59
ATOM     59  C   UNL A   1      38.729  29.181  29.050  1.00  0.00     0.057 A 
ATOM     60  C   UNL A   1      37.865  29.109  30.152  1.00  0.00     0.134 A 
ATOM     61  C   UNL A   1      38.188  29.617  27.834  1.00  0.00     0.134 A 
ATOM     62  F   UNL A   1      38.317  28.689  31.343  1.00  0.00    -0.206 F 
ATOM     63  C   UNL A   1      36.510  29.426  30.039  1.00  0.00     0.040 A 
ATOM     64  C   UNL A   1      36.841  29.963  27.716  1.00  0.00     0.040 A 
ATOM     65  F   UNL A   1      38.960  29.717  26.742  1.00  0.00    -0.206 F 
ATOM     66  C   UNL A   1      35.996  29.860  28.820  1.00  0.00     0.006 A 
ENDBRANCH  45  59
BRANCH  46  67
ATOM     67  C   UNL A   1      48.348  26.513  29.241  1.00  0.00     0.057 A 
ATOM     68  C   UNL A   1      49.148  26.783  28.125  1.00  0.00     0.134 A 
ATOM     69  C   UNL A   1      48.957  25.890  30.337  1.00  0.00     0.134 A 
ATOM     70  F   UNL A   1      48.618  27.363  27.040  1.00  0.00    -0.206 F 
ATOM     71  C   UNL A   1      50.500  26.434  28.093  1.00  0.00     0.040 A 
ATOM     72  C   UNL A   1      50.313  25.557  30.328  1.00  0.00     0.040 A 
ATOM     73  F   UNL A   1      48.247  25.614  31.440  1.00  0.00    -0.206 F 
ATOM     74  C   UNL A   1      51.086  25.825  29.200  1.00  0.00     0.006 A 
ENDBRANCH  46  67
BRANCH  58  75
ATOM     75  C   UNL A   1      44.928  32.330  30.973  1.00  0.00     0.057 A 
ATOM     76  C   UNL A   1      45.249  33.399  30.128  1.00  0.00     0.134 A 
ATOM     77  C   UNL A   1      45.002  32.550  32.355  1.00  0.00     0.134 A 
ATOM     78  F   UNL A   1      45.211  33.248  28.795  1.00  0.00    -0.206 F 
ATOM     79  C   UNL A   1      45.644  34.637  30.637  1.00  0.00     0.040 A 
ATOM     80  C   UNL A   1      45.372  33.790  32.876  1.00  0.00     0.040 A 
ATOM     81  F   UNL A   1      44.701  31.569  33.218  1.00  0.00    -0.206 F 
ATOM     82  C   UNL A   1      45.698  34.837  32.016  1.00  0.00     0.006 A 
ENDBRANCH  58  75
ENDBRANCH  32  33
ENDBRANCH  24  27
ENDBRANCH  22  23
ENDBRANCH   1  22
TORSDOF 13
ENDMDL
MODEL 2
REMARK VINA RESULT:     -11.3      0.224      1.115
REMARK SMILES CC[C@@](O)(C(=O)NCCCNC(=O)c1ccc(-c2c3nc(c(-c4c(F)cccc4F)c4ccc([nH]4)c(-c4c(F)cccc4F)c4nc(c(-c5c(F)cccc5F)c5ccc2[nH]5)C=C4)C=C3)cc1)[C@@H]1CCOc2ccccc21
REMARK SMILES IDX 9 1 8 2 7 3 5 4 6 5 3 7 2 8 1 9 4 10 68 12 69 13 77 14 70 15
REMARK SMILES IDX 72 16 76 17 71 18 73 19 75 20 74 21 10 22 11 23 12 24 13 26
REMARK SMILES IDX 14 27 15 28 67 29 16 30 66 31 17 32 18 33 19 34 60 35 20 36
REMARK SMILES IDX 65 37 59 38 61 39 21 40 64 41 58 42 57 43 22 45 48 46 31 47
REMARK SMILES IDX 47 48 32 49 35 50 46 51 62 52 33 53 34 54 45 56 63 57 36 58
REMARK SMILES IDX 23 59 24 60 29 61 25 62 26 63 28 64 30 65 27 66 49 67 50 68
REMARK SMILES IDX 55 69 51 70 52 71 54 72 56 73 53 74 37 75 38 76 43 77 39 78
REMARK SMILES IDX 40 79 42 80 44 81 41 82
REMARK H PARENT 7 6 4 11 11 25 61 44 35 55
REMARK Flexibility Score: inf
ROOT
ATOM      1  C   UNL A   1      37.473  19.667  24.698  1.00  0.00     0.042 C 
ENDROOT
BRANCH   1   2
ATOM      2  C   UNL A   1      36.104  20.274  25.034  1.00  0.00     0.117 C 
BRANCH   2   3
ATOM      3  N   UNL A   1      36.285  21.578  25.639  1.00  0.00    -0.354 N 
ATOM      4  C   UNL A   1      35.791  22.780  25.203  1.00  0.00     0.252 C 
ATOM      5  O   UNL A   1      36.577  23.728  25.249  1.00  0.00    -0.272 OA
ATOM      6  H   UNL A   1      36.828  21.604  26.460  1.00  0.00     0.163 HD
BRANCH   4   7
ATOM      7  C   UNL A   1      34.320  22.908  24.675  1.00  0.00     0.149 C 
BRANCH   7   8
ATOM      8  C   UNL A   1      34.282  23.857  23.442  1.00  0.00     0.043 C 
ATOM      9  C   UNL A   1      33.333  23.453  22.315  1.00  0.00     0.007 C 
ENDBRANCH   7   8
BRANCH   7  10
ATOM     10  O   UNL A   1      33.906  21.599  24.226  1.00  0.00    -0.379 OA
ATOM     11  H   UNL A   1      33.890  21.579  23.257  1.00  0.00     0.212 HD
ENDBRANCH   7  10
BRANCH   7  12
ATOM     12  C   UNL A   1      33.329  23.383  25.829  1.00  0.00     0.068 C 
ATOM     13  C   UNL A   1      31.971  22.652  25.758  1.00  0.00     0.053 C 
ATOM     14  C   UNL A   1      33.040  24.881  25.986  1.00  0.00     0.001 A 
ATOM     15  C   UNL A   1      31.074  23.149  26.871  1.00  0.00     0.230 C 
ATOM     16  C   UNL A   1      31.750  25.325  26.344  1.00  0.00     0.122 A 
ATOM     17  C   UNL A   1      34.024  25.860  25.773  1.00  0.00     0.008 A 
ATOM     18  O   UNL A   1      30.699  24.498  26.646  1.00  0.00    -0.493 OA
ATOM     19  C   UNL A   1      31.433  26.684  26.381  1.00  0.00     0.047 A 
ATOM     20  C   UNL A   1      33.705  27.223  25.819  1.00  0.00     0.001 A 
ATOM     21  C   UNL A   1      32.406  27.636  26.106  1.00  0.00     0.004 A 
ENDBRANCH   7  12
ENDBRANCH   4   7
ENDBRANCH   2   3
ENDBRANCH   1   2
BRANCH   1  22
ATOM     22  C   UNL A   1      38.615  20.271  25.513  1.00  0.00     0.118 C 
BRANCH  22  23
ATOM     23  N   UNL A   1      39.707  19.326  25.685  1.00  0.00    -0.352 N 
ATOM     24  C   UNL A   1      41.014  19.565  26.026  1.00  0.00     0.251 C 
ATOM     25  H   UNL A   1      39.475  18.382  25.537  1.00  0.00     0.163 HD
ATOM     26  O   UNL A   1      41.856  18.687  25.872  1.00  0.00    -0.269 OA
BRANCH  24  27
ATOM     27  C   UNL A   1      41.410  20.880  26.573  1.00  0.00     0.039 A 
ATOM     28  C   UNL A   1      41.278  21.105  27.946  1.00  0.00     0.014 A 
ATOM     29  C   UNL A   1      41.858  21.902  25.731  1.00  0.00     0.014 A 
ATOM     30  C   UNL A   1      41.634  22.345  28.482  1.00  0.00     0.010 A 
ATOM     31  C   UNL A   1      42.269  23.116  26.275  1.00  0.00     0.010 A 
ATOM     32  C   UNL A   1      42.151  23.353  27.652  1.00  0.00    -0.014 A 
BRANCH  32  33
ATOM     33  C   UNL A   1      42.566  24.666  28.204  1.00  0.00     0.031 A 
ATOM     34  C   UNL A   1      41.548  25.750  28.413  1.00  0.00     0.074 A 
ATOM     35  C   UNL A   1      43.870  24.904  28.444  1.00  0.00     0.049 A 
ATOM     36  N   UNL A   1      41.726  26.990  28.795  1.00  0.00    -0.248 NA
ATOM     37  C   UNL A   1      40.147  25.404  28.129  1.00  0.00     0.031 C 
ATOM     38  C   UNL A   1      44.956  23.946  28.235  1.00  0.00     0.029 A 
ATOM     39  N   UNL A   1      44.503  26.034  28.896  1.00  0.00    -0.354 N 
ATOM     40  C   UNL A   1      40.466  27.574  28.777  1.00  0.00     0.074 A 
ATOM     41  C   UNL A   1      39.540  26.569  28.305  1.00  0.00     0.031 C 
ATOM     42  C   UNL A   1      46.121  24.526  28.562  1.00  0.00     0.029 A 
ATOM     43  C   UNL A   1      45.868  25.905  28.970  1.00  0.00     0.049 A 
ATOM     44  H   UNL A   1      44.025  26.858  29.142  1.00  0.00     0.167 HD
ATOM     45  C   UNL A   1      40.111  28.830  29.141  1.00  0.00     0.037 A 
ATOM     46  C   UNL A   1      46.811  26.802  29.313  1.00  0.00     0.037 A 
ATOM     47  C   UNL A   1      41.033  29.820  29.633  1.00  0.00     0.049 A 
ATOM     48  C   UNL A   1      46.394  28.188  29.718  1.00  0.00     0.074 A 
ATOM     49  C   UNL A   1      40.765  31.098  30.090  1.00  0.00     0.029 A 
ATOM     50  N   UNL A   1      42.405  29.641  29.726  1.00  0.00    -0.354 N 
ATOM     51  N   UNL A   1      45.191  28.706  29.765  1.00  0.00    -0.248 NA
ATOM     52  C   UNL A   1      47.463  29.112  30.122  1.00  0.00     0.031 C 
ATOM     53  C   UNL A   1      41.981  31.707  30.421  1.00  0.00     0.029 A 
ATOM     54  C   UNL A   1      43.001  30.793  30.213  1.00  0.00     0.049 A 
ATOM     55  H   UNL A   1      42.886  28.816  29.482  1.00  0.00     0.167 HD
ATOM     56  C   UNL A   1      45.354  30.006  30.224  1.00  0.00     0.074 A 
ATOM     57  C   UNL A   1      46.773  30.193  30.454  1.00  0.00     0.031 C 
ATOM     58  C   UNL A   1      44.414  30.959  30.438  1.00  0.00     0.037 A 
BRANCH  45  59
ATOM     59  C   UNL A   1      38.661  29.202  29.015  1.00  0.00     0.057 A 
ATOM     60  C   UNL A   1      38.114  29.642  27.802  1.00  0.00     0.134 A 
ATOM     61  C   UNL A   1      37.798  29.100  30.113  1.00  0.00     0.134 A 
ATOM     62  F   UNL A   1      38.888  29.773  26.715  1.00  0.00    -0.206 F 
ATOM     63  C   UNL A   1      36.768  29.999  27.695  1.00  0.00     0.040 A 
ATOM     64  C   UNL A   1      36.444  29.427  30.011  1.00  0.00     0.040 A 
ATOM     65  F   UNL A   1      38.253  28.677  31.301  1.00  0.00    -0.206 F 
ATOM     66  C   UNL A   1      35.928  29.886  28.800  1.00  0.00     0.006 A 
ENDBRANCH  45  59
BRANCH  46  67
ATOM     67  C   UNL A   1      48.242  26.407  29.304  1.00  0.00     0.057 A 
ATOM     68  C   UNL A   1      49.035  26.590  28.167  1.00  0.00     0.134 A 
ATOM     69  C   UNL A   1      48.853  25.852  30.436  1.00  0.00     0.134 A 
ATOM     70  F   UNL A   1      48.502  27.101  27.048  1.00  0.00    -0.206 F 
ATOM     71  C   UNL A   1      50.382  26.222  28.148  1.00  0.00     0.040 A 
ATOM     72  C   UNL A   1      50.203  25.502  30.439  1.00  0.00     0.040 A 
ATOM     73  F   UNL A   1      48.148  25.662  31.561  1.00  0.00    -0.206 F 
ATOM     74  C   UNL A   1      50.971  25.683  29.290  1.00  0.00     0.006 A 
ENDBRANCH  46  67
BRANCH  58  75
ATOM     75  C   UNL A   1      44.885  32.280  30.971  1.00  0.00     0.057 A 
ATOM     76  C   UNL A   1      45.222  33.341  30.122  1.00  0.00     0.134 A 
ATOM     77  C   UNL A   1      44.956  32.505  32.353  1.00  0.00     0.134 A 
ATOM     78  F   UNL A   1      45.187  33.184  28.791  1.00  0.00    -0.206 F 
ATOM     79  C   UNL A   1      45.629  34.577  30.628  1.00  0.00     0.040 A 
ATOM     80  C   UNL A   1      45.338  33.744  32.869  1.00  0.00     0.040 A 
ATOM     81  F   UNL A   1      44.640  31.532  33.219  1.00  0.00    -0.206 F 
ATOM     82  C   UNL A   1      45.680  34.782  32.006  1.00  0.00     0.006 A 
ENDBRANCH  58  75
ENDBRANCH  32  33
ENDBRANCH  24  27
ENDBRANCH  22  23
ENDBRANCH   1  22
TORSDOF 13
ENDMDL
MODEL 3
REMARK VINA RESULT:     -11.3      4.643      9.344
REMARK SMILES CC[C@@](O)(C(=O)NCCCNC(=O)c1ccc(-c2c3nc(c(-c4c(F)cccc4F)c4ccc([nH]4)c(-c4c(F)cccc4F)c4nc(c(-c5c(F)cccc5F)c5ccc2[nH]5)C=C4)C=C3)cc1)[C@@H]1CCOc2ccccc21
REMARK SMILES IDX 9 1 8 2 7 3 5 4 6 5 3 7 2 8 1 9 4 10 68 12 69 13 77 14 70 15
REMARK SMILES IDX 72 16 76 17 71 18 73 19 75 20 74 21 10 22 11 23 12 24 13 26
REMARK SMILES IDX 14 27 15 28 67 29 16 30 66 31 17 32 18 33 19 34 60 35 20 36
REMARK SMILES IDX 65 37 59 38 61 39 21 40 64 41 58 42 57 43 22 45 48 46 31 47
REMARK SMILES IDX 47 48 32 49 35 50 46 51 62 52 33 53 34 54 45 56 63 57 36 58
REMARK SMILES IDX 23 59 24 60 29 61 25 62 26 63 28 64 30 65 27 66 49 67 50 68
REMARK SMILES IDX 55 69 51 70 52 71 54 72 56 73 53 74 37 75 38 76 43 77 39 78
REMARK SMILES IDX 40 79 42 80 44 81 41 82
REMARK H PARENT 7 6 4 11 11 25 61 44 35 55
REMARK Flexibility Score: inf
ROOT
ATOM      1  C   UNL A   1      31.201  31.972  26.195  1.00  0.00     0.042 C 
ENDROOT
BRANCH   1   2
ATOM      2  C   UNL A   1      31.216  30.488  25.806  1.00  0.00     0.117 C 
BRANCH   2   3
ATOM      3  N   UNL A   1      32.547  30.111  25.375  1.00  0.00    -0.354 N 
ATOM      4  C   UNL A   1      33.079  28.850  25.303  1.00  0.00     0.252 C 
ATOM      5  O   UNL A   1      34.236  28.735  25.712  1.00  0.00    -0.272 OA
ATOM      6  H   UNL A   1      33.139  30.849  25.102  1.00  0.00     0.163 HD
BRANCH   4   7
ATOM      7  C   UNL A   1      32.242  27.648  24.742  1.00  0.00     0.149 C 
BRANCH   7   8
ATOM      8  C   UNL A   1      31.858  26.685  25.903  1.00  0.00     0.043 C 
ATOM      9  C   UNL A   1      30.527  25.951  25.751  1.00  0.00     0.007 C 
ENDBRANCH   7   8
BRANCH   7  10
ATOM     10  O   UNL A   1      31.016  28.189  24.204  1.00  0.00    -0.379 OA
ATOM     11  H   UNL A   1      31.222  28.908  23.587  1.00  0.00     0.212 HD
ENDBRANCH   7  10
BRANCH   7  12
ATOM     12  C   UNL A   1      33.020  26.897  23.571  1.00  0.00     0.068 C 
ATOM     13  C   UNL A   1      32.102  26.612  22.362  1.00  0.00     0.053 C 
ATOM     14  C   UNL A   1      33.774  25.602  23.895  1.00  0.00     0.001 A 
ATOM     15  C   UNL A   1      32.893  25.894  21.290  1.00  0.00     0.230 C 
ATOM     16  C   UNL A   1      33.797  24.540  22.968  1.00  0.00     0.122 A 
ATOM     17  C   UNL A   1      34.451  25.414  25.111  1.00  0.00     0.008 A 
ATOM     18  O   UNL A   1      33.241  24.587  21.716  1.00  0.00    -0.493 OA
ATOM     19  C   UNL A   1      34.378  23.310  23.285  1.00  0.00     0.047 A 
ATOM     20  C   UNL A   1      35.040  24.182  25.423  1.00  0.00     0.001 A 
ATOM     21  C   UNL A   1      34.989  23.124  24.518  1.00  0.00     0.004 A 
ENDBRANCH   7  12
ENDBRANCH   4   7
ENDBRANCH   2   3
ENDBRANCH   1   2
BRANCH   1  22
ATOM     22  C   UNL A   1      32.464  32.413  26.934  1.00  0.00     0.118 C 
BRANCH  22  23
ATOM     23  N   UNL A   1      32.383  33.805  27.346  1.00  0.00    -0.352 N 
ATOM     24  C   UNL A   1      33.060  34.453  28.348  1.00  0.00     0.251 C 
ATOM     25  H   UNL A   1      31.754  34.362  26.833  1.00  0.00     0.163 HD
ATOM     26  O   UNL A   1      32.683  35.556  28.727  1.00  0.00    -0.269 OA
BRANCH  24  27
ATOM     27  C   UNL A   1      34.242  33.822  28.973  1.00  0.00     0.039 A 
ATOM     28  C   UNL A   1      35.516  34.254  28.595  1.00  0.00     0.014 A 
ATOM     29  C   UNL A   1      34.096  32.774  29.888  1.00  0.00     0.014 A 
ATOM     30  C   UNL A   1      36.645  33.661  29.164  1.00  0.00     0.010 A 
ATOM     31  C   UNL A   1      35.220  32.227  30.499  1.00  0.00     0.010 A 
ATOM     32  C   UNL A   1      36.505  32.658  30.135  1.00  0.00    -0.014 A 
BRANCH  32  33
ATOM     33  C   UNL A   1      37.690  32.037  30.777  1.00  0.00     0.031 A 
ATOM     34  C   UNL A   1      38.453  30.957  30.065  1.00  0.00     0.074 A 
ATOM     35  C   UNL A   1      38.031  32.394  32.030  1.00  0.00     0.049 A 
ATOM     36  N   UNL A   1      39.454  30.230  30.493  1.00  0.00    -0.248 NA
ATOM     37  C   UNL A   1      38.015  30.630  28.699  1.00  0.00     0.031 C 
ATOM     38  C   UNL A   1      37.339  33.397  32.840  1.00  0.00     0.029 A 
ATOM     39  N   UNL A   1      39.033  31.937  32.847  1.00  0.00    -0.354 N 
ATOM     40  C   UNL A   1      39.750  29.349  29.460  1.00  0.00     0.074 A 
ATOM     41  C   UNL A   1      38.797  29.602  28.403  1.00  0.00     0.031 C 
ATOM     42  C   UNL A   1      37.939  33.483  34.037  1.00  0.00     0.029 A 
ATOM     43  C   UNL A   1      39.035  32.520  34.091  1.00  0.00     0.049 A 
ATOM     44  H   UNL A   1      39.688  31.257  32.570  1.00  0.00     0.167 HD
ATOM     45  C   UNL A   1      40.741  28.428  29.393  1.00  0.00     0.037 A 
ATOM     46  C   UNL A   1      39.821  32.292  35.160  1.00  0.00     0.037 A 
ATOM     47  C   UNL A   1      41.702  28.197  30.439  1.00  0.00     0.049 A 
ATOM     48  C   UNL A   1      40.916  31.269  35.061  1.00  0.00     0.074 A 
ATOM     49  C   UNL A   1      42.784  27.334  30.443  1.00  0.00     0.029 A 
ATOM     50  N   UNL A   1      41.691  28.830  31.672  1.00  0.00    -0.354 N 
ATOM     51  N   UNL A   1      41.231  30.493  34.051  1.00  0.00    -0.248 NA
ATOM     52  C   UNL A   1      41.769  31.091  36.244  1.00  0.00     0.031 C 
ATOM     53  C   UNL A   1      43.404  27.416  31.695  1.00  0.00     0.029 A 
ATOM     54  C   UNL A   1      42.735  28.363  32.454  1.00  0.00     0.049 A 
ATOM     55  H   UNL A   1      41.038  29.513  31.952  1.00  0.00     0.167 HD
ATOM     56  C   UNL A   1      42.330  29.753  34.469  1.00  0.00     0.074 A 
ATOM     57  C   UNL A   1      42.635  30.183  35.818  1.00  0.00     0.031 C 
ATOM     58  C   UNL A   1      43.025  28.804  33.794  1.00  0.00     0.037 A 
BRANCH  45  59
ATOM     59  C   UNL A   1      40.829  27.599  28.143  1.00  0.00     0.057 A 
ATOM     60  C   UNL A   1      41.573  28.017  27.031  1.00  0.00     0.134 A 
ATOM     61  C   UNL A   1      40.180  26.362  28.057  1.00  0.00     0.134 A 
ATOM     62  F   UNL A   1      42.211  29.197  27.043  1.00  0.00    -0.206 F 
ATOM     63  C   UNL A   1      41.641  27.248  25.867  1.00  0.00     0.040 A 
ATOM     64  C   UNL A   1      40.264  25.571  26.909  1.00  0.00     0.040 A 
ATOM     65  F   UNL A   1      39.458  25.897  29.087  1.00  0.00    -0.206 F 
ATOM     66  C   UNL A   1      40.989  26.019  25.806  1.00  0.00     0.006 A 
ENDBRANCH  45  59
BRANCH  46  67
ATOM     67  C   UNL A   1      39.607  33.063  36.409  1.00  0.00     0.057 A 
ATOM     68  C   UNL A   1      38.722  32.613  37.394  1.00  0.00     0.134 A 
ATOM     69  C   UNL A   1      40.293  34.259  36.655  1.00  0.00     0.134 A 
ATOM     70  F   UNL A   1      38.024  31.484  37.209  1.00  0.00    -0.206 F 
ATOM     71  C   UNL A   1      38.514  33.331  38.574  1.00  0.00     0.040 A 
ATOM     72  C   UNL A   1      40.113  34.975  37.840  1.00  0.00     0.040 A 
ATOM     73  F   UNL A   1      41.164  34.738  35.755  1.00  0.00    -0.206 F 
ATOM     74  C   UNL A   1      39.216  34.512  38.801  1.00  0.00     0.006 A 
ENDBRANCH  46  67
BRANCH  58  75
ATOM     75  C   UNL A   1      44.199  28.187  34.494  1.00  0.00     0.057 A 
ATOM     76  C   UNL A   1      45.472  28.767  34.452  1.00  0.00     0.134 A 
ATOM     77  C   UNL A   1      44.041  27.023  35.258  1.00  0.00     0.134 A 
ATOM     78  F   UNL A   1      45.692  29.873  33.727  1.00  0.00    -0.206 F 
ATOM     79  C   UNL A   1      46.552  28.202  35.133  1.00  0.00     0.040 A 
ATOM     80  C   UNL A   1      45.107  26.463  35.963  1.00  0.00     0.040 A 
ATOM     81  F   UNL A   1      42.844  26.422  35.345  1.00  0.00    -0.206 F 
ATOM     82  C   UNL A   1      46.368  27.051  35.897  1.00  0.00     0.006 A 
ENDBRANCH  58  75
ENDBRANCH  32  33
ENDBRANCH  24  27
ENDBRANCH  22  23
ENDBRANCH   1  22
TORSDOF 13
ENDMDL
