MODEL 1
REMARK VINA RESULT:     -11.0      0.000      0.000
REMARK SMILES C[C@H](c1ccncc1)N1Cc2cccc(C(=O)NCCCNC(=O)c3ccc(-c4c5nc(c(-c6c(F)cccc6F)c6ccc([nH]6)c(-c6c(F)cccc6F)c6nc(c(-c7c(F)cccc7F)c7ccc4[nH]7)C=C6)C=C5)cc3)c2C1=O
REMARK SMILES IDX 20 1 19 2 18 3 16 4 17 5 15 7 9 8 10 9 80 10 11 11 79 12
REMARK SMILES IDX 81 13 12 14 13 15 14 16 2 17 1 18 3 19 4 20 8 21 5 22 7 23
REMARK SMILES IDX 6 24 21 25 22 26 23 27 24 29 25 30 26 31 78 32 27 33 77 34
REMARK SMILES IDX 28 35 29 36 30 37 71 38 31 39 76 40 70 41 72 42 32 43 75 44
REMARK SMILES IDX 69 45 68 46 33 48 59 49 42 50 58 51 43 52 46 53 57 54 73 55
REMARK SMILES IDX 44 56 45 57 56 59 74 60 47 61 34 62 35 63 40 64 36 65 37 66
REMARK SMILES IDX 39 67 41 68 38 69 60 70 61 71 66 72 62 73 63 74 65 75 67 76
REMARK SMILES IDX 64 77 48 78 49 79 54 80 50 81 51 82 53 83 55 84 52 85
REMARK H PARENT 18 6 22 28 72 47 46 58
REMARK Flexibility Score: inf
ROOT
ATOM      1  C   UNL A   1      33.728  34.373  28.241  1.00  0.00     0.042 C 
ENDROOT
BRANCH   1   2
ATOM      2  C   UNL A   1      33.967  34.954  29.640  1.00  0.00     0.118 C 
BRANCH   2   3
ATOM      3  N   UNL A   1      34.031  33.879  30.621  1.00  0.00    -0.352 N 
ATOM      4  C   UNL A   1      35.050  33.135  31.160  1.00  0.00     0.252 C 
ATOM      5  O   UNL A   1      34.718  32.195  31.889  1.00  0.00    -0.269 OA
ATOM      6  H   UNL A   1      33.147  33.631  30.976  1.00  0.00     0.163 HD
BRANCH   4   7
ATOM      7  C   UNL A   1      36.497  33.460  31.078  1.00  0.00     0.052 A 
ATOM      8  N   UNL A   1      38.243  34.705  34.032  1.00  0.00    -0.328 N 
ATOM      9  C   UNL A   1      39.367  34.568  33.131  1.00  0.00     0.157 C 
ATOM     10  C   UNL A   1      37.041  34.572  33.366  1.00  0.00     0.255 C 
ATOM     11  C   UNL A   1      38.709  34.134  31.862  1.00  0.00    -0.015 A 
ATOM     12  C   UNL A   1      37.322  34.009  32.045  1.00  0.00     0.057 A 
ATOM     13  O   UNL A   1      35.934  34.872  33.759  1.00  0.00    -0.269 OA
ATOM     14  C   UNL A   1      39.301  33.852  30.644  1.00  0.00     0.006 A 
ATOM     15  C   UNL A   1      38.481  33.399  29.613  1.00  0.00     0.001 A 
ATOM     16  C   UNL A   1      37.108  33.186  29.835  1.00  0.00     0.015 A 
BRANCH   8  17
ATOM     17  C   UNL A   1      38.427  34.866  35.476  1.00  0.00     0.113 C 
ATOM     18  C   UNL A   1      39.757  35.557  35.804  1.00  0.00     0.036 C 
BRANCH  17  19
ATOM     19  C   UNL A   1      38.225  33.597  36.280  1.00  0.00    -0.023 A 
ATOM     20  C   UNL A   1      37.972  33.607  37.656  1.00  0.00     0.026 A 
ATOM     21  C   UNL A   1      38.240  32.355  35.636  1.00  0.00     0.026 A 
ATOM     22  C   UNL A   1      37.773  32.406  38.319  1.00  0.00     0.111 A 
ATOM     23  C   UNL A   1      38.011  31.207  36.381  1.00  0.00     0.111 A 
ATOM     24  N   UNL A   1      37.781  31.203  37.709  1.00  0.00    -0.265 NA
ENDBRANCH  17  19
ENDBRANCH   8  17
ENDBRANCH   4   7
ENDBRANCH   2   3
ENDBRANCH   1   2
BRANCH   1  25
ATOM     25  C   UNL A   1      34.661  33.241  27.845  1.00  0.00     0.118 C 
BRANCH  25  26
ATOM     26  N   UNL A   1      33.944  31.994  27.627  1.00  0.00    -0.352 N 
ATOM     27  C   UNL A   1      34.341  30.678  27.680  1.00  0.00     0.251 C 
ATOM     28  H   UNL A   1      32.994  32.114  27.398  1.00  0.00     0.163 HD
ATOM     29  O   UNL A   1      33.579  29.832  27.211  1.00  0.00    -0.269 OA
BRANCH  27  30
ATOM     30  C   UNL A   1      35.636  30.229  28.264  1.00  0.00     0.039 A 
ATOM     31  C   UNL A   1      36.765  30.215  27.430  1.00  0.00     0.014 A 
ATOM     32  C   UNL A   1      35.764  29.718  29.557  1.00  0.00     0.014 A 
ATOM     33  C   UNL A   1      37.996  29.726  27.891  1.00  0.00     0.010 A 
ATOM     34  C   UNL A   1      37.011  29.321  30.050  1.00  0.00     0.010 A 
ATOM     35  C   UNL A   1      38.138  29.292  29.217  1.00  0.00    -0.014 A 
BRANCH  35  36
ATOM     36  C   UNL A   1      39.434  28.761  29.728  1.00  0.00     0.031 A 
ATOM     37  C   UNL A   1      40.060  29.340  30.973  1.00  0.00     0.074 A 
ATOM     38  C   UNL A   1      40.081  27.790  29.054  1.00  0.00     0.049 A 
ATOM     39  N   UNL A   1      41.216  29.066  31.527  1.00  0.00    -0.248 NA
ATOM     40  C   UNL A   1      39.300  30.387  31.672  1.00  0.00     0.031 C 
ATOM     41  C   UNL A   1      39.623  27.168  27.812  1.00  0.00     0.029 A 
ATOM     42  N   UNL A   1      41.275  27.160  29.319  1.00  0.00    -0.354 N 
ATOM     43  C   UNL A   1      41.335  29.930  32.610  1.00  0.00     0.074 A 
ATOM     44  C   UNL A   1      40.152  30.762  32.615  1.00  0.00     0.031 C 
ATOM     45  C   UNL A   1      40.508  26.229  27.436  1.00  0.00     0.029 A 
ATOM     46  C   UNL A   1      41.612  26.205  28.390  1.00  0.00     0.049 A 
ATOM     47  H   UNL A   1      41.834  27.374  30.100  1.00  0.00     0.167 HD
ATOM     48  C   UNL A   1      42.326  30.011  33.530  1.00  0.00     0.037 A 
ATOM     49  C   UNL A   1      42.690  25.401  28.314  1.00  0.00     0.037 A 
ATOM     50  C   UNL A   1      43.478  29.148  33.569  1.00  0.00     0.049 A 
ATOM     51  C   UNL A   1      43.751  25.476  29.373  1.00  0.00     0.074 A 
ATOM     52  C   UNL A   1      44.496  29.109  34.505  1.00  0.00     0.029 A 
ATOM     53  N   UNL A   1      43.757  28.166  32.632  1.00  0.00    -0.354 N 
ATOM     54  N   UNL A   1      43.822  26.263  30.419  1.00  0.00    -0.248 NA
ATOM     55  C   UNL A   1      44.882  24.545  29.245  1.00  0.00     0.031 C 
ATOM     56  C   UNL A   1      45.406  28.116  34.122  1.00  0.00     0.029 A 
ATOM     57  C   UNL A   1      44.936  27.519  32.965  1.00  0.00     0.049 A 
ATOM     58  H   UNL A   1      43.200  27.958  31.846  1.00  0.00     0.167 HD
ATOM     59  C   UNL A   1      44.990  25.910  31.082  1.00  0.00     0.074 A 
ATOM     60  C   UNL A   1      45.589  24.827  30.331  1.00  0.00     0.031 C 
ATOM     61  C   UNL A   1      45.517  26.438  32.213  1.00  0.00     0.037 A 
BRANCH  48  62
ATOM     62  C   UNL A   1      42.203  31.071  34.586  1.00  0.00     0.057 A 
ATOM     63  C   UNL A   1      42.584  32.398  34.349  1.00  0.00     0.134 A 
ATOM     64  C   UNL A   1      41.671  30.767  35.846  1.00  0.00     0.134 A 
ATOM     65  F   UNL A   1      43.112  32.753  33.168  1.00  0.00    -0.206 F 
ATOM     66  C   UNL A   1      42.464  33.379  35.334  1.00  0.00     0.040 A 
ATOM     67  C   UNL A   1      41.523  31.745  36.831  1.00  0.00     0.040 A 
ATOM     68  F   UNL A   1      41.279  29.517  36.136  1.00  0.00    -0.206 F 
ATOM     69  C   UNL A   1      41.928  33.054  36.579  1.00  0.00     0.006 A 
ENDBRANCH  48  62
BRANCH  49  70
ATOM     70  C   UNL A   1      42.802  24.424  27.203  1.00  0.00     0.057 A 
ATOM     71  C   UNL A   1      43.477  24.754  26.021  1.00  0.00     0.134 A 
ATOM     72  C   UNL A   1      42.241  23.146  27.292  1.00  0.00     0.134 A 
ATOM     73  F   UNL A   1      44.016  25.974  25.870  1.00  0.00    -0.206 F 
ATOM     74  C   UNL A   1      43.579  23.851  24.962  1.00  0.00     0.040 A 
ATOM     75  C   UNL A   1      42.355  22.226  26.250  1.00  0.00     0.040 A 
ATOM     76  F   UNL A   1      41.583  22.773  28.400  1.00  0.00    -0.206 F 
ATOM     77  C   UNL A   1      43.021  22.580  25.079  1.00  0.00     0.006 A 
ENDBRANCH  49  70
BRANCH  61  78
ATOM     78  C   UNL A   1      46.791  25.831  32.721  1.00  0.00     0.057 A 
ATOM     79  C   UNL A   1      46.788  24.812  33.682  1.00  0.00     0.134 A 
ATOM     80  C   UNL A   1      48.030  26.249  32.221  1.00  0.00     0.134 A 
ATOM     81  F   UNL A   1      45.633  24.377  34.208  1.00  0.00    -0.206 F 
ATOM     82  C   UNL A   1      47.977  24.245  34.145  1.00  0.00     0.040 A 
ATOM     83  C   UNL A   1      49.223  25.676  32.661  1.00  0.00     0.040 A 
ATOM     84  F   UNL A   1      48.100  27.216  31.294  1.00  0.00    -0.206 F 
ATOM     85  C   UNL A   1      49.199  24.673  33.629  1.00  0.00     0.006 A 
ENDBRANCH  61  78
ENDBRANCH  35  36
ENDBRANCH  27  30
ENDBRANCH  25  26
ENDBRANCH   1  25
TORSDOF 12
ENDMDL
MODEL 2
REMARK VINA RESULT:     -10.8      3.995      7.642
REMARK SMILES C[C@H](c1ccncc1)N1Cc2cccc(C(=O)NCCCNC(=O)c3ccc(-c4c5nc(c(-c6c(F)cccc6F)c6ccc([nH]6)c(-c6c(F)cccc6F)c6nc(c(-c7c(F)cccc7F)c7ccc4[nH]7)C=C6)C=C5)cc3)c2C1=O
REMARK SMILES IDX 20 1 19 2 18 3 16 4 17 5 15 7 9 8 10 9 80 10 11 11 79 12
REMARK SMILES IDX 81 13 12 14 13 15 14 16 2 17 1 18 3 19 4 20 8 21 5 22 7 23
REMARK SMILES IDX 6 24 21 25 22 26 23 27 24 29 25 30 26 31 78 32 27 33 77 34
REMARK SMILES IDX 28 35 29 36 30 37 71 38 31 39 76 40 70 41 72 42 32 43 75 44
REMARK SMILES IDX 69 45 68 46 33 48 59 49 42 50 58 51 43 52 46 53 57 54 73 55
REMARK SMILES IDX 44 56 45 57 56 59 74 60 47 61 34 62 35 63 40 64 36 65 37 66
REMARK SMILES IDX 39 67 41 68 38 69 60 70 61 71 66 72 62 73 63 74 65 75 67 76
REMARK SMILES IDX 64 77 48 78 49 79 54 80 50 81 51 82 53 83 55 84 52 85
REMARK H PARENT 18 6 22 28 72 47 46 58
REMARK Flexibility Score: inf
ROOT
ATOM      1  C   UNL A   1      33.266  28.090  27.034  1.00  0.00     0.042 C 
ENDROOT
BRANCH   1   2
ATOM      2  C   UNL A   1      31.788  28.375  27.336  1.00  0.00     0.118 C 
BRANCH   2   3
ATOM      3  N   UNL A   1      31.012  27.148  27.217  1.00  0.00    -0.352 N 
ATOM      4  C   UNL A   1      30.648  26.344  26.168  1.00  0.00     0.252 C 
ATOM      5  O   UNL A   1      29.858  25.430  26.424  1.00  0.00    -0.269 OA
ATOM      6  H   UNL A   1      30.674  26.824  28.083  1.00  0.00     0.163 HD
BRANCH   4   7
ATOM      7  C   UNL A   1      31.243  26.373  24.807  1.00  0.00     0.052 A 
ATOM      8  N   UNL A   1      34.074  24.207  24.020  1.00  0.00    -0.328 N 
ATOM      9  C   UNL A   1      33.823  24.758  22.706  1.00  0.00     0.157 C 
ATOM     10  C   UNL A   1      33.365  24.881  24.994  1.00  0.00     0.255 C 
ATOM     11  C   UNL A   1      32.716  25.725  22.970  1.00  0.00    -0.015 A 
ATOM     12  C   UNL A   1      32.353  25.699  24.327  1.00  0.00     0.057 A 
ATOM     13  O   UNL A   1      33.531  24.845  26.196  1.00  0.00    -0.269 OA
ATOM     14  C   UNL A   1      32.066  26.550  22.069  1.00  0.00     0.006 A 
ATOM     15  C   UNL A   1      31.011  27.326  22.543  1.00  0.00     0.001 A 
ATOM     16  C   UNL A   1      30.594  27.221  23.883  1.00  0.00     0.015 A 
BRANCH   8  17
ATOM     17  C   UNL A   1      34.911  23.021  24.213  1.00  0.00     0.113 C 
ATOM     18  C   UNL A   1      36.092  22.997  23.234  1.00  0.00     0.036 C 
BRANCH  17  19
ATOM     19  C   UNL A   1      34.149  21.711  24.226  1.00  0.00    -0.023 A 
ATOM     20  C   UNL A   1      32.939  21.534  23.546  1.00  0.00     0.026 A 
ATOM     21  C   UNL A   1      34.680  20.604  24.897  1.00  0.00     0.026 A 
ATOM     22  C   UNL A   1      32.313  20.298  23.583  1.00  0.00     0.111 A 
ATOM     23  C   UNL A   1      33.991  19.400  24.862  1.00  0.00     0.111 A 
ATOM     24  N   UNL A   1      32.817  19.222  24.223  1.00  0.00    -0.265 NA
ENDBRANCH  17  19
ENDBRANCH   8  17
ENDBRANCH   4   7
ENDBRANCH   2   3
ENDBRANCH   1   2
BRANCH   1  25
ATOM     25  C   UNL A   1      33.955  29.124  26.159  1.00  0.00     0.118 C 
BRANCH  25  26
ATOM     26  N   UNL A   1      33.862  30.463  26.720  1.00  0.00    -0.352 N 
ATOM     27  C   UNL A   1      34.542  31.087  27.739  1.00  0.00     0.251 C 
ATOM     28  H   UNL A   1      33.183  31.031  26.289  1.00  0.00     0.163 HD
ATOM     29  O   UNL A   1      34.088  32.150  28.162  1.00  0.00    -0.269 OA
BRANCH  27  30
ATOM     30  C   UNL A   1      35.787  30.545  28.355  1.00  0.00     0.039 A 
ATOM     31  C   UNL A   1      37.011  30.843  27.737  1.00  0.00     0.014 A 
ATOM     32  C   UNL A   1      35.791  29.668  29.442  1.00  0.00     0.014 A 
ATOM     33  C   UNL A   1      38.211  30.298  28.215  1.00  0.00     0.010 A 
ATOM     34  C   UNL A   1      36.995  29.202  29.980  1.00  0.00     0.010 A 
ATOM     35  C   UNL A   1      38.219  29.486  29.357  1.00  0.00    -0.014 A 
BRANCH  35  36
ATOM     36  C   UNL A   1      39.481  28.888  29.880  1.00  0.00     0.031 A 
ATOM     37  C   UNL A   1      40.134  29.445  31.121  1.00  0.00     0.074 A 
ATOM     38  C   UNL A   1      40.075  27.874  29.220  1.00  0.00     0.049 A 
ATOM     39  N   UNL A   1      41.272  29.113  31.682  1.00  0.00    -0.248 NA
ATOM     40  C   UNL A   1      39.432  30.542  31.805  1.00  0.00     0.031 C 
ATOM     41  C   UNL A   1      39.586  27.265  27.983  1.00  0.00     0.029 A 
ATOM     42  N   UNL A   1      41.230  27.182  29.496  1.00  0.00    -0.354 N 
ATOM     43  C   UNL A   1      41.435  29.981  32.756  1.00  0.00     0.074 A 
ATOM     44  C   UNL A   1      40.301  30.879  32.747  1.00  0.00     0.031 C 
ATOM     45  C   UNL A   1      40.418  26.274  27.621  1.00  0.00     0.029 A 
ATOM     46  C   UNL A   1      41.516  26.199  28.580  1.00  0.00     0.049 A 
ATOM     47  H   UNL A   1      41.797  27.372  30.277  1.00  0.00     0.167 HD
ATOM     48  C   UNL A   1      42.426  30.017  33.679  1.00  0.00     0.037 A 
ATOM     49  C   UNL A   1      42.547  25.334  28.517  1.00  0.00     0.037 A 
ATOM     50  C   UNL A   1      43.527  29.091  33.732  1.00  0.00     0.049 A 
ATOM     51  C   UNL A   1      43.607  25.362  29.580  1.00  0.00     0.074 A 
ATOM     52  C   UNL A   1      44.539  29.005  34.674  1.00  0.00     0.029 A 
ATOM     53  N   UNL A   1      43.754  28.084  32.808  1.00  0.00    -0.354 N 
ATOM     54  N   UNL A   1      43.719  26.155  30.617  1.00  0.00    -0.248 NA
ATOM     55  C   UNL A   1      44.685  24.367  29.466  1.00  0.00     0.031 C 
ATOM     56  C   UNL A   1      45.392  27.958  34.305  1.00  0.00     0.029 A 
ATOM     57  C   UNL A   1      44.893  27.375  33.153  1.00  0.00     0.049 A 
ATOM     58  H   UNL A   1      43.189  27.899  32.023  1.00  0.00     0.167 HD
ATOM     59  C   UNL A   1      44.862  25.744  31.289  1.00  0.00     0.074 A 
ATOM     60  C   UNL A   1      45.402  24.621  30.552  1.00  0.00     0.031 C 
ATOM     61  C   UNL A   1      45.415  26.255  32.416  1.00  0.00     0.037 A 
BRANCH  48  62
ATOM     62  C   UNL A   1      42.360  31.094  34.723  1.00  0.00     0.057 A 
ATOM     63  C   UNL A   1      42.958  32.346  34.532  1.00  0.00     0.134 A 
ATOM     64  C   UNL A   1      41.663  30.887  35.921  1.00  0.00     0.134 A 
ATOM     65  F   UNL A   1      43.650  32.605  33.412  1.00  0.00    -0.206 F 
ATOM     66  C   UNL A   1      42.890  33.344  35.505  1.00  0.00     0.040 A 
ATOM     67  C   UNL A   1      41.567  31.886  36.891  1.00  0.00     0.040 A 
ATOM     68  F   UNL A   1      41.060  29.714  36.164  1.00  0.00    -0.206 F 
ATOM     69  C   UNL A   1      42.189  33.117  36.688  1.00  0.00     0.006 A 
ENDBRANCH  48  62
BRANCH  49  70
ATOM     70  C   UNL A   1      42.608  24.340  27.417  1.00  0.00     0.057 A 
ATOM     71  C   UNL A   1      43.192  24.664  26.187  1.00  0.00     0.134 A 
ATOM     72  C   UNL A   1      42.086  23.051  27.567  1.00  0.00     0.134 A 
ATOM     73  F   UNL A   1      43.689  25.893  25.979  1.00  0.00    -0.206 F 
ATOM     74  C   UNL A   1      43.244  23.744  25.139  1.00  0.00     0.040 A 
ATOM     75  C   UNL A   1      42.152  22.114  26.535  1.00  0.00     0.040 A 
ATOM     76  F   UNL A   1      41.515  22.683  28.723  1.00  0.00    -0.206 F 
ATOM     77  C   UNL A   1      42.727  22.462  25.314  1.00  0.00     0.006 A 
ENDBRANCH  49  70
BRANCH  61  78
ATOM     78  C   UNL A   1      46.650  25.583  32.936  1.00  0.00     0.057 A 
ATOM     79  C   UNL A   1      47.929  25.962  32.508  1.00  0.00     0.134 A 
ATOM     80  C   UNL A   1      46.561  24.567  33.896  1.00  0.00     0.134 A 
ATOM     81  F   UNL A   1      48.080  26.919  31.581  1.00  0.00    -0.206 F 
ATOM     82  C   UNL A   1      49.076  25.338  33.003  1.00  0.00     0.040 A 
ATOM     83  C   UNL A   1      47.701  23.951  34.412  1.00  0.00     0.040 A 
ATOM     84  F   UNL A   1      45.366  24.164  34.352  1.00  0.00    -0.206 F 
ATOM     85  C   UNL A   1      48.963  24.334  33.963  1.00  0.00     0.006 A 
ENDBRANCH  61  78
ENDBRANCH  35  36
ENDBRANCH  27  30
ENDBRANCH  25  26
ENDBRANCH   1  25
TORSDOF 12
ENDMDL
MODEL 3
REMARK VINA RESULT:     -10.8      4.226      7.890
REMARK SMILES C[C@H](c1ccncc1)N1Cc2cccc(C(=O)NCCCNC(=O)c3ccc(-c4c5nc(c(-c6c(F)cccc6F)c6ccc([nH]6)c(-c6c(F)cccc6F)c6nc(c(-c7c(F)cccc7F)c7ccc4[nH]7)C=C6)C=C5)cc3)c2C1=O
REMARK SMILES IDX 20 1 19 2 18 3 16 4 17 5 15 7 9 8 10 9 80 10 11 11 79 12
REMARK SMILES IDX 81 13 12 14 13 15 14 16 2 17 1 18 3 19 4 20 8 21 5 22 7 23
REMARK SMILES IDX 6 24 21 25 22 26 23 27 24 29 25 30 26 31 78 32 27 33 77 34
REMARK SMILES IDX 28 35 29 36 30 37 71 38 31 39 76 40 70 41 72 42 32 43 75 44
REMARK SMILES IDX 69 45 68 46 33 48 59 49 42 50 58 51 43 52 46 53 57 54 73 55
REMARK SMILES IDX 44 56 45 57 56 59 74 60 47 61 34 62 35 63 40 64 36 65 37 66
REMARK SMILES IDX 39 67 41 68 38 69 60 70 61 71 66 72 62 73 63 74 65 75 67 76
REMARK SMILES IDX 64 77 48 78 49 79 54 80 50 81 51 82 53 83 55 84 52 85
REMARK H PARENT 18 6 22 28 72 47 46 58
REMARK Flexibility Score: inf
ROOT
ATOM      1  C   UNL A   1      33.936  28.513  25.876  1.00  0.00     0.042 C 
ENDROOT
BRANCH   1   2
ATOM      2  C   UNL A   1      33.372  29.618  24.973  1.00  0.00     0.118 C 
BRANCH   2   3
ATOM      3  N   UNL A   1      33.635  29.302  23.577  1.00  0.00    -0.352 N 
ATOM      4  C   UNL A   1      33.209  28.318  22.722  1.00  0.00     0.252 C 
ATOM      5  O   UNL A   1      33.752  28.280  21.613  1.00  0.00    -0.269 OA
ATOM      6  H   UNL A   1      34.259  29.935  23.151  1.00  0.00     0.163 HD
BRANCH   4   7
ATOM      7  C   UNL A   1      32.052  27.414  22.949  1.00  0.00     0.052 A 
ATOM      8  N   UNL A   1      32.563  23.801  23.030  1.00  0.00    -0.328 N 
ATOM      9  C   UNL A   1      31.165  23.853  23.400  1.00  0.00     0.157 C 
ATOM     10  C   UNL A   1      33.011  25.025  22.577  1.00  0.00     0.255 C 
ATOM     11  C   UNL A   1      30.862  25.312  23.308  1.00  0.00    -0.015 A 
ATOM     12  C   UNL A   1      32.013  26.030  22.940  1.00  0.00     0.057 A 
ATOM     13  O   UNL A   1      34.032  25.266  21.967  1.00  0.00    -0.269 OA
ATOM     14  C   UNL A   1      29.662  25.956  23.552  1.00  0.00     0.006 A 
ATOM     15  C   UNL A   1      29.639  27.345  23.462  1.00  0.00     0.001 A 
ATOM     16  C   UNL A   1      30.820  28.061  23.188  1.00  0.00     0.015 A 
BRANCH   8  17
ATOM     17  C   UNL A   1      33.369  22.595  23.227  1.00  0.00     0.113 C 
ATOM     18  C   UNL A   1      32.515  21.416  23.712  1.00  0.00     0.036 C 
BRANCH  17  19
ATOM     19  C   UNL A   1      34.605  22.798  24.081  1.00  0.00    -0.023 A 
ATOM     20  C   UNL A   1      34.538  23.107  25.444  1.00  0.00     0.026 A 
ATOM     21  C   UNL A   1      35.875  22.629  23.520  1.00  0.00     0.026 A 
ATOM     22  C   UNL A   1      35.713  23.253  26.166  1.00  0.00     0.111 A 
ATOM     23  C   UNL A   1      36.994  22.776  24.326  1.00  0.00     0.111 A 
ATOM     24  N   UNL A   1      36.943  23.088  25.637  1.00  0.00    -0.265 NA
ENDBRANCH  17  19
ENDBRANCH   8  17
ENDBRANCH   4   7
ENDBRANCH   2   3
ENDBRANCH   1   2
BRANCH   1  25
ATOM     25  C   UNL A   1      33.552  28.621  27.343  1.00  0.00     0.118 C 
BRANCH  25  26
ATOM     26  N   UNL A   1      33.651  29.987  27.833  1.00  0.00    -0.352 N 
ATOM     27  C   UNL A   1      34.661  30.669  28.470  1.00  0.00     0.251 C 
ATOM     28  H   UNL A   1      32.841  30.526  27.682  1.00  0.00     0.163 HD
ATOM     29  O   UNL A   1      34.382  31.749  28.989  1.00  0.00    -0.269 OA
BRANCH  27  30
ATOM     30  C   UNL A   1      36.062  30.169  28.566  1.00  0.00     0.039 A 
ATOM     31  C   UNL A   1      36.507  29.692  29.809  1.00  0.00     0.014 A 
ATOM     32  C   UNL A   1      36.985  30.254  27.522  1.00  0.00     0.014 A 
ATOM     33  C   UNL A   1      37.836  29.285  29.991  1.00  0.00     0.010 A 
ATOM     34  C   UNL A   1      38.284  29.758  27.673  1.00  0.00     0.010 A 
ATOM     35  C   UNL A   1      38.736  29.293  28.916  1.00  0.00    -0.014 A 
BRANCH  35  36
ATOM     36  C   UNL A   1      40.157  28.873  29.087  1.00  0.00     0.031 A 
ATOM     37  C   UNL A   1      41.167  29.818  29.691  1.00  0.00     0.074 A 
ATOM     38  C   UNL A   1      40.561  27.661  28.659  1.00  0.00     0.049 A 
ATOM     39  N   UNL A   1      42.459  29.664  29.848  1.00  0.00    -0.248 NA
ATOM     40  C   UNL A   1      40.663  31.121  30.152  1.00  0.00     0.031 C 
ATOM     41  C   UNL A   1      39.710  26.661  28.014  1.00  0.00     0.029 A 
ATOM     42  N   UNL A   1      41.800  27.066  28.696  1.00  0.00    -0.354 N 
ATOM     43  C   UNL A   1      42.923  30.859  30.387  1.00  0.00     0.074 A 
ATOM     44  C   UNL A   1      41.782  31.741  30.497  1.00  0.00     0.031 C 
ATOM     45  C   UNL A   1      40.443  25.569  27.739  1.00  0.00     0.029 A 
ATOM     46  C   UNL A   1      41.821  25.802  28.157  1.00  0.00     0.049 A 
ATOM     47  H   UNL A   1      42.596  27.505  29.072  1.00  0.00     0.167 HD
ATOM     48  C   UNL A   1      44.179  31.187  30.777  1.00  0.00     0.037 A 
ATOM     49  C   UNL A   1      42.837  24.929  28.015  1.00  0.00     0.037 A 
ATOM     50  C   UNL A   1      45.308  30.296  30.728  1.00  0.00     0.049 A 
ATOM     51  C   UNL A   1      44.210  25.298  28.499  1.00  0.00     0.074 A 
ATOM     52  C   UNL A   1      46.602  30.517  31.169  1.00  0.00     0.029 A 
ATOM     53  N   UNL A   1      45.274  29.010  30.215  1.00  0.00    -0.354 N 
ATOM     54  N   UNL A   1      44.620  26.412  29.055  1.00  0.00    -0.248 NA
ATOM     55  C   UNL A   1      45.262  24.283  28.343  1.00  0.00     0.031 C 
ATOM     56  C   UNL A   1      47.358  29.370  30.900  1.00  0.00     0.029 A 
ATOM     57  C   UNL A   1      46.526  28.426  30.321  1.00  0.00     0.049 A 
ATOM     58  H   UNL A   1      44.478  28.574  29.831  1.00  0.00     0.167 HD
ATOM     59  C   UNL A   1      45.967  26.226  29.331  1.00  0.00     0.074 A 
ATOM     60  C   UNL A   1      46.304  24.886  28.898  1.00  0.00     0.031 C 
ATOM     61  C   UNL A   1      46.846  27.090  29.894  1.00  0.00     0.037 A 
BRANCH  48  62
ATOM     62  C   UNL A   1      44.398  32.576  31.305  1.00  0.00     0.057 A 
ATOM     63  C   UNL A   1      44.757  33.637  30.465  1.00  0.00     0.134 A 
ATOM     64  C   UNL A   1      44.218  32.860  32.665  1.00  0.00     0.134 A 
ATOM     65  F   UNL A   1      44.956  33.430  29.155  1.00  0.00    -0.206 F 
ATOM     66  C   UNL A   1      44.956  34.926  30.962  1.00  0.00     0.040 A 
ATOM     67  C   UNL A   1      44.390  34.150  33.170  1.00  0.00     0.040 A 
ATOM     68  F   UNL A   1      43.866  31.890  33.523  1.00  0.00    -0.206 F 
ATOM     69  C   UNL A   1      44.768  35.186  32.318  1.00  0.00     0.006 A 
ENDBRANCH  48  62
BRANCH  49  70
ATOM     70  C   UNL A   1      42.583  23.598  27.412  1.00  0.00     0.057 A 
ATOM     71  C   UNL A   1      42.652  23.411  26.026  1.00  0.00     0.134 A 
ATOM     72  C   UNL A   1      42.266  22.485  28.199  1.00  0.00     0.134 A 
ATOM     73  F   UNL A   1      42.930  24.446  25.219  1.00  0.00    -0.206 F 
ATOM     74  C   UNL A   1      42.403  22.168  25.443  1.00  0.00     0.040 A 
ATOM     75  C   UNL A   1      42.037  21.232  27.632  1.00  0.00     0.040 A 
ATOM     76  F   UNL A   1      42.186  22.603  29.533  1.00  0.00    -0.206 F 
ATOM     77  C   UNL A   1      42.099  21.072  26.249  1.00  0.00     0.006 A 
ENDBRANCH  49  70
BRANCH  61  78
ATOM     78  C   UNL A   1      48.249  26.601  30.099  1.00  0.00     0.057 A 
ATOM     79  C   UNL A   1      48.626  25.916  31.260  1.00  0.00     0.134 A 
ATOM     80  C   UNL A   1      49.223  26.791  29.111  1.00  0.00     0.134 A 
ATOM     81  F   UNL A   1      47.742  25.713  32.248  1.00  0.00    -0.206 F 
ATOM     82  C   UNL A   1      49.932  25.455  31.442  1.00  0.00     0.040 A 
ATOM     83  C   UNL A   1      50.525  26.318  29.273  1.00  0.00     0.040 A 
ATOM     84  F   UNL A   1      48.923  27.433  27.973  1.00  0.00    -0.206 F 
ATOM     85  C   UNL A   1      50.884  25.651  30.443  1.00  0.00     0.006 A 
ENDBRANCH  61  78
ENDBRANCH  35  36
ENDBRANCH  27  30
ENDBRANCH  25  26
ENDBRANCH   1  25
TORSDOF 12
ENDMDL
