MODEL 1
REMARK VINA RESULT:     -12.6      0.000      0.000
REMARK SMILES Cc1ccccc1/C=C1\SC(=S)N(CCC(=O)N[C@@H](C)C(=O)NCCCNC(=O)c2ccc(-c3c4nc(c(-c5c(F)cccc5F)c5ccc([nH]5)c(-c5c(F)cccc5F)c5nc(c(-c6c(F)cccc6F)c6ccc3[nH]6)C=C5)C=C4)cc2)C1=O
REMARK SMILES IDX 21 1 22 2 23 3 19 5 20 6 18 7 16 8 17 9 15 11 14 12 13 13
REMARK SMILES IDX 8 14 9 15 10 16 84 17 11 18 85 19 12 20 7 21 1 22 2 23 3 24
REMARK SMILES IDX 4 25 6 26 5 27 24 28 25 29 26 30 27 31 28 32 29 34 30 35
REMARK SMILES IDX 31 36 83 37 32 38 82 39 33 40 34 41 35 42 76 43 36 44 81 45
REMARK SMILES IDX 75 46 77 47 37 48 80 49 74 50 73 51 38 53 64 54 47 55 63 56
REMARK SMILES IDX 48 57 51 58 62 59 78 60 49 61 50 62 61 64 79 65 52 66 39 67
REMARK SMILES IDX 40 68 45 69 41 70 42 71 44 72 46 73 43 74 65 75 66 76 71 77
REMARK SMILES IDX 67 78 68 79 70 80 72 81 69 82 53 83 54 84 59 85 55 86 56 87
REMARK SMILES IDX 58 88 60 89 57 90
REMARK H PARENT 23 4 18 10 27 33 77 52 51 63
REMARK Flexibility Score: inf
ROOT
ATOM      1  C   UNL A   1      31.822  28.195  26.954  1.00  0.00     0.242 C 
ATOM      2  O   UNL A   1      31.370  27.459  27.840  1.00  0.00    -0.273 OA
ATOM      3  N   UNL A   1      32.088  29.480  27.330  1.00  0.00    -0.354 N 
ATOM      4  H   UNL A   1      32.058  29.615  28.305  1.00  0.00     0.163 HD
ENDROOT
BRANCH   1   5
ATOM      5  C   UNL A   1      32.038  27.628  25.524  1.00  0.00     0.168 C 
ATOM      6  C   UNL A   1      33.411  27.819  24.939  1.00  0.00     0.041 C 
BRANCH   5   7
ATOM      7  N   UNL A   1      31.092  28.124  24.526  1.00  0.00    -0.345 N 
ATOM      8  C   UNL A   1      30.334  27.340  23.692  1.00  0.00     0.222 C 
ATOM      9  O   UNL A   1      30.046  27.766  22.574  1.00  0.00    -0.275 OA
ATOM     10  H   UNL A   1      30.991  29.100  24.445  1.00  0.00     0.164 HD
BRANCH   8  11
ATOM     11  C   UNL A   1      29.814  25.994  24.186  1.00  0.00     0.122 C 
BRANCH  11  12
ATOM     12  C   UNL A   1      30.374  24.730  23.501  1.00  0.00     0.137 C 
BRANCH  12  13
ATOM     13  N   UNL A   1      31.838  24.547  23.647  1.00  0.00    -0.292 N 
ATOM     14  C   UNL A   1      34.260  22.699  25.483  1.00  0.00     0.029 C 
ATOM     15  C   UNL A   1      33.750  23.632  24.665  1.00  0.00     0.081 C 
ATOM     16  S   UNL A   1      34.356  24.196  23.169  1.00  0.00    -0.054 SA
ATOM     17  C   UNL A   1      32.362  24.135  24.864  1.00  0.00     0.266 C 
ATOM     18  C   UNL A   1      32.780  24.824  22.674  1.00  0.00     0.148 C 
ATOM     19  O   UNL A   1      31.771  24.083  25.933  1.00  0.00    -0.268 OA
ATOM     20  S   UNL A   1      32.559  25.600  21.215  1.00  0.00    -0.052 S 
BRANCH  14  21
ATOM     21  C   UNL A   1      35.484  21.906  25.283  1.00  0.00    -0.021 A 
ATOM     22  C   UNL A   1      36.944  23.890  25.897  1.00  0.00     0.045 C 
ATOM     23  C   UNL A   1      36.755  22.443  25.537  1.00  0.00    -0.044 A 
ATOM     24  C   UNL A   1      37.886  21.618  25.396  1.00  0.00     0.004 A 
ATOM     25  C   UNL A   1      37.759  20.274  25.043  1.00  0.00     0.000 A 
ATOM     26  C   UNL A   1      35.374  20.556  24.907  1.00  0.00     0.008 A 
ATOM     27  C   UNL A   1      36.500  19.741  24.798  1.00  0.00     0.001 A 
ENDBRANCH  14  21
ENDBRANCH  12  13
ENDBRANCH  11  12
ENDBRANCH   8  11
ENDBRANCH   5   7
ENDBRANCH   1   5
BRANCH   3  28
ATOM     28  C   UNL A   1      32.405  30.700  26.588  1.00  0.00     0.117 C 
BRANCH  28  29
ATOM     29  C   UNL A   1      33.354  31.608  27.373  1.00  0.00     0.042 C 
BRANCH  29  30
ATOM     30  C   UNL A   1      34.590  30.850  27.815  1.00  0.00     0.118 C 
BRANCH  30  31
ATOM     31  N   UNL A   1      35.507  31.638  28.629  1.00  0.00    -0.352 N 
ATOM     32  C   UNL A   1      36.698  31.269  29.239  1.00  0.00     0.251 C 
ATOM     33  H   UNL A   1      35.242  32.576  28.767  1.00  0.00     0.163 HD
ATOM     34  O   UNL A   1      37.296  32.060  29.941  1.00  0.00    -0.269 OA
BRANCH  32  35
ATOM     35  C   UNL A   1      37.309  29.959  28.893  1.00  0.00     0.039 A 
ATOM     36  C   UNL A   1      37.456  29.028  29.928  1.00  0.00     0.014 A 
ATOM     37  C   UNL A   1      37.975  29.781  27.687  1.00  0.00     0.014 A 
ATOM     38  C   UNL A   1      38.491  28.103  29.861  1.00  0.00     0.010 A 
ATOM     39  C   UNL A   1      39.088  28.967  27.678  1.00  0.00     0.010 A 
ATOM     40  C   UNL A   1      39.383  28.178  28.794  1.00  0.00    -0.014 A 
BRANCH  40  41
ATOM     41  C   UNL A   1      40.690  27.534  28.800  1.00  0.00     0.031 A 
ATOM     42  C   UNL A   1      40.788  26.089  28.520  1.00  0.00     0.074 A 
ATOM     43  C   UNL A   1      41.802  28.281  28.981  1.00  0.00     0.049 A 
ATOM     44  N   UNL A   1      41.768  25.335  28.885  1.00  0.00    -0.248 NA
ATOM     45  C   UNL A   1      39.731  25.359  27.831  1.00  0.00     0.031 C 
ATOM     46  C   UNL A   1      43.188  27.876  28.764  1.00  0.00     0.029 A 
ATOM     47  N   UNL A   1      41.898  29.535  29.605  1.00  0.00    -0.354 N 
ATOM     48  C   UNL A   1      41.609  24.109  28.277  1.00  0.00     0.074 A 
ATOM     49  C   UNL A   1      40.298  24.162  27.676  1.00  0.00     0.031 C 
ATOM     50  C   UNL A   1      43.990  28.685  29.477  1.00  0.00     0.029 A 
ATOM     51  C   UNL A   1      43.137  29.538  30.285  1.00  0.00     0.049 A 
ATOM     52  H   UNL A   1      41.237  30.263  29.575  1.00  0.00     0.167 HD
ATOM     53  C   UNL A   1      42.659  23.237  28.248  1.00  0.00     0.037 A 
ATOM     54  C   UNL A   1      43.193  29.632  31.645  1.00  0.00     0.037 A 
ATOM     55  C   UNL A   1      43.784  23.759  29.024  1.00  0.00     0.049 A 
ATOM     56  C   UNL A   1      43.815  28.427  32.318  1.00  0.00     0.074 A 
ATOM     57  C   UNL A   1      44.924  24.460  28.663  1.00  0.00     0.029 A 
ATOM     58  N   UNL A   1      43.667  23.884  30.404  1.00  0.00    -0.354 N 
ATOM     59  N   UNL A   1      44.009  27.281  31.725  1.00  0.00    -0.248 NA
ATOM     60  C   UNL A   1      44.223  28.404  33.721  1.00  0.00     0.031 C 
ATOM     61  C   UNL A   1      45.443  25.083  29.827  1.00  0.00     0.029 A 
ATOM     62  C   UNL A   1      44.638  24.735  30.897  1.00  0.00     0.049 A 
ATOM     63  H   UNL A   1      42.987  23.429  30.951  1.00  0.00     0.167 HD
ATOM     64  C   UNL A   1      44.484  26.373  32.634  1.00  0.00     0.074 A 
ATOM     65  C   UNL A   1      44.636  27.132  33.860  1.00  0.00     0.031 C 
ATOM     66  C   UNL A   1      44.683  25.061  32.314  1.00  0.00     0.037 A 
BRANCH  53  67
ATOM     67  C   UNL A   1      42.770  22.080  27.274  1.00  0.00     0.057 A 
ATOM     68  C   UNL A   1      41.959  20.937  27.423  1.00  0.00     0.134 A 
ATOM     69  C   UNL A   1      43.697  21.987  26.221  1.00  0.00     0.134 A 
ATOM     70  F   UNL A   1      40.939  20.904  28.290  1.00  0.00    -0.206 F 
ATOM     71  C   UNL A   1      42.151  19.760  26.684  1.00  0.00     0.040 A 
ATOM     72  C   UNL A   1      43.940  20.800  25.514  1.00  0.00     0.040 A 
ATOM     73  F   UNL A   1      44.363  23.057  25.774  1.00  0.00    -0.206 F 
ATOM     74  C   UNL A   1      43.176  19.671  25.756  1.00  0.00     0.006 A 
ENDBRANCH  53  67
BRANCH  54  75
ATOM     75  C   UNL A   1      42.099  30.457  32.221  1.00  0.00     0.057 A 
ATOM     76  C   UNL A   1      42.225  31.858  32.193  1.00  0.00     0.134 A 
ATOM     77  C   UNL A   1      40.820  29.938  32.434  1.00  0.00     0.134 A 
ATOM     78  F   UNL A   1      43.425  32.424  31.991  1.00  0.00    -0.206 F 
ATOM     79  C   UNL A   1      41.112  32.702  32.261  1.00  0.00     0.040 A 
ATOM     80  C   UNL A   1      39.699  30.774  32.509  1.00  0.00     0.040 A 
ATOM     81  F   UNL A   1      40.615  28.613  32.450  1.00  0.00    -0.206 F 
ATOM     82  C   UNL A   1      39.839  32.156  32.382  1.00  0.00     0.006 A 
ENDBRANCH  54  75
BRANCH  66  83
ATOM     83  C   UNL A   1      44.988  23.969  33.302  1.00  0.00     0.057 A 
ATOM     84  C   UNL A   1      44.056  23.004  33.709  1.00  0.00     0.134 A 
ATOM     85  C   UNL A   1      46.310  23.764  33.749  1.00  0.00     0.134 A 
ATOM     86  F   UNL A   1      42.788  23.030  33.276  1.00  0.00    -0.206 F 
ATOM     87  C   UNL A   1      44.406  21.933  34.541  1.00  0.00     0.040 A 
ATOM     88  C   UNL A   1      46.680  22.674  34.539  1.00  0.00     0.040 A 
ATOM     89  F   UNL A   1      47.299  24.608  33.417  1.00  0.00    -0.206 F 
ATOM     90  C   UNL A   1      45.723  21.757  34.947  1.00  0.00     0.006 A 
ENDBRANCH  66  83
ENDBRANCH  40  41
ENDBRANCH  32  35
ENDBRANCH  30  31
ENDBRANCH  29  30
ENDBRANCH  28  29
ENDBRANCH   3  28
TORSDOF 15
ENDMDL
MODEL 2
REMARK VINA RESULT:     -12.5      1.906      2.460
REMARK SMILES Cc1ccccc1/C=C1\SC(=S)N(CCC(=O)N[C@@H](C)C(=O)NCCCNC(=O)c2ccc(-c3c4nc(c(-c5c(F)cccc5F)c5ccc([nH]5)c(-c5c(F)cccc5F)c5nc(c(-c6c(F)cccc6F)c6ccc3[nH]6)C=C5)C=C4)cc2)C1=O
REMARK SMILES IDX 21 1 22 2 23 3 19 5 20 6 18 7 16 8 17 9 15 11 14 12 13 13
REMARK SMILES IDX 8 14 9 15 10 16 84 17 11 18 85 19 12 20 7 21 1 22 2 23 3 24
REMARK SMILES IDX 4 25 6 26 5 27 24 28 25 29 26 30 27 31 28 32 29 34 30 35
REMARK SMILES IDX 31 36 83 37 32 38 82 39 33 40 34 41 35 42 76 43 36 44 81 45
REMARK SMILES IDX 75 46 77 47 37 48 80 49 74 50 73 51 38 53 64 54 47 55 63 56
REMARK SMILES IDX 48 57 51 58 62 59 78 60 49 61 50 62 61 64 79 65 52 66 39 67
REMARK SMILES IDX 40 68 45 69 41 70 42 71 44 72 46 73 43 74 65 75 66 76 71 77
REMARK SMILES IDX 67 78 68 79 70 80 72 81 69 82 53 83 54 84 59 85 55 86 56 87
REMARK SMILES IDX 58 88 60 89 57 90
REMARK H PARENT 23 4 18 10 27 33 77 52 51 63
REMARK Flexibility Score: inf
ROOT
ATOM      1  C   UNL A   1      33.205  28.809  23.760  1.00  0.00     0.242 C 
ATOM      2  O   UNL A   1      33.832  29.328  22.828  1.00  0.00    -0.273 OA
ATOM      3  N   UNL A   1      32.692  29.673  24.684  1.00  0.00    -0.354 N 
ATOM      4  H   UNL A   1      32.728  30.615  24.399  1.00  0.00     0.163 HD
ENDROOT
BRANCH   1   5
ATOM      5  C   UNL A   1      33.059  27.263  23.817  1.00  0.00     0.168 C 
ATOM      6  C   UNL A   1      33.996  26.546  24.751  1.00  0.00     0.041 C 
BRANCH   5   7
ATOM      7  N   UNL A   1      33.176  26.594  22.523  1.00  0.00    -0.345 N 
ATOM      8  C   UNL A   1      32.565  25.414  22.181  1.00  0.00     0.222 C 
ATOM      9  O   UNL A   1      33.126  24.663  21.384  1.00  0.00    -0.275 OA
ATOM     10  H   UNL A   1      33.739  27.026  21.840  1.00  0.00     0.164 HD
BRANCH   8  11
ATOM     11  C   UNL A   1      31.185  25.087  22.741  1.00  0.00     0.122 C 
BRANCH  11  12
ATOM     12  C   UNL A   1      30.983  23.676  23.335  1.00  0.00     0.137 C 
BRANCH  12  13
ATOM     13  N   UNL A   1      32.031  23.256  24.296  1.00  0.00    -0.292 N 
ATOM     14  C   UNL A   1      35.422  22.195  24.455  1.00  0.00     0.029 C 
ATOM     15  C   UNL A   1      34.167  22.446  24.855  1.00  0.00     0.081 C 
ATOM     16  S   UNL A   1      33.623  23.119  26.330  1.00  0.00    -0.054 SA
ATOM     17  C   UNL A   1      33.039  22.397  23.882  1.00  0.00     0.266 C 
ATOM     18  C   UNL A   1      32.067  23.590  25.636  1.00  0.00     0.148 C 
ATOM     19  O   UNL A   1      33.075  21.762  22.837  1.00  0.00    -0.268 OA
ATOM     20  S   UNL A   1      30.891  24.347  26.543  1.00  0.00    -0.052 S 
BRANCH  14  21
ATOM     21  C   UNL A   1      36.667  22.455  25.197  1.00  0.00    -0.021 A 
ATOM     22  C   UNL A   1      37.471  20.080  24.801  1.00  0.00     0.045 C 
ATOM     23  C   UNL A   1      37.669  21.479  25.313  1.00  0.00    -0.044 A 
ATOM     24  C   UNL A   1      38.867  21.805  25.974  1.00  0.00     0.004 A 
ATOM     25  C   UNL A   1      39.084  23.086  26.483  1.00  0.00     0.000 A 
ATOM     26  C   UNL A   1      36.891  23.734  25.735  1.00  0.00     0.008 A 
ATOM     27  C   UNL A   1      38.095  24.054  26.364  1.00  0.00     0.001 A 
ENDBRANCH  14  21
ENDBRANCH  12  13
ENDBRANCH  11  12
ENDBRANCH   8  11
ENDBRANCH   5   7
ENDBRANCH   1   5
BRANCH   3  28
ATOM     28  C   UNL A   1      32.102  29.495  26.009  1.00  0.00     0.117 C 
BRANCH  28  29
ATOM     29  C   UNL A   1      32.620  30.536  27.004  1.00  0.00     0.042 C 
BRANCH  29  30
ATOM     30  C   UNL A   1      34.036  30.214  27.439  1.00  0.00     0.118 C 
BRANCH  30  31
ATOM     31  N   UNL A   1      34.593  31.168  28.389  1.00  0.00    -0.352 N 
ATOM     32  C   UNL A   1      35.745  31.087  29.160  1.00  0.00     0.251 C 
ATOM     33  H   UNL A   1      34.074  31.997  28.502  1.00  0.00     0.163 HD
ATOM     34  O   UNL A   1      36.012  31.968  29.954  1.00  0.00    -0.269 OA
BRANCH  32  35
ATOM     35  C   UNL A   1      36.720  30.000  28.887  1.00  0.00     0.039 A 
ATOM     36  C   UNL A   1      36.923  29.053  29.898  1.00  0.00     0.014 A 
ATOM     37  C   UNL A   1      37.604  30.088  27.820  1.00  0.00     0.014 A 
ATOM     38  C   UNL A   1      38.156  28.418  29.991  1.00  0.00     0.010 A 
ATOM     39  C   UNL A   1      38.872  29.576  27.988  1.00  0.00     0.010 A 
ATOM     40  C   UNL A   1      39.166  28.796  29.111  1.00  0.00    -0.014 A 
BRANCH  40  41
ATOM     41  C   UNL A   1      40.574  28.494  29.334  1.00  0.00     0.031 A 
ATOM     42  C   UNL A   1      41.159  27.277  28.741  1.00  0.00     0.074 A 
ATOM     43  C   UNL A   1      41.345  29.371  30.015  1.00  0.00     0.049 A 
ATOM     44  N   UNL A   1      42.219  26.685  29.174  1.00  0.00    -0.248 NA
ATOM     45  C   UNL A   1      40.540  26.591  27.613  1.00  0.00     0.031 C 
ATOM     46  C   UNL A   1      42.802  29.379  30.117  1.00  0.00     0.029 A 
ATOM     47  N   UNL A   1      40.926  30.346  30.935  1.00  0.00    -0.354 N 
ATOM     48  C   UNL A   1      42.568  25.717  28.256  1.00  0.00     0.074 A 
ATOM     49  C   UNL A   1      41.461  25.666  27.333  1.00  0.00     0.031 C 
ATOM     50  C   UNL A   1      43.154  30.073  31.212  1.00  0.00     0.029 A 
ATOM     51  C   UNL A   1      41.933  30.407  31.924  1.00  0.00     0.049 A 
ATOM     52  H   UNL A   1      40.099  30.877  30.897  1.00  0.00     0.167 HD
ATOM     53  C   UNL A   1      43.813  25.160  28.316  1.00  0.00     0.037 A 
ATOM     54  C   UNL A   1      41.669  30.067  33.219  1.00  0.00     0.037 A 
ATOM     55  C   UNL A   1      44.538  25.641  29.492  1.00  0.00     0.049 A 
ATOM     56  C   UNL A   1      42.467  28.881  33.717  1.00  0.00     0.074 A 
ATOM     57  C   UNL A   1      45.463  26.658  29.668  1.00  0.00     0.029 A 
ATOM     58  N   UNL A   1      44.099  25.285  30.762  1.00  0.00    -0.354 N 
ATOM     59  N   UNL A   1      43.117  28.061  32.938  1.00  0.00    -0.248 NA
ATOM     60  C   UNL A   1      42.556  28.499  35.125  1.00  0.00     0.031 C 
ATOM     61  C   UNL A   1      45.512  26.971  31.050  1.00  0.00     0.029 A 
ATOM     62  C   UNL A   1      44.641  26.126  31.715  1.00  0.00     0.049 A 
ATOM     63  H   UNL A   1      43.487  24.539  30.955  1.00  0.00     0.167 HD
ATOM     64  C   UNL A   1      43.639  27.039  33.686  1.00  0.00     0.074 A 
ATOM     65  C   UNL A   1      43.292  27.377  35.054  1.00  0.00     0.031 C 
ATOM     66  C   UNL A   1      44.285  25.980  33.118  1.00  0.00     0.037 A 
BRANCH  53  67
ATOM     67  C   UNL A   1      44.470  24.434  27.159  1.00  0.00     0.057 A 
ATOM     68  C   UNL A   1      44.309  23.042  26.999  1.00  0.00     0.134 A 
ATOM     69  C   UNL A   1      45.330  25.019  26.213  1.00  0.00     0.134 A 
ATOM     70  F   UNL A   1      43.429  22.347  27.730  1.00  0.00    -0.206 F 
ATOM     71  C   UNL A   1      45.046  22.286  26.075  1.00  0.00     0.040 A 
ATOM     72  C   UNL A   1      46.117  24.271  25.324  1.00  0.00     0.040 A 
ATOM     73  F   UNL A   1      45.400  26.344  26.051  1.00  0.00    -0.206 F 
ATOM     74  C   UNL A   1      45.989  22.893  25.264  1.00  0.00     0.006 A 
ENDBRANCH  53  67
BRANCH  54  75
ATOM     75  C   UNL A   1      40.281  30.396  33.639  1.00  0.00     0.057 A 
ATOM     76  C   UNL A   1      39.977  31.727  33.980  1.00  0.00     0.134 A 
ATOM     77  C   UNL A   1      39.206  29.552  33.353  1.00  0.00     0.134 A 
ATOM     78  F   UNL A   1      40.963  32.593  34.265  1.00  0.00    -0.206 F 
ATOM     79  C   UNL A   1      38.672  32.224  33.926  1.00  0.00     0.040 A 
ATOM     80  C   UNL A   1      37.893  30.038  33.303  1.00  0.00     0.040 A 
ATOM     81  F   UNL A   1      39.416  28.276  32.997  1.00  0.00    -0.206 F 
ATOM     82  C   UNL A   1      37.629  31.385  33.550  1.00  0.00     0.006 A 
ENDBRANCH  54  75
BRANCH  66  83
ATOM     83  C   UNL A   1      44.687  24.726  33.843  1.00  0.00     0.057 A 
ATOM     84  C   UNL A   1      43.774  23.833  34.423  1.00  0.00     0.134 A 
ATOM     85  C   UNL A   1      46.031  24.296  33.827  1.00  0.00     0.134 A 
ATOM     86  F   UNL A   1      42.457  24.079  34.417  1.00  0.00    -0.206 F 
ATOM     87  C   UNL A   1      44.176  22.617  34.989  1.00  0.00     0.040 A 
ATOM     88  C   UNL A   1      46.436  23.063  34.344  1.00  0.00     0.040 A 
ATOM     89  F   UNL A   1      47.000  25.050  33.288  1.00  0.00    -0.206 F 
ATOM     90  C   UNL A   1      45.508  22.222  34.938  1.00  0.00     0.006 A 
ENDBRANCH  66  83
ENDBRANCH  40  41
ENDBRANCH  32  35
ENDBRANCH  30  31
ENDBRANCH  29  30
ENDBRANCH  28  29
ENDBRANCH   3  28
TORSDOF 15
ENDMDL
MODEL 3
REMARK VINA RESULT:     -12.3      3.836      9.685
REMARK SMILES Cc1ccccc1/C=C1\SC(=S)N(CCC(=O)N[C@@H](C)C(=O)NCCCNC(=O)c2ccc(-c3c4nc(c(-c5c(F)cccc5F)c5ccc([nH]5)c(-c5c(F)cccc5F)c5nc(c(-c6c(F)cccc6F)c6ccc3[nH]6)C=C5)C=C4)cc2)C1=O
REMARK SMILES IDX 21 1 22 2 23 3 19 5 20 6 18 7 16 8 17 9 15 11 14 12 13 13
REMARK SMILES IDX 8 14 9 15 10 16 84 17 11 18 85 19 12 20 7 21 1 22 2 23 3 24
REMARK SMILES IDX 4 25 6 26 5 27 24 28 25 29 26 30 27 31 28 32 29 34 30 35
REMARK SMILES IDX 31 36 83 37 32 38 82 39 33 40 34 41 35 42 76 43 36 44 81 45
REMARK SMILES IDX 75 46 77 47 37 48 80 49 74 50 73 51 38 53 64 54 47 55 63 56
REMARK SMILES IDX 48 57 51 58 62 59 78 60 49 61 50 62 61 64 79 65 52 66 39 67
REMARK SMILES IDX 40 68 45 69 41 70 42 71 44 72 46 73 43 74 65 75 66 76 71 77
REMARK SMILES IDX 67 78 68 79 70 80 72 81 69 82 53 83 54 84 59 85 55 86 56 87
REMARK SMILES IDX 58 88 60 89 57 90
REMARK H PARENT 23 4 18 10 27 33 77 52 51 63
REMARK Flexibility Score: inf
ROOT
ATOM      1  C   UNL A   1      35.477  20.819  25.018  1.00  0.00     0.242 C 
ATOM      2  O   UNL A   1      35.109  19.688  24.678  1.00  0.00    -0.273 OA
ATOM      3  N   UNL A   1      36.762  21.148  24.695  1.00  0.00    -0.354 N 
ATOM      4  H   UNL A   1      37.181  20.513  24.071  1.00  0.00     0.163 HD
ENDROOT
BRANCH   1   5
ATOM      5  C   UNL A   1      34.488  21.751  25.772  1.00  0.00     0.168 C 
ATOM      6  C   UNL A   1      33.717  21.121  26.899  1.00  0.00     0.041 C 
BRANCH   5   7
ATOM      7  N   UNL A   1      33.503  22.410  24.916  1.00  0.00    -0.345 N 
ATOM      8  C   UNL A   1      32.844  23.576  25.216  1.00  0.00     0.222 C 
ATOM      9  O   UNL A   1      31.702  23.740  24.789  1.00  0.00    -0.275 OA
ATOM     10  H   UNL A   1      33.295  21.982  24.055  1.00  0.00     0.164 HD
BRANCH   8  11
ATOM     11  C   UNL A   1      33.557  24.663  26.013  1.00  0.00     0.122 C 
BRANCH  11  12
ATOM     12  C   UNL A   1      34.394  25.685  25.214  1.00  0.00     0.137 C 
BRANCH  12  13
ATOM     13  N   UNL A   1      33.636  26.868  24.741  1.00  0.00    -0.292 N 
ATOM     14  C   UNL A   1      31.035  27.818  22.509  1.00  0.00     0.029 C 
ATOM     15  C   UNL A   1      32.062  27.942  23.363  1.00  0.00     0.081 C 
ATOM     16  S   UNL A   1      32.272  29.063  24.637  1.00  0.00    -0.054 SA
ATOM     17  C   UNL A   1      33.094  26.872  23.463  1.00  0.00     0.266 C 
ATOM     18  C   UNL A   1      33.468  28.044  25.446  1.00  0.00     0.148 C 
ATOM     19  O   UNL A   1      33.329  26.073  22.568  1.00  0.00    -0.268 OA
ATOM     20  S   UNL A   1      34.209  28.513  26.864  1.00  0.00    -0.052 S 
BRANCH  14  21
ATOM     21  C   UNL A   1      29.805  28.626  22.466  1.00  0.00    -0.021 A 
ATOM     22  C   UNL A   1      28.521  26.852  23.751  1.00  0.00     0.045 C 
ATOM     23  C   UNL A   1      28.628  28.206  23.104  1.00  0.00    -0.044 A 
ATOM     24  C   UNL A   1      27.503  29.050  23.090  1.00  0.00     0.004 A 
ATOM     25  C   UNL A   1      27.551  30.306  22.483  1.00  0.00     0.000 A 
ATOM     26  C   UNL A   1      29.831  29.884  21.840  1.00  0.00     0.008 A 
ATOM     27  C   UNL A   1      28.718  30.725  21.857  1.00  0.00     0.001 A 
ENDBRANCH  14  21
ENDBRANCH  12  13
ENDBRANCH  11  12
ENDBRANCH   8  11
ENDBRANCH   5   7
ENDBRANCH   1   5
BRANCH   3  28
ATOM     28  C   UNL A   1      37.648  22.244  25.084  1.00  0.00     0.117 C 
BRANCH  28  29
ATOM     29  C   UNL A   1      38.834  21.746  25.913  1.00  0.00     0.042 C 
BRANCH  29  30
ATOM     30  C   UNL A   1      39.299  22.810  26.887  1.00  0.00     0.118 C 
BRANCH  30  31
ATOM     31  N   UNL A   1      40.702  23.177  26.735  1.00  0.00    -0.352 N 
ATOM     32  C   UNL A   1      41.287  24.431  26.627  1.00  0.00     0.251 C 
ATOM     33  H   UNL A   1      41.331  22.421  26.705  1.00  0.00     0.163 HD
ATOM     34  O   UNL A   1      42.484  24.533  26.438  1.00  0.00    -0.269 OA
BRANCH  32  35
ATOM     35  C   UNL A   1      40.465  25.638  26.905  1.00  0.00     0.039 A 
ATOM     36  C   UNL A   1      40.807  26.815  26.230  1.00  0.00     0.014 A 
ATOM     37  C   UNL A   1      39.605  25.676  27.995  1.00  0.00     0.014 A 
ATOM     38  C   UNL A   1      40.534  28.039  26.829  1.00  0.00     0.010 A 
ATOM     39  C   UNL A   1      39.461  26.874  28.662  1.00  0.00     0.010 A 
ATOM     40  C   UNL A   1      39.987  28.046  28.109  1.00  0.00    -0.014 A 
BRANCH  40  41
ATOM     41  C   UNL A   1      40.002  29.216  28.977  1.00  0.00     0.031 A 
ATOM     42  C   UNL A   1      38.930  30.223  28.858  1.00  0.00     0.074 A 
ATOM     43  C   UNL A   1      40.951  29.326  29.934  1.00  0.00     0.049 A 
ATOM     44  N   UNL A   1      39.030  31.451  29.239  1.00  0.00    -0.248 NA
ATOM     45  C   UNL A   1      37.647  29.919  28.236  1.00  0.00     0.031 C 
ATOM     46  C   UNL A   1      40.982  30.269  31.049  1.00  0.00     0.029 A 
ATOM     47  N   UNL A   1      42.210  28.707  29.965  1.00  0.00    -0.354 N 
ATOM     48  C   UNL A   1      37.778  32.023  29.156  1.00  0.00     0.074 A 
ATOM     49  C   UNL A   1      36.967  31.041  28.476  1.00  0.00     0.031 C 
ATOM     50  C   UNL A   1      42.250  30.389  31.476  1.00  0.00     0.029 A 
ATOM     51  C   UNL A   1      43.089  29.641  30.557  1.00  0.00     0.049 A 
ATOM     52  H   UNL A   1      42.434  27.805  29.641  1.00  0.00     0.167 HD
ATOM     53  C   UNL A   1      37.546  33.211  29.785  1.00  0.00     0.037 A 
ATOM     54  C   UNL A   1      44.136  30.166  29.855  1.00  0.00     0.037 A 
ATOM     55  C   UNL A   1      38.781  33.741  30.361  1.00  0.00     0.049 A 
ATOM     56  C   UNL A   1      44.059  31.666  29.670  1.00  0.00     0.074 A 
ATOM     57  C   UNL A   1      39.324  33.674  31.635  1.00  0.00     0.029 A 
ATOM     58  N   UNL A   1      39.807  34.159  29.519  1.00  0.00    -0.354 N 
ATOM     59  N   UNL A   1      42.981  32.372  29.876  1.00  0.00    -0.248 NA
ATOM     60  C   UNL A   1      45.175  32.480  29.192  1.00  0.00     0.031 C 
ATOM     61  C   UNL A   1      40.707  33.970  31.538  1.00  0.00     0.029 A 
ATOM     62  C   UNL A   1      40.998  34.246  30.214  1.00  0.00     0.049 A 
ATOM     63  H   UNL A   1      39.697  34.364  28.563  1.00  0.00     0.167 HD
ATOM     64  C   UNL A   1      43.212  33.672  29.514  1.00  0.00     0.074 A 
ATOM     65  C   UNL A   1      44.610  33.698  29.126  1.00  0.00     0.031 C 
ATOM     66  C   UNL A   1      42.227  34.616  29.529  1.00  0.00     0.037 A 
BRANCH  53  67
ATOM     67  C   UNL A   1      36.163  33.723  30.139  1.00  0.00     0.057 A 
ATOM     68  C   UNL A   1      35.290  34.186  29.134  1.00  0.00     0.134 A 
ATOM     69  C   UNL A   1      35.654  33.861  31.443  1.00  0.00     0.134 A 
ATOM     70  F   UNL A   1      35.558  34.015  27.833  1.00  0.00    -0.206 F 
ATOM     71  C   UNL A   1      34.087  34.853  29.411  1.00  0.00     0.040 A 
ATOM     72  C   UNL A   1      34.483  34.576  31.738  1.00  0.00     0.040 A 
ATOM     73  F   UNL A   1      36.222  33.251  32.488  1.00  0.00    -0.206 F 
ATOM     74  C   UNL A   1      33.700  35.092  30.719  1.00  0.00     0.006 A 
ENDBRANCH  53  67
BRANCH  54  75
ATOM     75  C   UNL A   1      44.716  29.215  28.871  1.00  0.00     0.057 A 
ATOM     76  C   UNL A   1      44.331  29.322  27.522  1.00  0.00     0.134 A 
ATOM     77  C   UNL A   1      45.879  28.491  29.144  1.00  0.00     0.134 A 
ATOM     78  F   UNL A   1      43.225  30.005  27.188  1.00  0.00    -0.206 F 
ATOM     79  C   UNL A   1      45.128  28.829  26.484  1.00  0.00     0.040 A 
ATOM     80  C   UNL A   1      46.682  27.987  28.113  1.00  0.00     0.040 A 
ATOM     81  F   UNL A   1      46.325  28.365  30.403  1.00  0.00    -0.206 F 
ATOM     82  C   UNL A   1      46.327  28.190  26.779  1.00  0.00     0.006 A 
ENDBRANCH  54  75
BRANCH  66  83
ATOM     83  C   UNL A   1      42.345  35.996  28.943  1.00  0.00     0.057 A 
ATOM     84  C   UNL A   1      43.018  37.054  29.568  1.00  0.00     0.134 A 
ATOM     85  C   UNL A   1      41.911  36.246  27.624  1.00  0.00     0.134 A 
ATOM     86  F   UNL A   1      43.562  36.915  30.785  1.00  0.00    -0.206 F 
ATOM     87  C   UNL A   1      43.208  38.293  28.942  1.00  0.00     0.040 A 
ATOM     88  C   UNL A   1      42.138  37.460  26.971  1.00  0.00     0.040 A 
ATOM     89  F   UNL A   1      41.268  35.310  26.909  1.00  0.00    -0.206 F 
ATOM     90  C   UNL A   1      42.780  38.494  27.635  1.00  0.00     0.006 A 
ENDBRANCH  66  83
ENDBRANCH  40  41
ENDBRANCH  32  35
ENDBRANCH  30  31
ENDBRANCH  29  30
ENDBRANCH  28  29
ENDBRANCH   3  28
TORSDOF 15
ENDMDL
