MODEL 1
REMARK VINA RESULT:     -13.6      0.000      0.000
REMARK SMILES O=C(NCCCNC(=O)[C@H](CO)NC(=O)[C@H](Cc1ccc(O)cc1)NC(=O)c1ccc(F)cc1)c1ccc(-c2c3nc(c(-c4c(F)cccc4F)c4ccc([nH]4)c(-c4c(F)cccc4F)c4nc(c(-c5c(F)cccc5F)c5ccc2[nH]5)C=C4)C=C3)cc1
REMARK SMILES IDX 7 1 8 2 9 3 6 5 5 6 4 7 3 8 1 9 2 10 35 12 36 13 88 14 37 15
REMARK SMILES IDX 87 16 38 17 39 18 40 19 81 20 41 21 86 22 80 23 82 24 42 25
REMARK SMILES IDX 85 26 79 27 78 28 43 30 69 31 52 32 68 33 53 34 56 35 67 36
REMARK SMILES IDX 83 37 54 38 55 39 66 41 84 42 57 43 44 44 45 45 50 46 46 47
REMARK SMILES IDX 47 48 49 49 51 50 48 51 70 52 71 53 76 54 72 55 73 56 75 57
REMARK SMILES IDX 77 58 74 59 58 60 59 61 64 62 60 63 61 64 63 65 65 66 62 67
REMARK SMILES IDX 10 68 13 69 14 70 15 72 16 73 25 74 26 75 27 77 28 78 29 79
REMARK SMILES IDX 34 80 30 81 33 82 31 83 32 84 17 85 18 86 19 87 24 88 20 89
REMARK SMILES IDX 23 90 21 91 22 92 11 94 12 95
REMARK H PARENT 7 4 3 11 82 29 56 40 13 71 25 76 22 93 12 96
REMARK Flexibility Score: inf
ROOT
ATOM      1  N   UNL A   1      34.926  22.279  26.398  1.00  0.00    -0.354 N 
ATOM      2  C   UNL A   1      33.589  22.358  26.935  1.00  0.00     0.244 C 
ATOM      3  O   UNL A   1      33.987  21.760  28.018  1.00  0.00    -0.273 OA
ATOM      4  H   UNL A   1      35.559  22.236  27.150  1.00  0.00     0.163 HD
ENDROOT
BRANCH   1   5
ATOM      5  C   UNL A   1      35.701  22.239  25.136  1.00  0.00     0.117 C 
BRANCH   5   6
ATOM      6  C   UNL A   1      36.627  21.035  24.979  1.00  0.00     0.042 C 
BRANCH   6   7
ATOM      7  C   UNL A   1      38.068  21.370  25.331  1.00  0.00     0.118 C 
BRANCH   7   8
ATOM      8  N   UNL A   1      38.786  20.142  25.644  1.00  0.00    -0.352 N 
ATOM      9  O   UNL A   1      40.716  18.975  25.588  1.00  0.00    -0.269 OA
ATOM     10  C   UNL A   1      40.137  20.019  25.870  1.00  0.00     0.251 C 
ATOM     11  H   UNL A   1      38.250  19.318  25.699  1.00  0.00     0.163 HD
BRANCH  10  12
ATOM     12  C   UNL A   1      40.876  21.139  26.492  1.00  0.00     0.039 A 
ATOM     13  C   UNL A   1      41.501  22.089  25.680  1.00  0.00     0.014 A 
ATOM     14  C   UNL A   1      40.842  21.315  27.879  1.00  0.00     0.014 A 
ATOM     15  C   UNL A   1      42.140  23.181  26.249  1.00  0.00     0.010 A 
ATOM     16  C   UNL A   1      41.402  22.463  28.445  1.00  0.00     0.010 A 
ATOM     17  C   UNL A   1      42.033  23.413  27.628  1.00  0.00    -0.014 A 
BRANCH  17  18
ATOM     18  C   UNL A   1      42.416  24.746  28.150  1.00  0.00     0.031 A 
ATOM     19  C   UNL A   1      41.401  25.815  28.394  1.00  0.00     0.074 A 
ATOM     20  C   UNL A   1      43.722  24.960  28.408  1.00  0.00     0.049 A 
ATOM     21  N   UNL A   1      41.587  27.032  28.832  1.00  0.00    -0.248 NA
ATOM     22  C   UNL A   1      39.999  25.485  28.101  1.00  0.00     0.031 C 
ATOM     23  C   UNL A   1      44.790  23.980  28.186  1.00  0.00     0.029 A 
ATOM     24  N   UNL A   1      44.377  26.046  28.925  1.00  0.00    -0.354 N 
ATOM     25  C   UNL A   1      40.333  27.626  28.842  1.00  0.00     0.074 A 
ATOM     26  C   UNL A   1      39.394  26.637  28.358  1.00  0.00     0.031 C 
ATOM     27  C   UNL A   1      45.951  24.484  28.621  1.00  0.00     0.029 A 
ATOM     28  C   UNL A   1      45.730  25.852  29.069  1.00  0.00     0.049 A 
ATOM     29  H   UNL A   1      43.922  26.884  29.171  1.00  0.00     0.167 HD
ATOM     30  C   UNL A   1      40.011  28.886  29.218  1.00  0.00     0.037 A 
ATOM     31  C   UNL A   1      46.697  26.689  29.485  1.00  0.00     0.037 A 
ATOM     32  C   UNL A   1      40.966  29.846  29.712  1.00  0.00     0.049 A 
ATOM     33  C   UNL A   1      46.314  28.081  29.879  1.00  0.00     0.074 A 
ATOM     34  C   UNL A   1      40.736  31.133  30.166  1.00  0.00     0.029 A 
ATOM     35  N   UNL A   1      42.335  29.627  29.805  1.00  0.00    -0.354 N 
ATOM     36  N   UNL A   1      45.122  28.624  29.906  1.00  0.00    -0.248 NA
ATOM     37  C   UNL A   1      47.400  28.983  30.280  1.00  0.00     0.031 C 
ATOM     38  C   UNL A   1      41.969  31.709  30.484  1.00  0.00     0.029 A 
ATOM     39  C   UNL A   1      42.965  30.766  30.280  1.00  0.00     0.049 A 
ATOM     40  H   UNL A   1      42.789  28.787  29.569  1.00  0.00     0.167 HD
ATOM     41  C   UNL A   1      45.308  29.931  30.327  1.00  0.00     0.074 A 
ATOM     42  C   UNL A   1      46.730  30.094  30.561  1.00  0.00     0.031 C 
ATOM     43  C   UNL A   1      44.384  30.907  30.497  1.00  0.00     0.037 A 
BRANCH  30  44
ATOM     44  C   UNL A   1      38.579  29.314  29.081  1.00  0.00     0.057 A 
ATOM     45  C   UNL A   1      37.721  29.282  30.188  1.00  0.00     0.134 A 
ATOM     46  C   UNL A   1      38.032  29.708  27.853  1.00  0.00     0.134 A 
ATOM     47  F   UNL A   1      38.177  28.909  31.393  1.00  0.00    -0.206 F 
ATOM     48  C   UNL A   1      36.370  29.620  30.078  1.00  0.00     0.040 A 
ATOM     49  C   UNL A   1      36.688  30.072  27.735  1.00  0.00     0.040 A 
ATOM     50  F   UNL A   1      38.801  29.771  26.755  1.00  0.00    -0.206 F 
ATOM     51  C   UNL A   1      35.852  30.021  28.849  1.00  0.00     0.006 A 
ENDBRANCH  30  44
BRANCH  31  52
ATOM     52  C   UNL A   1      48.098  26.208  29.522  1.00  0.00     0.057 A 
ATOM     53  C   UNL A   1      48.657  25.690  30.700  1.00  0.00     0.134 A 
ATOM     54  C   UNL A   1      48.945  26.357  28.420  1.00  0.00     0.134 A 
ATOM     55  F   UNL A   1      47.899  25.538  31.796  1.00  0.00    -0.206 F 
ATOM     56  C   UNL A   1      50.013  25.379  30.792  1.00  0.00     0.040 A 
ATOM     57  C   UNL A   1      50.300  26.027  28.490  1.00  0.00     0.040 A 
ATOM     58  F   UNL A   1      48.468  26.838  27.263  1.00  0.00    -0.206 F 
ATOM     59  C   UNL A   1      50.840  25.550  29.684  1.00  0.00     0.006 A 
ENDBRANCH  31  52
BRANCH  43  60
ATOM     60  C   UNL A   1      44.876  32.242  30.966  1.00  0.00     0.057 A 
ATOM     61  C   UNL A   1      45.278  33.216  30.044  1.00  0.00     0.134 A 
ATOM     62  C   UNL A   1      45.036  32.526  32.327  1.00  0.00     0.134 A 
ATOM     63  F   UNL A   1      45.154  32.999  28.725  1.00  0.00    -0.206 F 
ATOM     64  C   UNL A   1      45.845  34.420  30.460  1.00  0.00     0.040 A 
ATOM     65  C   UNL A   1      45.583  33.736  32.756  1.00  0.00     0.040 A 
ATOM     66  F   UNL A   1      44.657  31.637  33.256  1.00  0.00    -0.206 F 
ATOM     67  C   UNL A   1      45.999  34.682  31.820  1.00  0.00     0.006 A 
ENDBRANCH  43  60
ENDBRANCH  17  18
ENDBRANCH  10  12
ENDBRANCH   7   8
ENDBRANCH   6   7
ENDBRANCH   5   6
ENDBRANCH   1   5
BRANCH   2  68
ATOM     68  C   UNL A   1      31.626  23.119  26.356  1.00  0.00     0.197 C 
BRANCH  68  69
ATOM     69  N   UNL A   1      30.878  23.149  24.839  1.00  0.00    -0.340 N 
ATOM     70  C   UNL A   1      30.768  24.146  23.909  1.00  0.00     0.243 C 
ATOM     71  H   UNL A   1      30.446  22.302  24.582  1.00  0.00     0.164 HD
ATOM     72  O   UNL A   1      30.194  23.889  22.849  1.00  0.00    -0.273 OA
BRANCH  70  73
ATOM     73  C   UNL A   1      31.347  25.547  24.205  1.00  0.00     0.176 C 
BRANCH  73  74
ATOM     74  N   UNL A   1      32.781  25.367  24.478  1.00  0.00    -0.340 N 
ATOM     75  C   UNL A   1      33.595  26.000  25.377  1.00  0.00     0.251 C 
ATOM     76  H   UNL A   1      33.225  24.683  23.926  1.00  0.00     0.164 HD
ATOM     77  O   UNL A   1      34.729  25.573  25.577  1.00  0.00    -0.269 OA
BRANCH  75  78
ATOM     78  C   UNL A   1      33.176  27.266  26.002  1.00  0.00     0.040 A 
ATOM     79  C   UNL A   1      32.134  27.345  26.930  1.00  0.00     0.017 A 
ATOM     80  C   UNL A   1      33.868  28.419  25.612  1.00  0.00     0.017 A 
ATOM     81  C   UNL A   1      31.722  28.594  27.395  1.00  0.00     0.040 A 
ATOM     82  C   UNL A   1      33.464  29.663  26.092  1.00  0.00     0.040 A 
ATOM     83  C   UNL A   1      32.382  29.741  26.962  1.00  0.00     0.123 A 
ATOM     84  F   UNL A   1      31.970  30.940  27.390  1.00  0.00    -0.207 F 
ENDBRANCH  75  78
ENDBRANCH  73  74
BRANCH  73  85
ATOM     85  C   UNL A   1      31.024  26.576  23.098  1.00  0.00     0.070 C 
BRANCH  85  86
ATOM     86  C   UNL A   1      30.106  27.652  23.626  1.00  0.00    -0.045 A 
ATOM     87  C   UNL A   1      30.753  29.318  23.781  1.00  0.00     0.007 A 
ATOM     88  C   UNL A   1      28.326  27.353  23.424  1.00  0.00     0.007 A 
ATOM     89  C   UNL A   1      29.618  30.696  23.571  1.00  0.00     0.046 A 
ATOM     90  C   UNL A   1      27.200  28.737  23.325  1.00  0.00     0.046 A 
ATOM     91  C   UNL A   1      27.831  30.392  23.416  1.00  0.00     0.115 A 
BRANCH  91  92
ATOM     92  O   UNL A   1      26.983  31.444  23.230  1.00  0.00    -0.508 OA
ATOM     93  H   UNL A   1      26.595  31.590  22.390  1.00  0.00     0.293 HD
ENDBRANCH  91  92
ENDBRANCH  85  86
ENDBRANCH  73  85
ENDBRANCH  70  73
ENDBRANCH  68  69
BRANCH  68  94
ATOM     94  C   UNL A   1      30.011  23.031  27.113  1.00  0.00     0.191 C 
BRANCH  94  95
ATOM     95  O   UNL A   1      29.134  21.926  26.902  1.00  0.00    -0.394 OA
ATOM     96  H   UNL A   1      29.623  21.098  27.023  1.00  0.00     0.210 HD
ENDBRANCH  94  95
ENDBRANCH  68  94
ENDBRANCH   2  68
TORSDOF 19
ENDMDL
MODEL 2
REMARK VINA RESULT:     -13.3      1.483      2.131
REMARK SMILES O=C(NCCCNC(=O)[C@H](CO)NC(=O)[C@H](Cc1ccc(O)cc1)NC(=O)c1ccc(F)cc1)c1ccc(-c2c3nc(c(-c4c(F)cccc4F)c4ccc([nH]4)c(-c4c(F)cccc4F)c4nc(c(-c5c(F)cccc5F)c5ccc2[nH]5)C=C4)C=C3)cc1
REMARK SMILES IDX 7 1 8 2 9 3 6 5 5 6 4 7 3 8 1 9 2 10 35 12 36 13 88 14 37 15
REMARK SMILES IDX 87 16 38 17 39 18 40 19 81 20 41 21 86 22 80 23 82 24 42 25
REMARK SMILES IDX 85 26 79 27 78 28 43 30 69 31 52 32 68 33 53 34 56 35 67 36
REMARK SMILES IDX 83 37 54 38 55 39 66 41 84 42 57 43 44 44 45 45 50 46 46 47
REMARK SMILES IDX 47 48 49 49 51 50 48 51 70 52 71 53 76 54 72 55 73 56 75 57
REMARK SMILES IDX 77 58 74 59 58 60 59 61 64 62 60 63 61 64 63 65 65 66 62 67
REMARK SMILES IDX 10 68 13 69 14 70 15 72 16 73 25 74 26 75 27 77 28 78 29 79
REMARK SMILES IDX 34 80 30 81 33 82 31 83 32 84 17 85 18 86 19 87 24 88 20 89
REMARK SMILES IDX 23 90 21 91 22 92 11 94 12 95
REMARK H PARENT 7 4 3 11 82 29 56 40 13 71 25 76 22 93 12 96
REMARK Flexibility Score: inf
ROOT
ATOM      1  N   UNL A   1      35.527  21.703  25.122  1.00  0.00    -0.354 N 
ATOM      2  C   UNL A   1      34.103  21.695  24.890  1.00  0.00     0.244 C 
ATOM      3  O   UNL A   1      33.907  21.253  26.096  1.00  0.00    -0.273 OA
ATOM      4  H   UNL A   1      35.682  21.801  26.089  1.00  0.00     0.163 HD
ENDROOT
BRANCH   1   5
ATOM      5  C   UNL A   1      36.844  21.617  24.447  1.00  0.00     0.117 C 
BRANCH   5   6
ATOM      6  C   UNL A   1      37.718  20.441  24.873  1.00  0.00     0.042 C 
BRANCH   6   7
ATOM      7  C   UNL A   1      38.889  20.880  25.738  1.00  0.00     0.118 C 
BRANCH   7   8
ATOM      8  N   UNL A   1      39.740  19.731  26.018  1.00  0.00    -0.352 N 
ATOM      9  O   UNL A   1      41.743  18.718  25.785  1.00  0.00    -0.269 OA
ATOM     10  C   UNL A   1      41.113  19.727  26.086  1.00  0.00     0.251 C 
ATOM     11  H   UNL A   1      39.286  18.872  26.174  1.00  0.00     0.163 HD
BRANCH  10  12
ATOM     12  C   UNL A   1      41.822  20.935  26.565  1.00  0.00     0.039 A 
ATOM     13  C   UNL A   1      42.316  21.857  25.638  1.00  0.00     0.014 A 
ATOM     14  C   UNL A   1      41.885  21.213  27.934  1.00  0.00     0.014 A 
ATOM     15  C   UNL A   1      42.923  23.026  26.073  1.00  0.00     0.010 A 
ATOM     16  C   UNL A   1      42.409  22.433  28.368  1.00  0.00     0.010 A 
ATOM     17  C   UNL A   1      42.908  23.355  27.436  1.00  0.00    -0.014 A 
BRANCH  17  18
ATOM     18  C   UNL A   1      43.241  24.744  27.830  1.00  0.00     0.031 A 
ATOM     19  C   UNL A   1      42.180  25.738  28.176  1.00  0.00     0.074 A 
ATOM     20  C   UNL A   1      44.546  25.083  27.873  1.00  0.00     0.049 A 
ATOM     21  N   UNL A   1      42.316  26.991  28.522  1.00  0.00    -0.248 NA
ATOM     22  C   UNL A   1      40.786  25.274  28.117  1.00  0.00     0.031 C 
ATOM     23  C   UNL A   1      45.655  24.183  27.537  1.00  0.00     0.029 A 
ATOM     24  N   UNL A   1      45.168  26.249  28.232  1.00  0.00    -0.354 N 
ATOM     25  C   UNL A   1      41.029  27.478  28.695  1.00  0.00     0.074 A 
ATOM     26  C   UNL A   1      40.123  26.386  28.409  1.00  0.00     0.031 C 
ATOM     27  C   UNL A   1      46.816  24.808  27.765  1.00  0.00     0.029 A 
ATOM     28  C   UNL A   1      46.539  26.177  28.175  1.00  0.00     0.049 A 
ATOM     29  H   UNL A   1      44.680  27.060  28.504  1.00  0.00     0.167 HD
ATOM     30  C   UNL A   1      40.651  28.727  29.056  1.00  0.00     0.037 A 
ATOM     31  C   UNL A   1      47.476  27.117  28.398  1.00  0.00     0.037 A 
ATOM     32  C   UNL A   1      41.577  29.792  29.351  1.00  0.00     0.049 A 
ATOM     33  C   UNL A   1      47.030  28.493  28.779  1.00  0.00     0.074 A 
ATOM     34  C   UNL A   1      41.300  31.079  29.773  1.00  0.00     0.029 A 
ATOM     35  N   UNL A   1      42.959  29.694  29.243  1.00  0.00    -0.354 N 
ATOM     36  N   UNL A   1      45.810  28.935  28.963  1.00  0.00    -0.248 NA
ATOM     37  C   UNL A   1      48.076  29.505  28.965  1.00  0.00     0.031 C 
ATOM     38  C   UNL A   1      42.508  31.776  29.870  1.00  0.00     0.029 A 
ATOM     39  C   UNL A   1      43.545  30.908  29.561  1.00  0.00     0.049 A 
ATOM     40  H   UNL A   1      43.448  28.882  28.980  1.00  0.00     0.167 HD
ATOM     41  C   UNL A   1      45.936  30.277  29.287  1.00  0.00     0.074 A 
ATOM     42  C   UNL A   1      47.356  30.571  29.293  1.00  0.00     0.031 C 
ATOM     43  C   UNL A   1      44.962  31.180  29.551  1.00  0.00     0.037 A 
BRANCH  30  44
ATOM     44  C   UNL A   1      39.182  29.024  29.120  1.00  0.00     0.057 A 
ATOM     45  C   UNL A   1      38.475  28.848  30.316  1.00  0.00     0.134 A 
ATOM     46  C   UNL A   1      38.454  29.433  27.996  1.00  0.00     0.134 A 
ATOM     47  F   UNL A   1      39.109  28.452  31.430  1.00  0.00    -0.206 F 
ATOM     48  C   UNL A   1      37.097  29.063  30.392  1.00  0.00     0.040 A 
ATOM     49  C   UNL A   1      37.079  29.675  28.063  1.00  0.00     0.040 A 
ATOM     50  F   UNL A   1      39.071  29.632  26.820  1.00  0.00    -0.206 F 
ATOM     51  C   UNL A   1      36.396  29.482  29.263  1.00  0.00     0.006 A 
ENDBRANCH  30  44
BRANCH  31  52
ATOM     52  C   UNL A   1      48.906  26.757  28.242  1.00  0.00     0.057 A 
ATOM     53  C   UNL A   1      49.561  26.904  27.010  1.00  0.00     0.134 A 
ATOM     54  C   UNL A   1      49.618  26.153  29.282  1.00  0.00     0.134 A 
ATOM     55  F   UNL A   1      48.924  27.462  25.970  1.00  0.00    -0.206 F 
ATOM     56  C   UNL A   1      50.856  26.427  26.808  1.00  0.00     0.040 A 
ATOM     57  C   UNL A   1      50.924  25.693  29.101  1.00  0.00     0.040 A 
ATOM     58  F   UNL A   1      49.049  25.992  30.485  1.00  0.00    -0.206 F 
ATOM     59  C   UNL A   1      51.541  25.816  27.856  1.00  0.00     0.006 A 
ENDBRANCH  31  52
BRANCH  43  60
ATOM     60  C   UNL A   1      45.393  32.578  29.874  1.00  0.00     0.057 A 
ATOM     61  C   UNL A   1      45.631  32.961  31.199  1.00  0.00     0.134 A 
ATOM     62  C   UNL A   1      45.482  33.563  28.884  1.00  0.00     0.134 A 
ATOM     63  F   UNL A   1      45.554  32.062  32.193  1.00  0.00    -0.206 F 
ATOM     64  C   UNL A   1      45.920  34.284  31.533  1.00  0.00     0.040 A 
ATOM     65  C   UNL A   1      45.793  34.886  29.202  1.00  0.00     0.040 A 
ATOM     66  F   UNL A   1      45.277  33.253  27.595  1.00  0.00    -0.206 F 
ATOM     67  C   UNL A   1      46.001  35.251  30.532  1.00  0.00     0.006 A 
ENDBRANCH  43  60
ENDBRANCH  17  18
ENDBRANCH  10  12
ENDBRANCH   7   8
ENDBRANCH   6   7
ENDBRANCH   5   6
ENDBRANCH   1   5
BRANCH   2  68
ATOM     68  C   UNL A   1      32.693  22.184  23.295  1.00  0.00     0.197 C 
BRANCH  68  69
ATOM     69  N   UNL A   1      32.888  23.181  21.942  1.00  0.00    -0.340 N 
ATOM     70  C   UNL A   1      33.006  24.539  21.835  1.00  0.00     0.243 C 
ATOM     71  H   UNL A   1      32.920  22.699  21.083  1.00  0.00     0.164 HD
ATOM     72  O   UNL A   1      33.180  25.018  20.712  1.00  0.00    -0.273 OA
BRANCH  70  73
ATOM     73  C   UNL A   1      32.912  25.426  23.095  1.00  0.00     0.176 C 
BRANCH  73  74
ATOM     74  N   UNL A   1      34.060  25.079  23.947  1.00  0.00    -0.340 N 
ATOM     75  C   UNL A   1      34.305  25.372  25.261  1.00  0.00     0.251 C 
ATOM     76  H   UNL A   1      34.763  24.553  23.502  1.00  0.00     0.164 HD
ATOM     77  O   UNL A   1      35.241  24.831  25.841  1.00  0.00    -0.269 OA
BRANCH  75  78
ATOM     78  C   UNL A   1      33.543  26.432  25.945  1.00  0.00     0.040 A 
ATOM     79  C   UNL A   1      32.323  26.197  26.585  1.00  0.00     0.017 A 
ATOM     80  C   UNL A   1      34.094  27.719  25.917  1.00  0.00     0.017 A 
ATOM     81  C   UNL A   1      31.607  27.272  27.114  1.00  0.00     0.040 A 
ATOM     82  C   UNL A   1      33.384  28.787  26.461  1.00  0.00     0.040 A 
ATOM     83  C   UNL A   1      32.139  28.556  27.036  1.00  0.00     0.123 A 
ATOM     84  F   UNL A   1      31.439  29.589  27.523  1.00  0.00    -0.207 F 
ENDBRANCH  75  78
ENDBRANCH  73  74
BRANCH  73  85
ATOM     85  C   UNL A   1      32.785  26.930  22.763  1.00  0.00     0.070 C 
BRANCH  85  86
ATOM     86  C   UNL A   1      31.470  27.475  23.267  1.00  0.00    -0.045 A 
ATOM     87  C   UNL A   1      30.981  29.122  22.751  1.00  0.00     0.007 A 
ATOM     88  C   UNL A   1      30.232  26.242  23.761  1.00  0.00     0.007 A 
ATOM     89  C   UNL A   1      29.227  29.475  22.581  1.00  0.00     0.046 A 
ATOM     90  C   UNL A   1      28.494  26.650  23.686  1.00  0.00     0.046 A 
ATOM     91  C   UNL A   1      27.992  28.255  23.121  1.00  0.00     0.115 A 
BRANCH  91  92
ATOM     92  O   UNL A   1      26.665  28.524  22.961  1.00  0.00    -0.508 OA
ATOM     93  H   UNL A   1      26.200  28.174  22.226  1.00  0.00     0.293 HD
ENDBRANCH  91  92
ENDBRANCH  85  86
ENDBRANCH  73  85
ENDBRANCH  70  73
ENDBRANCH  68  69
BRANCH  68  94
ATOM     94  C   UNL A   1      31.514  21.214  22.369  1.00  0.00     0.191 C 
BRANCH  94  95
ATOM     95  O   UNL A   1      31.774  20.771  21.039  1.00  0.00    -0.394 OA
ATOM     96  H   UNL A   1      32.236  19.918  21.067  1.00  0.00     0.210 HD
ENDBRANCH  94  95
ENDBRANCH  68  94
ENDBRANCH   2  68
TORSDOF 19
ENDMDL
MODEL 3
REMARK VINA RESULT:     -13.2      3.126      8.115
REMARK SMILES O=C(NCCCNC(=O)[C@H](CO)NC(=O)[C@H](Cc1ccc(O)cc1)NC(=O)c1ccc(F)cc1)c1ccc(-c2c3nc(c(-c4c(F)cccc4F)c4ccc([nH]4)c(-c4c(F)cccc4F)c4nc(c(-c5c(F)cccc5F)c5ccc2[nH]5)C=C4)C=C3)cc1
REMARK SMILES IDX 7 1 8 2 9 3 6 5 5 6 4 7 3 8 1 9 2 10 35 12 36 13 88 14 37 15
REMARK SMILES IDX 87 16 38 17 39 18 40 19 81 20 41 21 86 22 80 23 82 24 42 25
REMARK SMILES IDX 85 26 79 27 78 28 43 30 69 31 52 32 68 33 53 34 56 35 67 36
REMARK SMILES IDX 83 37 54 38 55 39 66 41 84 42 57 43 44 44 45 45 50 46 46 47
REMARK SMILES IDX 47 48 49 49 51 50 48 51 70 52 71 53 76 54 72 55 73 56 75 57
REMARK SMILES IDX 77 58 74 59 58 60 59 61 64 62 60 63 61 64 63 65 65 66 62 67
REMARK SMILES IDX 10 68 13 69 14 70 15 72 16 73 25 74 26 75 27 77 28 78 29 79
REMARK SMILES IDX 34 80 30 81 33 82 31 83 32 84 17 85 18 86 19 87 24 88 20 89
REMARK SMILES IDX 23 90 21 91 22 92 11 94 12 95
REMARK H PARENT 7 4 3 11 82 29 56 40 13 71 25 76 22 93 12 96
REMARK Flexibility Score: inf
ROOT
ATOM      1  N   UNL A   1      33.537  28.716  24.409  1.00  0.00    -0.354 N 
ATOM      2  C   UNL A   1      33.493  28.069  23.120  1.00  0.00     0.244 C 
ATOM      3  O   UNL A   1      34.050  29.111  22.576  1.00  0.00    -0.273 OA
ATOM      4  H   UNL A   1      34.274  29.368  24.403  1.00  0.00     0.163 HD
ENDROOT
BRANCH   1   5
ATOM      5  C   UNL A   1      32.886  28.764  25.739  1.00  0.00     0.117 C 
BRANCH   5   6
ATOM      6  C   UNL A   1      33.350  29.896  26.650  1.00  0.00     0.042 C 
BRANCH   6   7
ATOM      7  C   UNL A   1      34.494  29.471  27.558  1.00  0.00     0.118 C 
BRANCH   7   8
ATOM      8  N   UNL A   1      34.837  30.570  28.450  1.00  0.00    -0.352 N 
ATOM      9  O   UNL A   1      35.765  31.255  30.390  1.00  0.00    -0.269 OA
ATOM     10  C   UNL A   1      35.866  30.593  29.362  1.00  0.00     0.251 C 
ATOM     11  H   UNL A   1      34.276  31.377  28.395  1.00  0.00     0.163 HD
BRANCH  10  12
ATOM     12  C   UNL A   1      37.111  29.846  29.074  1.00  0.00     0.039 A 
ATOM     13  C   UNL A   1      37.659  29.889  27.789  1.00  0.00     0.014 A 
ATOM     14  C   UNL A   1      37.800  29.208  30.110  1.00  0.00     0.014 A 
ATOM     15  C   UNL A   1      38.860  29.249  27.522  1.00  0.00     0.010 A 
ATOM     16  C   UNL A   1      39.055  28.647  29.864  1.00  0.00     0.010 A 
ATOM     17  C   UNL A   1      39.601  28.687  28.572  1.00  0.00    -0.014 A 
BRANCH  17  18
ATOM     18  C   UNL A   1      41.017  28.329  28.323  1.00  0.00     0.031 A 
ATOM     19  C   UNL A   1      42.114  29.337  28.437  1.00  0.00     0.074 A 
ATOM     20  C   UNL A   1      41.286  27.049  27.994  1.00  0.00     0.049 A 
ATOM     21  N   UNL A   1      43.395  29.177  28.233  1.00  0.00    -0.248 NA
ATOM     22  C   UNL A   1      41.728  30.704  28.817  1.00  0.00     0.031 C 
ATOM     23  C   UNL A   1      40.278  25.994  27.844  1.00  0.00     0.029 A 
ATOM     24  N   UNL A   1      42.471  26.407  27.749  1.00  0.00    -0.354 N 
ATOM     25  C   UNL A   1      43.969  30.425  28.431  1.00  0.00     0.074 A 
ATOM     26  C   UNL A   1      42.894  31.335  28.764  1.00  0.00     0.031 C 
ATOM     27  C   UNL A   1      40.889  24.830  27.595  1.00  0.00     0.029 A 
ATOM     28  C   UNL A   1      42.321  25.067  27.479  1.00  0.00     0.049 A 
ATOM     29  H   UNL A   1      43.345  26.860  27.765  1.00  0.00     0.167 HD
ATOM     30  C   UNL A   1      45.275  30.766  28.335  1.00  0.00     0.037 A 
ATOM     31  C   UNL A   1      43.229  24.134  27.143  1.00  0.00     0.037 A 
ATOM     32  C   UNL A   1      46.328  29.834  28.017  1.00  0.00     0.049 A 
ATOM     33  C   UNL A   1      44.664  24.542  27.029  1.00  0.00     0.074 A 
ATOM     34  C   UNL A   1      47.689  30.067  27.945  1.00  0.00     0.029 A 
ATOM     35  N   UNL A   1      46.133  28.493  27.710  1.00  0.00    -0.354 N 
ATOM     36  N   UNL A   1      45.197  25.721  27.241  1.00  0.00    -0.248 NA
ATOM     37  C   UNL A   1      45.620  23.510  26.612  1.00  0.00     0.031 C 
ATOM     38  C   UNL A   1      48.313  28.882  27.542  1.00  0.00     0.029 A 
ATOM     39  C   UNL A   1      47.348  27.894  27.416  1.00  0.00     0.049 A 
ATOM     40  H   UNL A   1      45.262  28.036  27.703  1.00  0.00     0.167 HD
ATOM     41  C   UNL A   1      46.552  25.577  26.986  1.00  0.00     0.074 A 
ATOM     42  C   UNL A   1      46.761  24.189  26.619  1.00  0.00     0.031 C 
ATOM     43  C   UNL A   1      47.529  26.512  27.045  1.00  0.00     0.037 A 
BRANCH  30  44
ATOM     44  C   UNL A   1      45.640  32.207  28.541  1.00  0.00     0.057 A 
ATOM     45  C   UNL A   1      45.661  33.095  27.458  1.00  0.00     0.134 A 
ATOM     46  C   UNL A   1      46.018  32.710  29.793  1.00  0.00     0.134 A 
ATOM     47  F   UNL A   1      45.316  32.678  26.230  1.00  0.00    -0.206 F 
ATOM     48  C   UNL A   1      46.051  34.427  27.609  1.00  0.00     0.040 A 
ATOM     49  C   UNL A   1      46.387  34.047  29.963  1.00  0.00     0.040 A 
ATOM     50  F   UNL A   1      46.010  31.916  30.876  1.00  0.00    -0.206 F 
ATOM     51  C   UNL A   1      46.411  34.907  28.866  1.00  0.00     0.006 A 
ENDBRANCH  30  44
BRANCH  31  52
ATOM     52  C   UNL A   1      42.773  22.746  26.886  1.00  0.00     0.057 A 
ATOM     53  C   UNL A   1      42.443  21.884  27.942  1.00  0.00     0.134 A 
ATOM     54  C   UNL A   1      42.766  22.214  25.594  1.00  0.00     0.134 A 
ATOM     55  F   UNL A   1      42.447  22.332  29.206  1.00  0.00    -0.206 F 
ATOM     56  C   UNL A   1      42.163  20.535  27.725  1.00  0.00     0.040 A 
ATOM     57  C   UNL A   1      42.463  20.871  25.360  1.00  0.00     0.040 A 
ATOM     58  F   UNL A   1      43.064  22.991  24.542  1.00  0.00    -0.206 F 
ATOM     59  C   UNL A   1      42.176  20.024  26.429  1.00  0.00     0.006 A 
ENDBRANCH  31  52
BRANCH  43  60
ATOM     60  C   UNL A   1      48.922  26.071  26.711  1.00  0.00     0.057 A 
ATOM     61  C   UNL A   1      49.742  25.500  27.692  1.00  0.00     0.134 A 
ATOM     62  C   UNL A   1      49.477  26.295  25.446  1.00  0.00     0.134 A 
ATOM     63  F   UNL A   1      49.267  25.266  28.926  1.00  0.00    -0.206 F 
ATOM     64  C   UNL A   1      51.076  25.188  27.433  1.00  0.00     0.040 A 
ATOM     65  C   UNL A   1      50.805  25.968  25.168  1.00  0.00     0.040 A 
ATOM     66  F   UNL A   1      48.736  26.827  24.463  1.00  0.00    -0.206 F 
ATOM     67  C   UNL A   1      51.611  25.423  26.167  1.00  0.00     0.006 A 
ENDBRANCH  43  60
ENDBRANCH  17  18
ENDBRANCH  10  12
ENDBRANCH   7   8
ENDBRANCH   6   7
ENDBRANCH   5   6
ENDBRANCH   1   5
BRANCH   2  68
ATOM     68  C   UNL A   1      32.838  26.176  22.249  1.00  0.00     0.197 C 
BRANCH  68  69
ATOM     69  N   UNL A   1      31.420  25.294  22.514  1.00  0.00    -0.340 N 
ATOM     70  C   UNL A   1      31.181  24.178  23.268  1.00  0.00     0.243 C 
ATOM     71  H   UNL A   1      30.629  25.643  22.041  1.00  0.00     0.164 HD
ATOM     72  O   UNL A   1      30.026  23.751  23.321  1.00  0.00    -0.273 OA
BRANCH  70  73
ATOM     73  C   UNL A   1      32.342  23.487  24.016  1.00  0.00     0.176 C 
BRANCH  73  74
ATOM     74  N   UNL A   1      32.859  24.458  24.993  1.00  0.00    -0.340 N 
ATOM     75  C   UNL A   1      34.145  24.741  25.361  1.00  0.00     0.251 C 
ATOM     76  H   UNL A   1      32.169  24.988  25.455  1.00  0.00     0.164 HD
ATOM     77  O   UNL A   1      34.376  25.720  26.064  1.00  0.00    -0.269 OA
BRANCH  75  78
ATOM     78  C   UNL A   1      35.237  23.806  25.038  1.00  0.00     0.040 A 
ATOM     79  C   UNL A   1      35.709  23.610  23.737  1.00  0.00     0.017 A 
ATOM     80  C   UNL A   1      35.791  23.093  26.108  1.00  0.00     0.017 A 
ATOM     81  C   UNL A   1      36.669  22.628  23.495  1.00  0.00     0.040 A 
ATOM     82  C   UNL A   1      36.762  22.124  25.865  1.00  0.00     0.040 A 
ATOM     83  C   UNL A   1      37.177  21.887  24.559  1.00  0.00     0.123 A 
ATOM     84  F   UNL A   1      38.081  20.928  24.321  1.00  0.00    -0.207 F 
ENDBRANCH  75  78
ENDBRANCH  73  74
BRANCH  73  85
ATOM     85  C   UNL A   1      31.941  22.119  24.615  1.00  0.00     0.070 C 
BRANCH  85  86
ATOM     86  C   UNL A   1      32.745  21.008  23.983  1.00  0.00    -0.045 A 
ATOM     87  C   UNL A   1      33.908  20.111  25.013  1.00  0.00     0.007 A 
ATOM     88  C   UNL A   1      32.025  20.246  22.500  1.00  0.00     0.007 A 
ATOM     89  C   UNL A   1      34.223  18.382  24.634  1.00  0.00     0.046 A 
ATOM     90  C   UNL A   1      32.436  18.558  22.081  1.00  0.00     0.046 A 
ATOM     91  C   UNL A   1      33.538  17.638  23.123  1.00  0.00     0.115 A 
BRANCH  91  92
ATOM     92  O   UNL A   1      33.762  16.318  22.861  1.00  0.00    -0.508 OA
ATOM     93  H   UNL A   1      33.637  15.985  21.994  1.00  0.00     0.293 HD
ENDBRANCH  91  92
ENDBRANCH  85  86
ENDBRANCH  73  85
ENDBRANCH  70  73
ENDBRANCH  68  69
BRANCH  68  94
ATOM     94  C   UNL A   1      32.909  25.503  20.597  1.00  0.00     0.191 C 
BRANCH  94  95
ATOM     95  O   UNL A   1      31.838  25.657  19.669  1.00  0.00    -0.394 OA
ATOM     96  H   UNL A   1      32.170  25.523  18.768  1.00  0.00     0.210 HD
ENDBRANCH  94  95
ENDBRANCH  68  94
ENDBRANCH   2  68
TORSDOF 19
ENDMDL
