MODEL 1
REMARK VINA RESULT:     -14.0      0.000      0.000
REMARK SMILES C[C@H]1c2ccc(O)cc2OC(=O)[C@@H]1CC(=O)N[C@@H](CC1=c2ccccc2=NC1)C(=O)NCCCNC(=O)c1ccc(-c2c3nc(c(-c4c(F)cccc4F)c4ccc([nH]4)c(-c4c(F)cccc4F)c4nc(c(-c5c(F)cccc5F)c5ccc2[nH]5)C=C4)C=C3)cc1
REMARK SMILES IDX 32 1 31 2 29 3 30 4 18 6 17 7 15 8 16 9 14 11 13 12 1 13
REMARK SMILES IDX 2 14 3 15 4 16 9 17 11 18 5 19 8 20 10 21 12 22 6 23 7 24
REMARK SMILES IDX 19 26 20 27 21 28 28 29 22 30 26 31 27 32 23 33 25 34 24 35
REMARK SMILES IDX 33 36 34 37 35 38 36 39 37 41 38 42 39 43 91 44 40 45 90 46
REMARK SMILES IDX 41 47 42 48 43 49 84 50 44 51 89 52 83 53 85 54 45 55 88 56
REMARK SMILES IDX 82 57 81 58 46 60 72 61 55 62 71 63 56 64 59 65 70 66 86 67
REMARK SMILES IDX 57 68 58 69 69 71 87 72 60 73 47 74 48 75 53 76 49 77 50 78
REMARK SMILES IDX 52 79 54 80 51 81 73 82 74 83 79 84 75 85 76 86 78 87 80 88
REMARK SMILES IDX 77 89 61 90 62 91 67 92 63 93 64 94 66 95 68 96 65 97
REMARK H PARENT 31 5 17 10 7 25 35 40 85 59 59 70
REMARK Flexibility Score: inf
ROOT
ATOM      1  C   UNL A   1      32.654  29.990  25.740  1.00  0.00     0.117 C 
ENDROOT
BRANCH   1   2
ATOM      2  N   UNL A   1      33.670  29.306  24.995  1.00  0.00    -0.354 N 
ATOM      3  C   UNL A   1      33.364  28.499  23.927  1.00  0.00     0.242 C 
ATOM      4  O   UNL A   1      34.101  28.583  22.938  1.00  0.00    -0.273 OA
ATOM      5  H   UNL A   1      34.613  29.418  25.256  1.00  0.00     0.163 HD
BRANCH   3   6
ATOM      6  C   UNL A   1      32.117  27.554  23.901  1.00  0.00     0.175 C 
BRANCH   6   7
ATOM      7  N   UNL A   1      31.680  26.944  25.162  1.00  0.00    -0.344 N 
ATOM      8  C   UNL A   1      31.998  25.727  25.694  1.00  0.00     0.221 C 
ATOM      9  O   UNL A   1      31.389  25.350  26.697  1.00  0.00    -0.275 OA
ATOM     10  H   UNL A   1      31.068  27.492  25.704  1.00  0.00     0.164 HD
BRANCH   8  11
ATOM     11  C   UNL A   1      33.105  24.869  25.098  1.00  0.00     0.116 C 
BRANCH  11  12
ATOM     12  C   UNL A   1      32.688  24.033  23.864  1.00  0.00     0.116 C 
ATOM     13  C   UNL A   1      32.309  21.703  22.881  1.00  0.00     0.014 C 
ATOM     14  C   UNL A   1      32.867  22.509  24.061  1.00  0.00     0.034 C 
ATOM     15  C   UNL A   1      34.337  22.220  24.250  1.00  0.00    -0.001 A 
ATOM     16  C   UNL A   1      34.793  21.165  25.043  1.00  0.00     0.011 A 
ATOM     17  C   UNL A   1      35.276  23.068  23.655  1.00  0.00     0.138 A 
ATOM     18  C   UNL A   1      33.521  24.382  22.653  1.00  0.00     0.315 C 
ATOM     19  C   UNL A   1      36.162  21.014  25.286  1.00  0.00     0.047 A 
ATOM     20  C   UNL A   1      36.637  22.952  23.914  1.00  0.00     0.093 A 
ATOM     21  O   UNL A   1      34.869  24.063  22.750  1.00  0.00    -0.426 OA
ATOM     22  O   UNL A   1      33.062  24.961  21.675  1.00  0.00    -0.251 OA
ATOM     23  C   UNL A   1      37.067  21.924  24.743  1.00  0.00     0.119 A 
BRANCH  23  24
ATOM     24  O   UNL A   1      38.403  21.835  25.002  1.00  0.00    -0.508 OA
ATOM     25  H   UNL A   1      38.997  21.600  24.316  1.00  0.00     0.293 HD
ENDBRANCH  23  24
ENDBRANCH  11  12
ENDBRANCH   8  11
ENDBRANCH   6   7
BRANCH   6  26
ATOM     26  C   UNL A   1      30.924  27.877  22.935  1.00  0.00     0.068 C 
BRANCH  26  27
ATOM     27  C   UNL A   1      29.748  28.749  23.350  1.00  0.00    -0.037 C 
ATOM     28  C   UNL A   1      29.633  30.039  22.993  1.00  0.00     0.001 A 
ATOM     29  C   UNL A   1      28.399  28.107  23.384  1.00  0.00     0.174 C 
ATOM     30  C   UNL A   1      29.409  31.186  23.879  1.00  0.00     0.010 A 
ATOM     31  C   UNL A   1      28.384  29.902  22.182  1.00  0.00     0.065 A 
ATOM     32  N   UNL A   1      27.628  28.871  22.380  1.00  0.00    -0.280 NA
ATOM     33  C   UNL A   1      28.741  32.246  23.373  1.00  0.00     0.001 A 
ATOM     34  C   UNL A   1      28.114  31.076  21.334  1.00  0.00     0.028 A 
ATOM     35  C   UNL A   1      28.319  32.241  21.972  1.00  0.00     0.002 A 
ENDBRANCH  26  27
ENDBRANCH   6  26
ENDBRANCH   3   6
ENDBRANCH   1   2
BRANCH   1  36
ATOM     36  C   UNL A   1      33.013  30.664  27.049  1.00  0.00     0.042 C 
BRANCH  36  37
ATOM     37  C   UNL A   1      34.389  30.249  27.578  1.00  0.00     0.118 C 
BRANCH  37  38
ATOM     38  N   UNL A   1      34.779  30.821  28.877  1.00  0.00    -0.352 N 
ATOM     39  C   UNL A   1      35.911  30.800  29.662  1.00  0.00     0.251 C 
ATOM     40  H   UNL A   1      34.053  31.347  29.285  1.00  0.00     0.163 HD
ATOM     41  O   UNL A   1      35.908  31.415  30.730  1.00  0.00    -0.269 OA
BRANCH  39  42
ATOM     42  C   UNL A   1      37.112  30.016  29.300  1.00  0.00     0.039 A 
ATOM     43  C   UNL A   1      37.758  29.222  30.230  1.00  0.00     0.014 A 
ATOM     44  C   UNL A   1      37.633  30.090  27.999  1.00  0.00     0.014 A 
ATOM     45  C   UNL A   1      39.052  28.795  29.986  1.00  0.00     0.010 A 
ATOM     46  C   UNL A   1      38.866  29.495  27.694  1.00  0.00     0.010 A 
ATOM     47  C   UNL A   1      39.635  28.920  28.716  1.00  0.00    -0.014 A 
BRANCH  47  48
ATOM     48  C   UNL A   1      41.046  28.474  28.530  1.00  0.00     0.031 A 
ATOM     49  C   UNL A   1      41.368  27.054  28.130  1.00  0.00     0.074 A 
ATOM     50  C   UNL A   1      42.040  29.386  28.593  1.00  0.00     0.049 A 
ATOM     51  N   UNL A   1      42.539  26.508  27.903  1.00  0.00    -0.248 NA
ATOM     52  C   UNL A   1      40.240  26.123  27.973  1.00  0.00     0.031 C 
ATOM     53  C   UNL A   1      41.871  30.795  28.959  1.00  0.00     0.029 A 
ATOM     54  N   UNL A   1      43.376  29.285  28.295  1.00  0.00    -0.354 N 
ATOM     55  C   UNL A   1      42.289  25.170  27.619  1.00  0.00     0.074 A 
ATOM     56  C   UNL A   1      40.859  24.978  27.724  1.00  0.00     0.031 C 
ATOM     57  C   UNL A   1      43.022  31.447  28.756  1.00  0.00     0.029 A 
ATOM     58  C   UNL A   1      44.044  30.484  28.361  1.00  0.00     0.049 A 
ATOM     59  H   UNL A   1      43.813  28.436  28.056  1.00  0.00     0.167 HD
ATOM     60  C   UNL A   1      43.167  24.191  27.290  1.00  0.00     0.037 A 
ATOM     61  C   UNL A   1      45.339  30.784  28.158  1.00  0.00     0.037 A 
ATOM     62  C   UNL A   1      44.587  24.389  27.146  1.00  0.00     0.049 A 
ATOM     63  C   UNL A   1      46.293  29.682  27.809  1.00  0.00     0.074 A 
ATOM     64  C   UNL A   1      45.563  23.458  26.833  1.00  0.00     0.029 A 
ATOM     65  N   UNL A   1      45.232  25.609  27.288  1.00  0.00    -0.354 N 
ATOM     66  N   UNL A   1      46.043  28.412  27.608  1.00  0.00    -0.248 NA
ATOM     67  C   UNL A   1      47.708  30.050  27.687  1.00  0.00     0.031 C 
ATOM     68  C   UNL A   1      46.802  24.110  26.813  1.00  0.00     0.029 A 
ATOM     69  C   UNL A   1      46.593  25.454  27.074  1.00  0.00     0.049 A 
ATOM     70  H   UNL A   1      44.789  26.460  27.510  1.00  0.00     0.167 HD
ATOM     71  C   UNL A   1      47.272  27.823  27.348  1.00  0.00     0.074 A 
ATOM     72  C   UNL A   1      48.258  28.885  27.376  1.00  0.00     0.031 C 
ATOM     73  C   UNL A   1      47.560  26.520  27.120  1.00  0.00     0.037 A 
BRANCH  60  74
ATOM     74  C   UNL A   1      42.618  22.809  27.080  1.00  0.00     0.057 A 
ATOM     75  C   UNL A   1      42.264  22.008  28.173  1.00  0.00     0.134 A 
ATOM     76  C   UNL A   1      42.464  22.257  25.801  1.00  0.00     0.134 A 
ATOM     77  F   UNL A   1      42.391  22.471  29.426  1.00  0.00    -0.206 F 
ATOM     78  C   UNL A   1      41.781  20.709  28.003  1.00  0.00     0.040 A 
ATOM     79  C   UNL A   1      41.959  20.968  25.617  1.00  0.00     0.040 A 
ATOM     80  F   UNL A   1      42.767  22.976  24.710  1.00  0.00    -0.206 F 
ATOM     81  C   UNL A   1      41.621  20.187  26.722  1.00  0.00     0.006 A 
ENDBRANCH  60  74
BRANCH  61  82
ATOM     82  C   UNL A   1      45.808  32.181  28.335  1.00  0.00     0.057 A 
ATOM     83  C   UNL A   1      46.251  32.643  29.581  1.00  0.00     0.134 A 
ATOM     84  C   UNL A   1      45.801  33.094  27.274  1.00  0.00     0.134 A 
ATOM     85  F   UNL A   1      46.276  31.818  30.638  1.00  0.00    -0.206 F 
ATOM     86  C   UNL A   1      46.643  33.967  29.775  1.00  0.00     0.040 A 
ATOM     87  C   UNL A   1      46.220  34.415  27.447  1.00  0.00     0.040 A 
ATOM     88  F   UNL A   1      45.408  32.707  26.052  1.00  0.00    -0.206 F 
ATOM     89  C   UNL A   1      46.633  34.856  28.704  1.00  0.00     0.006 A 
ENDBRANCH  61  82
BRANCH  73  90
ATOM     90  C   UNL A   1      49.000  26.181  26.882  1.00  0.00     0.057 A 
ATOM     91  C   UNL A   1      49.834  25.815  27.945  1.00  0.00     0.134 A 
ATOM     92  C   UNL A   1      49.560  26.218  25.599  1.00  0.00     0.134 A 
ATOM     93  F   UNL A   1      49.358  25.764  29.199  1.00  0.00    -0.206 F 
ATOM     94  C   UNL A   1      51.175  25.493  27.739  1.00  0.00     0.040 A 
ATOM     95  C   UNL A   1      50.895  25.875  25.378  1.00  0.00     0.040 A 
ATOM     96  F   UNL A   1      48.806  26.544  24.538  1.00  0.00    -0.206 F 
ATOM     97  C   UNL A   1      51.707  25.515  26.451  1.00  0.00     0.006 A 
ENDBRANCH  73  90
ENDBRANCH  47  48
ENDBRANCH  39  42
ENDBRANCH  37  38
ENDBRANCH  36  37
ENDBRANCH   1  36
TORSDOF 16
ENDMDL
MODEL 2
REMARK VINA RESULT:     -13.7      0.929      2.030
REMARK SMILES C[C@H]1c2ccc(O)cc2OC(=O)[C@@H]1CC(=O)N[C@@H](CC1=c2ccccc2=NC1)C(=O)NCCCNC(=O)c1ccc(-c2c3nc(c(-c4c(F)cccc4F)c4ccc([nH]4)c(-c4c(F)cccc4F)c4nc(c(-c5c(F)cccc5F)c5ccc2[nH]5)C=C4)C=C3)cc1
REMARK SMILES IDX 32 1 31 2 29 3 30 4 18 6 17 7 15 8 16 9 14 11 13 12 1 13
REMARK SMILES IDX 2 14 3 15 4 16 9 17 11 18 5 19 8 20 10 21 12 22 6 23 7 24
REMARK SMILES IDX 19 26 20 27 21 28 28 29 22 30 26 31 27 32 23 33 25 34 24 35
REMARK SMILES IDX 33 36 34 37 35 38 36 39 37 41 38 42 39 43 91 44 40 45 90 46
REMARK SMILES IDX 41 47 42 48 43 49 84 50 44 51 89 52 83 53 85 54 45 55 88 56
REMARK SMILES IDX 82 57 81 58 46 60 72 61 55 62 71 63 56 64 59 65 70 66 86 67
REMARK SMILES IDX 57 68 58 69 69 71 87 72 60 73 47 74 48 75 53 76 49 77 50 78
REMARK SMILES IDX 52 79 54 80 51 81 73 82 74 83 79 84 75 85 76 86 78 87 80 88
REMARK SMILES IDX 77 89 61 90 62 91 67 92 63 93 64 94 66 95 68 96 65 97
REMARK H PARENT 31 5 17 10 7 25 35 40 85 59 59 70
REMARK Flexibility Score: inf
ROOT
ATOM      1  C   UNL A   1      33.477  28.643  26.119  1.00  0.00     0.117 C 
ENDROOT
BRANCH   1   2
ATOM      2  N   UNL A   1      32.154  28.857  26.629  1.00  0.00    -0.354 N 
ATOM      3  C   UNL A   1      31.334  27.812  26.976  1.00  0.00     0.242 C 
ATOM      4  O   UNL A   1      30.675  27.944  28.014  1.00  0.00    -0.273 OA
ATOM      5  H   UNL A   1      31.825  29.780  26.732  1.00  0.00     0.163 HD
BRANCH   3   6
ATOM      6  C   UNL A   1      31.258  26.479  26.160  1.00  0.00     0.175 C 
BRANCH   6   7
ATOM      7  N   UNL A   1      31.574  25.222  26.850  1.00  0.00    -0.344 N 
ATOM      8  C   UNL A   1      32.472  24.249  26.515  1.00  0.00     0.221 C 
ATOM      9  O   UNL A   1      32.460  23.197  27.156  1.00  0.00    -0.275 OA
ATOM     10  H   UNL A   1      31.062  25.056  27.674  1.00  0.00     0.164 HD
BRANCH   8  11
ATOM     11  C   UNL A   1      33.495  24.466  25.408  1.00  0.00     0.116 C 
BRANCH  11  12
ATOM     12  C   UNL A   1      33.079  23.919  24.021  1.00  0.00     0.116 C 
ATOM     13  C   UNL A   1      32.492  21.865  22.615  1.00  0.00     0.014 C 
ATOM     14  C   UNL A   1      33.049  22.373  23.952  1.00  0.00     0.034 C 
ATOM     15  C   UNL A   1      34.450  21.856  24.172  1.00  0.00    -0.001 A 
ATOM     16  C   UNL A   1      34.702  20.628  24.788  1.00  0.00     0.011 A 
ATOM     17  C   UNL A   1      35.534  22.655  23.796  1.00  0.00     0.138 A 
ATOM     18  C   UNL A   1      34.046  24.350  22.945  1.00  0.00     0.315 C 
ATOM     19  C   UNL A   1      36.016  20.250  25.080  1.00  0.00     0.047 A 
ATOM     20  C   UNL A   1      36.843  22.309  24.110  1.00  0.00     0.093 A 
ATOM     21  O   UNL A   1      35.331  23.836  23.062  1.00  0.00    -0.426 OA
ATOM     22  O   UNL A   1      33.746  25.145  22.062  1.00  0.00    -0.251 OA
ATOM     23  C   UNL A   1      37.071  21.106  24.764  1.00  0.00     0.119 A 
BRANCH  23  24
ATOM     24  O   UNL A   1      38.359  20.790  25.081  1.00  0.00    -0.508 OA
ATOM     25  H   UNL A   1      38.561  19.945  25.430  1.00  0.00     0.293 HD
ENDBRANCH  23  24
ENDBRANCH  11  12
ENDBRANCH   8  11
ENDBRANCH   6   7
BRANCH   6  26
ATOM     26  C   UNL A   1      30.154  26.310  25.060  1.00  0.00     0.068 C 
BRANCH  26  27
ATOM     27  C   UNL A   1      30.060  27.222  23.845  1.00  0.00    -0.037 C 
ATOM     28  C   UNL A   1      29.211  28.261  23.775  1.00  0.00     0.001 A 
ATOM     29  C   UNL A   1      31.335  27.558  23.142  1.00  0.00     0.174 C 
ATOM     30  C   UNL A   1      28.236  28.536  22.715  1.00  0.00     0.010 A 
ATOM     31  C   UNL A   1      30.239  29.341  23.674  1.00  0.00     0.065 A 
ATOM     32  N   UNL A   1      31.432  29.026  23.286  1.00  0.00    -0.280 NA
ATOM     33  C   UNL A   1      27.923  29.828  22.475  1.00  0.00     0.001 A 
ATOM     34  C   UNL A   1      29.688  30.687  23.912  1.00  0.00     0.028 A 
ATOM     35  C   UNL A   1      28.510  30.886  23.296  1.00  0.00     0.002 A 
ENDBRANCH  26  27
ENDBRANCH   6  26
ENDBRANCH   3   6
ENDBRANCH   1   2
BRANCH   1  36
ATOM     36  C   UNL A   1      34.674  29.014  26.971  1.00  0.00     0.042 C 
BRANCH  36  37
ATOM     37  C   UNL A   1      34.718  30.503  27.326  1.00  0.00     0.118 C 
BRANCH  37  38
ATOM     38  N   UNL A   1      34.969  30.820  28.741  1.00  0.00    -0.352 N 
ATOM     39  C   UNL A   1      36.002  30.610  29.629  1.00  0.00     0.251 C 
ATOM     40  H   UNL A   1      34.215  31.299  29.155  1.00  0.00     0.163 HD
ATOM     41  O   UNL A   1      35.891  31.029  30.783  1.00  0.00    -0.269 OA
BRANCH  39  42
ATOM     42  C   UNL A   1      37.217  29.848  29.265  1.00  0.00     0.039 A 
ATOM     43  C   UNL A   1      37.847  29.025  30.180  1.00  0.00     0.014 A 
ATOM     44  C   UNL A   1      37.767  29.974  27.981  1.00  0.00     0.014 A 
ATOM     45  C   UNL A   1      39.150  28.616  29.951  1.00  0.00     0.010 A 
ATOM     46  C   UNL A   1      39.011  29.399  27.683  1.00  0.00     0.010 A 
ATOM     47  C   UNL A   1      39.760  28.791  28.700  1.00  0.00    -0.014 A 
BRANCH  47  48
ATOM     48  C   UNL A   1      41.179  28.362  28.530  1.00  0.00     0.031 A 
ATOM     49  C   UNL A   1      41.521  26.951  28.113  1.00  0.00     0.074 A 
ATOM     50  C   UNL A   1      42.163  29.281  28.625  1.00  0.00     0.049 A 
ATOM     51  N   UNL A   1      42.700  26.420  27.897  1.00  0.00    -0.248 NA
ATOM     52  C   UNL A   1      40.405  26.012  27.922  1.00  0.00     0.031 C 
ATOM     53  C   UNL A   1      41.974  30.682  29.010  1.00  0.00     0.029 A 
ATOM     54  N   UNL A   1      43.504  29.198  28.347  1.00  0.00    -0.354 N 
ATOM     55  C   UNL A   1      42.468  25.084  27.588  1.00  0.00     0.074 A 
ATOM     56  C   UNL A   1      41.039  24.877  27.666  1.00  0.00     0.031 C 
ATOM     57  C   UNL A   1      43.122  31.348  28.836  1.00  0.00     0.029 A 
ATOM     58  C   UNL A   1      44.159  30.402  28.443  1.00  0.00     0.049 A 
ATOM     59  H   UNL A   1      43.953  28.357  28.102  1.00  0.00     0.167 HD
ATOM     60  C   UNL A   1      43.361  24.119  27.257  1.00  0.00     0.037 A 
ATOM     61  C   UNL A   1      45.455  30.718  28.267  1.00  0.00     0.037 A 
ATOM     62  C   UNL A   1      44.781  24.333  27.139  1.00  0.00     0.049 A 
ATOM     63  C   UNL A   1      46.424  29.630  27.916  1.00  0.00     0.074 A 
ATOM     64  C   UNL A   1      45.771  23.416  26.828  1.00  0.00     0.029 A 
ATOM     65  N   UNL A   1      45.412  25.557  27.312  1.00  0.00    -0.354 N 
ATOM     66  N   UNL A   1      46.191  28.361  27.691  1.00  0.00    -0.248 NA
ATOM     67  C   UNL A   1      47.838  30.013  27.823  1.00  0.00     0.031 C 
ATOM     68  C   UNL A   1      47.003  24.080  26.839  1.00  0.00     0.029 A 
ATOM     69  C   UNL A   1      46.777  25.417  27.118  1.00  0.00     0.049 A 
ATOM     70  H   UNL A   1      44.957  26.399  27.540  1.00  0.00     0.167 HD
ATOM     71  C   UNL A   1      47.429  27.788  27.441  1.00  0.00     0.074 A 
ATOM     72  C   UNL A   1      48.404  28.858  27.503  1.00  0.00     0.031 C 
ATOM     73  C   UNL A   1      47.733  26.491  27.198  1.00  0.00     0.037 A 
BRANCH  60  74
ATOM     74  C   UNL A   1      42.828  22.735  27.016  1.00  0.00     0.057 A 
ATOM     75  C   UNL A   1      42.682  22.244  25.712  1.00  0.00     0.134 A 
ATOM     76  C   UNL A   1      42.432  21.898  28.066  1.00  0.00     0.134 A 
ATOM     77  F   UNL A   1      43.037  22.995  24.658  1.00  0.00    -0.206 F 
ATOM     78  C   UNL A   1      42.160  20.973  25.462  1.00  0.00     0.040 A 
ATOM     79  C   UNL A   1      41.931  20.616  27.831  1.00  0.00     0.040 A 
ATOM     80  F   UNL A   1      42.561  22.299  29.340  1.00  0.00    -0.206 F 
ATOM     81  C   UNL A   1      41.788  20.153  26.524  1.00  0.00     0.006 A 
ENDBRANCH  60  74
BRANCH  61  82
ATOM     82  C   UNL A   1      45.907  32.116  28.473  1.00  0.00     0.057 A 
ATOM     83  C   UNL A   1      45.937  33.030  27.412  1.00  0.00     0.134 A 
ATOM     84  C   UNL A   1      46.346  32.565  29.724  1.00  0.00     0.134 A 
ATOM     85  F   UNL A   1      45.535  32.658  26.188  1.00  0.00    -0.206 F 
ATOM     86  C   UNL A   1      46.410  34.331  27.578  1.00  0.00     0.040 A 
ATOM     87  C   UNL A   1      46.794  33.874  29.912  1.00  0.00     0.040 A 
ATOM     88  F   UNL A   1      46.323  31.743  30.783  1.00  0.00    -0.206 F 
ATOM     89  C   UNL A   1      46.836  34.758  28.834  1.00  0.00     0.006 A 
ENDBRANCH  61  82
BRANCH  73  90
ATOM     90  C   UNL A   1      49.180  26.170  26.978  1.00  0.00     0.057 A 
ATOM     91  C   UNL A   1      49.736  26.213  25.694  1.00  0.00     0.134 A 
ATOM     92  C   UNL A   1      50.023  25.818  28.040  1.00  0.00     0.134 A 
ATOM     93  F   UNL A   1      48.979  26.540  24.635  1.00  0.00    -0.206 F 
ATOM     94  C   UNL A   1      51.081  25.921  25.474  1.00  0.00     0.040 A 
ATOM     95  C   UNL A   1      51.377  25.546  27.835  1.00  0.00     0.040 A 
ATOM     96  F   UNL A   1      49.553  25.777  29.296  1.00  0.00    -0.206 F 
ATOM     97  C   UNL A   1      51.908  25.594  26.547  1.00  0.00     0.006 A 
ENDBRANCH  73  90
ENDBRANCH  47  48
ENDBRANCH  39  42
ENDBRANCH  37  38
ENDBRANCH  36  37
ENDBRANCH   1  36
TORSDOF 16
ENDMDL
MODEL 3
REMARK VINA RESULT:     -13.7      3.668      7.317
REMARK SMILES C[C@H]1c2ccc(O)cc2OC(=O)[C@@H]1CC(=O)N[C@@H](CC1=c2ccccc2=NC1)C(=O)NCCCNC(=O)c1ccc(-c2c3nc(c(-c4c(F)cccc4F)c4ccc([nH]4)c(-c4c(F)cccc4F)c4nc(c(-c5c(F)cccc5F)c5ccc2[nH]5)C=C4)C=C3)cc1
REMARK SMILES IDX 32 1 31 2 29 3 30 4 18 6 17 7 15 8 16 9 14 11 13 12 1 13
REMARK SMILES IDX 2 14 3 15 4 16 9 17 11 18 5 19 8 20 10 21 12 22 6 23 7 24
REMARK SMILES IDX 19 26 20 27 21 28 28 29 22 30 26 31 27 32 23 33 25 34 24 35
REMARK SMILES IDX 33 36 34 37 35 38 36 39 37 41 38 42 39 43 91 44 40 45 90 46
REMARK SMILES IDX 41 47 42 48 43 49 84 50 44 51 89 52 83 53 85 54 45 55 88 56
REMARK SMILES IDX 82 57 81 58 46 60 72 61 55 62 71 63 56 64 59 65 70 66 86 67
REMARK SMILES IDX 57 68 58 69 69 71 87 72 60 73 47 74 48 75 53 76 49 77 50 78
REMARK SMILES IDX 52 79 54 80 51 81 73 82 74 83 79 84 75 85 76 86 78 87 80 88
REMARK SMILES IDX 77 89 61 90 62 91 67 92 63 93 64 94 66 95 68 96 65 97
REMARK H PARENT 31 5 17 10 7 25 35 40 85 59 59 70
REMARK Flexibility Score: inf
ROOT
ATOM      1  C   UNL A   1      31.920  29.863  26.236  1.00  0.00     0.117 C 
ENDROOT
BRANCH   1   2
ATOM      2  N   UNL A   1      33.016  29.493  25.388  1.00  0.00    -0.354 N 
ATOM      3  C   UNL A   1      32.822  28.807  24.214  1.00  0.00     0.242 C 
ATOM      4  O   UNL A   1      33.497  29.167  23.243  1.00  0.00    -0.273 OA
ATOM      5  H   UNL A   1      33.931  29.736  25.656  1.00  0.00     0.163 HD
BRANCH   3   6
ATOM      6  C   UNL A   1      31.765  27.663  24.058  1.00  0.00     0.175 C 
BRANCH   6   7
ATOM      7  N   UNL A   1      31.410  26.877  25.245  1.00  0.00    -0.344 N 
ATOM      8  C   UNL A   1      31.850  25.644  25.633  1.00  0.00     0.221 C 
ATOM      9  O   UNL A   1      31.297  25.101  26.591  1.00  0.00    -0.275 OA
ATOM     10  H   UNL A   1      30.759  27.301  25.850  1.00  0.00     0.164 HD
BRANCH   8  11
ATOM     11  C   UNL A   1      33.022  24.967  24.935  1.00  0.00     0.116 C 
BRANCH  11  12
ATOM     12  C   UNL A   1      32.644  24.137  23.686  1.00  0.00     0.116 C 
ATOM     13  C   UNL A   1      32.294  21.810  22.683  1.00  0.00     0.014 C 
ATOM     14  C   UNL A   1      32.816  22.611  23.883  1.00  0.00     0.034 C 
ATOM     15  C   UNL A   1      34.279  22.321  24.117  1.00  0.00    -0.001 A 
ATOM     16  C   UNL A   1      34.709  21.263  24.920  1.00  0.00     0.011 A 
ATOM     17  C   UNL A   1      35.237  23.171  23.555  1.00  0.00     0.138 A 
ATOM     18  C   UNL A   1      33.514  24.489  22.504  1.00  0.00     0.315 C 
ATOM     19  C   UNL A   1      36.069  21.110  25.206  1.00  0.00     0.047 A 
ATOM     20  C   UNL A   1      36.588  23.053  23.857  1.00  0.00     0.093 A 
ATOM     21  O   UNL A   1      34.858  24.170  22.642  1.00  0.00    -0.426 OA
ATOM     22  O   UNL A   1      33.086  25.072  21.514  1.00  0.00    -0.251 OA
ATOM     23  C   UNL A   1      36.992  22.022  24.695  1.00  0.00     0.119 A 
BRANCH  23  24
ATOM     24  O   UNL A   1      38.319  21.932  24.995  1.00  0.00    -0.508 OA
ATOM     25  H   UNL A   1      38.803  22.704  25.213  1.00  0.00     0.293 HD
ENDBRANCH  23  24
ENDBRANCH  11  12
ENDBRANCH   8  11
ENDBRANCH   6   7
BRANCH   6  26
ATOM     26  C   UNL A   1      30.561  27.856  23.072  1.00  0.00     0.068 C 
BRANCH  26  27
ATOM     27  C   UNL A   1      29.416  28.818  23.355  1.00  0.00    -0.037 C 
ATOM     28  C   UNL A   1      29.425  30.102  22.959  1.00  0.00     0.001 A 
ATOM     29  C   UNL A   1      28.028  28.270  23.279  1.00  0.00     0.174 C 
ATOM     30  C   UNL A   1      29.203  31.286  23.794  1.00  0.00     0.010 A 
ATOM     31  C   UNL A   1      28.249  30.026  22.039  1.00  0.00     0.065 A 
ATOM     32  N   UNL A   1      27.408  29.055  22.190  1.00  0.00    -0.280 NA
ATOM     33  C   UNL A   1      28.660  32.374  23.203  1.00  0.00     0.001 A 
ATOM     34  C   UNL A   1      28.140  31.189  21.142  1.00  0.00     0.028 A 
ATOM     35  C   UNL A   1      28.368  32.356  21.770  1.00  0.00     0.002 A 
ENDBRANCH  26  27
ENDBRANCH   6  26
ENDBRANCH   3   6
ENDBRANCH   1   2
BRANCH   1  36
ATOM     36  C   UNL A   1      31.654  31.328  26.515  1.00  0.00     0.042 C 
BRANCH  36  37
ATOM     37  C   UNL A   1      32.824  32.026  27.215  1.00  0.00     0.118 C 
BRANCH  37  38
ATOM     38  N   UNL A   1      32.556  33.384  27.718  1.00  0.00    -0.352 N 
ATOM     39  C   UNL A   1      33.230  34.292  28.506  1.00  0.00     0.251 C 
ATOM     40  H   UNL A   1      31.683  33.726  27.418  1.00  0.00     0.163 HD
ATOM     41  O   UNL A   1      32.707  35.384  28.735  1.00  0.00    -0.269 OA
BRANCH  39  42
ATOM     42  C   UNL A   1      34.531  33.982  29.137  1.00  0.00     0.039 A 
ATOM     43  C   UNL A   1      35.715  34.468  28.615  1.00  0.00     0.014 A 
ATOM     44  C   UNL A   1      34.582  33.158  30.272  1.00  0.00     0.014 A 
ATOM     45  C   UNL A   1      36.917  33.890  28.986  1.00  0.00     0.010 A 
ATOM     46  C   UNL A   1      35.816  32.716  30.771  1.00  0.00     0.010 A 
ATOM     47  C   UNL A   1      36.996  33.003  30.070  1.00  0.00    -0.014 A 
BRANCH  47  48
ATOM     48  C   UNL A   1      38.315  32.386  30.394  1.00  0.00     0.031 A 
ATOM     49  C   UNL A   1      39.186  32.943  31.495  1.00  0.00     0.074 A 
ATOM     50  C   UNL A   1      38.674  31.237  29.783  1.00  0.00     0.049 A 
ATOM     51  N   UNL A   1      40.349  32.513  31.922  1.00  0.00    -0.248 NA
ATOM     52  C   UNL A   1      38.702  34.138  32.202  1.00  0.00     0.031 C 
ATOM     53  C   UNL A   1      37.922  30.582  28.709  1.00  0.00     0.029 A 
ATOM     54  N   UNL A   1      39.723  30.383  30.014  1.00  0.00    -0.354 N 
ATOM     55  C   UNL A   1      40.749  33.404  32.911  1.00  0.00     0.074 A 
ATOM     56  C   UNL A   1      39.717  34.414  33.008  1.00  0.00     0.031 C 
ATOM     57  C   UNL A   1      38.465  29.385  28.455  1.00  0.00     0.029 A 
ATOM     58  C   UNL A   1      39.671  29.236  29.259  1.00  0.00     0.049 A 
ATOM     59  H   UNL A   1      40.443  30.574  30.658  1.00  0.00     0.167 HD
ATOM     60  C   UNL A   1      41.866  33.380  33.679  1.00  0.00     0.037 A 
ATOM     61  C   UNL A   1      40.511  28.187  29.191  1.00  0.00     0.037 A 
ATOM     62  C   UNL A   1      42.875  32.353  33.611  1.00  0.00     0.049 A 
ATOM     63  C   UNL A   1      41.747  28.191  30.039  1.00  0.00     0.074 A 
ATOM     64  C   UNL A   1      44.051  32.249  34.333  1.00  0.00     0.029 A 
ATOM     65  N   UNL A   1      42.816  31.242  32.783  1.00  0.00    -0.354 N 
ATOM     66  N   UNL A   1      42.135  29.077  30.922  1.00  0.00    -0.248 NA
ATOM     67  C   UNL A   1      42.672  27.065  29.860  1.00  0.00     0.031 C 
ATOM     68  C   UNL A   1      44.718  31.089  33.921  1.00  0.00     0.029 A 
ATOM     69  C   UNL A   1      43.937  30.450  32.973  1.00  0.00     0.049 A 
ATOM     70  H   UNL A   1      42.085  31.046  32.152  1.00  0.00     0.167 HD
ATOM     71  C   UNL A   1      43.357  28.624  31.397  1.00  0.00     0.074 A 
ATOM     72  C   UNL A   1      43.623  27.364  30.732  1.00  0.00     0.031 C 
ATOM     73  C   UNL A   1      44.191  29.207  32.291  1.00  0.00     0.037 A 
BRANCH  60  74
ATOM     74  C   UNL A   1      42.065  34.510  34.648  1.00  0.00     0.057 A 
ATOM     75  C   UNL A   1      41.625  34.400  35.973  1.00  0.00     0.134 A 
ATOM     76  C   UNL A   1      42.665  35.718  34.268  1.00  0.00     0.134 A 
ATOM     77  F   UNL A   1      41.037  33.273  36.404  1.00  0.00    -0.206 F 
ATOM     78  C   UNL A   1      41.772  35.449  36.883  1.00  0.00     0.040 A 
ATOM     79  C   UNL A   1      42.839  36.765  35.175  1.00  0.00     0.040 A 
ATOM     80  F   UNL A   1      43.125  35.884  33.018  1.00  0.00    -0.206 F 
ATOM     81  C   UNL A   1      42.386  36.634  36.486  1.00  0.00     0.006 A 
ENDBRANCH  60  74
BRANCH  61  82
ATOM     82  C   UNL A   1      40.229  27.078  28.246  1.00  0.00     0.057 A 
ATOM     83  C   UNL A   1      39.438  25.986  28.629  1.00  0.00     0.134 A 
ATOM     84  C   UNL A   1      40.761  27.067  26.952  1.00  0.00     0.134 A 
ATOM     85  F   UNL A   1      38.905  25.934  29.858  1.00  0.00    -0.206 F 
ATOM     86  C   UNL A   1      39.209  24.911  27.771  1.00  0.00     0.040 A 
ATOM     87  C   UNL A   1      40.514  26.012  26.072  1.00  0.00     0.040 A 
ATOM     88  F   UNL A   1      41.508  28.093  26.520  1.00  0.00    -0.206 F 
ATOM     89  C   UNL A   1      39.745  24.924  26.485  1.00  0.00     0.006 A 
ENDBRANCH  61  82
BRANCH  73  90
ATOM     90  C   UNL A   1      45.463  28.477  32.598  1.00  0.00     0.057 A 
ATOM     91  C   UNL A   1      45.511  27.521  33.619  1.00  0.00     0.134 A 
ATOM     92  C   UNL A   1      46.641  28.723  31.881  1.00  0.00     0.134 A 
ATOM     93  F   UNL A   1      44.417  27.242  34.344  1.00  0.00    -0.206 F 
ATOM     94  C   UNL A   1      46.687  26.830  33.913  1.00  0.00     0.040 A 
ATOM     95  C   UNL A   1      47.817  28.022  32.151  1.00  0.00     0.040 A 
ATOM     96  F   UNL A   1      46.653  29.616  30.879  1.00  0.00    -0.206 F 
ATOM     97  C   UNL A   1      47.842  27.074  33.173  1.00  0.00     0.006 A 
ENDBRANCH  73  90
ENDBRANCH  47  48
ENDBRANCH  39  42
ENDBRANCH  37  38
ENDBRANCH  36  37
ENDBRANCH   1  36
TORSDOF 16
ENDMDL
