MODEL 1
REMARK VINA RESULT:     -13.0      0.000      0.000
REMARK SMILES Cc1ccccc1Nc1nc2c(c(=O)[nH]c(=O)n2C)n1CC(=O)NCCCNC(=O)c1ccc(-c2c3nc(c(-c4c(F)cccc4F)c4ccc([nH]4)c(-c4c(F)cccc4F)c4nc(c(-c5c(F)cccc5F)c5ccc2[nH]5)C=C4)C=C3)cc1
REMARK SMILES IDX 25 1 24 2 22 3 23 4 21 6 20 7 9 8 10 9 11 10 12 11 18 12
REMARK SMILES IDX 13 13 16 14 19 15 14 16 15 17 17 18 8 20 7 22 1 23 2 24 3 25
REMARK SMILES IDX 4 26 6 27 5 28 26 29 27 30 28 31 29 32 30 34 31 35 32 36
REMARK SMILES IDX 84 37 33 38 83 39 34 40 35 41 36 42 77 43 37 44 82 45 76 46
REMARK SMILES IDX 78 47 38 48 81 49 75 50 74 51 39 53 65 54 48 55 64 56 49 57
REMARK SMILES IDX 52 58 63 59 79 60 50 61 51 62 62 64 80 65 53 66 40 67 41 68
REMARK SMILES IDX 46 69 42 70 43 71 45 72 47 73 44 74 66 75 67 76 72 77 68 78
REMARK SMILES IDX 69 79 71 80 73 81 70 82 54 83 55 84 60 85 56 86 57 87 59 88
REMARK SMILES IDX 61 89 58 90
REMARK H PARENT 24 5 15 19 8 21 28 33 78 52 52 63
REMARK Flexibility Score: inf
ROOT
ATOM      1  C   UNL A   1      32.392  28.312  27.612  1.00  0.00     0.117 C 
ENDROOT
BRANCH   1   2
ATOM      2  N   UNL A   1      31.340  27.464  27.079  1.00  0.00    -0.354 N 
ATOM      3  C   UNL A   1      31.393  26.229  26.492  1.00  0.00     0.240 C 
ATOM      4  O   UNL A   1      30.331  25.598  26.448  1.00  0.00    -0.273 OA
ATOM      5  H   UNL A   1      30.434  27.842  27.151  1.00  0.00     0.163 HD
BRANCH   3   6
ATOM      6  C   UNL A   1      32.674  25.584  26.001  1.00  0.00     0.226 C 
BRANCH   6   7
ATOM      7  N   UNL A   1      32.536  24.549  24.989  1.00  0.00    -0.295 N 
ATOM      8  C   UNL A   1      32.453  24.705  23.608  1.00  0.00     0.210 A 
ATOM      9  N   UNL A   1      32.237  23.544  23.020  1.00  0.00    -0.194 NA
ATOM     10  C   UNL A   1      32.225  22.625  24.018  1.00  0.00     0.170 A 
ATOM     11  C   UNL A   1      32.331  23.209  25.246  1.00  0.00     0.154 A 
ATOM     12  N   UNL A   1      32.164  21.256  23.861  1.00  0.00    -0.279 N 
ATOM     13  C   UNL A   1      32.317  22.441  26.445  1.00  0.00     0.279 A 
ATOM     14  C   UNL A   1      32.236  20.449  24.991  1.00  0.00     0.329 A 
ATOM     15  C   UNL A   1      32.075  20.664  22.541  1.00  0.00     0.157 C 
ATOM     16  O   UNL A   1      32.370  22.896  27.585  1.00  0.00    -0.267 OA
ATOM     17  N   UNL A   1      32.293  21.086  26.214  1.00  0.00    -0.272 N 
ATOM     18  O   UNL A   1      32.261  19.219  24.963  1.00  0.00    -0.248 OA
ATOM     19  H   UNL A   1      32.319  20.507  27.009  1.00  0.00     0.175 HD
BRANCH   8  20
ATOM     20  N   UNL A   1      32.473  25.893  22.960  1.00  0.00    -0.325 N 
ATOM     21  H   UNL A   1      33.143  25.984  22.244  1.00  0.00     0.170 HD
BRANCH  20  22
ATOM     22  C   UNL A   1      31.644  27.023  23.186  1.00  0.00     0.044 A 
ATOM     23  C   UNL A   1      33.665  28.485  23.814  1.00  0.00     0.046 C 
ATOM     24  C   UNL A   1      32.208  28.279  23.497  1.00  0.00    -0.027 A 
ATOM     25  C   UNL A   1      31.376  29.416  23.575  1.00  0.00     0.005 A 
ATOM     26  C   UNL A   1      30.002  29.319  23.376  1.00  0.00     0.000 A 
ATOM     27  C   UNL A   1      30.248  26.942  23.079  1.00  0.00     0.026 A 
ATOM     28  C   UNL A   1      29.433  28.074  23.153  1.00  0.00     0.002 A 
ENDBRANCH  20  22
ENDBRANCH   8  20
ENDBRANCH   6   7
ENDBRANCH   3   6
ENDBRANCH   1   2
BRANCH   1  29
ATOM     29  C   UNL A   1      32.262  29.785  27.243  1.00  0.00     0.042 C 
BRANCH  29  30
ATOM     30  C   UNL A   1      33.554  30.456  26.821  1.00  0.00     0.118 C 
BRANCH  30  31
ATOM     31  N   UNL A   1      34.058  31.422  27.794  1.00  0.00    -0.352 N 
ATOM     32  C   UNL A   1      35.106  31.314  28.692  1.00  0.00     0.251 C 
ATOM     33  H   UNL A   1      33.578  32.281  27.815  1.00  0.00     0.163 HD
ATOM     34  O   UNL A   1      35.391  32.260  29.420  1.00  0.00    -0.269 OA
BRANCH  32  35
ATOM     35  C   UNL A   1      35.996  30.133  28.635  1.00  0.00     0.039 A 
ATOM     36  C   UNL A   1      36.269  29.503  29.855  1.00  0.00     0.014 A 
ATOM     37  C   UNL A   1      36.816  29.936  27.532  1.00  0.00     0.014 A 
ATOM     38  C   UNL A   1      37.538  28.994  30.069  1.00  0.00     0.010 A 
ATOM     39  C   UNL A   1      38.113  29.569  27.774  1.00  0.00     0.010 A 
ATOM     40  C   UNL A   1      38.480  29.184  29.065  1.00  0.00    -0.014 A 
BRANCH  40  41
ATOM     41  C   UNL A   1      39.887  28.909  29.215  1.00  0.00     0.031 A 
ATOM     42  C   UNL A   1      40.315  27.548  28.889  1.00  0.00     0.074 A 
ATOM     43  C   UNL A   1      40.722  29.937  29.478  1.00  0.00     0.049 A 
ATOM     44  N   UNL A   1      41.457  27.059  29.196  1.00  0.00    -0.248 NA
ATOM     45  C   UNL A   1      39.429  26.586  28.232  1.00  0.00     0.031 C 
ATOM     46  C   UNL A   1      42.176  29.983  29.402  1.00  0.00     0.029 A 
ATOM     47  N   UNL A   1      40.377  31.136  30.115  1.00  0.00    -0.354 N 
ATOM     48  C   UNL A   1      41.580  25.870  28.516  1.00  0.00     0.074 A 
ATOM     49  C   UNL A   1      40.250  25.546  28.080  1.00  0.00     0.031 C 
ATOM     50  C   UNL A   1      42.617  30.948  30.231  1.00  0.00     0.029 A 
ATOM     51  C   UNL A   1      41.464  31.433  30.973  1.00  0.00     0.049 A 
ATOM     52  H   UNL A   1      39.554  31.662  29.992  1.00  0.00     0.167 HD
ATOM     53  C   UNL A   1      42.841  25.414  28.282  1.00  0.00     0.037 A 
ATOM     54  C   UNL A   1      41.281  31.302  32.324  1.00  0.00     0.037 A 
ATOM     55  C   UNL A   1      43.791  26.170  29.113  1.00  0.00     0.049 A 
ATOM     56  C   UNL A   1      42.037  30.122  32.915  1.00  0.00     0.074 A 
ATOM     57  C   UNL A   1      44.658  27.223  28.887  1.00  0.00     0.029 A 
ATOM     58  N   UNL A   1      43.620  26.114  30.489  1.00  0.00    -0.354 N 
ATOM     59  N   UNL A   1      42.716  29.252  32.213  1.00  0.00    -0.248 NA
ATOM     60  C   UNL A   1      42.043  29.801  34.341  1.00  0.00     0.031 C 
ATOM     61  C   UNL A   1      44.919  27.855  30.150  1.00  0.00     0.029 A 
ATOM     62  C   UNL A   1      44.251  27.156  31.141  1.00  0.00     0.049 A 
ATOM     63  H   UNL A   1      43.108  25.411  30.949  1.00  0.00     0.167 HD
ATOM     64  C   UNL A   1      43.254  28.299  33.034  1.00  0.00     0.074 A 
ATOM     65  C   UNL A   1      42.765  28.666  34.356  1.00  0.00     0.031 C 
ATOM     66  C   UNL A   1      44.055  27.282  32.584  1.00  0.00     0.037 A 
BRANCH  53  67
ATOM     67  C   UNL A   1      43.237  24.444  27.187  1.00  0.00     0.057 A 
ATOM     68  C   UNL A   1      43.560  24.938  25.908  1.00  0.00     0.134 A 
ATOM     69  C   UNL A   1      43.219  23.033  27.262  1.00  0.00     0.134 A 
ATOM     70  F   UNL A   1      43.630  26.255  25.666  1.00  0.00    -0.206 F 
ATOM     71  C   UNL A   1      43.809  24.108  24.804  1.00  0.00     0.040 A 
ATOM     72  C   UNL A   1      43.493  22.193  26.173  1.00  0.00     0.040 A 
ATOM     73  F   UNL A   1      42.903  22.365  28.372  1.00  0.00    -0.206 F 
ATOM     74  C   UNL A   1      43.775  22.728  24.931  1.00  0.00     0.006 A 
ENDBRANCH  53  67
BRANCH  54  75
ATOM     75  C   UNL A   1      39.920  31.787  32.724  1.00  0.00     0.057 A 
ATOM     76  C   UNL A   1      38.989  30.812  33.146  1.00  0.00     0.134 A 
ATOM     77  C   UNL A   1      39.714  33.090  33.180  1.00  0.00     0.134 A 
ATOM     78  F   UNL A   1      39.095  29.546  32.710  1.00  0.00    -0.206 F 
ATOM     79  C   UNL A   1      38.057  31.069  34.156  1.00  0.00     0.040 A 
ATOM     80  C   UNL A   1      38.748  33.367  34.156  1.00  0.00     0.040 A 
ATOM     81  F   UNL A   1      40.531  34.085  32.805  1.00  0.00    -0.206 F 
ATOM     82  C   UNL A   1      37.975  32.343  34.703  1.00  0.00     0.006 A 
ENDBRANCH  54  75
BRANCH  66  83
ATOM     83  C   UNL A   1      44.696  26.280  33.513  1.00  0.00     0.057 A 
ATOM     84  C   UNL A   1      46.085  26.095  33.579  1.00  0.00     0.134 A 
ATOM     85  C   UNL A   1      43.941  25.402  34.318  1.00  0.00     0.134 A 
ATOM     86  F   UNL A   1      46.913  26.748  32.750  1.00  0.00    -0.206 F 
ATOM     87  C   UNL A   1      46.682  25.209  34.483  1.00  0.00     0.040 A 
ATOM     88  C   UNL A   1      44.522  24.469  35.179  1.00  0.00     0.040 A 
ATOM     89  F   UNL A   1      42.602  25.410  34.330  1.00  0.00    -0.206 F 
ATOM     90  C   UNL A   1      45.900  24.396  35.292  1.00  0.00     0.006 A 
ENDBRANCH  66  83
ENDBRANCH  40  41
ENDBRANCH  32  35
ENDBRANCH  30  31
ENDBRANCH  29  30
ENDBRANCH   1  29
TORSDOF 13
ENDMDL
MODEL 2
REMARK VINA RESULT:     -13.0      1.587      2.287
REMARK SMILES Cc1ccccc1Nc1nc2c(c(=O)[nH]c(=O)n2C)n1CC(=O)NCCCNC(=O)c1ccc(-c2c3nc(c(-c4c(F)cccc4F)c4ccc([nH]4)c(-c4c(F)cccc4F)c4nc(c(-c5c(F)cccc5F)c5ccc2[nH]5)C=C4)C=C3)cc1
REMARK SMILES IDX 25 1 24 2 22 3 23 4 21 6 20 7 9 8 10 9 11 10 12 11 18 12
REMARK SMILES IDX 13 13 16 14 19 15 14 16 15 17 17 18 8 20 7 22 1 23 2 24 3 25
REMARK SMILES IDX 4 26 6 27 5 28 26 29 27 30 28 31 29 32 30 34 31 35 32 36
REMARK SMILES IDX 84 37 33 38 83 39 34 40 35 41 36 42 77 43 37 44 82 45 76 46
REMARK SMILES IDX 78 47 38 48 81 49 75 50 74 51 39 53 65 54 48 55 64 56 49 57
REMARK SMILES IDX 52 58 63 59 79 60 50 61 51 62 62 64 80 65 53 66 40 67 41 68
REMARK SMILES IDX 46 69 42 70 43 71 45 72 47 73 44 74 66 75 67 76 72 77 68 78
REMARK SMILES IDX 69 79 71 80 73 81 70 82 54 83 55 84 60 85 56 86 57 87 59 88
REMARK SMILES IDX 61 89 58 90
REMARK H PARENT 24 5 15 19 8 21 28 33 78 52 52 63
REMARK Flexibility Score: inf
ROOT
ATOM      1  C   UNL A   1      33.450  27.450  26.129  1.00  0.00     0.117 C 
ENDROOT
BRANCH   1   2
ATOM      2  N   UNL A   1      32.426  26.456  26.405  1.00  0.00    -0.354 N 
ATOM      3  C   UNL A   1      32.472  25.089  26.377  1.00  0.00     0.240 C 
ATOM      4  O   UNL A   1      31.570  24.500  26.982  1.00  0.00    -0.273 OA
ATOM      5  H   UNL A   1      31.550  26.830  26.652  1.00  0.00     0.163 HD
BRANCH   3   6
ATOM      6  C   UNL A   1      33.597  24.296  25.743  1.00  0.00     0.226 C 
BRANCH   6   7
ATOM      7  N   UNL A   1      33.212  23.171  24.907  1.00  0.00    -0.295 N 
ATOM      8  C   UNL A   1      32.789  23.193  23.581  1.00  0.00     0.210 A 
ATOM      9  N   UNL A   1      32.432  21.985  23.185  1.00  0.00    -0.194 NA
ATOM     10  C   UNL A   1      32.667  21.169  24.244  1.00  0.00     0.170 A 
ATOM     11  C   UNL A   1      33.075  21.868  25.342  1.00  0.00     0.154 A 
ATOM     12  N   UNL A   1      32.567  19.794  24.247  1.00  0.00    -0.279 N 
ATOM     13  C   UNL A   1      33.358  21.222  26.579  1.00  0.00     0.279 A 
ATOM     14  C   UNL A   1      32.917  19.100  25.400  1.00  0.00     0.329 A 
ATOM     15  C   UNL A   1      32.153  19.077  23.056  1.00  0.00     0.157 C 
ATOM     16  O   UNL A   1      33.693  21.786  27.619  1.00  0.00    -0.267 OA
ATOM     17  N   UNL A   1      33.276  19.852  26.500  1.00  0.00    -0.272 N 
ATOM     18  O   UNL A   1      32.932  17.873  25.492  1.00  0.00    -0.248 OA
ATOM     19  H   UNL A   1      33.498  19.353  27.318  1.00  0.00     0.175 HD
BRANCH   8  20
ATOM     20  N   UNL A   1      32.648  24.310  22.831  1.00  0.00    -0.325 N 
ATOM     21  H   UNL A   1      33.241  24.383  22.048  1.00  0.00     0.170 HD
BRANCH  20  22
ATOM     22  C   UNL A   1      31.749  25.389  23.035  1.00  0.00     0.044 A 
ATOM     23  C   UNL A   1      33.536  27.115  22.371  1.00  0.00     0.046 C 
ATOM     24  C   UNL A   1      32.131  26.713  22.727  1.00  0.00    -0.027 A 
ATOM     25  C   UNL A   1      31.175  27.749  22.800  1.00  0.00     0.005 A 
ATOM     26  C   UNL A   1      29.865  27.494  23.197  1.00  0.00     0.000 A 
ATOM     27  C   UNL A   1      30.448  25.179  23.515  1.00  0.00     0.026 A 
ATOM     28  C   UNL A   1      29.507  26.211  23.580  1.00  0.00     0.002 A 
ENDBRANCH  20  22
ENDBRANCH   8  20
ENDBRANCH   6   7
ENDBRANCH   3   6
ENDBRANCH   1   2
BRANCH   1  29
ATOM     29  C   UNL A   1      32.922  28.869  25.958  1.00  0.00     0.042 C 
BRANCH  29  30
ATOM     30  C   UNL A   1      32.572  29.583  27.248  1.00  0.00     0.118 C 
BRANCH  30  31
ATOM     31  N   UNL A   1      33.182  30.905  27.371  1.00  0.00    -0.352 N 
ATOM     32  C   UNL A   1      34.459  31.260  27.771  1.00  0.00     0.251 C 
ATOM     33  H   UNL A   1      32.595  31.659  27.133  1.00  0.00     0.163 HD
ATOM     34  O   UNL A   1      34.792  32.441  27.785  1.00  0.00    -0.269 OA
BRANCH  32  35
ATOM     35  C   UNL A   1      35.473  30.205  27.993  1.00  0.00     0.039 A 
ATOM     36  C   UNL A   1      35.527  29.659  29.282  1.00  0.00     0.014 A 
ATOM     37  C   UNL A   1      36.545  30.078  27.121  1.00  0.00     0.014 A 
ATOM     38  C   UNL A   1      36.763  29.330  29.811  1.00  0.00     0.010 A 
ATOM     39  C   UNL A   1      37.784  29.894  27.674  1.00  0.00     0.010 A 
ATOM     40  C   UNL A   1      37.883  29.606  29.036  1.00  0.00    -0.014 A 
BRANCH  40  41
ATOM     41  C   UNL A   1      39.239  29.524  29.519  1.00  0.00     0.031 A 
ATOM     42  C   UNL A   1      39.910  28.237  29.336  1.00  0.00     0.074 A 
ATOM     43  C   UNL A   1      39.842  30.653  29.947  1.00  0.00     0.049 A 
ATOM     44  N   UNL A   1      41.002  27.904  29.915  1.00  0.00    -0.248 NA
ATOM     45  C   UNL A   1      39.341  27.168  28.513  1.00  0.00     0.031 C 
ATOM     46  C   UNL A   1      41.253  30.898  30.213  1.00  0.00     0.029 A 
ATOM     47  N   UNL A   1      39.199  31.790  30.455  1.00  0.00    -0.354 N 
ATOM     48  C   UNL A   1      41.441  26.749  29.312  1.00  0.00     0.074 A 
ATOM     49  C   UNL A   1      40.307  26.250  28.584  1.00  0.00     0.031 C 
ATOM     50  C   UNL A   1      41.353  31.907  31.099  1.00  0.00     0.029 A 
ATOM     51  C   UNL A   1      40.003  32.224  31.537  1.00  0.00     0.049 A 
ATOM     52  H   UNL A   1      38.366  32.199  30.129  1.00  0.00     0.167 HD
ATOM     53  C   UNL A   1      42.770  26.470  29.392  1.00  0.00     0.037 A 
ATOM     54  C   UNL A   1      39.526  32.059  32.810  1.00  0.00     0.037 A 
ATOM     55  C   UNL A   1      43.387  27.342  30.404  1.00  0.00     0.049 A 
ATOM     56  C   UNL A   1      40.272  30.988  33.591  1.00  0.00     0.074 A 
ATOM     57  C   UNL A   1      44.134  28.506  30.362  1.00  0.00     0.029 A 
ATOM     58  N   UNL A   1      42.906  27.253  31.702  1.00  0.00    -0.354 N 
ATOM     59  N   UNL A   1      41.209  30.224  33.089  1.00  0.00    -0.248 NA
ATOM     60  C   UNL A   1      39.985  30.659  34.985  1.00  0.00     0.031 C 
ATOM     61  C   UNL A   1      44.003  29.156  31.636  1.00  0.00     0.029 A 
ATOM     62  C   UNL A   1      43.220  28.365  32.459  1.00  0.00     0.049 A 
ATOM     63  H   UNL A   1      42.399  26.483  32.046  1.00  0.00     0.167 HD
ATOM     64  C   UNL A   1      41.660  29.347  34.036  1.00  0.00     0.074 A 
ATOM     65  C   UNL A   1      40.828  29.633  35.197  1.00  0.00     0.031 C 
ATOM     66  C   UNL A   1      42.673  28.452  33.812  1.00  0.00     0.037 A 
BRANCH  53  67
ATOM     67  C   UNL A   1      43.540  25.572  28.444  1.00  0.00     0.057 A 
ATOM     68  C   UNL A   1      43.675  24.203  28.744  1.00  0.00     0.134 A 
ATOM     69  C   UNL A   1      44.263  25.976  27.299  1.00  0.00     0.134 A 
ATOM     70  F   UNL A   1      43.047  23.654  29.794  1.00  0.00    -0.206 F 
ATOM     71  C   UNL A   1      44.478  23.328  27.996  1.00  0.00     0.040 A 
ATOM     72  C   UNL A   1      45.046  25.105  26.527  1.00  0.00     0.040 A 
ATOM     73  F   UNL A   1      44.297  27.235  26.864  1.00  0.00    -0.206 F 
ATOM     74  C   UNL A   1      45.170  23.776  26.882  1.00  0.00     0.006 A 
ENDBRANCH  53  67
BRANCH  54  75
ATOM     75  C   UNL A   1      38.057  32.351  32.867  1.00  0.00     0.057 A 
ATOM     76  C   UNL A   1      37.650  33.666  32.548  1.00  0.00     0.134 A 
ATOM     77  C   UNL A   1      37.104  31.343  32.705  1.00  0.00     0.134 A 
ATOM     78  F   UNL A   1      38.497  34.694  32.723  1.00  0.00    -0.206 F 
ATOM     79  C   UNL A   1      36.453  33.925  31.875  1.00  0.00     0.040 A 
ATOM     80  C   UNL A   1      35.880  31.604  32.078  1.00  0.00     0.040 A 
ATOM     81  F   UNL A   1      37.394  30.071  33.014  1.00  0.00    -0.206 F 
ATOM     82  C   UNL A   1      35.587  32.878  31.590  1.00  0.00     0.006 A 
ENDBRANCH  54  75
BRANCH  66  83
ATOM     83  C   UNL A   1      43.206  27.538  34.889  1.00  0.00     0.057 A 
ATOM     84  C   UNL A   1      44.459  27.730  35.488  1.00  0.00     0.134 A 
ATOM     85  C   UNL A   1      42.516  26.382  35.311  1.00  0.00     0.134 A 
ATOM     86  F   UNL A   1      45.290  28.696  35.066  1.00  0.00    -0.206 F 
ATOM     87  C   UNL A   1      44.926  26.919  36.528  1.00  0.00     0.040 A 
ATOM     88  C   UNL A   1      42.999  25.528  36.304  1.00  0.00     0.040 A 
ATOM     89  F   UNL A   1      41.333  26.024  34.799  1.00  0.00    -0.206 F 
ATOM     90  C   UNL A   1      44.192  25.817  36.945  1.00  0.00     0.006 A 
ENDBRANCH  66  83
ENDBRANCH  40  41
ENDBRANCH  32  35
ENDBRANCH  30  31
ENDBRANCH  29  30
ENDBRANCH   1  29
TORSDOF 13
ENDMDL
MODEL 3
REMARK VINA RESULT:     -12.8      2.064      4.201
REMARK SMILES Cc1ccccc1Nc1nc2c(c(=O)[nH]c(=O)n2C)n1CC(=O)NCCCNC(=O)c1ccc(-c2c3nc(c(-c4c(F)cccc4F)c4ccc([nH]4)c(-c4c(F)cccc4F)c4nc(c(-c5c(F)cccc5F)c5ccc2[nH]5)C=C4)C=C3)cc1
REMARK SMILES IDX 25 1 24 2 22 3 23 4 21 6 20 7 9 8 10 9 11 10 12 11 18 12
REMARK SMILES IDX 13 13 16 14 19 15 14 16 15 17 17 18 8 20 7 22 1 23 2 24 3 25
REMARK SMILES IDX 4 26 6 27 5 28 26 29 27 30 28 31 29 32 30 34 31 35 32 36
REMARK SMILES IDX 84 37 33 38 83 39 34 40 35 41 36 42 77 43 37 44 82 45 76 46
REMARK SMILES IDX 78 47 38 48 81 49 75 50 74 51 39 53 65 54 48 55 64 56 49 57
REMARK SMILES IDX 52 58 63 59 79 60 50 61 51 62 62 64 80 65 53 66 40 67 41 68
REMARK SMILES IDX 46 69 42 70 43 71 45 72 47 73 44 74 66 75 67 76 72 77 68 78
REMARK SMILES IDX 69 79 71 80 73 81 70 82 54 83 55 84 60 85 56 86 57 87 59 88
REMARK SMILES IDX 61 89 58 90
REMARK H PARENT 24 5 15 19 8 21 28 33 78 52 52 63
REMARK Flexibility Score: inf
ROOT
ATOM      1  C   UNL A   1      32.421  28.889  26.536  1.00  0.00     0.117 C 
ENDROOT
BRANCH   1   2
ATOM      2  N   UNL A   1      32.943  27.544  26.703  1.00  0.00    -0.354 N 
ATOM      3  C   UNL A   1      33.283  26.592  25.781  1.00  0.00     0.240 C 
ATOM      4  O   UNL A   1      34.015  25.680  26.182  1.00  0.00    -0.273 OA
ATOM      5  H   UNL A   1      33.072  27.269  27.640  1.00  0.00     0.163 HD
BRANCH   3   6
ATOM      6  C   UNL A   1      32.897  26.660  24.317  1.00  0.00     0.226 C 
BRANCH   6   7
ATOM      7  N   UNL A   1      31.508  26.973  24.023  1.00  0.00    -0.295 N 
ATOM      8  C   UNL A   1      30.373  26.247  24.372  1.00  0.00     0.210 A 
ATOM      9  N   UNL A   1      29.290  26.791  23.848  1.00  0.00    -0.194 NA
ATOM     10  C   UNL A   1      29.719  27.899  23.193  1.00  0.00     0.170 A 
ATOM     11  C   UNL A   1      31.080  28.006  23.214  1.00  0.00     0.154 A 
ATOM     12  N   UNL A   1      28.919  28.856  22.604  1.00  0.00    -0.279 N 
ATOM     13  C   UNL A   1      31.757  29.080  22.569  1.00  0.00     0.279 A 
ATOM     14  C   UNL A   1      29.520  29.974  22.036  1.00  0.00     0.329 A 
ATOM     15  C   UNL A   1      27.476  28.726  22.619  1.00  0.00     0.157 C 
ATOM     16  O   UNL A   1      32.977  29.223  22.513  1.00  0.00    -0.267 OA
ATOM     17  N   UNL A   1      30.900  30.013  22.039  1.00  0.00    -0.272 N 
ATOM     18  O   UNL A   1      28.902  30.919  21.548  1.00  0.00    -0.248 OA
ATOM     19  H   UNL A   1      31.316  30.797  21.612  1.00  0.00     0.175 HD
BRANCH   8  20
ATOM     20  N   UNL A   1      30.380  25.079  25.056  1.00  0.00    -0.325 N 
ATOM     21  H   UNL A   1      29.852  25.061  25.888  1.00  0.00     0.170 HD
BRANCH  20  22
ATOM     22  C   UNL A   1      31.055  23.877  24.721  1.00  0.00     0.044 A 
ATOM     23  C   UNL A   1      31.543  23.361  27.192  1.00  0.00     0.046 C 
ATOM     24  C   UNL A   1      31.524  23.008  25.729  1.00  0.00    -0.027 A 
ATOM     25  C   UNL A   1      32.062  21.753  25.374  1.00  0.00     0.005 A 
ATOM     26  C   UNL A   1      32.162  21.363  24.041  1.00  0.00     0.000 A 
ATOM     27  C   UNL A   1      31.250  23.493  23.385  1.00  0.00     0.026 A 
ATOM     28  C   UNL A   1      31.779  22.247  23.043  1.00  0.00     0.002 A 
ENDBRANCH  20  22
ENDBRANCH   8  20
ENDBRANCH   6   7
ENDBRANCH   3   6
ENDBRANCH   1   2
BRANCH   1  29
ATOM     29  C   UNL A   1      33.227  29.971  27.244  1.00  0.00     0.042 C 
BRANCH  29  30
ATOM     30  C   UNL A   1      34.722  29.723  27.300  1.00  0.00     0.118 C 
BRANCH  30  31
ATOM     31  N   UNL A   1      35.460  30.753  28.027  1.00  0.00    -0.352 N 
ATOM     32  C   UNL A   1      36.716  30.704  28.607  1.00  0.00     0.251 C 
ATOM     33  H   UNL A   1      34.992  31.615  28.119  1.00  0.00     0.163 HD
ATOM     34  O   UNL A   1      37.176  31.698  29.160  1.00  0.00    -0.269 OA
BRANCH  32  35
ATOM     35  C   UNL A   1      37.573  29.518  28.389  1.00  0.00     0.039 A 
ATOM     36  C   UNL A   1      37.591  28.569  29.419  1.00  0.00     0.014 A 
ATOM     37  C   UNL A   1      38.585  29.558  27.441  1.00  0.00     0.014 A 
ATOM     38  C   UNL A   1      38.783  27.929  29.710  1.00  0.00     0.010 A 
ATOM     39  C   UNL A   1      39.803  29.045  27.802  1.00  0.00     0.010 A 
ATOM     40  C   UNL A   1      39.904  28.306  28.982  1.00  0.00    -0.014 A 
BRANCH  40  41
ATOM     41  C   UNL A   1      41.250  27.898  29.301  1.00  0.00     0.031 A 
ATOM     42  C   UNL A   1      41.684  26.618  28.739  1.00  0.00     0.074 A 
ATOM     43  C   UNL A   1      42.056  28.771  29.941  1.00  0.00     0.049 A 
ATOM     44  N   UNL A   1      42.732  25.985  29.112  1.00  0.00    -0.248 NA
ATOM     45  C   UNL A   1      40.902  25.902  27.730  1.00  0.00     0.031 C 
ATOM     46  C   UNL A   1      43.500  28.722  30.128  1.00  0.00     0.029 A 
ATOM     47  N   UNL A   1      41.640  29.816  30.777  1.00  0.00    -0.354 N 
ATOM     48  C   UNL A   1      42.938  24.977  28.199  1.00  0.00     0.074 A 
ATOM     49  C   UNL A   1      41.701  24.864  27.478  1.00  0.00     0.031 C 
ATOM     50  C   UNL A   1      43.813  29.435  31.227  1.00  0.00     0.029 A 
ATOM     51  C   UNL A   1      42.560  29.825  31.854  1.00  0.00     0.049 A 
ATOM     52  H   UNL A   1      40.873  30.417  30.642  1.00  0.00     0.167 HD
ATOM     53  C   UNL A   1      44.204  24.491  28.083  1.00  0.00     0.037 A 
ATOM     54  C   UNL A   1      42.127  29.404  33.082  1.00  0.00     0.037 A 
ATOM     55  C   UNL A   1      45.009  24.963  29.221  1.00  0.00     0.049 A 
ATOM     56  C   UNL A   1      42.720  28.067  33.496  1.00  0.00     0.074 A 
ATOM     57  C   UNL A   1      45.939  25.971  29.404  1.00  0.00     0.029 A 
ATOM     58  N   UNL A   1      44.586  24.608  30.494  1.00  0.00    -0.354 N 
ATOM     59  N   UNL A   1      43.487  27.329  32.735  1.00  0.00    -0.248 NA
ATOM     60  C   UNL A   1      42.451  27.429  34.784  1.00  0.00     0.031 C 
ATOM     61  C   UNL A   1      45.983  26.275  30.807  1.00  0.00     0.029 A 
ATOM     62  C   UNL A   1      45.121  25.422  31.473  1.00  0.00     0.049 A 
ATOM     63  H   UNL A   1      43.974  23.860  30.678  1.00  0.00     0.167 HD
ATOM     64  C   UNL A   1      43.830  26.176  33.384  1.00  0.00     0.074 A 
ATOM     65  C   UNL A   1      43.119  26.269  34.652  1.00  0.00     0.031 C 
ATOM     66  C   UNL A   1      44.666  25.231  32.849  1.00  0.00     0.037 A 
BRANCH  53  67
ATOM     67  C   UNL A   1      44.762  23.769  26.874  1.00  0.00     0.057 A 
ATOM     68  C   UNL A   1      44.270  22.492  26.542  1.00  0.00     0.134 A 
ATOM     69  C   UNL A   1      45.838  24.191  26.061  1.00  0.00     0.134 A 
ATOM     70  F   UNL A   1      43.244  21.945  27.208  1.00  0.00    -0.206 F 
ATOM     71  C   UNL A   1      44.819  21.699  25.522  1.00  0.00     0.040 A 
ATOM     72  C   UNL A   1      46.377  23.419  25.021  1.00  0.00     0.040 A 
ATOM     73  F   UNL A   1      46.469  25.353  26.232  1.00  0.00    -0.206 F 
ATOM     74  C   UNL A   1      45.878  22.159  24.756  1.00  0.00     0.006 A 
ENDBRANCH  53  67
BRANCH  54  75
ATOM     75  C   UNL A   1      40.732  29.888  33.347  1.00  0.00     0.057 A 
ATOM     76  C   UNL A   1      40.547  31.284  33.460  1.00  0.00     0.134 A 
ATOM     77  C   UNL A   1      39.615  29.135  32.981  1.00  0.00     0.134 A 
ATOM     78  F   UNL A   1      41.564  32.068  33.853  1.00  0.00    -0.206 F 
ATOM     79  C   UNL A   1      39.389  31.915  32.996  1.00  0.00     0.040 A 
ATOM     80  C   UNL A   1      38.433  29.757  32.563  1.00  0.00     0.040 A 
ATOM     81  F   UNL A   1      39.692  27.800  32.880  1.00  0.00    -0.206 F 
ATOM     82  C   UNL A   1      38.346  31.148  32.493  1.00  0.00     0.006 A 
ENDBRANCH  54  75
BRANCH  66  83
ATOM     83  C   UNL A   1      45.090  23.997  33.608  1.00  0.00     0.057 A 
ATOM     84  C   UNL A   1      44.202  22.955  33.910  1.00  0.00     0.134 A 
ATOM     85  C   UNL A   1      46.388  23.843  34.138  1.00  0.00     0.134 A 
ATOM     86  F   UNL A   1      42.897  23.045  33.608  1.00  0.00    -0.206 F 
ATOM     87  C   UNL A   1      44.610  21.784  34.560  1.00  0.00     0.040 A 
ATOM     88  C   UNL A   1      46.792  22.708  34.844  1.00  0.00     0.040 A 
ATOM     89  F   UNL A   1      47.340  24.772  33.989  1.00  0.00    -0.206 F 
ATOM     90  C   UNL A   1      45.912  21.655  35.024  1.00  0.00     0.006 A 
ENDBRANCH  66  83
ENDBRANCH  40  41
ENDBRANCH  32  35
ENDBRANCH  30  31
ENDBRANCH  29  30
ENDBRANCH   1  29
TORSDOF 13
ENDMDL
