MODEL 1
REMARK VINA RESULT:     -12.6      0.000      0.000
REMARK SMILES Cc1nn(C(C)C)cc1-c1cnccc1C(=O)NCCCNC(=O)c1ccc(-c2c3nc(c(-c4c(F)cccc4F)c4ccc([nH]4)c(-c4c(F)cccc4F)c4nc(c(-c5c(F)cccc5F)c5ccc2[nH]5)C=C4)C=C3)cc1
REMARK SMILES IDX 20 1 19 2 18 3 16 4 17 5 15 7 10 8 11 9 12 10 14 11 13 12
REMARK SMILES IDX 9 13 1 14 2 15 3 16 4 17 8 18 5 19 6 20 7 21 21 22 22 23
REMARK SMILES IDX 23 24 24 26 25 27 26 28 78 29 27 30 77 31 28 32 29 33 30 34
REMARK SMILES IDX 71 35 31 36 76 37 70 38 72 39 32 40 75 41 69 42 68 43 33 45
REMARK SMILES IDX 59 46 42 47 58 48 43 49 46 50 57 51 73 52 44 53 45 54 56 56
REMARK SMILES IDX 74 57 47 58 34 59 35 60 40 61 36 62 37 63 39 64 41 65 38 66
REMARK SMILES IDX 60 67 61 68 66 69 62 70 63 71 65 72 67 73 64 74 48 75 49 76
REMARK SMILES IDX 54 77 50 78 51 79 53 80 55 81 52 82
REMARK H PARENT 18 6 22 25 72 44 46 55
REMARK Flexibility Score: inf
ROOT
ATOM      1  C   UNL A   1      37.665  20.900  24.882  1.00  0.00     0.042 C 
ENDROOT
BRANCH   1   2
ATOM      2  C   UNL A   1      36.761  22.105  24.843  1.00  0.00     0.118 C 
BRANCH   2   3
ATOM      3  N   UNL A   1      36.179  22.607  23.643  1.00  0.00    -0.352 N 
ATOM      4  C   UNL A   1      35.003  23.334  23.594  1.00  0.00     0.252 C 
ATOM      5  O   UNL A   1      34.756  23.924  22.538  1.00  0.00    -0.269 OA
ATOM      6  H   UNL A   1      36.645  22.425  22.794  1.00  0.00     0.163 HD
BRANCH   4   7
ATOM      7  C   UNL A   1      33.944  23.329  24.677  1.00  0.00     0.050 A 
ATOM      8  C   UNL A   1      33.110  22.298  25.176  1.00  0.00     0.016 A 
ATOM      9  C   UNL A   1      32.184  22.663  26.162  1.00  0.00     0.120 A 
ATOM     10  N   UNL A   1      32.022  23.902  26.679  1.00  0.00    -0.264 NA
ATOM     11  C   UNL A   1      33.795  24.618  25.238  1.00  0.00     0.034 A 
ATOM     12  C   UNL A   1      32.840  24.854  26.210  1.00  0.00     0.112 A 
BRANCH   8  13
ATOM     13  C   UNL A   1      33.003  20.909  24.736  1.00  0.00     0.025 A 
ATOM     14  C   UNL A   1      31.919  21.156  22.340  1.00  0.00     0.069 C 
ATOM     15  C   UNL A   1      32.461  20.400  23.507  1.00  0.00     0.067 A 
ATOM     16  N   UNL A   1      32.654  19.082  23.400  1.00  0.00    -0.177 NA
ATOM     17  N   UNL A   1      33.236  18.721  24.561  1.00  0.00    -0.269 N 
ATOM     18  C   UNL A   1      33.469  19.790  25.396  1.00  0.00     0.118 A 
BRANCH  17  19
ATOM     19  C   UNL A   1      33.642  17.329  24.764  1.00  0.00     0.101 C 
ATOM     20  C   UNL A   1      32.636  16.526  25.585  1.00  0.00     0.033 C 
ATOM     21  C   UNL A   1      33.854  16.607  23.446  1.00  0.00     0.033 C 
ENDBRANCH  17  19
ENDBRANCH   8  13
ENDBRANCH   4   7
ENDBRANCH   2   3
ENDBRANCH   1   2
BRANCH   1  22
ATOM     22  C   UNL A   1      38.884  21.048  25.748  1.00  0.00     0.118 C 
BRANCH  22  23
ATOM     23  N   UNL A   1      39.737  19.850  25.828  1.00  0.00    -0.352 N 
ATOM     24  C   UNL A   1      41.128  19.736  25.940  1.00  0.00     0.251 C 
ATOM     25  H   UNL A   1      39.252  18.994  25.798  1.00  0.00     0.163 HD
ATOM     26  O   UNL A   1      41.744  18.707  25.802  1.00  0.00    -0.269 OA
BRANCH  24  27
ATOM     27  C   UNL A   1      41.823  20.944  26.378  1.00  0.00     0.039 A 
ATOM     28  C   UNL A   1      42.359  21.924  25.542  1.00  0.00     0.014 A 
ATOM     29  C   UNL A   1      41.705  21.133  27.733  1.00  0.00     0.014 A 
ATOM     30  C   UNL A   1      42.717  23.125  26.143  1.00  0.00     0.010 A 
ATOM     31  C   UNL A   1      41.469  22.408  28.069  1.00  0.00     0.010 A 
ATOM     32  C   UNL A   1      42.267  23.332  27.448  1.00  0.00    -0.014 A 
BRANCH  32  33
ATOM     33  C   UNL A   1      42.419  24.521  28.245  1.00  0.00     0.031 A 
ATOM     34  C   UNL A   1      41.268  25.423  28.106  1.00  0.00     0.074 A 
ATOM     35  C   UNL A   1      43.298  24.554  29.274  1.00  0.00     0.049 A 
ATOM     36  N   UNL A   1      41.169  26.415  27.289  1.00  0.00    -0.248 NA
ATOM     37  C   UNL A   1      39.982  25.011  28.703  1.00  0.00     0.031 C 
ATOM     38  C   UNL A   1      44.204  23.504  29.773  1.00  0.00     0.029 A 
ATOM     39  N   UNL A   1      43.493  25.553  30.169  1.00  0.00    -0.354 N 
ATOM     40  C   UNL A   1      39.914  26.942  27.540  1.00  0.00     0.074 A 
ATOM     41  C   UNL A   1      39.148  25.866  28.104  1.00  0.00     0.031 C 
ATOM     42  C   UNL A   1      44.693  23.854  30.985  1.00  0.00     0.029 A 
ATOM     43  C   UNL A   1      44.281  25.212  31.267  1.00  0.00     0.049 A 
ATOM     44  H   UNL A   1      43.107  26.452  30.052  1.00  0.00     0.167 HD
ATOM     45  C   UNL A   1      39.753  28.290  27.651  1.00  0.00     0.037 A 
ATOM     46  C   UNL A   1      44.529  26.024  32.325  1.00  0.00     0.037 A 
ATOM     47  C   UNL A   1      40.951  28.977  27.202  1.00  0.00     0.049 A 
ATOM     48  C   UNL A   1      44.214  27.412  31.874  1.00  0.00     0.074 A 
ATOM     49  C   UNL A   1      41.695  28.964  26.037  1.00  0.00     0.029 A 
ATOM     50  N   UNL A   1      41.795  29.464  28.177  1.00  0.00    -0.354 N 
ATOM     51  N   UNL A   1      44.888  28.040  30.946  1.00  0.00    -0.248 NA
ATOM     52  C   UNL A   1      42.853  27.887  32.078  1.00  0.00     0.031 C 
ATOM     53  C   UNL A   1      43.058  28.984  26.465  1.00  0.00     0.029 A 
ATOM     54  C   UNL A   1      43.084  29.114  27.854  1.00  0.00     0.049 A 
ATOM     55  H   UNL A   1      41.520  29.976  28.971  1.00  0.00     0.167 HD
ATOM     56  C   UNL A   1      43.924  28.671  30.167  1.00  0.00     0.074 A 
ATOM     57  C   UNL A   1      42.698  28.606  30.961  1.00  0.00     0.031 C 
ATOM     58  C   UNL A   1      44.133  28.891  28.831  1.00  0.00     0.037 A 
BRANCH  45  59
ATOM     59  C   UNL A   1      38.732  28.963  28.541  1.00  0.00     0.057 A 
ATOM     60  C   UNL A   1      38.751  28.660  29.914  1.00  0.00     0.134 A 
ATOM     61  C   UNL A   1      37.595  29.679  28.110  1.00  0.00     0.134 A 
ATOM     62  F   UNL A   1      39.778  27.986  30.454  1.00  0.00    -0.206 F 
ATOM     63  C   UNL A   1      37.686  28.968  30.768  1.00  0.00     0.040 A 
ATOM     64  C   UNL A   1      36.550  30.037  28.964  1.00  0.00     0.040 A 
ATOM     65  F   UNL A   1      37.369  29.999  26.832  1.00  0.00    -0.206 F 
ATOM     66  C   UNL A   1      36.575  29.650  30.292  1.00  0.00     0.006 A 
ENDBRANCH  45  59
BRANCH  46  67
ATOM     67  C   UNL A   1      44.690  25.662  33.751  1.00  0.00     0.057 A 
ATOM     68  C   UNL A   1      43.569  25.436  34.564  1.00  0.00     0.134 A 
ATOM     69  C   UNL A   1      45.925  25.247  34.279  1.00  0.00     0.134 A 
ATOM     70  F   UNL A   1      42.343  25.771  34.139  1.00  0.00    -0.206 F 
ATOM     71  C   UNL A   1      43.665  24.794  35.807  1.00  0.00     0.040 A 
ATOM     72  C   UNL A   1      46.036  24.611  35.520  1.00  0.00     0.040 A 
ATOM     73  F   UNL A   1      47.058  25.359  33.568  1.00  0.00    -0.206 F 
ATOM     74  C   UNL A   1      44.900  24.364  36.281  1.00  0.00     0.006 A 
ENDBRANCH  46  67
BRANCH  58  75
ATOM     75  C   UNL A   1      45.529  28.674  28.293  1.00  0.00     0.057 A 
ATOM     76  C   UNL A   1      45.976  27.494  27.677  1.00  0.00     0.134 A 
ATOM     77  C   UNL A   1      46.417  29.755  28.278  1.00  0.00     0.134 A 
ATOM     78  F   UNL A   1      45.175  26.433  27.547  1.00  0.00    -0.206 F 
ATOM     79  C   UNL A   1      47.255  27.380  27.118  1.00  0.00     0.040 A 
ATOM     80  C   UNL A   1      47.685  29.666  27.696  1.00  0.00     0.040 A 
ATOM     81  F   UNL A   1      46.048  30.937  28.794  1.00  0.00    -0.206 F 
ATOM     82  C   UNL A   1      48.113  28.471  27.124  1.00  0.00     0.006 A 
ENDBRANCH  58  75
ENDBRANCH  32  33
ENDBRANCH  24  27
ENDBRANCH  22  23
ENDBRANCH   1  22
TORSDOF 12
ENDMDL
MODEL 2
REMARK VINA RESULT:     -12.6      4.835      9.498
REMARK SMILES Cc1nn(C(C)C)cc1-c1cnccc1C(=O)NCCCNC(=O)c1ccc(-c2c3nc(c(-c4c(F)cccc4F)c4ccc([nH]4)c(-c4c(F)cccc4F)c4nc(c(-c5c(F)cccc5F)c5ccc2[nH]5)C=C4)C=C3)cc1
REMARK SMILES IDX 20 1 19 2 18 3 16 4 17 5 15 7 10 8 11 9 12 10 14 11 13 12
REMARK SMILES IDX 9 13 1 14 2 15 3 16 4 17 8 18 5 19 6 20 7 21 21 22 22 23
REMARK SMILES IDX 23 24 24 26 25 27 26 28 78 29 27 30 77 31 28 32 29 33 30 34
REMARK SMILES IDX 71 35 31 36 76 37 70 38 72 39 32 40 75 41 69 42 68 43 33 45
REMARK SMILES IDX 59 46 42 47 58 48 43 49 46 50 57 51 73 52 44 53 45 54 56 56
REMARK SMILES IDX 74 57 47 58 34 59 35 60 40 61 36 62 37 63 39 64 41 65 38 66
REMARK SMILES IDX 60 67 61 68 66 69 62 70 63 71 65 72 67 73 64 74 48 75 49 76
REMARK SMILES IDX 54 77 50 78 51 79 53 80 55 81 52 82
REMARK H PARENT 18 6 22 25 72 44 46 55
REMARK Flexibility Score: inf
ROOT
ATOM      1  C   UNL A   1      32.014  30.935  26.868  1.00  0.00     0.042 C 
ENDROOT
BRANCH   1   2
ATOM      2  C   UNL A   1      32.388  29.481  26.736  1.00  0.00     0.118 C 
BRANCH   2   3
ATOM      3  N   UNL A   1      31.495  28.413  27.044  1.00  0.00    -0.352 N 
ATOM      4  C   UNL A   1      31.512  27.180  26.417  1.00  0.00     0.252 C 
ATOM      5  O   UNL A   1      30.870  26.273  26.954  1.00  0.00    -0.269 OA
ATOM      6  H   UNL A   1      30.824  28.563  27.750  1.00  0.00     0.163 HD
BRANCH   4   7
ATOM      7  C   UNL A   1      32.129  26.915  25.059  1.00  0.00     0.050 A 
ATOM      8  C   UNL A   1      31.746  27.314  23.755  1.00  0.00     0.016 A 
ATOM      9  C   UNL A   1      32.529  26.832  22.697  1.00  0.00     0.120 A 
ATOM     10  N   UNL A   1      33.612  26.032  22.812  1.00  0.00    -0.264 NA
ATOM     11  C   UNL A   1      33.279  26.101  25.182  1.00  0.00     0.034 A 
ATOM     12  C   UNL A   1      33.970  25.689  24.057  1.00  0.00     0.112 A 
BRANCH   8  13
ATOM     13  C   UNL A   1      30.578  28.084  23.335  1.00  0.00     0.025 A 
ATOM     14  C   UNL A   1      28.588  26.435  23.877  1.00  0.00     0.069 C 
ATOM     15  C   UNL A   1      29.195  27.698  23.364  1.00  0.00     0.067 A 
ATOM     16  N   UNL A   1      28.398  28.715  23.024  1.00  0.00    -0.177 NA
ATOM     17  N   UNL A   1      29.237  29.722  22.706  1.00  0.00    -0.269 N 
ATOM     18  C   UNL A   1      30.561  29.388  22.882  1.00  0.00     0.118 A 
BRANCH  17  19
ATOM     19  C   UNL A   1      28.692  31.028  22.333  1.00  0.00     0.101 C 
ATOM     20  C   UNL A   1      28.015  31.025  20.964  1.00  0.00     0.033 C 
ATOM     21  C   UNL A   1      27.685  31.528  23.353  1.00  0.00     0.033 C 
ENDBRANCH  17  19
ENDBRANCH   8  13
ENDBRANCH   4   7
ENDBRANCH   2   3
ENDBRANCH   1   2
BRANCH   1  22
ATOM     22  C   UNL A   1      33.111  31.829  27.373  1.00  0.00     0.118 C 
BRANCH  22  23
ATOM     23  N   UNL A   1      32.723  33.238  27.561  1.00  0.00    -0.352 N 
ATOM     24  C   UNL A   1      33.139  34.170  28.521  1.00  0.00     0.251 C 
ATOM     25  H   UNL A   1      32.069  33.579  26.909  1.00  0.00     0.163 HD
ATOM     26  O   UNL A   1      32.617  35.241  28.706  1.00  0.00    -0.269 OA
BRANCH  24  27
ATOM     27  C   UNL A   1      34.370  33.830  29.233  1.00  0.00     0.039 A 
ATOM     28  C   UNL A   1      34.447  33.119  30.431  1.00  0.00     0.014 A 
ATOM     29  C   UNL A   1      35.483  34.098  28.476  1.00  0.00     0.014 A 
ATOM     30  C   UNL A   1      35.704  32.648  30.793  1.00  0.00     0.010 A 
ATOM     31  C   UNL A   1      36.414  33.138  28.549  1.00  0.00     0.010 A 
ATOM     32  C   UNL A   1      36.698  32.695  29.815  1.00  0.00    -0.014 A 
BRANCH  32  33
ATOM     33  C   UNL A   1      38.040  32.184  29.908  1.00  0.00     0.031 A 
ATOM     34  C   UNL A   1      38.143  30.819  29.377  1.00  0.00     0.074 A 
ATOM     35  C   UNL A   1      39.089  33.025  30.067  1.00  0.00     0.049 A 
ATOM     36  N   UNL A   1      38.061  29.727  30.058  1.00  0.00    -0.248 NA
ATOM     37  C   UNL A   1      38.015  30.624  27.920  1.00  0.00     0.031 C 
ATOM     38  C   UNL A   1      39.111  34.496  30.168  1.00  0.00     0.029 A 
ATOM     39  N   UNL A   1      40.408  32.715  30.081  1.00  0.00    -0.354 N 
ATOM     40  C   UNL A   1      38.220  28.724  29.116  1.00  0.00     0.074 A 
ATOM     41  C   UNL A   1      37.823  29.303  27.864  1.00  0.00     0.031 C 
ATOM     42  C   UNL A   1      40.378  34.949  30.030  1.00  0.00     0.029 A 
ATOM     43  C   UNL A   1      41.269  33.809  30.009  1.00  0.00     0.049 A 
ATOM     44  H   UNL A   1      40.734  31.787  30.137  1.00  0.00     0.167 HD
ATOM     45  C   UNL A   1      39.041  27.669  29.378  1.00  0.00     0.037 A 
ATOM     46  C   UNL A   1      42.620  33.727  29.916  1.00  0.00     0.037 A 
ATOM     47  C   UNL A   1      39.419  27.664  30.781  1.00  0.00     0.049 A 
ATOM     48  C   UNL A   1      42.991  32.353  30.366  1.00  0.00     0.074 A 
ATOM     49  C   UNL A   1      38.717  27.665  31.972  1.00  0.00     0.029 A 
ATOM     50  N   UNL A   1      40.679  28.127  31.091  1.00  0.00    -0.354 N 
ATOM     51  N   UNL A   1      42.823  31.924  31.589  1.00  0.00    -0.248 NA
ATOM     52  C   UNL A   1      43.053  31.313  29.349  1.00  0.00     0.031 C 
ATOM     53  C   UNL A   1      39.427  28.568  32.821  1.00  0.00     0.029 A 
ATOM     54  C   UNL A   1      40.578  28.990  32.155  1.00  0.00     0.049 A 
ATOM     55  H   UNL A   1      41.511  27.880  30.628  1.00  0.00     0.167 HD
ATOM     56  C   UNL A   1      42.328  30.631  31.452  1.00  0.00     0.074 A 
ATOM     57  C   UNL A   1      42.568  30.283  30.052  1.00  0.00     0.031 C 
ATOM     58  C   UNL A   1      41.484  30.098  32.390  1.00  0.00     0.037 A 
BRANCH  45  59
ATOM     59  C   UNL A   1      39.839  26.922  28.333  1.00  0.00     0.057 A 
ATOM     60  C   UNL A   1      40.708  27.661  27.512  1.00  0.00     0.134 A 
ATOM     61  C   UNL A   1      39.626  25.589  27.920  1.00  0.00     0.134 A 
ATOM     62  F   UNL A   1      40.998  28.940  27.795  1.00  0.00    -0.206 F 
ATOM     63  C   UNL A   1      41.250  27.142  26.330  1.00  0.00     0.040 A 
ATOM     64  C   UNL A   1      40.203  25.046  26.770  1.00  0.00     0.040 A 
ATOM     65  F   UNL A   1      38.783  24.754  28.536  1.00  0.00    -0.206 F 
ATOM     66  C   UNL A   1      40.990  25.833  25.950  1.00  0.00     0.006 A 
ENDBRANCH  45  59
BRANCH  46  67
ATOM     67  C   UNL A   1      43.551  34.606  29.172  1.00  0.00     0.057 A 
ATOM     68  C   UNL A   1      43.761  34.428  27.797  1.00  0.00     0.134 A 
ATOM     69  C   UNL A   1      44.033  35.810  29.717  1.00  0.00     0.134 A 
ATOM     70  F   UNL A   1      43.314  33.325  27.179  1.00  0.00    -0.206 F 
ATOM     71  C   UNL A   1      44.370  35.408  27.002  1.00  0.00     0.040 A 
ATOM     72  C   UNL A   1      44.648  36.794  28.935  1.00  0.00     0.040 A 
ATOM     73  F   UNL A   1      43.839  36.115  31.009  1.00  0.00    -0.206 F 
ATOM     74  C   UNL A   1      44.802  36.603  27.568  1.00  0.00     0.006 A 
ENDBRANCH  46  67
BRANCH  58  75
ATOM     75  C   UNL A   1      41.324  30.844  33.696  1.00  0.00     0.057 A 
ATOM     76  C   UNL A   1      40.304  31.770  33.969  1.00  0.00     0.134 A 
ATOM     77  C   UNL A   1      42.159  30.509  34.766  1.00  0.00     0.134 A 
ATOM     78  F   UNL A   1      39.390  32.088  33.048  1.00  0.00    -0.206 F 
ATOM     79  C   UNL A   1      40.152  32.366  35.227  1.00  0.00     0.040 A 
ATOM     80  C   UNL A   1      42.000  31.072  36.036  1.00  0.00     0.040 A 
ATOM     81  F   UNL A   1      43.122  29.588  34.607  1.00  0.00    -0.206 F 
ATOM     82  C   UNL A   1      41.002  32.014  36.267  1.00  0.00     0.006 A 
ENDBRANCH  58  75
ENDBRANCH  32  33
ENDBRANCH  24  27
ENDBRANCH  22  23
ENDBRANCH   1  22
TORSDOF 12
ENDMDL
MODEL 3
REMARK VINA RESULT:     -12.2      1.203      2.859
REMARK SMILES Cc1nn(C(C)C)cc1-c1cnccc1C(=O)NCCCNC(=O)c1ccc(-c2c3nc(c(-c4c(F)cccc4F)c4ccc([nH]4)c(-c4c(F)cccc4F)c4nc(c(-c5c(F)cccc5F)c5ccc2[nH]5)C=C4)C=C3)cc1
REMARK SMILES IDX 20 1 19 2 18 3 16 4 17 5 15 7 10 8 11 9 12 10 14 11 13 12
REMARK SMILES IDX 9 13 1 14 2 15 3 16 4 17 8 18 5 19 6 20 7 21 21 22 22 23
REMARK SMILES IDX 23 24 24 26 25 27 26 28 78 29 27 30 77 31 28 32 29 33 30 34
REMARK SMILES IDX 71 35 31 36 76 37 70 38 72 39 32 40 75 41 69 42 68 43 33 45
REMARK SMILES IDX 59 46 42 47 58 48 43 49 46 50 57 51 73 52 44 53 45 54 56 56
REMARK SMILES IDX 74 57 47 58 34 59 35 60 40 61 36 62 37 63 39 64 41 65 38 66
REMARK SMILES IDX 60 67 61 68 66 69 62 70 63 71 65 72 67 73 64 74 48 75 49 76
REMARK SMILES IDX 54 77 50 78 51 79 53 80 55 81 52 82
REMARK H PARENT 18 6 22 25 72 44 46 55
REMARK Flexibility Score: inf
ROOT
ATOM      1  C   UNL A   1      37.586  20.868  25.102  1.00  0.00     0.042 C 
ENDROOT
BRANCH   1   2
ATOM      2  C   UNL A   1      36.625  22.014  25.288  1.00  0.00     0.118 C 
BRANCH   2   3
ATOM      3  N   UNL A   1      35.722  22.107  26.388  1.00  0.00    -0.352 N 
ATOM      4  C   UNL A   1      34.508  21.448  26.453  1.00  0.00     0.252 C 
ATOM      5  O   UNL A   1      33.956  21.406  27.556  1.00  0.00    -0.269 OA
ATOM      6  H   UNL A   1      35.981  22.675  27.149  1.00  0.00     0.163 HD
BRANCH   4   7
ATOM      7  C   UNL A   1      33.752  20.918  25.252  1.00  0.00     0.050 A 
ATOM      8  C   UNL A   1      32.976  21.571  24.263  1.00  0.00     0.016 A 
ATOM      9  C   UNL A   1      32.358  20.752  23.309  1.00  0.00     0.120 A 
ATOM     10  N   UNL A   1      32.441  19.403  23.248  1.00  0.00    -0.264 NA
ATOM     11  C   UNL A   1      33.861  19.511  25.172  1.00  0.00     0.034 A 
ATOM     12  C   UNL A   1      33.201  18.811  24.179  1.00  0.00     0.112 A 
BRANCH   8  13
ATOM     13  C   UNL A   1      32.639  22.988  24.145  1.00  0.00     0.025 A 
ATOM     14  C   UNL A   1      31.028  23.358  26.205  1.00  0.00     0.069 C 
ATOM     15  C   UNL A   1      31.769  23.771  24.977  1.00  0.00     0.067 A 
ATOM     16  N   UNL A   1      31.809  25.064  24.642  1.00  0.00    -0.177 NA
ATOM     17  N   UNL A   1      32.624  25.119  23.569  1.00  0.00    -0.269 N 
ATOM     18  C   UNL A   1      33.151  23.892  23.236  1.00  0.00     0.118 A 
BRANCH  17  19
ATOM     19  C   UNL A   1      32.940  26.416  22.966  1.00  0.00     0.101 C 
ATOM     20  C   UNL A   1      31.709  27.143  22.432  1.00  0.00     0.033 C 
ATOM     21  C   UNL A   1      33.640  27.336  23.950  1.00  0.00     0.033 C 
ENDBRANCH  17  19
ENDBRANCH   8  13
ENDBRANCH   4   7
ENDBRANCH   2   3
ENDBRANCH   1   2
BRANCH   1  22
ATOM     22  C   UNL A   1      38.965  21.100  25.651  1.00  0.00     0.118 C 
BRANCH  22  23
ATOM     23  N   UNL A   1      39.797  19.890  25.767  1.00  0.00    -0.352 N 
ATOM     24  C   UNL A   1      41.182  19.757  25.932  1.00  0.00     0.251 C 
ATOM     25  H   UNL A   1      39.302  19.041  25.722  1.00  0.00     0.163 HD
ATOM     26  O   UNL A   1      41.787  18.720  25.822  1.00  0.00    -0.269 OA
BRANCH  24  27
ATOM     27  C   UNL A   1      41.876  20.957  26.393  1.00  0.00     0.039 A 
ATOM     28  C   UNL A   1      42.456  21.927  25.574  1.00  0.00     0.014 A 
ATOM     29  C   UNL A   1      41.711  21.152  27.742  1.00  0.00     0.014 A 
ATOM     30  C   UNL A   1      42.808  23.126  26.185  1.00  0.00     0.010 A 
ATOM     31  C   UNL A   1      41.480  22.431  28.065  1.00  0.00     0.010 A 
ATOM     32  C   UNL A   1      42.313  23.343  27.472  1.00  0.00    -0.014 A 
BRANCH  32  33
ATOM     33  C   UNL A   1      42.451  24.531  28.271  1.00  0.00     0.031 A 
ATOM     34  C   UNL A   1      41.300  25.431  28.118  1.00  0.00     0.074 A 
ATOM     35  C   UNL A   1      43.317  24.567  29.312  1.00  0.00     0.049 A 
ATOM     36  N   UNL A   1      41.210  26.422  27.299  1.00  0.00    -0.248 NA
ATOM     37  C   UNL A   1      40.008  25.016  28.697  1.00  0.00     0.031 C 
ATOM     38  C   UNL A   1      44.220  23.519  29.822  1.00  0.00     0.029 A 
ATOM     39  N   UNL A   1      43.499  25.566  30.209  1.00  0.00    -0.354 N 
ATOM     40  C   UNL A   1      39.950  26.947  27.534  1.00  0.00     0.074 A 
ATOM     41  C   UNL A   1      39.180  25.869  28.087  1.00  0.00     0.031 C 
ATOM     42  C   UNL A   1      44.692  23.870  31.040  1.00  0.00     0.029 A 
ATOM     43  C   UNL A   1      44.273  25.227  31.317  1.00  0.00     0.049 A 
ATOM     44  H   UNL A   1      43.112  26.464  30.087  1.00  0.00     0.167 HD
ATOM     45  C   UNL A   1      39.784  28.294  27.642  1.00  0.00     0.037 A 
ATOM     46  C   UNL A   1      44.505  26.040  32.378  1.00  0.00     0.037 A 
ATOM     47  C   UNL A   1      40.987  28.984  27.210  1.00  0.00     0.049 A 
ATOM     48  C   UNL A   1      44.193  27.426  31.923  1.00  0.00     0.074 A 
ATOM     49  C   UNL A   1      41.746  28.973  26.054  1.00  0.00     0.029 A 
ATOM     50  N   UNL A   1      41.816  29.473  28.195  1.00  0.00    -0.354 N 
ATOM     51  N   UNL A   1      44.877  28.056  31.004  1.00  0.00    -0.248 NA
ATOM     52  C   UNL A   1      42.828  27.898  32.109  1.00  0.00     0.031 C 
ATOM     53  C   UNL A   1      43.103  28.996  26.500  1.00  0.00     0.029 A 
ATOM     54  C   UNL A   1      43.110  29.127  27.889  1.00  0.00     0.049 A 
ATOM     55  H   UNL A   1      41.530  29.984  28.986  1.00  0.00     0.167 HD
ATOM     56  C   UNL A   1      43.922  28.685  30.212  1.00  0.00     0.074 A 
ATOM     57  C   UNL A   1      42.685  28.617  30.990  1.00  0.00     0.031 C 
ATOM     58  C   UNL A   1      44.147  28.905  28.880  1.00  0.00     0.037 A 
BRANCH  45  59
ATOM     59  C   UNL A   1      38.751  28.965  28.520  1.00  0.00     0.057 A 
ATOM     60  C   UNL A   1      38.754  28.663  29.893  1.00  0.00     0.134 A 
ATOM     61  C   UNL A   1      37.617  29.677  28.074  1.00  0.00     0.134 A 
ATOM     62  F   UNL A   1      39.775  27.992  30.446  1.00  0.00    -0.206 F 
ATOM     63  C   UNL A   1      37.677  28.968  30.733  1.00  0.00     0.040 A 
ATOM     64  C   UNL A   1      36.560  30.032  28.915  1.00  0.00     0.040 A 
ATOM     65  F   UNL A   1      37.406  29.996  26.793  1.00  0.00    -0.206 F 
ATOM     66  C   UNL A   1      36.570  29.646  30.243  1.00  0.00     0.006 A 
ENDBRANCH  45  59
BRANCH  46  67
ATOM     67  C   UNL A   1      44.648  25.677  33.807  1.00  0.00     0.057 A 
ATOM     68  C   UNL A   1      43.519  25.424  34.598  1.00  0.00     0.134 A 
ATOM     69  C   UNL A   1      45.883  25.290  34.356  1.00  0.00     0.134 A 
ATOM     70  F   UNL A   1      42.292  25.731  34.151  1.00  0.00    -0.206 F 
ATOM     71  C   UNL A   1      43.606  24.781  35.841  1.00  0.00     0.040 A 
ATOM     72  C   UNL A   1      45.985  24.653  35.597  1.00  0.00     0.040 A 
ATOM     73  F   UNL A   1      47.025  25.430  33.666  1.00  0.00    -0.206 F 
ATOM     74  C   UNL A   1      44.842  24.378  36.337  1.00  0.00     0.006 A 
ENDBRANCH  46  67
BRANCH  58  75
ATOM     75  C   UNL A   1      45.551  28.693  28.360  1.00  0.00     0.057 A 
ATOM     76  C   UNL A   1      46.010  27.512  27.752  1.00  0.00     0.134 A 
ATOM     77  C   UNL A   1      46.435  29.776  28.354  1.00  0.00     0.134 A 
ATOM     78  F   UNL A   1      45.214  26.448  27.615  1.00  0.00    -0.206 F 
ATOM     79  C   UNL A   1      47.296  27.401  27.210  1.00  0.00     0.040 A 
ATOM     80  C   UNL A   1      47.711  29.690  27.788  1.00  0.00     0.040 A 
ATOM     81  F   UNL A   1      46.056  30.958  28.862  1.00  0.00    -0.206 F 
ATOM     82  C   UNL A   1      48.150  28.495  27.224  1.00  0.00     0.006 A 
ENDBRANCH  58  75
ENDBRANCH  32  33
ENDBRANCH  24  27
ENDBRANCH  22  23
ENDBRANCH   1  22
TORSDOF 12
ENDMDL
