MODEL 1
REMARK VINA RESULT:     -11.7      0.000      0.000
REMARK SMILES CCc1cccc(CC)c1NC(=O)C[C@@](C)(C(=O)NCCCNC(=O)c1ccc(-c2c3nc(c(-c4c(F)cccc4F)c4ccc([nH]4)c(-c4c(F)cccc4F)c4nc(c(-c5c(F)cccc5F)c5ccc2[nH]5)C=C4)C=C3)cc1)c1ccccc1
REMARK SMILES IDX 20 1 19 2 17 3 18 4 15 6 16 7 14 8 12 9 11 10 13 12 10 13
REMARK SMILES IDX 3 14 4 15 5 16 7 17 6 18 2 19 1 20 8 21 9 22 80 23 81 24
REMARK SMILES IDX 85 25 82 26 84 27 83 28 21 29 22 30 23 31 24 32 25 34 26 35
REMARK SMILES IDX 27 36 79 37 28 38 78 39 29 40 30 41 31 42 72 43 32 44 77 45
REMARK SMILES IDX 71 46 73 47 33 48 76 49 70 50 69 51 34 53 60 54 43 55 59 56
REMARK SMILES IDX 44 57 47 58 58 59 74 60 45 61 46 62 57 64 75 65 48 66 35 67
REMARK SMILES IDX 36 68 41 69 37 70 38 71 40 72 42 73 39 74 61 75 62 76 67 77
REMARK SMILES IDX 63 78 64 79 66 80 68 81 65 82 49 83 50 84 55 85 51 86 52 87
REMARK SMILES IDX 54 88 56 89 53 90
REMARK H PARENT 19 5 11 11 23 33 73 52 47 63
REMARK Flexibility Score: inf
ROOT
ATOM      1  C   UNL A   1      36.089  21.905  25.275  1.00  0.00     0.117 C 
ENDROOT
BRANCH   1   2
ATOM      2  N   UNL A   1      34.789  21.748  24.639  1.00  0.00    -0.355 N 
ATOM      3  C   UNL A   1      33.616  22.340  24.348  1.00  0.00     0.230 C 
ATOM      4  O   UNL A   1      33.051  21.650  23.477  1.00  0.00    -0.274 OA
ATOM      5  H   UNL A   1      34.753  20.835  24.273  1.00  0.00     0.163 HD
BRANCH   3   6
ATOM      6  C   UNL A   1      32.881  23.633  24.941  1.00  0.00     0.080 C 
ATOM      7  C   UNL A   1      33.618  24.424  26.039  1.00  0.00     0.027 C 
BRANCH   6   8
ATOM      8  C   UNL A   1      31.477  23.184  25.435  1.00  0.00     0.121 C 
BRANCH   8   9
ATOM      9  C   UNL A   1      30.647  24.128  26.288  1.00  0.00     0.225 C 
ATOM     10  N   UNL A   1      30.265  25.413  26.103  1.00  0.00    -0.326 N 
ATOM     11  H   UNL A   1      29.671  25.618  26.860  1.00  0.00     0.169 HD
ATOM     12  O   UNL A   1      30.257  23.674  27.382  1.00  0.00    -0.275 OA
BRANCH  10  13
ATOM     13  C   UNL A   1      30.313  26.607  25.332  1.00  0.00     0.047 A 
ATOM     14  C   UNL A   1      31.380  27.520  25.658  1.00  0.00    -0.024 A 
ATOM     15  C   UNL A   1      31.582  28.691  24.870  1.00  0.00     0.006 A 
ATOM     16  C   UNL A   1      30.797  28.995  23.780  1.00  0.00     0.001 A 
ATOM     17  C   UNL A   1      29.470  26.996  24.260  1.00  0.00    -0.024 A 
ATOM     18  C   UNL A   1      29.753  28.154  23.486  1.00  0.00     0.006 A 
BRANCH  14  19
ATOM     19  C   UNL A   1      32.286  27.548  26.897  1.00  0.00     0.034 C 
ATOM     20  C   UNL A   1      33.680  28.152  26.941  1.00  0.00     0.009 C 
ENDBRANCH  14  19
BRANCH  17  21
ATOM     21  C   UNL A   1      28.174  26.385  23.836  1.00  0.00     0.034 C 
ATOM     22  C   UNL A   1      27.057  27.441  23.716  1.00  0.00     0.009 C 
ENDBRANCH  17  21
ENDBRANCH  10  13
ENDBRANCH   8   9
ENDBRANCH   6   8
BRANCH   6  23
ATOM     23  C   UNL A   1      32.922  24.710  23.782  1.00  0.00    -0.032 A 
ATOM     24  C   UNL A   1      32.064  24.750  22.681  1.00  0.00     0.005 A 
ATOM     25  C   UNL A   1      33.877  25.763  23.896  1.00  0.00     0.005 A 
ATOM     26  C   UNL A   1      32.150  25.805  21.754  1.00  0.00     0.000 A 
ATOM     27  C   UNL A   1      33.959  26.807  22.979  1.00  0.00     0.000 A 
ATOM     28  C   UNL A   1      33.087  26.830  21.907  1.00  0.00     0.000 A 
ENDBRANCH   6  23
ENDBRANCH   3   6
ENDBRANCH   1   2
BRANCH   1  29
ATOM     29  C   UNL A   1      37.218  21.027  24.745  1.00  0.00     0.042 C 
BRANCH  29  30
ATOM     30  C   UNL A   1      38.459  21.082  25.642  1.00  0.00     0.118 C 
BRANCH  30  31
ATOM     31  N   UNL A   1      39.355  19.935  25.559  1.00  0.00    -0.352 N 
ATOM     32  C   UNL A   1      40.680  19.853  25.961  1.00  0.00     0.251 C 
ATOM     33  H   UNL A   1      38.972  19.116  25.172  1.00  0.00     0.163 HD
ATOM     34  O   UNL A   1      41.317  18.829  25.779  1.00  0.00    -0.269 OA
BRANCH  32  35
ATOM     35  C   UNL A   1      41.337  21.041  26.565  1.00  0.00     0.039 A 
ATOM     36  C   UNL A   1      41.909  22.006  25.731  1.00  0.00     0.014 A 
ATOM     37  C   UNL A   1      41.349  21.225  27.947  1.00  0.00     0.014 A 
ATOM     38  C   UNL A   1      42.397  23.197  26.277  1.00  0.00     0.010 A 
ATOM     39  C   UNL A   1      41.742  22.447  28.480  1.00  0.00     0.010 A 
ATOM     40  C   UNL A   1      42.267  23.450  27.652  1.00  0.00    -0.014 A 
BRANCH  40  41
ATOM     41  C   UNL A   1      42.672  24.745  28.262  1.00  0.00     0.031 A 
ATOM     42  C   UNL A   1      41.641  25.816  28.500  1.00  0.00     0.074 A 
ATOM     43  C   UNL A   1      43.974  25.001  28.491  1.00  0.00     0.049 A 
ATOM     44  N   UNL A   1      41.806  27.058  28.878  1.00  0.00    -0.248 NA
ATOM     45  C   UNL A   1      40.242  25.455  28.224  1.00  0.00     0.031 C 
ATOM     46  C   UNL A   1      45.080  24.079  28.229  1.00  0.00     0.029 A 
ATOM     47  N   UNL A   1      44.591  26.127  28.979  1.00  0.00    -0.354 N 
ATOM     48  C   UNL A   1      40.542  27.632  28.846  1.00  0.00     0.074 A 
ATOM     49  C   UNL A   1      39.632  26.622  28.352  1.00  0.00     0.031 C 
ATOM     50  C   UNL A   1      46.236  24.665  28.580  1.00  0.00     0.029 A 
ATOM     51  C   UNL A   1      45.959  26.015  29.061  1.00  0.00     0.049 A 
ATOM     52  H   UNL A   1      44.100  26.938  29.244  1.00  0.00     0.167 HD
ATOM     53  C   UNL A   1      40.165  28.878  29.220  1.00  0.00     0.037 A 
ATOM     54  C   UNL A   1      46.883  26.901  29.474  1.00  0.00     0.037 A 
ATOM     55  C   UNL A   1      41.064  29.860  29.763  1.00  0.00     0.049 A 
ATOM     56  C   UNL A   1      46.438  28.255  29.951  1.00  0.00     0.074 A 
ATOM     57  C   UNL A   1      40.775  31.123  30.250  1.00  0.00     0.029 A 
ATOM     58  N   UNL A   1      42.434  29.681  29.899  1.00  0.00    -0.354 N 
ATOM     59  N   UNL A   1      45.229  28.763  29.978  1.00  0.00    -0.248 NA
ATOM     60  C   UNL A   1      47.480  29.154  30.463  1.00  0.00     0.031 C 
ATOM     61  C   UNL A   1      41.975  31.717  30.658  1.00  0.00     0.029 A 
ATOM     62  C   UNL A   1      43.005  30.812  30.459  1.00  0.00     0.049 A 
ATOM     63  H   UNL A   1      42.926  28.870  29.637  1.00  0.00     0.167 HD
ATOM     64  C   UNL A   1      45.362  30.031  30.529  1.00  0.00     0.074 A 
ATOM     65  C   UNL A   1      46.767  30.209  30.834  1.00  0.00     0.031 C 
ATOM     66  C   UNL A   1      44.406  30.964  30.759  1.00  0.00     0.037 A 
BRANCH  53  67
ATOM     67  C   UNL A   1      38.712  29.230  29.065  1.00  0.00     0.057 A 
ATOM     68  C   UNL A   1      38.174  29.617  27.830  1.00  0.00     0.134 A 
ATOM     69  C   UNL A   1      37.845  29.199  30.164  1.00  0.00     0.134 A 
ATOM     70  F   UNL A   1      38.953  29.683  26.739  1.00  0.00    -0.206 F 
ATOM     71  C   UNL A   1      36.840  30.006  27.703  1.00  0.00     0.040 A 
ATOM     72  C   UNL A   1      36.500  29.555  30.043  1.00  0.00     0.040 A 
ATOM     73  F   UNL A   1      38.290  28.829  31.374  1.00  0.00    -0.206 F 
ATOM     74  C   UNL A   1      35.997  29.973  28.811  1.00  0.00     0.006 A 
ENDBRANCH  53  67
BRANCH  54  75
ATOM     75  C   UNL A   1      48.315  26.512  29.502  1.00  0.00     0.057 A 
ATOM     76  C   UNL A   1      48.849  25.817  30.593  1.00  0.00     0.134 A 
ATOM     77  C   UNL A   1      49.174  26.797  28.434  1.00  0.00     0.134 A 
ATOM     78  F   UNL A   1      48.078  25.530  31.653  1.00  0.00    -0.206 F 
ATOM     79  C   UNL A   1      50.189  25.427  30.628  1.00  0.00     0.040 A 
ATOM     80  C   UNL A   1      50.511  26.394  28.446  1.00  0.00     0.040 A 
ATOM     81  F   UNL A   1      48.720  27.450  27.356  1.00  0.00    -0.206 F 
ATOM     82  C   UNL A   1      51.023  25.710  29.548  1.00  0.00     0.006 A 
ENDBRANCH  54  75
BRANCH  66  83
ATOM     83  C   UNL A   1      44.846  32.249  31.394  1.00  0.00     0.057 A 
ATOM     84  C   UNL A   1      44.896  32.405  32.784  1.00  0.00     0.134 A 
ATOM     85  C   UNL A   1      45.267  33.326  30.603  1.00  0.00     0.134 A 
ATOM     86  F   UNL A   1      44.494  31.414  33.594  1.00  0.00    -0.206 F 
ATOM     87  C   UNL A   1      45.335  33.594  33.367  1.00  0.00     0.040 A 
ATOM     88  C   UNL A   1      45.729  34.511  31.175  1.00  0.00     0.040 A 
ATOM     89  F   UNL A   1      45.250  33.235  29.264  1.00  0.00    -0.206 F 
ATOM     90  C   UNL A   1      45.760  34.649  32.561  1.00  0.00     0.006 A 
ENDBRANCH  66  83
ENDBRANCH  40  41
ENDBRANCH  32  35
ENDBRANCH  30  31
ENDBRANCH  29  30
ENDBRANCH   1  29
TORSDOF 16
ENDMDL
MODEL 2
REMARK VINA RESULT:     -11.6      2.291      7.310
REMARK SMILES CCc1cccc(CC)c1NC(=O)C[C@@](C)(C(=O)NCCCNC(=O)c1ccc(-c2c3nc(c(-c4c(F)cccc4F)c4ccc([nH]4)c(-c4c(F)cccc4F)c4nc(c(-c5c(F)cccc5F)c5ccc2[nH]5)C=C4)C=C3)cc1)c1ccccc1
REMARK SMILES IDX 20 1 19 2 17 3 18 4 15 6 16 7 14 8 12 9 11 10 13 12 10 13
REMARK SMILES IDX 3 14 4 15 5 16 7 17 6 18 2 19 1 20 8 21 9 22 80 23 81 24
REMARK SMILES IDX 85 25 82 26 84 27 83 28 21 29 22 30 23 31 24 32 25 34 26 35
REMARK SMILES IDX 27 36 79 37 28 38 78 39 29 40 30 41 31 42 72 43 32 44 77 45
REMARK SMILES IDX 71 46 73 47 33 48 76 49 70 50 69 51 34 53 60 54 43 55 59 56
REMARK SMILES IDX 44 57 47 58 58 59 74 60 45 61 46 62 57 64 75 65 48 66 35 67
REMARK SMILES IDX 36 68 41 69 37 70 38 71 40 72 42 73 39 74 61 75 62 76 67 77
REMARK SMILES IDX 63 78 64 79 66 80 68 81 65 82 49 83 50 84 55 85 51 86 52 87
REMARK SMILES IDX 54 88 56 89 53 90
REMARK H PARENT 19 5 11 11 23 33 73 52 47 63
REMARK Flexibility Score: inf
ROOT
ATOM      1  C   UNL A   1      31.591  28.082  27.075  1.00  0.00     0.117 C 
ENDROOT
BRANCH   1   2
ATOM      2  N   UNL A   1      31.166  27.936  25.690  1.00  0.00    -0.355 N 
ATOM      3  C   UNL A   1      31.244  27.182  24.578  1.00  0.00     0.230 C 
ATOM      4  O   UNL A   1      30.331  27.544  23.812  1.00  0.00    -0.274 OA
ATOM      5  H   UNL A   1      30.583  28.701  25.482  1.00  0.00     0.163 HD
BRANCH   3   6
ATOM      6  C   UNL A   1      32.273  26.047  24.111  1.00  0.00     0.080 C 
ATOM      7  C   UNL A   1      33.774  26.324  24.321  1.00  0.00     0.027 C 
BRANCH   6   8
ATOM      8  C   UNL A   1      31.975  25.735  22.617  1.00  0.00     0.121 C 
BRANCH   8   9
ATOM      9  C   UNL A   1      32.913  24.826  21.842  1.00  0.00     0.225 C 
ATOM     10  N   UNL A   1      33.429  23.608  22.124  1.00  0.00    -0.326 N 
ATOM     11  H   UNL A   1      33.925  23.344  21.316  1.00  0.00     0.169 HD
ATOM     12  O   UNL A   1      33.325  25.271  20.752  1.00  0.00    -0.275 OA
BRANCH  10  13
ATOM     13  C   UNL A   1      33.592  22.527  23.034  1.00  0.00     0.047 A 
ATOM     14  C   UNL A   1      34.680  22.655  23.970  1.00  0.00    -0.024 A 
ATOM     15  C   UNL A   1      34.859  21.681  24.995  1.00  0.00     0.006 A 
ATOM     16  C   UNL A   1      34.017  20.602  25.145  1.00  0.00     0.001 A 
ATOM     17  C   UNL A   1      32.799  21.359  23.162  1.00  0.00    -0.024 A 
ATOM     18  C   UNL A   1      33.002  20.447  24.234  1.00  0.00     0.006 A 
BRANCH  14  19
ATOM     19  C   UNL A   1      35.869  23.628  23.945  1.00  0.00     0.034 C 
ATOM     20  C   UNL A   1      37.052  23.577  24.897  1.00  0.00     0.009 C 
ENDBRANCH  14  19
BRANCH  17  21
ATOM     21  C   UNL A   1      31.758  20.841  22.223  1.00  0.00     0.034 C 
ATOM     22  C   UNL A   1      32.067  19.401  21.765  1.00  0.00     0.009 C 
ENDBRANCH  17  21
ENDBRANCH  10  13
ENDBRANCH   8   9
ENDBRANCH   6   8
BRANCH   6  23
ATOM     23  C   UNL A   1      32.089  24.860  25.142  1.00  0.00    -0.032 A 
ATOM     24  C   UNL A   1      32.900  24.617  26.252  1.00  0.00     0.005 A 
ATOM     25  C   UNL A   1      30.969  23.997  24.958  1.00  0.00     0.005 A 
ATOM     26  C   UNL A   1      32.590  23.573  27.141  1.00  0.00     0.000 A 
ATOM     27  C   UNL A   1      30.662  22.965  25.840  1.00  0.00     0.000 A 
ATOM     28  C   UNL A   1      31.474  22.756  26.940  1.00  0.00     0.000 A 
ENDBRANCH   6  23
ENDBRANCH   3   6
ENDBRANCH   1   2
BRANCH   1  29
ATOM     29  C   UNL A   1      33.095  28.058  27.333  1.00  0.00     0.042 C 
BRANCH  29  30
ATOM     30  C   UNL A   1      33.788  29.317  26.802  1.00  0.00     0.118 C 
BRANCH  30  31
ATOM     31  N   UNL A   1      33.718  30.493  27.661  1.00  0.00    -0.352 N 
ATOM     32  C   UNL A   1      34.693  30.992  28.511  1.00  0.00     0.251 C 
ATOM     33  H   UNL A   1      32.873  30.996  27.635  1.00  0.00     0.163 HD
ATOM     34  O   UNL A   1      34.464  31.966  29.209  1.00  0.00    -0.269 OA
BRANCH  32  35
ATOM     35  C   UNL A   1      36.004  30.299  28.607  1.00  0.00     0.039 A 
ATOM     36  C   UNL A   1      36.891  30.359  27.528  1.00  0.00     0.014 A 
ATOM     37  C   UNL A   1      36.375  29.631  29.773  1.00  0.00     0.014 A 
ATOM     38  C   UNL A   1      38.184  29.841  27.661  1.00  0.00     0.010 A 
ATOM     39  C   UNL A   1      37.688  29.206  29.940  1.00  0.00     0.010 A 
ATOM     40  C   UNL A   1      38.610  29.308  28.888  1.00  0.00    -0.014 A 
BRANCH  40  41
ATOM     41  C   UNL A   1      40.006  28.845  29.109  1.00  0.00     0.031 A 
ATOM     42  C   UNL A   1      41.027  29.790  29.683  1.00  0.00     0.074 A 
ATOM     43  C   UNL A   1      40.382  27.622  28.689  1.00  0.00     0.049 A 
ATOM     44  N   UNL A   1      42.320  29.635  29.815  1.00  0.00    -0.248 NA
ATOM     45  C   UNL A   1      40.534  31.107  30.117  1.00  0.00     0.031 C 
ATOM     46  C   UNL A   1      39.508  26.639  28.045  1.00  0.00     0.029 A 
ATOM     47  N   UNL A   1      41.607  27.003  28.723  1.00  0.00    -0.354 N 
ATOM     48  C   UNL A   1      42.795  30.844  30.306  1.00  0.00     0.074 A 
ATOM     49  C   UNL A   1      41.663  31.741  30.390  1.00  0.00     0.031 C 
ATOM     50  C   UNL A   1      40.218  25.534  27.766  1.00  0.00     0.029 A 
ATOM     51  C   UNL A   1      41.602  25.739  28.180  1.00  0.00     0.049 A 
ATOM     52  H   UNL A   1      42.413  27.424  29.100  1.00  0.00     0.167 HD
ATOM     53  C   UNL A   1      44.054  31.172  30.683  1.00  0.00     0.037 A 
ATOM     54  C   UNL A   1      42.601  24.850  28.032  1.00  0.00     0.037 A 
ATOM     55  C   UNL A   1      45.165  30.260  30.650  1.00  0.00     0.049 A 
ATOM     56  C   UNL A   1      43.977  25.207  28.519  1.00  0.00     0.074 A 
ATOM     57  C   UNL A   1      46.464  30.461  31.084  1.00  0.00     0.029 A 
ATOM     58  N   UNL A   1      45.103  28.962  30.162  1.00  0.00    -0.354 N 
ATOM     59  N   UNL A   1      44.399  26.331  29.045  1.00  0.00    -0.248 NA
ATOM     60  C   UNL A   1      45.012  24.171  28.402  1.00  0.00     0.031 C 
ATOM     61  C   UNL A   1      47.193  29.293  30.835  1.00  0.00     0.029 A 
ATOM     62  C   UNL A   1      46.340  28.352  30.279  1.00  0.00     0.049 A 
ATOM     63  H   UNL A   1      44.297  28.538  29.787  1.00  0.00     0.167 HD
ATOM     64  C   UNL A   1      45.742  26.132  29.341  1.00  0.00     0.074 A 
ATOM     65  C   UNL A   1      46.059  24.774  28.949  1.00  0.00     0.031 C 
ATOM     66  C   UNL A   1      46.632  26.996  29.887  1.00  0.00     0.037 A 
BRANCH  53  67
ATOM     67  C   UNL A   1      44.279  32.574  31.176  1.00  0.00     0.057 A 
ATOM     68  C   UNL A   1      44.655  33.609  30.309  1.00  0.00     0.134 A 
ATOM     69  C   UNL A   1      44.136  32.890  32.533  1.00  0.00     0.134 A 
ATOM     70  F   UNL A   1      44.825  33.372  28.999  1.00  0.00    -0.206 F 
ATOM     71  C   UNL A   1      44.927  34.895  30.780  1.00  0.00     0.040 A 
ATOM     72  C   UNL A   1      44.374  34.180  33.010  1.00  0.00     0.040 A 
ATOM     73  F   UNL A   1      43.770  31.950  33.417  1.00  0.00    -0.206 F 
ATOM     74  C   UNL A   1      44.783  35.184  32.134  1.00  0.00     0.006 A 
ENDBRANCH  53  67
BRANCH  54  75
ATOM     75  C   UNL A   1      42.319  23.519  27.440  1.00  0.00     0.057 A 
ATOM     76  C   UNL A   1      41.947  22.439  28.248  1.00  0.00     0.134 A 
ATOM     77  C   UNL A   1      42.385  23.299  26.059  1.00  0.00     0.134 A 
ATOM     78  F   UNL A   1      41.882  22.583  29.580  1.00  0.00    -0.206 F 
ATOM     79  C   UNL A   1      41.660  21.184  27.707  1.00  0.00     0.040 A 
ATOM     80  C   UNL A   1      42.081  22.056  25.502  1.00  0.00     0.040 A 
ATOM     81  F   UNL A   1      42.725  24.298  25.231  1.00  0.00    -0.206 F 
ATOM     82  C   UNL A   1      41.720  20.992  26.328  1.00  0.00     0.006 A 
ENDBRANCH  54  75
BRANCH  66  83
ATOM     83  C   UNL A   1      48.024  26.490  30.115  1.00  0.00     0.057 A 
ATOM     84  C   UNL A   1      49.029  26.638  29.153  1.00  0.00     0.134 A 
ATOM     85  C   UNL A   1      48.372  25.890  31.332  1.00  0.00     0.134 A 
ATOM     86  F   UNL A   1      48.754  27.193  27.962  1.00  0.00    -0.206 F 
ATOM     87  C   UNL A   1      50.330  26.190  29.385  1.00  0.00     0.040 A 
ATOM     88  C   UNL A   1      49.674  25.460  31.584  1.00  0.00     0.040 A 
ATOM     89  F   UNL A   1      47.455  25.727  32.298  1.00  0.00    -0.206 F 
ATOM     90  C   UNL A   1      50.657  25.605  30.608  1.00  0.00     0.006 A 
ENDBRANCH  66  83
ENDBRANCH  40  41
ENDBRANCH  32  35
ENDBRANCH  30  31
ENDBRANCH  29  30
ENDBRANCH   1  29
TORSDOF 16
ENDMDL
MODEL 3
REMARK VINA RESULT:     -11.5      0.409      6.095
REMARK SMILES CCc1cccc(CC)c1NC(=O)C[C@@](C)(C(=O)NCCCNC(=O)c1ccc(-c2c3nc(c(-c4c(F)cccc4F)c4ccc([nH]4)c(-c4c(F)cccc4F)c4nc(c(-c5c(F)cccc5F)c5ccc2[nH]5)C=C4)C=C3)cc1)c1ccccc1
REMARK SMILES IDX 20 1 19 2 17 3 18 4 15 6 16 7 14 8 12 9 11 10 13 12 10 13
REMARK SMILES IDX 3 14 4 15 5 16 7 17 6 18 2 19 1 20 8 21 9 22 80 23 81 24
REMARK SMILES IDX 85 25 82 26 84 27 83 28 21 29 22 30 23 31 24 32 25 34 26 35
REMARK SMILES IDX 27 36 79 37 28 38 78 39 29 40 30 41 31 42 72 43 32 44 77 45
REMARK SMILES IDX 71 46 73 47 33 48 76 49 70 50 69 51 34 53 60 54 43 55 59 56
REMARK SMILES IDX 44 57 47 58 58 59 74 60 45 61 46 62 57 64 75 65 48 66 35 67
REMARK SMILES IDX 36 68 41 69 37 70 38 71 40 72 42 73 39 74 61 75 62 76 67 77
REMARK SMILES IDX 63 78 64 79 66 80 68 81 65 82 49 83 50 84 55 85 51 86 52 87
REMARK SMILES IDX 54 88 56 89 53 90
REMARK H PARENT 19 5 11 11 23 33 73 52 47 63
REMARK Flexibility Score: inf
ROOT
ATOM      1  C   UNL A   1      35.971  21.473  25.417  1.00  0.00     0.117 C 
ENDROOT
BRANCH   1   2
ATOM      2  N   UNL A   1      34.736  21.473  24.646  1.00  0.00    -0.355 N 
ATOM      3  C   UNL A   1      33.655  22.186  24.281  1.00  0.00     0.230 C 
ATOM      4  O   UNL A   1      33.129  21.605  23.312  1.00  0.00    -0.274 OA
ATOM      5  H   UNL A   1      34.662  20.591  24.215  1.00  0.00     0.163 HD
BRANCH   3   6
ATOM      6  C   UNL A   1      32.973  23.503  24.886  1.00  0.00     0.080 C 
ATOM      7  C   UNL A   1      33.782  24.304  25.924  1.00  0.00     0.027 C 
BRANCH   6   8
ATOM      8  C   UNL A   1      31.592  23.087  25.466  1.00  0.00     0.121 C 
BRANCH   8   9
ATOM      9  C   UNL A   1      30.824  24.063  26.340  1.00  0.00     0.225 C 
ATOM     10  N   UNL A   1      30.457  25.351  26.149  1.00  0.00    -0.326 N 
ATOM     11  H   UNL A   1      29.905  25.581  26.931  1.00  0.00     0.169 HD
ATOM     12  O   UNL A   1      30.480  23.637  27.461  1.00  0.00    -0.275 OA
BRANCH  10  13
ATOM     13  C   UNL A   1      30.489  26.530  25.353  1.00  0.00     0.047 A 
ATOM     14  C   UNL A   1      31.540  27.466  25.664  1.00  0.00    -0.024 A 
ATOM     15  C   UNL A   1      31.727  28.623  24.852  1.00  0.00     0.006 A 
ATOM     16  C   UNL A   1      30.941  28.892  23.754  1.00  0.00     0.001 A 
ATOM     17  C   UNL A   1      29.644  26.882  24.271  1.00  0.00    -0.024 A 
ATOM     18  C   UNL A   1      29.911  28.028  23.474  1.00  0.00     0.006 A 
BRANCH  14  19
ATOM     19  C   UNL A   1      32.440  27.534  26.906  1.00  0.00     0.034 C 
ATOM     20  C   UNL A   1      32.902  28.818  27.575  1.00  0.00     0.009 C 
ENDBRANCH  14  19
BRANCH  17  21
ATOM     21  C   UNL A   1      28.359  26.242  23.855  1.00  0.00     0.034 C 
ATOM     22  C   UNL A   1      27.213  27.269  23.763  1.00  0.00     0.009 C 
ENDBRANCH  17  21
ENDBRANCH  10  13
ENDBRANCH   8   9
ENDBRANCH   6   8
BRANCH   6  23
ATOM     23  C   UNL A   1      32.966  24.556  23.704  1.00  0.00    -0.032 A 
ATOM     24  C   UNL A   1      32.051  24.585  22.649  1.00  0.00     0.005 A 
ATOM     25  C   UNL A   1      33.939  25.597  23.745  1.00  0.00     0.005 A 
ATOM     26  C   UNL A   1      32.101  25.619  21.697  1.00  0.00     0.000 A 
ATOM     27  C   UNL A   1      33.986  26.621  22.804  1.00  0.00     0.000 A 
ATOM     28  C   UNL A   1      33.058  26.634  21.778  1.00  0.00     0.000 A 
ENDBRANCH   6  23
ENDBRANCH   3   6
ENDBRANCH   1   2
BRANCH   1  29
ATOM     29  C   UNL A   1      37.124  20.646  24.858  1.00  0.00     0.042 C 
BRANCH  29  30
ATOM     30  C   UNL A   1      38.422  20.862  25.644  1.00  0.00     0.118 C 
BRANCH  30  31
ATOM     31  N   UNL A   1      39.381  19.765  25.602  1.00  0.00    -0.352 N 
ATOM     32  C   UNL A   1      40.710  19.776  25.996  1.00  0.00     0.251 C 
ATOM     33  H   UNL A   1      39.043  18.910  25.253  1.00  0.00     0.163 HD
ATOM     34  O   UNL A   1      41.403  18.782  25.853  1.00  0.00    -0.269 OA
BRANCH  32  35
ATOM     35  C   UNL A   1      41.301  21.023  26.545  1.00  0.00     0.039 A 
ATOM     36  C   UNL A   1      41.909  21.933  25.675  1.00  0.00     0.014 A 
ATOM     37  C   UNL A   1      41.219  21.315  27.906  1.00  0.00     0.014 A 
ATOM     38  C   UNL A   1      42.336  23.176  26.156  1.00  0.00     0.010 A 
ATOM     39  C   UNL A   1      41.550  22.585  28.364  1.00  0.00     0.010 A 
ATOM     40  C   UNL A   1      42.110  23.533  27.494  1.00  0.00    -0.014 A 
BRANCH  40  41
ATOM     41  C   UNL A   1      42.447  24.881  28.023  1.00  0.00     0.031 A 
ATOM     42  C   UNL A   1      43.854  25.184  28.462  1.00  0.00     0.074 A 
ATOM     43  C   UNL A   1      41.471  25.789  28.219  1.00  0.00     0.049 A 
ATOM     44  N   UNL A   1      44.322  26.235  29.085  1.00  0.00    -0.248 NA
ATOM     45  C   UNL A   1      44.860  24.139  28.213  1.00  0.00     0.031 C 
ATOM     46  C   UNL A   1      40.053  25.591  27.911  1.00  0.00     0.029 A 
ATOM     47  N   UNL A   1      41.521  27.056  28.745  1.00  0.00    -0.354 N 
ATOM     48  C   UNL A   1      45.660  25.960  29.335  1.00  0.00     0.074 A 
ATOM     49  C   UNL A   1      45.913  24.619  28.854  1.00  0.00     0.031 C 
ATOM     50  C   UNL A   1      39.373  26.705  28.231  1.00  0.00     0.029 A 
ATOM     51  C   UNL A   1      40.298  27.682  28.796  1.00  0.00     0.049 A 
ATOM     52  H   UNL A   1      42.355  27.477  29.057  1.00  0.00     0.167 HD
ATOM     53  C   UNL A   1      46.603  26.759  29.889  1.00  0.00     0.037 A 
ATOM     54  C   UNL A   1      39.962  28.903  29.250  1.00  0.00     0.037 A 
ATOM     55  C   UNL A   1      46.360  28.111  30.316  1.00  0.00     0.049 A 
ATOM     56  C   UNL A   1      41.034  29.802  29.798  1.00  0.00     0.074 A 
ATOM     57  C   UNL A   1      47.260  29.037  30.814  1.00  0.00     0.029 A 
ATOM     58  N   UNL A   1      45.120  28.735  30.282  1.00  0.00    -0.354 N 
ATOM     59  N   UNL A   1      42.311  29.553  29.968  1.00  0.00    -0.248 NA
ATOM     60  C   UNL A   1      40.624  31.151  30.208  1.00  0.00     0.031 C 
ATOM     61  C   UNL A   1      46.559  30.212  31.105  1.00  0.00     0.029 A 
ATOM     62  C   UNL A   1      45.231  30.032  30.755  1.00  0.00     0.049 A 
ATOM     63  H   UNL A   1      44.286  28.317  29.968  1.00  0.00     0.167 HD
ATOM     64  C   UNL A   1      42.860  30.720  30.483  1.00  0.00     0.074 A 
ATOM     65  C   UNL A   1      41.780  31.680  30.585  1.00  0.00     0.031 C 
ATOM     66  C   UNL A   1      44.142  30.972  30.842  1.00  0.00     0.037 A 
BRANCH  53  67
ATOM     67  C   UNL A   1      47.983  26.185  30.045  1.00  0.00     0.057 A 
ATOM     68  C   UNL A   1      48.425  25.647  31.262  1.00  0.00     0.134 A 
ATOM     69  C   UNL A   1      48.886  26.186  28.975  1.00  0.00     0.134 A 
ATOM     70  F   UNL A   1      47.616  25.629  32.332  1.00  0.00    -0.206 F 
ATOM     71  C   UNL A   1      49.728  25.174  31.422  1.00  0.00     0.040 A 
ATOM     72  C   UNL A   1      50.182  25.686  29.114  1.00  0.00     0.040 A 
ATOM     73  F   UNL A   1      48.527  26.678  27.780  1.00  0.00    -0.206 F 
ATOM     74  C   UNL A   1      50.611  25.190  30.344  1.00  0.00     0.006 A 
ENDBRANCH  53  67
BRANCH  54  75
ATOM     75  C   UNL A   1      38.553  29.361  29.155  1.00  0.00     0.057 A 
ATOM     76  C   UNL A   1      38.020  29.793  27.935  1.00  0.00     0.134 A 
ATOM     77  C   UNL A   1      37.701  29.352  30.265  1.00  0.00     0.134 A 
ATOM     78  F   UNL A   1      38.792  29.838  26.839  1.00  0.00    -0.206 F 
ATOM     79  C   UNL A   1      36.692  30.209  27.823  1.00  0.00     0.040 A 
ATOM     80  C   UNL A   1      36.366  29.746  30.164  1.00  0.00     0.040 A 
ATOM     81  F   UNL A   1      38.150  28.939  31.459  1.00  0.00    -0.206 F 
ATOM     82  C   UNL A   1      35.858  30.180  28.940  1.00  0.00     0.006 A 
ENDBRANCH  54  75
BRANCH  66  83
ATOM     83  C   UNL A   1      44.451  32.348  31.352  1.00  0.00     0.057 A 
ATOM     84  C   UNL A   1      44.410  32.654  32.717  1.00  0.00     0.134 A 
ATOM     85  C   UNL A   1      44.838  33.364  30.469  1.00  0.00     0.134 A 
ATOM     86  F   UNL A   1      44.034  31.726  33.611  1.00  0.00    -0.206 F 
ATOM     87  C   UNL A   1      44.728  33.929  33.186  1.00  0.00     0.040 A 
ATOM     88  C   UNL A   1      45.181  34.635  30.929  1.00  0.00     0.040 A 
ATOM     89  F   UNL A   1      44.905  33.130  29.149  1.00  0.00    -0.206 F 
ATOM     90  C   UNL A   1      45.122  34.922  32.291  1.00  0.00     0.006 A 
ENDBRANCH  66  83
ENDBRANCH  40  41
ENDBRANCH  32  35
ENDBRANCH  30  31
ENDBRANCH  29  30
ENDBRANCH   1  29
TORSDOF 16
ENDMDL
