MODEL 1
REMARK VINA RESULT:     -10.1      0.000      0.000
REMARK SMILES CCCC[C@@H](Sc1nc(OCCC2CCCCC2)cc(OCCC2CCCCC2)n1)C(=O)NCCCNC(=O)c1ccc(-c2c3nc(c(-c4c(F)cccc4F)c4ccc([nH]4)c(-c4c(F)cccc4F)c4nc(c(-c5c(F)cccc5F)c5ccc2[nH]5)C=C4)C=C3)cc1
REMARK SMILES IDX 31 1 32 2 33 3 5 5 4 6 3 7 2 8 1 9 6 10 7 11 8 12 30 13 9 14
REMARK SMILES IDX 20 15 19 16 10 17 11 18 12 19 13 20 14 21 18 22 15 23 17 24
REMARK SMILES IDX 16 25 21 26 22 27 23 28 24 29 25 30 29 31 26 32 28 33 27 34
REMARK SMILES IDX 34 35 35 36 36 37 37 38 38 39 39 41 40 42 41 43 93 44 42 45
REMARK SMILES IDX 92 46 43 47 44 48 45 49 86 50 46 51 91 52 85 53 87 54 47 55
REMARK SMILES IDX 90 56 84 57 83 58 48 60 74 61 57 62 73 63 58 64 61 65 72 66
REMARK SMILES IDX 88 67 59 68 60 69 71 71 89 72 62 73 49 74 50 75 55 76 51 77
REMARK SMILES IDX 52 78 54 79 56 80 53 81 75 82 76 83 81 84 77 85 78 86 80 87
REMARK SMILES IDX 82 88 79 89 63 90 64 91 69 92 65 93 66 94 68 95 70 96 67 97
REMARK H PARENT 33 4 37 40 87 59 61 70
REMARK Flexibility Score: inf
ROOT
ATOM      1  C   UNL A   1      39.506  29.343  29.259  1.00  0.00     0.233 C 
ATOM      2  O   UNL A   1      40.403  30.129  29.574  1.00  0.00    -0.274 OA
ATOM      3  N   UNL A   1      39.836  28.267  28.478  1.00  0.00    -0.355 N 
ATOM      4  H   UNL A   1      40.785  28.214  28.218  1.00  0.00     0.163 HD
ENDROOT
BRANCH   1   5
ATOM      5  C   UNL A   1      38.051  29.573  29.688  1.00  0.00     0.144 C 
BRANCH   5   6
ATOM      6  C   UNL A   1      37.945  29.202  31.186  1.00  0.00     0.025 C 
BRANCH   6   7
ATOM      7  C   UNL A   1      38.573  27.896  31.677  1.00  0.00     0.001 C 
BRANCH   7   8
ATOM      8  C   UNL A   1      39.644  27.991  32.759  1.00  0.00    -0.003 C 
ATOM      9  C   UNL A   1      40.263  29.352  32.986  1.00  0.00     0.004 C 
ENDBRANCH   7   8
ENDBRANCH   6   7
ENDBRANCH   5   6
BRANCH   5  10
ATOM     10  S   UNL A   1      37.671  31.284  29.089  1.00  0.00    -0.073 SA
BRANCH  10  11
ATOM     11  C   UNL A   1      36.110  31.039  28.359  1.00  0.00     0.195 A 
ATOM     12  N   UNL A   1      35.268  32.071  28.423  1.00  0.00    -0.187 NA
ATOM     13  N   UNL A   1      35.852  29.840  27.827  1.00  0.00    -0.187 NA
ATOM     14  C   UNL A   1      34.047  31.883  27.933  1.00  0.00     0.221 A 
ATOM     15  C   UNL A   1      34.633  29.683  27.309  1.00  0.00     0.221 A 
ATOM     16  C   UNL A   1      33.683  30.675  27.386  1.00  0.00     0.136 A 
BRANCH  14  17
ATOM     17  O   UNL A   1      33.340  33.048  27.890  1.00  0.00    -0.477 OA
BRANCH  17  18
ATOM     18  C   UNL A   1      33.857  34.295  28.330  1.00  0.00     0.231 C 
BRANCH  18  19
ATOM     19  C   UNL A   1      33.073  35.082  29.413  1.00  0.00     0.045 C 
BRANCH  19  20
ATOM     20  C   UNL A   1      33.811  35.435  30.708  1.00  0.00    -0.008 C 
ATOM     21  C   UNL A   1      32.994  36.200  31.766  1.00  0.00     0.004 C 
ATOM     22  C   UNL A   1      34.377  34.195  31.397  1.00  0.00     0.004 C 
ATOM     23  C   UNL A   1      33.877  36.573  32.980  1.00  0.00     0.000 C 
ATOM     24  C   UNL A   1      35.393  34.654  32.417  1.00  0.00     0.000 C 
ATOM     25  C   UNL A   1      34.705  35.410  33.530  1.00  0.00     0.000 C 
ENDBRANCH  19  20
ENDBRANCH  18  19
ENDBRANCH  17  18
ENDBRANCH  14  17
BRANCH  15  26
ATOM     26  O   UNL A   1      34.452  28.454  26.740  1.00  0.00    -0.477 OA
BRANCH  26  27
ATOM     27  C   UNL A   1      33.853  28.330  25.450  1.00  0.00     0.231 C 
BRANCH  27  28
ATOM     28  C   UNL A   1      32.795  27.213  25.413  1.00  0.00     0.045 C 
BRANCH  28  29
ATOM     29  C   UNL A   1      31.314  27.634  25.199  1.00  0.00    -0.008 C 
ATOM     30  C   UNL A   1      31.176  29.052  24.613  1.00  0.00     0.004 C 
ATOM     31  C   UNL A   1      30.498  26.506  24.546  1.00  0.00     0.004 C 
ATOM     32  C   UNL A   1      30.115  29.310  23.547  1.00  0.00     0.000 C 
ATOM     33  C   UNL A   1      29.234  26.968  23.837  1.00  0.00     0.000 C 
ATOM     34  C   UNL A   1      29.555  28.080  22.869  1.00  0.00     0.000 C 
ENDBRANCH  28  29
ENDBRANCH  27  28
ENDBRANCH  26  27
ENDBRANCH  15  26
ENDBRANCH  10  11
ENDBRANCH   5  10
ENDBRANCH   1   5
BRANCH   3  35
ATOM     35  C   UNL A   1      38.995  27.186  27.974  1.00  0.00     0.117 C 
BRANCH  35  36
ATOM     36  C   UNL A   1      39.725  25.857  27.977  1.00  0.00     0.042 C 
BRANCH  36  37
ATOM     37  C   UNL A   1      39.729  25.204  26.611  1.00  0.00     0.118 C 
BRANCH  37  38
ATOM     38  N   UNL A   1      40.456  23.939  26.610  1.00  0.00    -0.352 N 
ATOM     39  C   UNL A   1      41.793  23.706  26.437  1.00  0.00     0.251 C 
ATOM     40  H   UNL A   1      39.905  23.136  26.754  1.00  0.00     0.163 HD
ATOM     41  O   UNL A   1      42.204  22.564  26.228  1.00  0.00    -0.269 OA
BRANCH  39  42
ATOM     42  C   UNL A   1      42.736  24.836  26.487  1.00  0.00     0.039 A 
ATOM     43  C   UNL A   1      43.319  25.186  27.706  1.00  0.00     0.014 A 
ATOM     44  C   UNL A   1      43.059  25.532  25.320  1.00  0.00     0.014 A 
ATOM     45  C   UNL A   1      44.275  26.198  27.738  1.00  0.00     0.010 A 
ATOM     46  C   UNL A   1      44.090  26.457  25.334  1.00  0.00     0.010 A 
ATOM     47  C   UNL A   1      44.696  26.813  26.546  1.00  0.00    -0.014 A 
BRANCH  47  48
ATOM     48  C   UNL A   1      45.755  27.849  26.545  1.00  0.00     0.031 A 
ATOM     49  C   UNL A   1      45.382  29.298  26.689  1.00  0.00     0.074 A 
ATOM     50  C   UNL A   1      47.037  27.487  26.348  1.00  0.00     0.049 A 
ATOM     51  N   UNL A   1      46.151  30.356  26.646  1.00  0.00    -0.248 NA
ATOM     52  C   UNL A   1      43.953  29.603  26.870  1.00  0.00     0.031 C 
ATOM     53  C   UNL A   1      47.509  26.116  26.139  1.00  0.00     0.029 A 
ATOM     54  N   UNL A   1      48.178  28.245  26.282  1.00  0.00    -0.354 N 
ATOM     55  C   UNL A   1      45.299  31.444  26.779  1.00  0.00     0.074 A 
ATOM     56  C   UNL A   1      43.950  30.926  26.836  1.00  0.00     0.031 C 
ATOM     57  C   UNL A   1      48.844  26.129  26.000  1.00  0.00     0.029 A 
ATOM     58  C   UNL A   1      49.315  27.507  26.064  1.00  0.00     0.049 A 
ATOM     59  H   UNL A   1      48.180  29.224  26.381  1.00  0.00     0.167 HD
ATOM     60  C   UNL A   1      45.614  32.757  26.875  1.00  0.00     0.037 A 
ATOM     61  C   UNL A   1      50.594  27.903  25.925  1.00  0.00     0.037 A 
ATOM     62  C   UNL A   1      46.960  33.261  26.840  1.00  0.00     0.049 A 
ATOM     63  C   UNL A   1      50.918  29.368  26.027  1.00  0.00     0.074 A 
ATOM     64  C   UNL A   1      47.396  34.566  26.990  1.00  0.00     0.029 A 
ATOM     65  N   UNL A   1      48.090  32.483  26.635  1.00  0.00    -0.354 N 
ATOM     66  N   UNL A   1      50.111  30.381  26.231  1.00  0.00    -0.248 NA
ATOM     67  C   UNL A   1      52.331  29.743  25.885  1.00  0.00     0.031 C 
ATOM     68  C   UNL A   1      48.783  34.584  26.821  1.00  0.00     0.029 A 
ATOM     69  C   UNL A   1      49.220  33.283  26.626  1.00  0.00     0.049 A 
ATOM     70  H   UNL A   1      48.088  31.505  26.512  1.00  0.00     0.167 HD
ATOM     71  C   UNL A   1      50.920  31.510  26.273  1.00  0.00     0.074 A 
ATOM     72  C   UNL A   1      52.282  31.052  26.088  1.00  0.00     0.031 C 
ATOM     73  C   UNL A   1      50.569  32.807  26.447  1.00  0.00     0.037 A 
BRANCH  60  74
ATOM     74  C   UNL A   1      44.483  33.733  27.028  1.00  0.00     0.057 A 
ATOM     75  C   UNL A   1      43.995  34.113  28.285  1.00  0.00     0.134 A 
ATOM     76  C   UNL A   1      43.892  34.323  25.903  1.00  0.00     0.134 A 
ATOM     77  F   UNL A   1      44.506  33.575  29.405  1.00  0.00    -0.206 F 
ATOM     78  C   UNL A   1      42.942  35.019  28.419  1.00  0.00     0.040 A 
ATOM     79  C   UNL A   1      42.859  35.255  26.024  1.00  0.00     0.040 A 
ATOM     80  F   UNL A   1      44.312  34.009  24.668  1.00  0.00    -0.206 F 
ATOM     81  C   UNL A   1      42.376  35.600  27.285  1.00  0.00     0.006 A 
ENDBRANCH  60  74
BRANCH  61  82
ATOM     82  C   UNL A   1      51.663  26.898  25.695  1.00  0.00     0.057 A 
ATOM     83  C   UNL A   1      52.288  26.250  26.766  1.00  0.00     0.134 A 
ATOM     84  C   UNL A   1      52.091  26.567  24.404  1.00  0.00     0.134 A 
ATOM     85  F   UNL A   1      51.934  26.534  28.028  1.00  0.00    -0.206 F 
ATOM     86  C   UNL A   1      53.314  25.325  26.563  1.00  0.00     0.040 A 
ATOM     87  C   UNL A   1      53.096  25.624  24.185  1.00  0.00     0.040 A 
ATOM     88  F   UNL A   1      51.525  27.145  23.334  1.00  0.00    -0.206 F 
ATOM     89  C   UNL A   1      53.717  25.007  25.268  1.00  0.00     0.006 A 
ENDBRANCH  61  82
BRANCH  73  90
ATOM     90  C   UNL A   1      51.676  33.820  26.487  1.00  0.00     0.057 A 
ATOM     91  C   UNL A   1      52.328  34.160  27.679  1.00  0.00     0.134 A 
ATOM     92  C   UNL A   1      52.122  34.433  25.308  1.00  0.00     0.134 A 
ATOM     93  F   UNL A   1      51.943  33.618  28.844  1.00  0.00    -0.206 F 
ATOM     94  C   UNL A   1      53.367  35.091  27.701  1.00  0.00     0.040 A 
ATOM     95  C   UNL A   1      53.180  35.342  25.313  1.00  0.00     0.040 A 
ATOM     96  F   UNL A   1      51.547  34.145  24.131  1.00  0.00    -0.206 F 
ATOM     97  C   UNL A   1      53.801  35.680  26.514  1.00  0.00     0.006 A 
ENDBRANCH  73  90
ENDBRANCH  47  48
ENDBRANCH  39  42
ENDBRANCH  37  38
ENDBRANCH  36  37
ENDBRANCH  35  36
ENDBRANCH   3  35
TORSDOF 23
ENDMDL
MODEL 2
REMARK VINA RESULT:      -9.9      0.718      5.953
REMARK SMILES CCCC[C@@H](Sc1nc(OCCC2CCCCC2)cc(OCCC2CCCCC2)n1)C(=O)NCCCNC(=O)c1ccc(-c2c3nc(c(-c4c(F)cccc4F)c4ccc([nH]4)c(-c4c(F)cccc4F)c4nc(c(-c5c(F)cccc5F)c5ccc2[nH]5)C=C4)C=C3)cc1
REMARK SMILES IDX 31 1 32 2 33 3 5 5 4 6 3 7 2 8 1 9 6 10 7 11 8 12 30 13 9 14
REMARK SMILES IDX 20 15 19 16 10 17 11 18 12 19 13 20 14 21 18 22 15 23 17 24
REMARK SMILES IDX 16 25 21 26 22 27 23 28 24 29 25 30 29 31 26 32 28 33 27 34
REMARK SMILES IDX 34 35 35 36 36 37 37 38 38 39 39 41 40 42 41 43 93 44 42 45
REMARK SMILES IDX 92 46 43 47 44 48 45 49 86 50 46 51 91 52 85 53 87 54 47 55
REMARK SMILES IDX 90 56 84 57 83 58 48 60 74 61 57 62 73 63 58 64 61 65 72 66
REMARK SMILES IDX 88 67 59 68 60 69 71 71 89 72 62 73 49 74 50 75 55 76 51 77
REMARK SMILES IDX 52 78 54 79 56 80 53 81 75 82 76 83 81 84 77 85 78 86 80 87
REMARK SMILES IDX 82 88 79 89 63 90 64 91 69 92 65 93 66 94 68 95 70 96 67 97
REMARK H PARENT 33 4 37 40 87 59 61 70
REMARK Flexibility Score: inf
ROOT
ATOM      1  C   UNL A   1      39.438  29.233  29.381  1.00  0.00     0.233 C 
ATOM      2  O   UNL A   1      40.158  30.119  29.847  1.00  0.00    -0.274 OA
ATOM      3  N   UNL A   1      40.044  28.144  28.809  1.00  0.00    -0.355 N 
ATOM      4  H   UNL A   1      41.028  28.165  28.810  1.00  0.00     0.163 HD
ENDROOT
BRANCH   1   5
ATOM      5  C   UNL A   1      37.908  29.351  29.397  1.00  0.00     0.144 C 
BRANCH   5   6
ATOM      6  C   UNL A   1      37.419  28.847  30.775  1.00  0.00     0.025 C 
BRANCH   6   7
ATOM      7  C   UNL A   1      37.666  29.708  32.015  1.00  0.00     0.001 C 
BRANCH   7   8
ATOM      8  C   UNL A   1      36.564  30.676  32.433  1.00  0.00    -0.003 C 
ATOM      9  C   UNL A   1      36.955  32.130  32.578  1.00  0.00     0.004 C 
ENDBRANCH   7   8
ENDBRANCH   6   7
ENDBRANCH   5   6
BRANCH   5  10
ATOM     10  S   UNL A   1      37.586  31.086  28.835  1.00  0.00    -0.073 SA
BRANCH  10  11
ATOM     11  C   UNL A   1      35.968  30.936  28.213  1.00  0.00     0.195 A 
ATOM     12  N   UNL A   1      35.202  32.023  28.313  1.00  0.00    -0.187 NA
ATOM     13  N   UNL A   1      35.596  29.750  27.720  1.00  0.00    -0.187 NA
ATOM     14  C   UNL A   1      33.941  31.909  27.907  1.00  0.00     0.221 A 
ATOM     15  C   UNL A   1      34.338  29.667  27.285  1.00  0.00     0.221 A 
ATOM     16  C   UNL A   1      33.463  30.721  27.407  1.00  0.00     0.136 A 
BRANCH  14  17
ATOM     17  O   UNL A   1      33.311  33.119  27.889  1.00  0.00    -0.477 OA
BRANCH  17  18
ATOM     18  C   UNL A   1      33.948  34.340  28.237  1.00  0.00     0.231 C 
BRANCH  18  19
ATOM     19  C   UNL A   1      33.115  35.428  28.965  1.00  0.00     0.045 C 
BRANCH  19  20
ATOM     20  C   UNL A   1      33.208  35.487  30.493  1.00  0.00    -0.008 C 
ATOM     21  C   UNL A   1      34.373  34.706  31.131  1.00  0.00     0.004 C 
ATOM     22  C   UNL A   1      33.308  36.923  31.003  1.00  0.00     0.004 C 
ATOM     23  C   UNL A   1      34.301  34.772  32.675  1.00  0.00     0.000 C 
ATOM     24  C   UNL A   1      33.006  36.914  32.483  1.00  0.00     0.000 C 
ATOM     25  C   UNL A   1      34.098  36.183  33.230  1.00  0.00     0.000 C 
ENDBRANCH  19  20
ENDBRANCH  18  19
ENDBRANCH  17  18
ENDBRANCH  14  17
BRANCH  15  26
ATOM     26  O   UNL A   1      34.039  28.446  26.752  1.00  0.00    -0.477 OA
BRANCH  26  27
ATOM     27  C   UNL A   1      33.299  28.345  25.535  1.00  0.00     0.231 C 
BRANCH  27  28
ATOM     28  C   UNL A   1      32.070  27.430  25.685  1.00  0.00     0.045 C 
BRANCH  28  29
ATOM     29  C   UNL A   1      31.259  27.101  24.402  1.00  0.00    -0.008 C 
ATOM     30  C   UNL A   1      30.018  26.234  24.687  1.00  0.00     0.004 C 
ATOM     31  C   UNL A   1      31.074  28.347  23.519  1.00  0.00     0.004 C 
ATOM     32  C   UNL A   1      28.719  26.536  23.945  1.00  0.00     0.000 C 
ATOM     33  C   UNL A   1      29.902  28.270  22.553  1.00  0.00     0.000 C 
ATOM     34  C   UNL A   1      28.640  27.898  23.292  1.00  0.00     0.000 C 
ENDBRANCH  28  29
ENDBRANCH  27  28
ENDBRANCH  26  27
ENDBRANCH  15  26
ENDBRANCH  10  11
ENDBRANCH   5  10
ENDBRANCH   1   5
BRANCH   3  35
ATOM     35  C   UNL A   1      39.449  26.958  28.202  1.00  0.00     0.117 C 
BRANCH  35  36
ATOM     36  C   UNL A   1      40.443  25.817  28.108  1.00  0.00     0.042 C 
BRANCH  36  37
ATOM     37  C   UNL A   1      40.412  25.141  26.753  1.00  0.00     0.118 C 
BRANCH  37  38
ATOM     38  N   UNL A   1      40.992  23.804  26.793  1.00  0.00    -0.352 N 
ATOM     39  C   UNL A   1      42.282  23.410  26.562  1.00  0.00     0.251 C 
ATOM     40  H   UNL A   1      40.365  23.079  27.018  1.00  0.00     0.163 HD
ATOM     41  O   UNL A   1      42.550  22.218  26.405  1.00  0.00    -0.269 OA
BRANCH  39  42
ATOM     42  C   UNL A   1      43.346  24.425  26.488  1.00  0.00     0.039 A 
ATOM     43  C   UNL A   1      43.661  24.996  25.255  1.00  0.00     0.014 A 
ATOM     44  C   UNL A   1      44.013  24.827  27.648  1.00  0.00     0.014 A 
ATOM     45  C   UNL A   1      44.607  26.018  25.199  1.00  0.00     0.010 A 
ATOM     46  C   UNL A   1      44.866  25.918  27.608  1.00  0.00     0.010 A 
ATOM     47  C   UNL A   1      45.186  26.512  26.380  1.00  0.00    -0.014 A 
BRANCH  47  48
ATOM     48  C   UNL A   1      46.148  27.638  26.354  1.00  0.00     0.031 A 
ATOM     49  C   UNL A   1      47.620  27.360  26.227  1.00  0.00     0.074 A 
ATOM     50  C   UNL A   1      45.700  28.898  26.513  1.00  0.00     0.049 A 
ATOM     51  N   UNL A   1      48.623  28.200  26.252  1.00  0.00    -0.248 NA
ATOM     52  C   UNL A   1      48.021  25.951  26.088  1.00  0.00     0.031 C 
ATOM     53  C   UNL A   1      44.298  29.282  26.703  1.00  0.00     0.029 A 
ATOM     54  N   UNL A   1      46.378  30.089  26.548  1.00  0.00    -0.354 N 
ATOM     55  C   UNL A   1      49.767  27.420  26.147  1.00  0.00     0.074 A 
ATOM     56  C   UNL A   1      49.341  26.038  26.127  1.00  0.00     0.031 C 
ATOM     57  C   UNL A   1      44.220  30.619  26.803  1.00  0.00     0.029 A 
ATOM     58  C   UNL A   1      45.564  31.180  26.730  1.00  0.00     0.049 A 
ATOM     59  H   UNL A   1      47.355  30.154  26.453  1.00  0.00     0.167 HD
ATOM     60  C   UNL A   1      51.056  27.821  26.048  1.00  0.00     0.037 A 
ATOM     61  C   UNL A   1      45.872  32.486  26.834  1.00  0.00     0.037 A 
ATOM     62  C   UNL A   1      51.468  29.198  26.046  1.00  0.00     0.049 A 
ATOM     63  C   UNL A   1      47.312  32.906  26.728  1.00  0.00     0.074 A 
ATOM     64  C   UNL A   1      52.741  29.716  25.888  1.00  0.00     0.029 A 
ATOM     65  N   UNL A   1      50.614  30.278  26.215  1.00  0.00    -0.354 N 
ATOM     66  N   UNL A   1      48.379  32.163  26.552  1.00  0.00    -0.248 NA
ATOM     67  C   UNL A   1      47.590  34.343  26.830  1.00  0.00     0.031 C 
ATOM     68  C   UNL A   1      52.665  31.106  26.017  1.00  0.00     0.029 A 
ATOM     69  C   UNL A   1      51.336  31.459  26.193  1.00  0.00     0.049 A 
ATOM     70  H   UNL A   1      49.638  30.214  26.333  1.00  0.00     0.167 HD
ATOM     71  C   UNL A   1      49.450  33.045  26.491  1.00  0.00     0.074 A 
ATOM     72  C   UNL A   1      48.900  34.378  26.634  1.00  0.00     0.031 C 
ATOM     73  C   UNL A   1      50.769  32.777  26.332  1.00  0.00     0.037 A 
BRANCH  60  74
ATOM     74  C   UNL A   1      52.107  26.754  25.931  1.00  0.00     0.057 A 
ATOM     75  C   UNL A   1      52.445  26.175  24.701  1.00  0.00     0.134 A 
ATOM     76  C   UNL A   1      52.812  26.320  27.062  1.00  0.00     0.134 A 
ATOM     77  F   UNL A   1      51.799  26.534  23.580  1.00  0.00    -0.206 F 
ATOM     78  C   UNL A   1      53.422  25.183  24.601  1.00  0.00     0.040 A 
ATOM     79  C   UNL A   1      53.813  25.351  26.971  1.00  0.00     0.040 A 
ATOM     80  F   UNL A   1      52.544  26.835  28.271  1.00  0.00    -0.206 F 
ATOM     81  C   UNL A   1      54.115  24.774  25.739  1.00  0.00     0.006 A 
ENDBRANCH  60  74
BRANCH  61  82
ATOM     82  C   UNL A   1      44.796  33.490  27.029  1.00  0.00     0.057 A 
ATOM     83  C   UNL A   1      44.363  33.846  28.311  1.00  0.00     0.134 A 
ATOM     84  C   UNL A   1      44.169  34.113  25.942  1.00  0.00     0.134 A 
ATOM     85  F   UNL A   1      44.913  33.274  29.393  1.00  0.00    -0.206 F 
ATOM     86  C   UNL A   1      43.332  34.768  28.507  1.00  0.00     0.040 A 
ATOM     87  C   UNL A   1      43.157  35.056  26.123  1.00  0.00     0.040 A 
ATOM     88  F   UNL A   1      44.545  33.824  24.688  1.00  0.00    -0.206 F 
ATOM     89  C   UNL A   1      42.729  35.379  27.410  1.00  0.00     0.006 A 
ENDBRANCH  61  82
BRANCH  73  90
ATOM     90  C   UNL A   1      51.705  33.949  26.264  1.00  0.00     0.057 A 
ATOM     91  C   UNL A   1      52.050  34.553  25.048  1.00  0.00     0.134 A 
ATOM     92  C   UNL A   1      52.235  34.505  27.435  1.00  0.00     0.134 A 
ATOM     93  F   UNL A   1      51.586  34.063  23.888  1.00  0.00    -0.206 F 
ATOM     94  C   UNL A   1      52.910  35.652  24.999  1.00  0.00     0.040 A 
ATOM     95  C   UNL A   1      53.070  35.622  27.402  1.00  0.00     0.040 A 
ATOM     96  F   UNL A   1      51.937  33.981  28.634  1.00  0.00    -0.206 F 
ATOM     97  C   UNL A   1      53.416  36.194  26.179  1.00  0.00     0.006 A 
ENDBRANCH  73  90
ENDBRANCH  47  48
ENDBRANCH  39  42
ENDBRANCH  37  38
ENDBRANCH  36  37
ENDBRANCH  35  36
ENDBRANCH   3  35
TORSDOF 23
ENDMDL
MODEL 3
REMARK VINA RESULT:      -9.5      1.169      5.026
REMARK SMILES CCCC[C@@H](Sc1nc(OCCC2CCCCC2)cc(OCCC2CCCCC2)n1)C(=O)NCCCNC(=O)c1ccc(-c2c3nc(c(-c4c(F)cccc4F)c4ccc([nH]4)c(-c4c(F)cccc4F)c4nc(c(-c5c(F)cccc5F)c5ccc2[nH]5)C=C4)C=C3)cc1
REMARK SMILES IDX 31 1 32 2 33 3 5 5 4 6 3 7 2 8 1 9 6 10 7 11 8 12 30 13 9 14
REMARK SMILES IDX 20 15 19 16 10 17 11 18 12 19 13 20 14 21 18 22 15 23 17 24
REMARK SMILES IDX 16 25 21 26 22 27 23 28 24 29 25 30 29 31 26 32 28 33 27 34
REMARK SMILES IDX 34 35 35 36 36 37 37 38 38 39 39 41 40 42 41 43 93 44 42 45
REMARK SMILES IDX 92 46 43 47 44 48 45 49 86 50 46 51 91 52 85 53 87 54 47 55
REMARK SMILES IDX 90 56 84 57 83 58 48 60 74 61 57 62 73 63 58 64 61 65 72 66
REMARK SMILES IDX 88 67 59 68 60 69 71 71 89 72 62 73 49 74 50 75 55 76 51 77
REMARK SMILES IDX 52 78 54 79 56 80 53 81 75 82 76 83 81 84 77 85 78 86 80 87
REMARK SMILES IDX 82 88 79 89 63 90 64 91 69 92 65 93 66 94 68 95 70 96 67 97
REMARK H PARENT 33 4 37 40 87 59 61 70
REMARK Flexibility Score: inf
ROOT
ATOM      1  C   UNL A   1      39.395  28.981  29.741  1.00  0.00     0.233 C 
ATOM      2  O   UNL A   1      40.232  29.881  29.841  1.00  0.00    -0.274 OA
ATOM      3  N   UNL A   1      39.840  27.684  29.745  1.00  0.00    -0.355 N 
ATOM      4  H   UNL A   1      40.816  27.577  29.820  1.00  0.00     0.163 HD
ENDROOT
BRANCH   1   5
ATOM      5  C   UNL A   1      37.901  29.288  29.575  1.00  0.00     0.144 C 
BRANCH   5   6
ATOM      6  C   UNL A   1      37.517  30.321  30.662  1.00  0.00     0.025 C 
BRANCH   6   7
ATOM      7  C   UNL A   1      37.068  29.824  32.037  1.00  0.00     0.001 C 
BRANCH   7   8
ATOM      8  C   UNL A   1      37.611  30.553  33.262  1.00  0.00    -0.003 C 
ATOM      9  C   UNL A   1      39.073  30.345  33.586  1.00  0.00     0.004 C 
ENDBRANCH   7   8
ENDBRANCH   6   7
ENDBRANCH   5   6
BRANCH   5  10
ATOM     10  S   UNL A   1      37.719  29.672  27.773  1.00  0.00    -0.073 SA
BRANCH  10  11
ATOM     11  C   UNL A   1      36.071  30.229  27.719  1.00  0.00     0.195 A 
ATOM     12  N   UNL A   1      35.143  29.287  27.549  1.00  0.00    -0.187 NA
ATOM     13  N   UNL A   1      35.853  31.544  27.812  1.00  0.00    -0.187 NA
ATOM     14  C   UNL A   1      33.883  29.696  27.436  1.00  0.00     0.221 A 
ATOM     15  C   UNL A   1      34.579  31.932  27.732  1.00  0.00     0.221 A 
ATOM     16  C   UNL A   1      33.566  31.033  27.497  1.00  0.00     0.136 A 
BRANCH  14  17
ATOM     17  O   UNL A   1      33.012  28.647  27.447  1.00  0.00    -0.477 OA
BRANCH  17  18
ATOM     18  C   UNL A   1      31.864  28.573  26.615  1.00  0.00     0.231 C 
BRANCH  18  19
ATOM     19  C   UNL A   1      31.965  27.786  25.281  1.00  0.00     0.045 C 
BRANCH  19  20
ATOM     20  C   UNL A   1      32.446  26.333  25.349  1.00  0.00    -0.008 C 
ATOM     21  C   UNL A   1      33.966  26.131  25.503  1.00  0.00     0.004 C 
ATOM     22  C   UNL A   1      31.781  25.565  26.489  1.00  0.00     0.004 C 
ATOM     23  C   UNL A   1      34.327  24.627  25.468  1.00  0.00     0.000 C 
ATOM     24  C   UNL A   1      32.004  24.090  26.248  1.00  0.00     0.000 C 
ATOM     25  C   UNL A   1      33.471  23.757  26.390  1.00  0.00     0.000 C 
ENDBRANCH  19  20
ENDBRANCH  18  19
ENDBRANCH  17  18
ENDBRANCH  14  17
BRANCH  15  26
ATOM     26  O   UNL A   1      34.424  33.281  27.882  1.00  0.00    -0.477 OA
BRANCH  26  27
ATOM     27  C   UNL A   1      35.115  33.982  28.916  1.00  0.00     0.231 C 
BRANCH  27  28
ATOM     28  C   UNL A   1      34.432  33.807  30.284  1.00  0.00     0.045 C 
BRANCH  28  29
ATOM     29  C   UNL A   1      35.304  33.287  31.461  1.00  0.00    -0.008 C 
ATOM     30  C   UNL A   1      36.734  33.859  31.441  1.00  0.00     0.004 C 
ATOM     31  C   UNL A   1      34.534  33.328  32.792  1.00  0.00     0.004 C 
ATOM     32  C   UNL A   1      37.385  34.266  32.760  1.00  0.00     0.000 C 
ATOM     33  C   UNL A   1      35.415  33.347  34.032  1.00  0.00     0.000 C 
ATOM     34  C   UNL A   1      36.441  34.448  33.927  1.00  0.00     0.000 C 
ENDBRANCH  28  29
ENDBRANCH  27  28
ENDBRANCH  26  27
ENDBRANCH  15  26
ENDBRANCH  10  11
ENDBRANCH   5  10
ENDBRANCH   1   5
BRANCH   3  35
ATOM     35  C   UNL A   1      39.085  26.439  29.657  1.00  0.00     0.117 C 
BRANCH  35  36
ATOM     36  C   UNL A   1      38.922  25.980  28.221  1.00  0.00     0.042 C 
BRANCH  36  37
ATOM     37  C   UNL A   1      40.250  25.878  27.499  1.00  0.00     0.118 C 
BRANCH  37  38
ATOM     38  N   UNL A   1      40.721  24.500  27.410  1.00  0.00    -0.352 N 
ATOM     39  C   UNL A   1      41.947  24.024  27.035  1.00  0.00     0.251 C 
ATOM     40  H   UNL A   1      40.060  23.813  27.654  1.00  0.00     0.163 HD
ATOM     41  O   UNL A   1      42.101  22.827  26.787  1.00  0.00    -0.269 OA
BRANCH  39  42
ATOM     42  C   UNL A   1      43.079  24.958  26.915  1.00  0.00     0.039 A 
ATOM     43  C   UNL A   1      43.408  25.476  25.661  1.00  0.00     0.014 A 
ATOM     44  C   UNL A   1      43.799  25.336  28.051  1.00  0.00     0.014 A 
ATOM     45  C   UNL A   1      44.423  26.425  25.562  1.00  0.00     0.010 A 
ATOM     46  C   UNL A   1      44.727  26.362  27.967  1.00  0.00     0.010 A 
ATOM     47  C   UNL A   1      45.062  26.903  26.719  1.00  0.00    -0.014 A 
BRANCH  47  48
ATOM     48  C   UNL A   1      46.101  27.956  26.646  1.00  0.00     0.031 A 
ATOM     49  C   UNL A   1      45.704  29.404  26.725  1.00  0.00     0.074 A 
ATOM     50  C   UNL A   1      47.385  27.608  26.442  1.00  0.00     0.049 A 
ATOM     51  N   UNL A   1      46.451  30.472  26.616  1.00  0.00    -0.248 NA
ATOM     52  C   UNL A   1      44.273  29.692  26.919  1.00  0.00     0.031 C 
ATOM     53  C   UNL A   1      47.880  26.237  26.292  1.00  0.00     0.029 A 
ATOM     54  N   UNL A   1      48.511  28.382  26.318  1.00  0.00    -0.354 N 
ATOM     55  C   UNL A   1      45.582  31.550  26.712  1.00  0.00     0.074 A 
ATOM     56  C   UNL A   1      44.245  31.011  26.820  1.00  0.00     0.031 C 
ATOM     57  C   UNL A   1      49.212  26.267  26.127  1.00  0.00     0.029 A 
ATOM     58  C   UNL A   1      49.658  27.655  26.115  1.00  0.00     0.049 A 
ATOM     59  H   UNL A   1      48.496  29.365  26.368  1.00  0.00     0.167 HD
ATOM     60  C   UNL A   1      45.874  32.872  26.736  1.00  0.00     0.037 A 
ATOM     61  C   UNL A   1      50.926  28.066  25.932  1.00  0.00     0.037 A 
ATOM     62  C   UNL A   1      47.210  33.397  26.651  1.00  0.00     0.049 A 
ATOM     63  C   UNL A   1      51.225  29.540  25.956  1.00  0.00     0.074 A 
ATOM     64  C   UNL A   1      47.623  34.715  26.729  1.00  0.00     0.029 A 
ATOM     65  N   UNL A   1      48.350  32.630  26.463  1.00  0.00    -0.354 N 
ATOM     66  N   UNL A   1      50.403  30.548  26.124  1.00  0.00    -0.248 NA
ATOM     67  C   UNL A   1      52.627  29.933  25.768  1.00  0.00     0.031 C 
ATOM     68  C   UNL A   1      49.007  34.750  26.532  1.00  0.00     0.029 A 
ATOM     69  C   UNL A   1      49.464  33.449  26.394  1.00  0.00     0.049 A 
ATOM     70  H   UNL A   1      48.364  31.648  26.389  1.00  0.00     0.167 HD
ATOM     71  C   UNL A   1      51.190  31.691  26.095  1.00  0.00     0.074 A 
ATOM     72  C   UNL A   1      52.558  31.249  25.908  1.00  0.00     0.031 C 
ATOM     73  C   UNL A   1      50.818  32.989  26.212  1.00  0.00     0.037 A 
BRANCH  60  74
ATOM     74  C   UNL A   1      44.728  33.833  26.863  1.00  0.00     0.057 A 
ATOM     75  C   UNL A   1      44.025  34.302  25.745  1.00  0.00     0.134 A 
ATOM     76  C   UNL A   1      44.302  34.276  28.122  1.00  0.00     0.134 A 
ATOM     77  F   UNL A   1      44.389  33.930  24.507  1.00  0.00    -0.206 F 
ATOM     78  C   UNL A   1      42.961  35.198  25.871  1.00  0.00     0.040 A 
ATOM     79  C   UNL A   1      43.220  35.146  28.264  1.00  0.00     0.040 A 
ATOM     80  F   UNL A   1      44.927  33.864  29.236  1.00  0.00    -0.206 F 
ATOM     81  C   UNL A   1      42.551  35.616  27.135  1.00  0.00     0.006 A 
ENDBRANCH  60  74
BRANCH  61  82
ATOM     82  C   UNL A   1      52.009  27.071  25.731  1.00  0.00     0.057 A 
ATOM     83  C   UNL A   1      52.345  26.615  24.451  1.00  0.00     0.134 A 
ATOM     84  C   UNL A   1      52.730  26.545  26.810  1.00  0.00     0.134 A 
ATOM     85  F   UNL A   1      51.681  27.069  23.377  1.00  0.00    -0.206 F 
ATOM     86  C   UNL A   1      53.341  25.657  24.252  1.00  0.00     0.040 A 
ATOM     87  C   UNL A   1      53.747  25.608  26.624  1.00  0.00     0.040 A 
ATOM     88  F   UNL A   1      52.465  26.947  28.062  1.00  0.00    -0.206 F 
ATOM     89  C   UNL A   1      54.048  25.154  25.341  1.00  0.00     0.006 A 
ENDBRANCH  61  82
BRANCH  73  90
ATOM     90  C   UNL A   1      51.907  34.022  26.181  1.00  0.00     0.057 A 
ATOM     91  C   UNL A   1      52.308  34.641  24.991  1.00  0.00     0.134 A 
ATOM     92  C   UNL A   1      52.533  34.430  27.365  1.00  0.00     0.134 A 
ATOM     93  F   UNL A   1      51.757  34.288  23.819  1.00  0.00    -0.206 F 
ATOM     94  C   UNL A   1      53.312  35.612  24.976  1.00  0.00     0.040 A 
ATOM     95  C   UNL A   1      53.515  35.421  27.369  1.00  0.00     0.040 A 
ATOM     96  F   UNL A   1      52.189  33.885  28.542  1.00  0.00    -0.206 F 
ATOM     97  C   UNL A   1      53.912  36.009  26.170  1.00  0.00     0.006 A 
ENDBRANCH  73  90
ENDBRANCH  47  48
ENDBRANCH  39  42
ENDBRANCH  37  38
ENDBRANCH  36  37
ENDBRANCH  35  36
ENDBRANCH   3  35
TORSDOF 23
ENDMDL
