MODEL 1
REMARK VINA RESULT:     -13.0      0.000      0.000
REMARK SMILES COc1ccc2c(c1)c(Cc1nc(-c3ccc(C(=O)NCCCNC(=O)c4ccc(-c5c6nc(c(-c7c(F)cccc7F)c7ccc([nH]7)c(-c7c(F)cccc7F)c7nc(c(-c8c(F)cccc8F)c8ccc5[nH]8)C=C7)C=C6)cc4)cc3)cs1)c(C)n2C(=O)c1ccc(Cl)cc1
REMARK SMILES IDX 18 1 19 2 20 3 17 5 14 6 15 7 82 8 16 9 81 10 13 11 11 12
REMARK SMILES IDX 12 13 84 14 83 15 10 16 9 17 3 18 4 19 8 20 5 21 7 22 6 23
REMARK SMILES IDX 87 24 85 25 86 26 2 27 1 28 88 29 89 30 90 31 91 32 96 33
REMARK SMILES IDX 92 34 95 35 93 36 94 37 21 38 22 39 23 40 24 41 25 42 26 44
REMARK SMILES IDX 27 45 28 46 80 47 29 48 79 49 30 50 31 51 32 52 73 53 33 54
REMARK SMILES IDX 78 55 72 56 74 57 34 58 77 59 71 60 70 61 35 63 61 64 44 65
REMARK SMILES IDX 60 66 45 67 48 68 59 69 75 70 46 71 47 72 58 74 76 75 49 76
REMARK SMILES IDX 36 77 37 78 42 79 38 80 39 81 41 82 43 83 40 84 62 85 63 86
REMARK SMILES IDX 68 87 64 88 65 89 67 90 69 91 66 92 50 93 51 94 56 95 52 96
REMARK SMILES IDX 53 97 55 98 57 99 54 100
REMARK H PARENT 20 4 24 43 74 62 48 73
REMARK Flexibility Score: inf
ROOT
ATOM      1  C   UNL A   1      34.794  31.691  28.649  1.00  0.00     0.251 C 
ATOM      2  O   UNL A   1      35.584  30.958  29.245  1.00  0.00    -0.269 OA
ATOM      3  N   UNL A   1      34.758  33.014  29.021  1.00  0.00    -0.352 N 
ATOM      4  H   UNL A   1      35.378  33.230  29.754  1.00  0.00     0.163 HD
ENDROOT
BRANCH   1   5
ATOM      5  C   UNL A   1      33.887  31.093  27.631  1.00  0.00     0.039 A 
ATOM      6  C   UNL A   1      32.217  29.681  25.837  1.00  0.00     0.001 A 
ATOM      7  C   UNL A   1      33.538  29.274  26.042  1.00  0.00     0.011 A 
ATOM      8  C   UNL A   1      31.786  30.868  26.445  1.00  0.00     0.011 A 
ATOM      9  C   UNL A   1      34.361  29.969  26.937  1.00  0.00     0.014 A 
ATOM     10  C   UNL A   1      32.626  31.587  27.305  1.00  0.00     0.014 A 
BRANCH   6  11
ATOM     11  C   UNL A   1      31.288  28.923  25.007  1.00  0.00     0.081 A 
ATOM     12  C   UNL A   1      30.191  27.087  24.407  1.00  0.00     0.098 A 
ATOM     13  N   UNL A   1      31.096  27.575  25.229  1.00  0.00    -0.241 NA
ATOM     14  S   UNL A   1      29.605  28.201  23.237  1.00  0.00    -0.126 S 
ATOM     15  C   UNL A   1      30.594  29.426  23.925  1.00  0.00     0.095 A 
BRANCH  12  16
ATOM     16  C   UNL A   1      29.720  25.662  24.431  1.00  0.00     0.105 C 
BRANCH  16  17
ATOM     17  C   UNL A   1      30.855  24.667  24.388  1.00  0.00    -0.012 A 
ATOM     18  C   UNL A   1      32.946  24.817  21.187  1.00  0.00     0.119 A 
ATOM     19  C   UNL A   1      33.717  23.701  21.461  1.00  0.00     0.048 A 
ATOM     20  C   UNL A   1      31.972  25.211  22.103  1.00  0.00     0.057 A 
ATOM     21  C   UNL A   1      33.534  22.980  22.648  1.00  0.00     0.031 A 
ATOM     22  C   UNL A   1      31.784  24.516  23.321  1.00  0.00     0.008 A 
ATOM     23  C   UNL A   1      32.600  23.421  23.613  1.00  0.00     0.057 A 
ATOM     24  N   UNL A   1      32.271  22.962  24.903  1.00  0.00    -0.280 N 
ATOM     25  C   UNL A   1      31.163  23.707  25.346  1.00  0.00     0.028 A 
ATOM     26  C   UNL A   1      30.437  23.515  26.641  1.00  0.00     0.065 C 
BRANCH  18  27
ATOM     27  O   UNL A   1      33.060  25.613  20.081  1.00  0.00    -0.497 OA
ATOM     28  C   UNL A   1      32.108  25.376  19.050  1.00  0.00     0.278 C 
ENDBRANCH  18  27
BRANCH  24  29
ATOM     29  C   UNL A   1      32.927  21.911  25.620  1.00  0.00     0.262 C 
ATOM     30  O   UNL A   1      33.254  22.083  26.779  1.00  0.00    -0.268 OA
BRANCH  29  31
ATOM     31  C   UNL A   1      33.217  20.569  25.073  1.00  0.00     0.040 A 
ATOM     32  C   UNL A   1      34.470  19.970  25.241  1.00  0.00     0.015 A 
ATOM     33  C   UNL A   1      32.202  19.918  24.361  1.00  0.00     0.015 A 
ATOM     34  C   UNL A   1      34.734  18.749  24.612  1.00  0.00     0.021 A 
ATOM     35  C   UNL A   1      32.470  18.697  23.741  1.00  0.00     0.021 A 
ATOM     36  C   UNL A   1      33.739  18.128  23.853  1.00  0.00     0.041 A 
ATOM     37  Cl  UNL A   1      34.087  16.659  23.029  1.00  0.00    -0.084 Cl
ENDBRANCH  29  31
ENDBRANCH  24  29
ENDBRANCH  16  17
ENDBRANCH  12  16
ENDBRANCH   6  11
ENDBRANCH   1   5
BRANCH   3  38
ATOM     38  C   UNL A   1      33.995  34.156  28.557  1.00  0.00     0.118 C 
BRANCH  38  39
ATOM     39  C   UNL A   1      33.919  35.311  29.549  1.00  0.00     0.042 C 
BRANCH  39  40
ATOM     40  C   UNL A   1      33.035  35.096  30.777  1.00  0.00     0.118 C 
BRANCH  40  41
ATOM     41  N   UNL A   1      33.635  35.445  32.049  1.00  0.00    -0.352 N 
ATOM     42  C   UNL A   1      34.823  35.182  32.670  1.00  0.00     0.251 C 
ATOM     43  H   UNL A   1      33.043  36.009  32.599  1.00  0.00     0.163 HD
ATOM     44  O   UNL A   1      35.054  35.838  33.690  1.00  0.00    -0.269 OA
BRANCH  42  45
ATOM     45  C   UNL A   1      35.804  34.139  32.264  1.00  0.00     0.039 A 
ATOM     46  C   UNL A   1      35.669  32.767  32.474  1.00  0.00     0.014 A 
ATOM     47  C   UNL A   1      37.004  34.612  31.697  1.00  0.00     0.014 A 
ATOM     48  C   UNL A   1      36.746  31.910  32.260  1.00  0.00     0.010 A 
ATOM     49  C   UNL A   1      38.069  33.755  31.443  1.00  0.00     0.010 A 
ATOM     50  C   UNL A   1      37.961  32.411  31.787  1.00  0.00    -0.014 A 
BRANCH  50  51
ATOM     51  C   UNL A   1      39.079  31.483  31.628  1.00  0.00     0.031 A 
ATOM     52  C   UNL A   1      39.848  31.150  32.861  1.00  0.00     0.074 A 
ATOM     53  C   UNL A   1      39.356  30.860  30.465  1.00  0.00     0.049 A 
ATOM     54  N   UNL A   1      41.112  31.320  33.085  1.00  0.00    -0.248 NA
ATOM     55  C   UNL A   1      39.105  30.614  34.009  1.00  0.00     0.031 C 
ATOM     56  C   UNL A   1      38.571  30.855  29.228  1.00  0.00     0.029 A 
ATOM     57  N   UNL A   1      40.374  29.996  30.186  1.00  0.00    -0.354 N 
ATOM     58  C   UNL A   1      41.364  30.775  34.343  1.00  0.00     0.074 A 
ATOM     59  C   UNL A   1      40.078  30.448  34.906  1.00  0.00     0.031 C 
ATOM     60  C   UNL A   1      39.014  29.864  28.426  1.00  0.00     0.029 A 
ATOM     61  C   UNL A   1      40.184  29.250  29.034  1.00  0.00     0.049 A 
ATOM     62  H   UNL A   1      41.174  29.910  30.754  1.00  0.00     0.167 HD
ATOM     63  C   UNL A   1      42.624  30.477  34.767  1.00  0.00     0.037 A 
ATOM     64  C   UNL A   1      40.893  28.165  28.637  1.00  0.00     0.037 A 
ATOM     65  C   UNL A   1      43.626  31.143  33.980  1.00  0.00     0.049 A 
ATOM     66  C   UNL A   1      42.196  28.189  29.346  1.00  0.00     0.074 A 
ATOM     67  C   UNL A   1      43.938  32.461  33.710  1.00  0.00     0.029 A 
ATOM     68  N   UNL A   1      44.332  30.405  33.063  1.00  0.00    -0.354 N 
ATOM     69  N   UNL A   1      43.146  29.047  29.095  1.00  0.00    -0.248 NA
ATOM     70  C   UNL A   1      42.286  27.522  30.637  1.00  0.00     0.031 C 
ATOM     71  C   UNL A   1      44.390  32.463  32.359  1.00  0.00     0.029 A 
ATOM     72  C   UNL A   1      44.357  31.143  31.909  1.00  0.00     0.049 A 
ATOM     73  H   UNL A   1      44.740  29.520  33.205  1.00  0.00     0.167 HD
ATOM     74  C   UNL A   1      43.683  29.349  30.337  1.00  0.00     0.074 A 
ATOM     75  C   UNL A   1      43.191  28.305  31.232  1.00  0.00     0.031 C 
ATOM     76  C   UNL A   1      44.241  30.570  30.591  1.00  0.00     0.037 A 
BRANCH  63  77
ATOM     77  C   UNL A   1      42.976  29.336  35.688  1.00  0.00     0.057 A 
ATOM     78  C   UNL A   1      42.750  27.983  35.372  1.00  0.00     0.134 A 
ATOM     79  C   UNL A   1      43.849  29.562  36.770  1.00  0.00     0.134 A 
ATOM     80  F   UNL A   1      42.001  27.610  34.326  1.00  0.00    -0.206 F 
ATOM     81  C   UNL A   1      43.373  26.934  36.055  1.00  0.00     0.040 A 
ATOM     82  C   UNL A   1      44.516  28.521  37.428  1.00  0.00     0.040 A 
ATOM     83  F   UNL A   1      44.147  30.809  37.166  1.00  0.00    -0.206 F 
ATOM     84  C   UNL A   1      44.287  27.201  37.062  1.00  0.00     0.006 A 
ENDBRANCH  63  77
BRANCH  64  85
ATOM     85  C   UNL A   1      40.417  26.999  27.860  1.00  0.00     0.057 A 
ATOM     86  C   UNL A   1      39.567  26.033  28.431  1.00  0.00     0.134 A 
ATOM     87  C   UNL A   1      40.963  26.673  26.611  1.00  0.00     0.134 A 
ATOM     88  F   UNL A   1      39.064  26.191  29.663  1.00  0.00    -0.206 F 
ATOM     89  C   UNL A   1      39.268  24.824  27.797  1.00  0.00     0.040 A 
ATOM     90  C   UNL A   1      40.683  25.458  25.971  1.00  0.00     0.040 A 
ATOM     91  F   UNL A   1      41.827  27.501  26.007  1.00  0.00    -0.206 F 
ATOM     92  C   UNL A   1      39.835  24.527  26.566  1.00  0.00     0.006 A 
ENDBRANCH  64  85
BRANCH  76  93
ATOM     93  C   UNL A   1      44.477  31.491  29.429  1.00  0.00     0.057 A 
ATOM     94  C   UNL A   1      45.747  31.544  28.846  1.00  0.00     0.134 A 
ATOM     95  C   UNL A   1      43.535  32.429  28.981  1.00  0.00     0.134 A 
ATOM     96  F   UNL A   1      46.722  30.724  29.271  1.00  0.00    -0.206 F 
ATOM     97  C   UNL A   1      46.061  32.470  27.849  1.00  0.00     0.040 A 
ATOM     98  C   UNL A   1      43.824  33.338  27.962  1.00  0.00     0.040 A 
ATOM     99  F   UNL A   1      42.332  32.533  29.560  1.00  0.00    -0.206 F 
ATOM    100  C   UNL A   1      45.094  33.364  27.394  1.00  0.00     0.006 A 
ENDBRANCH  76  93
ENDBRANCH  50  51
ENDBRANCH  42  45
ENDBRANCH  40  41
ENDBRANCH  39  40
ENDBRANCH  38  39
ENDBRANCH   3  38
TORSDOF 16
ENDMDL
MODEL 2
REMARK VINA RESULT:     -12.9      6.029     11.268
REMARK SMILES COc1ccc2c(c1)c(Cc1nc(-c3ccc(C(=O)NCCCNC(=O)c4ccc(-c5c6nc(c(-c7c(F)cccc7F)c7ccc([nH]7)c(-c7c(F)cccc7F)c7nc(c(-c8c(F)cccc8F)c8ccc5[nH]8)C=C7)C=C6)cc4)cc3)cs1)c(C)n2C(=O)c1ccc(Cl)cc1
REMARK SMILES IDX 18 1 19 2 20 3 17 5 14 6 15 7 82 8 16 9 81 10 13 11 11 12
REMARK SMILES IDX 12 13 84 14 83 15 10 16 9 17 3 18 4 19 8 20 5 21 7 22 6 23
REMARK SMILES IDX 87 24 85 25 86 26 2 27 1 28 88 29 89 30 90 31 91 32 96 33
REMARK SMILES IDX 92 34 95 35 93 36 94 37 21 38 22 39 23 40 24 41 25 42 26 44
REMARK SMILES IDX 27 45 28 46 80 47 29 48 79 49 30 50 31 51 32 52 73 53 33 54
REMARK SMILES IDX 78 55 72 56 74 57 34 58 77 59 71 60 70 61 35 63 61 64 44 65
REMARK SMILES IDX 60 66 45 67 48 68 59 69 75 70 46 71 47 72 58 74 76 75 49 76
REMARK SMILES IDX 36 77 37 78 42 79 38 80 39 81 41 82 43 83 40 84 62 85 63 86
REMARK SMILES IDX 68 87 64 88 65 89 67 90 69 91 66 92 50 93 51 94 56 95 52 96
REMARK SMILES IDX 53 97 55 98 57 99 54 100
REMARK H PARENT 20 4 24 43 74 62 48 73
REMARK Flexibility Score: inf
ROOT
ATOM      1  C   UNL A   1      36.979  32.690  34.011  1.00  0.00     0.251 C 
ATOM      2  O   UNL A   1      37.167  31.999  35.014  1.00  0.00    -0.269 OA
ATOM      3  N   UNL A   1      35.691  33.094  33.756  1.00  0.00    -0.352 N 
ATOM      4  H   UNL A   1      35.041  32.765  34.418  1.00  0.00     0.163 HD
ENDROOT
BRANCH   1   5
ATOM      5  C   UNL A   1      38.130  32.974  33.109  1.00  0.00     0.039 A 
ATOM      6  C   UNL A   1      40.322  33.801  31.525  1.00  0.00     0.001 A 
ATOM      7  C   UNL A   1      39.148  34.558  31.557  1.00  0.00     0.011 A 
ATOM      8  C   UNL A   1      40.337  32.570  32.196  1.00  0.00     0.011 A 
ATOM      9  C   UNL A   1      38.067  34.152  32.349  1.00  0.00     0.014 A 
ATOM     10  C   UNL A   1      39.237  32.144  32.951  1.00  0.00     0.014 A 
BRANCH   6  11
ATOM     11  C   UNL A   1      41.514  34.241  30.810  1.00  0.00     0.081 A 
ATOM     12  C   UNL A   1      42.674  34.739  28.982  1.00  0.00     0.098 A 
ATOM     13  N   UNL A   1      41.528  34.272  29.431  1.00  0.00    -0.241 NA
ATOM     14  S   UNL A   1      43.848  35.055  30.196  1.00  0.00    -0.126 S 
ATOM     15  C   UNL A   1      42.714  34.587  31.398  1.00  0.00     0.095 A 
BRANCH  12  16
ATOM     16  C   UNL A   1      42.982  34.944  27.527  1.00  0.00     0.105 C 
BRANCH  16  17
ATOM     17  C   UNL A   1      43.705  36.240  27.256  1.00  0.00    -0.012 A 
ATOM     18  C   UNL A   1      47.213  35.796  25.794  1.00  0.00     0.119 A 
ATOM     19  C   UNL A   1      47.570  37.131  25.855  1.00  0.00     0.048 A 
ATOM     20  C   UNL A   1      45.950  35.410  26.237  1.00  0.00     0.057 A 
ATOM     21  C   UNL A   1      46.672  38.090  26.343  1.00  0.00     0.031 A 
ATOM     22  C   UNL A   1      45.014  36.359  26.711  1.00  0.00     0.008 A 
ATOM     23  C   UNL A   1      45.363  37.712  26.722  1.00  0.00     0.057 A 
ATOM     24  N   UNL A   1      44.243  38.449  27.154  1.00  0.00    -0.280 N 
ATOM     25  C   UNL A   1      43.249  37.526  27.525  1.00  0.00     0.028 A 
ATOM     26  C   UNL A   1      41.910  37.864  28.104  1.00  0.00     0.065 C 
BRANCH  18  27
ATOM     27  O   UNL A   1      47.994  34.784  25.308  1.00  0.00    -0.497 OA
ATOM     28  C   UNL A   1      49.395  34.937  25.503  1.00  0.00     0.278 C 
ENDBRANCH  18  27
BRANCH  24  29
ATOM     29  C   UNL A   1      44.147  39.875  27.228  1.00  0.00     0.262 C 
ATOM     30  O   UNL A   1      44.631  40.465  28.175  1.00  0.00    -0.268 OA
BRANCH  29  31
ATOM     31  C   UNL A   1      43.525  40.734  26.198  1.00  0.00     0.040 A 
ATOM     32  C   UNL A   1      42.162  40.640  25.898  1.00  0.00     0.015 A 
ATOM     33  C   UNL A   1      44.349  41.635  25.513  1.00  0.00     0.015 A 
ATOM     34  C   UNL A   1      41.642  41.393  24.840  1.00  0.00     0.021 A 
ATOM     35  C   UNL A   1      43.822  42.388  24.463  1.00  0.00     0.021 A 
ATOM     36  C   UNL A   1      42.477  42.250  24.119  1.00  0.00     0.041 A 
ATOM     37  Cl  UNL A   1      41.848  43.125  22.779  1.00  0.00    -0.084 Cl
ENDBRANCH  29  31
ENDBRANCH  24  29
ENDBRANCH  16  17
ENDBRANCH  12  16
ENDBRANCH   6  11
ENDBRANCH   1   5
BRANCH   3  38
ATOM     38  C   UNL A   1      35.092  33.906  32.714  1.00  0.00     0.118 C 
BRANCH  38  39
ATOM     39  C   UNL A   1      34.658  33.127  31.478  1.00  0.00     0.042 C 
BRANCH  39  40
ATOM     40  C   UNL A   1      34.494  33.932  30.189  1.00  0.00     0.118 C 
BRANCH  40  41
ATOM     41  N   UNL A   1      34.310  33.151  28.982  1.00  0.00    -0.352 N 
ATOM     42  C   UNL A   1      34.876  32.024  28.457  1.00  0.00     0.251 C 
ATOM     43  H   UNL A   1      33.608  33.523  28.400  1.00  0.00     0.163 HD
ATOM     44  O   UNL A   1      34.300  31.539  27.478  1.00  0.00    -0.269 OA
BRANCH  42  45
ATOM     45  C   UNL A   1      36.142  31.392  28.916  1.00  0.00     0.039 A 
ATOM     46  C   UNL A   1      37.341  32.058  29.168  1.00  0.00     0.014 A 
ATOM     47  C   UNL A   1      36.128  29.987  29.013  1.00  0.00     0.014 A 
ATOM     48  C   UNL A   1      38.519  31.342  29.371  1.00  0.00     0.010 A 
ATOM     49  C   UNL A   1      37.293  29.267  29.256  1.00  0.00     0.010 A 
ATOM     50  C   UNL A   1      38.502  29.946  29.370  1.00  0.00    -0.014 A 
BRANCH  50  51
ATOM     51  C   UNL A   1      39.770  29.237  29.534  1.00  0.00     0.031 A 
ATOM     52  C   UNL A   1      40.247  29.043  30.933  1.00  0.00     0.074 A 
ATOM     53  C   UNL A   1      40.440  28.681  28.505  1.00  0.00     0.049 A 
ATOM     54  N   UNL A   1      41.361  29.439  31.461  1.00  0.00    -0.248 NA
ATOM     55  C   UNL A   1      39.344  28.375  31.879  1.00  0.00     0.031 C 
ATOM     56  C   UNL A   1      40.009  28.540  27.112  1.00  0.00     0.029 A 
ATOM     57  N   UNL A   1      41.632  28.018  28.526  1.00  0.00    -0.354 N 
ATOM     58  C   UNL A   1      41.377  28.943  32.763  1.00  0.00     0.074 A 
ATOM     59  C   UNL A   1      40.070  28.383  32.998  1.00  0.00     0.031 C 
ATOM     60  C   UNL A   1      40.810  27.650  26.488  1.00  0.00     0.029 A 
ATOM     61  C   UNL A   1      41.876  27.257  27.395  1.00  0.00     0.049 A 
ATOM     62  H   UNL A   1      42.263  28.076  29.280  1.00  0.00     0.167 HD
ATOM     63  C   UNL A   1      42.521  28.876  33.502  1.00  0.00     0.037 A 
ATOM     64  C   UNL A   1      42.844  26.321  27.234  1.00  0.00     0.037 A 
ATOM     65  C   UNL A   1      43.555  29.718  32.964  1.00  0.00     0.049 A 
ATOM     66  C   UNL A   1      43.898  26.577  28.245  1.00  0.00     0.074 A 
ATOM     67  C   UNL A   1      43.687  31.072  32.727  1.00  0.00     0.029 A 
ATOM     68  N   UNL A   1      44.591  29.125  32.285  1.00  0.00    -0.354 N 
ATOM     69  N   UNL A   1      44.713  27.595  28.206  1.00  0.00    -0.248 NA
ATOM     70  C   UNL A   1      43.774  25.931  29.544  1.00  0.00     0.031 C 
ATOM     71  C   UNL A   1      44.460  31.163  31.534  1.00  0.00     0.029 A 
ATOM     72  C   UNL A   1      44.777  29.862  31.145  1.00  0.00     0.049 A 
ATOM     73  H   UNL A   1      45.099  28.329  32.562  1.00  0.00     0.167 HD
ATOM     74  C   UNL A   1      44.855  27.983  29.530  1.00  0.00     0.074 A 
ATOM     75  C   UNL A   1      44.344  26.863  30.314  1.00  0.00     0.031 C 
ATOM     76  C   UNL A   1      45.104  29.285  29.865  1.00  0.00     0.037 A 
BRANCH  63  77
ATOM     77  C   UNL A   1      42.824  27.813  34.527  1.00  0.00     0.057 A 
ATOM     78  C   UNL A   1      42.544  27.954  35.900  1.00  0.00     0.134 A 
ATOM     79  C   UNL A   1      43.104  26.500  34.103  1.00  0.00     0.134 A 
ATOM     80  F   UNL A   1      42.192  29.128  36.439  1.00  0.00    -0.206 F 
ATOM     81  C   UNL A   1      42.508  26.867  36.778  1.00  0.00     0.040 A 
ATOM     82  C   UNL A   1      43.021  25.399  34.964  1.00  0.00     0.040 A 
ATOM     83  F   UNL A   1      43.382  26.236  32.817  1.00  0.00    -0.206 F 
ATOM     84  C   UNL A   1      42.710  25.579  36.305  1.00  0.00     0.006 A 
ENDBRANCH  63  77
BRANCH  64  85
ATOM     85  C   UNL A   1      42.796  25.092  26.411  1.00  0.00     0.057 A 
ATOM     86  C   UNL A   1      42.073  23.958  26.825  1.00  0.00     0.134 A 
ATOM     87  C   UNL A   1      43.643  24.909  25.310  1.00  0.00     0.134 A 
ATOM     88  F   UNL A   1      41.305  23.986  27.925  1.00  0.00    -0.206 F 
ATOM     89  C   UNL A   1      42.173  22.722  26.180  1.00  0.00     0.040 A 
ATOM     90  C   UNL A   1      43.764  23.671  24.661  1.00  0.00     0.040 A 
ATOM     91  F   UNL A   1      44.416  25.912  24.869  1.00  0.00    -0.206 F 
ATOM     92  C   UNL A   1      43.029  22.572  25.099  1.00  0.00     0.006 A 
ENDBRANCH  64  85
BRANCH  76  93
ATOM     93  C   UNL A   1      45.460  30.240  28.763  1.00  0.00     0.057 A 
ATOM     94  C   UNL A   1      44.437  30.878  28.055  1.00  0.00     0.134 A 
ATOM     95  C   UNL A   1      46.768  30.420  28.287  1.00  0.00     0.134 A 
ATOM     96  F   UNL A   1      43.154  30.697  28.408  1.00  0.00    -0.206 F 
ATOM     97  C   UNL A   1      44.701  31.676  26.939  1.00  0.00     0.040 A 
ATOM     98  C   UNL A   1      47.050  31.243  27.195  1.00  0.00     0.040 A 
ATOM     99  F   UNL A   1      47.799  29.759  28.827  1.00  0.00    -0.206 F 
ATOM    100  C   UNL A   1      46.013  31.871  26.514  1.00  0.00     0.006 A 
ENDBRANCH  76  93
ENDBRANCH  50  51
ENDBRANCH  42  45
ENDBRANCH  40  41
ENDBRANCH  39  40
ENDBRANCH  38  39
ENDBRANCH   3  38
TORSDOF 16
ENDMDL
MODEL 3
REMARK VINA RESULT:     -12.6      4.536      9.752
REMARK SMILES COc1ccc2c(c1)c(Cc1nc(-c3ccc(C(=O)NCCCNC(=O)c4ccc(-c5c6nc(c(-c7c(F)cccc7F)c7ccc([nH]7)c(-c7c(F)cccc7F)c7nc(c(-c8c(F)cccc8F)c8ccc5[nH]8)C=C7)C=C6)cc4)cc3)cs1)c(C)n2C(=O)c1ccc(Cl)cc1
REMARK SMILES IDX 18 1 19 2 20 3 17 5 14 6 15 7 82 8 16 9 81 10 13 11 11 12
REMARK SMILES IDX 12 13 84 14 83 15 10 16 9 17 3 18 4 19 8 20 5 21 7 22 6 23
REMARK SMILES IDX 87 24 85 25 86 26 2 27 1 28 88 29 89 30 90 31 91 32 96 33
REMARK SMILES IDX 92 34 95 35 93 36 94 37 21 38 22 39 23 40 24 41 25 42 26 44
REMARK SMILES IDX 27 45 28 46 80 47 29 48 79 49 30 50 31 51 32 52 73 53 33 54
REMARK SMILES IDX 78 55 72 56 74 57 34 58 77 59 71 60 70 61 35 63 61 64 44 65
REMARK SMILES IDX 60 66 45 67 48 68 59 69 75 70 46 71 47 72 58 74 76 75 49 76
REMARK SMILES IDX 36 77 37 78 42 79 38 80 39 81 41 82 43 83 40 84 62 85 63 86
REMARK SMILES IDX 68 87 64 88 65 89 67 90 69 91 66 92 50 93 51 94 56 95 52 96
REMARK SMILES IDX 53 97 55 98 57 99 54 100
REMARK H PARENT 20 4 24 43 74 62 48 73
REMARK Flexibility Score: inf
ROOT
ATOM      1  C   UNL A   1      47.917  25.948  24.653  1.00  0.00     0.251 C 
ATOM      2  O   UNL A   1      48.357  26.063  23.508  1.00  0.00    -0.269 OA
ATOM      3  N   UNL A   1      48.763  25.432  25.605  1.00  0.00    -0.352 N 
ATOM      4  H   UNL A   1      49.650  25.194  25.251  1.00  0.00     0.163 HD
ENDROOT
BRANCH   1   5
ATOM      5  C   UNL A   1      46.492  26.296  24.913  1.00  0.00     0.039 A 
ATOM      6  C   UNL A   1      43.802  26.762  25.652  1.00  0.00     0.001 A 
ATOM      7  C   UNL A   1      44.262  25.459  25.444  1.00  0.00     0.011 A 
ATOM      8  C   UNL A   1      44.669  27.826  25.367  1.00  0.00     0.011 A 
ATOM      9  C   UNL A   1      45.597  25.230  25.087  1.00  0.00     0.014 A 
ATOM     10  C   UNL A   1      45.991  27.595  24.966  1.00  0.00     0.014 A 
BRANCH   6  11
ATOM     11  C   UNL A   1      42.457  27.045  26.137  1.00  0.00     0.081 A 
ATOM     12  C   UNL A   1      40.478  26.479  26.974  1.00  0.00     0.098 A 
ATOM     13  N   UNL A   1      41.627  26.014  26.530  1.00  0.00    -0.241 NA
ATOM     14  S   UNL A   1      40.285  28.181  26.832  1.00  0.00    -0.126 S 
ATOM     15  C   UNL A   1      41.873  28.295  26.186  1.00  0.00     0.095 A 
BRANCH  12  16
ATOM     16  C   UNL A   1      39.382  25.613  27.523  1.00  0.00     0.105 C 
BRANCH  16  17
ATOM     17  C   UNL A   1      39.519  24.165  27.122  1.00  0.00    -0.012 A 
ATOM     18  C   UNL A   1      36.824  22.952  24.691  1.00  0.00     0.119 A 
ATOM     19  C   UNL A   1      37.191  21.618  24.717  1.00  0.00     0.048 A 
ATOM     20  C   UNL A   1      37.542  23.867  25.459  1.00  0.00     0.057 A 
ATOM     21  C   UNL A   1      38.277  21.189  25.492  1.00  0.00     0.031 A 
ATOM     22  C   UNL A   1      38.657  23.467  26.231  1.00  0.00     0.008 A 
ATOM     23  C   UNL A   1      39.052  22.127  26.211  1.00  0.00     0.057 A 
ATOM     24  N   UNL A   1      40.223  22.005  26.985  1.00  0.00    -0.280 N 
ATOM     25  C   UNL A   1      40.469  23.256  27.578  1.00  0.00     0.028 A 
ATOM     26  C   UNL A   1      41.576  23.572  28.535  1.00  0.00     0.065 C 
BRANCH  18  27
ATOM     27  O   UNL A   1      35.807  23.485  23.949  1.00  0.00    -0.497 OA
ATOM     28  C   UNL A   1      34.503  23.347  24.500  1.00  0.00     0.278 C 
ENDBRANCH  18  27
BRANCH  24  29
ATOM     29  C   UNL A   1      41.003  20.817  27.158  1.00  0.00     0.262 C 
ATOM     30  O   UNL A   1      40.685  20.004  28.005  1.00  0.00    -0.268 OA
BRANCH  29  31
ATOM     31  C   UNL A   1      42.180  20.453  26.342  1.00  0.00     0.040 A 
ATOM     32  C   UNL A   1      42.412  19.131  25.948  1.00  0.00     0.015 A 
ATOM     33  C   UNL A   1      43.072  21.473  25.989  1.00  0.00     0.015 A 
ATOM     34  C   UNL A   1      43.595  18.817  25.273  1.00  0.00     0.021 A 
ATOM     35  C   UNL A   1      44.248  21.153  25.308  1.00  0.00     0.021 A 
ATOM     36  C   UNL A   1      44.513  19.826  24.971  1.00  0.00     0.041 A 
ATOM     37  Cl  UNL A   1      45.996  19.426  24.197  1.00  0.00    -0.084 Cl
ENDBRANCH  29  31
ENDBRANCH  24  29
ENDBRANCH  16  17
ENDBRANCH  12  16
ENDBRANCH   6  11
ENDBRANCH   1   5
BRANCH   3  38
ATOM     38  C   UNL A   1      48.620  25.168  27.024  1.00  0.00     0.118 C 
BRANCH  38  39
ATOM     39  C   UNL A   1      48.618  26.415  27.902  1.00  0.00     0.042 C 
BRANCH  39  40
ATOM     40  C   UNL A   1      48.190  26.222  29.357  1.00  0.00     0.118 C 
BRANCH  40  41
ATOM     41  N   UNL A   1      47.088  25.304  29.568  1.00  0.00    -0.352 N 
ATOM     42  C   UNL A   1      45.730  25.367  29.432  1.00  0.00     0.251 C 
ATOM     43  H   UNL A   1      47.391  24.423  29.887  1.00  0.00     0.163 HD
ATOM     44  O   UNL A   1      45.131  24.291  29.519  1.00  0.00    -0.269 OA
BRANCH  42  45
ATOM     45  C   UNL A   1      44.929  26.610  29.266  1.00  0.00     0.039 A 
ATOM     46  C   UNL A   1      45.415  27.840  28.823  1.00  0.00     0.014 A 
ATOM     47  C   UNL A   1      43.585  26.535  29.679  1.00  0.00     0.014 A 
ATOM     48  C   UNL A   1      44.632  28.987  28.922  1.00  0.00     0.010 A 
ATOM     49  C   UNL A   1      42.784  27.671  29.743  1.00  0.00     0.010 A 
ATOM     50  C   UNL A   1      43.332  28.910  29.425  1.00  0.00    -0.014 A 
BRANCH  50  51
ATOM     51  C   UNL A   1      42.566  30.148  29.560  1.00  0.00     0.031 A 
ATOM     52  C   UNL A   1      43.248  31.402  29.130  1.00  0.00     0.074 A 
ATOM     53  C   UNL A   1      41.275  30.174  29.945  1.00  0.00     0.049 A 
ATOM     54  N   UNL A   1      43.492  32.461  29.833  1.00  0.00    -0.248 NA
ATOM     55  C   UNL A   1      43.775  31.460  27.760  1.00  0.00     0.031 C 
ATOM     56  C   UNL A   1      40.367  29.043  30.156  1.00  0.00     0.029 A 
ATOM     57  N   UNL A   1      40.464  31.257  30.129  1.00  0.00    -0.354 N 
ATOM     58  C   UNL A   1      44.067  33.386  28.963  1.00  0.00     0.074 A 
ATOM     59  C   UNL A   1      44.310  32.683  27.729  1.00  0.00     0.031 C 
ATOM     60  C   UNL A   1      39.097  29.499  30.213  1.00  0.00     0.029 A 
ATOM     61  C   UNL A   1      39.113  30.952  30.166  1.00  0.00     0.049 A 
ATOM     62  H   UNL A   1      40.811  32.174  30.225  1.00  0.00     0.167 HD
ATOM     63  C   UNL A   1      44.151  34.712  29.264  1.00  0.00     0.037 A 
ATOM     64  C   UNL A   1      38.078  31.825  30.097  1.00  0.00     0.037 A 
ATOM     65  C   UNL A   1      43.973  34.955  30.670  1.00  0.00     0.049 A 
ATOM     66  C   UNL A   1      38.587  33.166  30.473  1.00  0.00     0.074 A 
ATOM     67  C   UNL A   1      44.634  34.566  31.819  1.00  0.00     0.029 A 
ATOM     68  N   UNL A   1      42.777  35.478  31.096  1.00  0.00    -0.354 N 
ATOM     69  N   UNL A   1      38.940  33.499  31.684  1.00  0.00    -0.248 NA
ATOM     70  C   UNL A   1      39.112  34.021  29.417  1.00  0.00     0.031 C 
ATOM     71  C   UNL A   1      43.609  34.407  32.796  1.00  0.00     0.029 A 
ATOM     72  C   UNL A   1      42.400  34.743  32.188  1.00  0.00     0.049 A 
ATOM     73  H   UNL A   1      42.287  36.233  30.694  1.00  0.00     0.167 HD
ATOM     74  C   UNL A   1      40.055  34.306  31.516  1.00  0.00     0.074 A 
ATOM     75  C   UNL A   1      40.049  34.680  30.105  1.00  0.00     0.031 C 
ATOM     76  C   UNL A   1      41.037  34.365  32.465  1.00  0.00     0.037 A 
BRANCH  63  77
ATOM     77  C   UNL A   1      44.076  35.831  28.256  1.00  0.00     0.057 A 
ATOM     78  C   UNL A   1      42.909  36.157  27.541  1.00  0.00     0.134 A 
ATOM     79  C   UNL A   1      45.090  36.809  28.229  1.00  0.00     0.134 A 
ATOM     80  F   UNL A   1      41.833  35.360  27.531  1.00  0.00    -0.206 F 
ATOM     81  C   UNL A   1      42.745  37.378  26.879  1.00  0.00     0.040 A 
ATOM     82  C   UNL A   1      44.917  38.054  27.612  1.00  0.00     0.040 A 
ATOM     83  F   UNL A   1      46.250  36.617  28.877  1.00  0.00    -0.206 F 
ATOM     84  C   UNL A   1      43.735  38.346  26.943  1.00  0.00     0.006 A 
ENDBRANCH  63  77
BRANCH  64  85
ATOM     85  C   UNL A   1      36.738  31.605  29.509  1.00  0.00     0.057 A 
ATOM     86  C   UNL A   1      36.575  30.939  28.279  1.00  0.00     0.134 A 
ATOM     87  C   UNL A   1      35.597  32.241  30.016  1.00  0.00     0.134 A 
ATOM     88  F   UNL A   1      37.617  30.378  27.650  1.00  0.00    -0.206 F 
ATOM     89  C   UNL A   1      35.354  30.897  27.601  1.00  0.00     0.040 A 
ATOM     90  C   UNL A   1      34.369  32.218  29.339  1.00  0.00     0.040 A 
ATOM     91  F   UNL A   1      35.659  32.948  31.154  1.00  0.00    -0.206 F 
ATOM     92  C   UNL A   1      34.246  31.546  28.126  1.00  0.00     0.006 A 
ENDBRANCH  64  85
BRANCH  76  93
ATOM     93  C   UNL A   1      40.769  33.726  33.797  1.00  0.00     0.057 A 
ATOM     94  C   UNL A   1      40.422  34.533  34.885  1.00  0.00     0.134 A 
ATOM     95  C   UNL A   1      40.996  32.367  34.062  1.00  0.00     0.134 A 
ATOM     96  F   UNL A   1      40.256  35.855  34.721  1.00  0.00    -0.206 F 
ATOM     97  C   UNL A   1      40.285  34.012  36.174  1.00  0.00     0.040 A 
ATOM     98  C   UNL A   1      40.830  31.826  35.339  1.00  0.00     0.040 A 
ATOM     99  F   UNL A   1      41.444  31.540  33.110  1.00  0.00    -0.206 F 
ATOM    100  C   UNL A   1      40.477  32.651  36.402  1.00  0.00     0.006 A 
ENDBRANCH  76  93
ENDBRANCH  50  51
ENDBRANCH  42  45
ENDBRANCH  40  41
ENDBRANCH  39  40
ENDBRANCH  38  39
ENDBRANCH   3  38
TORSDOF 16
ENDMDL
