MODEL 1
REMARK VINA RESULT:     -11.9      0.000      0.000
REMARK SMILES CC(=O)c1nnn(-c2ccc(C(=O)NCCCNC(=O)c3ccc(-c4c5nc(c(-c6c(F)cccc6F)c6ccc([nH]6)c(-c6c(F)cccc6F)c6nc(c(-c7c(F)cccc7F)c7ccc4[nH]7)C=C6)C=C5)cc3)cc2)c1C
REMARK SMILES IDX 16 1 15 2 14 3 12 4 13 5 11 7 8 8 9 9 76 10 10 11 75 12 7 13
REMARK SMILES IDX 4 14 5 15 77 16 6 17 78 18 2 19 1 20 3 21 17 22 18 23 19 24
REMARK SMILES IDX 20 26 21 27 22 28 74 29 23 30 73 31 24 32 25 33 26 34 67 35
REMARK SMILES IDX 27 36 72 37 66 38 68 39 28 40 71 41 65 42 64 43 29 45 55 46
REMARK SMILES IDX 38 47 54 48 39 49 42 50 53 51 69 52 40 53 41 54 52 56 70 57
REMARK SMILES IDX 43 58 30 59 31 60 36 61 32 62 33 63 35 64 37 65 34 66 56 67
REMARK SMILES IDX 57 68 62 69 58 70 59 71 61 72 63 73 60 74 44 75 45 76 50 77
REMARK SMILES IDX 46 78 47 79 49 80 51 81 48 82
REMARK H PARENT 14 6 18 25 68 44 42 55
REMARK Flexibility Score: inf
ROOT
ATOM      1  C   UNL A   1      37.928  20.012  24.720  1.00  0.00     0.042 C 
ENDROOT
BRANCH   1   2
ATOM      2  C   UNL A   1      36.544  20.573  25.082  1.00  0.00     0.118 C 
BRANCH   2   3
ATOM      3  N   UNL A   1      35.496  19.562  24.983  1.00  0.00    -0.352 N 
ATOM      4  C   UNL A   1      34.126  19.636  25.103  1.00  0.00     0.251 C 
ATOM      5  O   UNL A   1      33.471  18.624  24.857  1.00  0.00    -0.269 OA
ATOM      6  H   UNL A   1      35.832  18.656  24.795  1.00  0.00     0.163 HD
BRANCH   4   7
ATOM      7  C   UNL A   1      33.410  20.897  25.452  1.00  0.00     0.039 A 
ATOM      8  C   UNL A   1      32.273  23.407  25.898  1.00  0.00     0.067 A 
ATOM      9  C   UNL A   1      32.003  22.747  24.700  1.00  0.00     0.029 A 
ATOM     10  C   UNL A   1      32.980  22.774  26.918  1.00  0.00     0.029 A 
ATOM     11  C   UNL A   1      32.601  21.501  24.471  1.00  0.00     0.016 A 
ATOM     12  C   UNL A   1      33.505  21.507  26.702  1.00  0.00     0.016 A 
BRANCH   8  13
ATOM     13  N   UNL A   1      31.907  24.750  26.075  1.00  0.00    -0.217 N 
ATOM     14  C   UNL A   1      31.944  26.901  26.389  1.00  0.00     0.151 A 
ATOM     15  N   UNL A   1      30.739  26.401  26.819  1.00  0.00    -0.126 NA
ATOM     16  C   UNL A   1      32.695  25.868  25.854  1.00  0.00     0.073 A 
ATOM     17  N   UNL A   1      30.690  25.109  26.520  1.00  0.00    -0.061 NA
ATOM     18  C   UNL A   1      33.994  25.816  25.137  1.00  0.00     0.069 C 
BRANCH  14  19
ATOM     19  C   UNL A   1      32.263  28.317  26.481  1.00  0.00     0.181 C 
ATOM     20  C   UNL A   1      33.462  28.716  27.307  1.00  0.00     0.095 C 
ATOM     21  O   UNL A   1      31.589  29.169  25.906  1.00  0.00    -0.293 OA
ENDBRANCH  14  19
ENDBRANCH   8  13
ENDBRANCH   4   7
ENDBRANCH   2   3
ENDBRANCH   1   2
BRANCH   1  22
ATOM     22  C   UNL A   1      38.974  20.292  25.781  1.00  0.00     0.118 C 
BRANCH  22  23
ATOM     23  N   UNL A   1      40.037  19.287  25.797  1.00  0.00    -0.352 N 
ATOM     24  C   UNL A   1      41.399  19.484  25.952  1.00  0.00     0.251 C 
ATOM     25  H   UNL A   1      39.747  18.353  25.684  1.00  0.00     0.163 HD
ATOM     26  O   UNL A   1      42.201  18.642  25.596  1.00  0.00    -0.269 OA
BRANCH  24  27
ATOM     27  C   UNL A   1      41.853  20.749  26.555  1.00  0.00     0.039 A 
ATOM     28  C   UNL A   1      42.221  21.841  25.766  1.00  0.00     0.014 A 
ATOM     29  C   UNL A   1      41.837  20.842  27.942  1.00  0.00     0.014 A 
ATOM     30  C   UNL A   1      42.484  23.057  26.391  1.00  0.00     0.010 A 
ATOM     31  C   UNL A   1      41.904  22.074  28.533  1.00  0.00     0.010 A 
ATOM     32  C   UNL A   1      42.295  23.172  27.778  1.00  0.00    -0.014 A 
BRANCH  32  33
ATOM     33  C   UNL A   1      42.397  24.465  28.446  1.00  0.00     0.031 A 
ATOM     34  C   UNL A   1      41.240  25.368  28.205  1.00  0.00     0.074 A 
ATOM     35  C   UNL A   1      43.333  24.734  29.384  1.00  0.00     0.049 A 
ATOM     36  N   UNL A   1      41.218  26.451  27.502  1.00  0.00    -0.248 NA
ATOM     37  C   UNL A   1      39.911  24.941  28.673  1.00  0.00     0.031 C 
ATOM     38  C   UNL A   1      44.317  23.809  29.967  1.00  0.00     0.029 A 
ATOM     39  N   UNL A   1      43.535  25.871  30.104  1.00  0.00    -0.354 N 
ATOM     40  C   UNL A   1      39.932  26.968  27.643  1.00  0.00     0.074 A 
ATOM     41  C   UNL A   1      39.129  25.906  28.184  1.00  0.00     0.031 C 
ATOM     42  C   UNL A   1      44.825  24.338  31.101  1.00  0.00     0.029 A 
ATOM     43  C   UNL A   1      44.363  25.707  31.210  1.00  0.00     0.049 A 
ATOM     44  H   UNL A   1      43.130  26.737  29.863  1.00  0.00     0.167 HD
ATOM     45  C   UNL A   1      39.719  28.313  27.591  1.00  0.00     0.037 A 
ATOM     46  C   UNL A   1      44.654  26.632  32.153  1.00  0.00     0.037 A 
ATOM     47  C   UNL A   1      40.892  28.989  27.094  1.00  0.00     0.049 A 
ATOM     48  C   UNL A   1      44.373  27.960  31.565  1.00  0.00     0.074 A 
ATOM     49  C   UNL A   1      41.547  29.112  25.889  1.00  0.00     0.029 A 
ATOM     50  N   UNL A   1      41.771  29.355  28.078  1.00  0.00    -0.354 N 
ATOM     51  N   UNL A   1      45.048  28.468  30.572  1.00  0.00    -0.248 NA
ATOM     52  C   UNL A   1      43.096  28.602  31.845  1.00  0.00     0.031 C 
ATOM     53  C   UNL A   1      42.920  29.331  26.215  1.00  0.00     0.029 A 
ATOM     54  C   UNL A   1      43.052  29.382  27.602  1.00  0.00     0.049 A 
ATOM     55  H   UNL A   1      41.515  29.570  29.004  1.00  0.00     0.167 HD
ATOM     56  C   UNL A   1      44.110  29.175  29.845  1.00  0.00     0.074 A 
ATOM     57  C   UNL A   1      42.994  29.378  30.763  1.00  0.00     0.031 C 
ATOM     58  C   UNL A   1      44.191  29.244  28.485  1.00  0.00     0.037 A 
BRANCH  45  59
ATOM     59  C   UNL A   1      38.713  29.071  28.439  1.00  0.00     0.057 A 
ATOM     60  C   UNL A   1      38.722  28.876  29.836  1.00  0.00     0.134 A 
ATOM     61  C   UNL A   1      37.556  29.702  27.938  1.00  0.00     0.134 A 
ATOM     62  F   UNL A   1      39.757  28.274  30.440  1.00  0.00    -0.206 F 
ATOM     63  C   UNL A   1      37.631  29.208  30.652  1.00  0.00     0.040 A 
ATOM     64  C   UNL A   1      36.483  30.082  28.752  1.00  0.00     0.040 A 
ATOM     65  F   UNL A   1      37.346  29.889  26.631  1.00  0.00    -0.206 F 
ATOM     66  C   UNL A   1      36.503  29.806  30.109  1.00  0.00     0.006 A 
ENDBRANCH  45  59
BRANCH  46  67
ATOM     67  C   UNL A   1      44.932  26.447  33.591  1.00  0.00     0.057 A 
ATOM     68  C   UNL A   1      46.211  26.673  34.117  1.00  0.00     0.134 A 
ATOM     69  C   UNL A   1      43.888  26.333  34.525  1.00  0.00     0.134 A 
ATOM     70  F   UNL A   1      47.265  26.821  33.300  1.00  0.00    -0.206 F 
ATOM     71  C   UNL A   1      46.434  26.826  35.491  1.00  0.00     0.040 A 
ATOM     72  C   UNL A   1      44.098  26.480  35.900  1.00  0.00     0.040 A 
ATOM     73  F   UNL A   1      42.618  26.171  34.125  1.00  0.00    -0.206 F 
ATOM     74  C   UNL A   1      45.372  26.748  36.386  1.00  0.00     0.006 A 
ENDBRANCH  46  67
BRANCH  58  75
ATOM     75  C   UNL A   1      45.529  28.983  27.860  1.00  0.00     0.057 A 
ATOM     76  C   UNL A   1      45.961  27.740  27.380  1.00  0.00     0.134 A 
ATOM     77  C   UNL A   1      46.384  30.072  27.660  1.00  0.00     0.134 A 
ATOM     78  F   UNL A   1      45.181  26.655  27.454  1.00  0.00    -0.206 F 
ATOM     79  C   UNL A   1      47.207  27.583  26.764  1.00  0.00     0.040 A 
ATOM     80  C   UNL A   1      47.613  29.937  27.016  1.00  0.00     0.040 A 
ATOM     81  F   UNL A   1      46.015  31.301  28.056  1.00  0.00    -0.206 F 
ATOM     82  C   UNL A   1      48.035  28.687  26.575  1.00  0.00     0.006 A 
ENDBRANCH  58  75
ENDBRANCH  32  33
ENDBRANCH  24  27
ENDBRANCH  22  23
ENDBRANCH   1  22
TORSDOF 12
ENDMDL
MODEL 2
REMARK VINA RESULT:     -11.9      2.393      7.690
REMARK SMILES CC(=O)c1nnn(-c2ccc(C(=O)NCCCNC(=O)c3ccc(-c4c5nc(c(-c6c(F)cccc6F)c6ccc([nH]6)c(-c6c(F)cccc6F)c6nc(c(-c7c(F)cccc7F)c7ccc4[nH]7)C=C6)C=C5)cc3)cc2)c1C
REMARK SMILES IDX 16 1 15 2 14 3 12 4 13 5 11 7 8 8 9 9 76 10 10 11 75 12 7 13
REMARK SMILES IDX 4 14 5 15 77 16 6 17 78 18 2 19 1 20 3 21 17 22 18 23 19 24
REMARK SMILES IDX 20 26 21 27 22 28 74 29 23 30 73 31 24 32 25 33 26 34 67 35
REMARK SMILES IDX 27 36 72 37 66 38 68 39 28 40 71 41 65 42 64 43 29 45 55 46
REMARK SMILES IDX 38 47 54 48 39 49 42 50 53 51 69 52 40 53 41 54 52 56 70 57
REMARK SMILES IDX 43 58 30 59 31 60 36 61 32 62 33 63 35 64 37 65 34 66 56 67
REMARK SMILES IDX 57 68 62 69 58 70 59 71 61 72 63 73 60 74 44 75 45 76 50 77
REMARK SMILES IDX 46 78 47 79 49 80 51 81 48 82
REMARK H PARENT 14 6 18 25 68 44 42 55
REMARK Flexibility Score: inf
ROOT
ATOM      1  C   UNL A   1      33.560  28.237  26.720  1.00  0.00     0.042 C 
ENDROOT
BRANCH   1   2
ATOM      2  C   UNL A   1      33.367  27.855  25.245  1.00  0.00     0.118 C 
BRANCH   2   3
ATOM      3  N   UNL A   1      32.303  26.874  25.062  1.00  0.00    -0.352 N 
ATOM      4  C   UNL A   1      32.310  25.498  25.026  1.00  0.00     0.251 C 
ATOM      5  O   UNL A   1      31.226  24.917  24.967  1.00  0.00    -0.269 OA
ATOM      6  H   UNL A   1      31.411  27.272  24.941  1.00  0.00     0.163 HD
BRANCH   4   7
ATOM      7  C   UNL A   1      33.560  24.691  25.123  1.00  0.00     0.039 A 
ATOM      8  C   UNL A   1      36.005  23.403  25.518  1.00  0.00     0.067 A 
ATOM      9  C   UNL A   1      35.031  23.320  26.511  1.00  0.00     0.029 A 
ATOM     10  C   UNL A   1      35.723  23.996  24.289  1.00  0.00     0.029 A 
ATOM     11  C   UNL A   1      33.817  23.993  26.318  1.00  0.00     0.016 A 
ATOM     12  C   UNL A   1      34.488  24.596  24.086  1.00  0.00     0.016 A 
BRANCH   8  13
ATOM     13  N   UNL A   1      37.315  22.962  25.760  1.00  0.00    -0.217 N 
ATOM     14  C   UNL A   1      39.061  21.741  26.193  1.00  0.00     0.151 A 
ATOM     15  N   UNL A   1      39.310  23.038  26.572  1.00  0.00    -0.126 NA
ATOM     16  C   UNL A   1      37.803  21.673  25.618  1.00  0.00     0.073 A 
ATOM     17  N   UNL A   1      38.280  23.788  26.201  1.00  0.00    -0.061 NA
ATOM     18  C   UNL A   1      37.056  20.594  24.924  1.00  0.00     0.069 C 
BRANCH  14  19
ATOM     19  C   UNL A   1      40.049  20.688  26.370  1.00  0.00     0.181 C 
ATOM     20  C   UNL A   1      40.947  20.760  27.580  1.00  0.00     0.095 C 
ATOM     21  O   UNL A   1      40.153  19.760  25.569  1.00  0.00    -0.293 OA
ENDBRANCH  14  19
ENDBRANCH   8  13
ENDBRANCH   4   7
ENDBRANCH   2   3
ENDBRANCH   1   2
BRANCH   1  22
ATOM     22  C   UNL A   1      35.001  28.560  27.063  1.00  0.00     0.118 C 
BRANCH  22  23
ATOM     23  N   UNL A   1      35.114  29.615  28.070  1.00  0.00    -0.352 N 
ATOM     24  C   UNL A   1      36.154  29.848  28.953  1.00  0.00     0.251 C 
ATOM     25  H   UNL A   1      34.354  30.238  28.126  1.00  0.00     0.163 HD
ATOM     26  O   UNL A   1      35.988  30.509  29.961  1.00  0.00    -0.269 OA
BRANCH  24  27
ATOM     27  C   UNL A   1      37.471  29.265  28.644  1.00  0.00     0.039 A 
ATOM     28  C   UNL A   1      38.197  29.663  27.519  1.00  0.00     0.014 A 
ATOM     29  C   UNL A   1      37.998  28.351  29.550  1.00  0.00     0.014 A 
ATOM     30  C   UNL A   1      39.501  29.197  27.369  1.00  0.00     0.010 A 
ATOM     31  C   UNL A   1      39.333  28.054  29.503  1.00  0.00     0.010 A 
ATOM     32  C   UNL A   1      40.073  28.413  28.384  1.00  0.00    -0.014 A 
BRANCH  32  33
ATOM     33  C   UNL A   1      41.484  28.046  28.345  1.00  0.00     0.031 A 
ATOM     34  C   UNL A   1      41.770  26.804  27.579  1.00  0.00     0.074 A 
ATOM     35  C   UNL A   1      42.468  28.874  28.762  1.00  0.00     0.049 A 
ATOM     36  N   UNL A   1      42.141  25.658  28.044  1.00  0.00    -0.248 NA
ATOM     37  C   UNL A   1      41.460  26.785  26.139  1.00  0.00     0.031 C 
ATOM     38  C   UNL A   1      42.343  30.268  29.215  1.00  0.00     0.029 A 
ATOM     39  N   UNL A   1      43.817  28.684  28.764  1.00  0.00    -0.354 N 
ATOM     40  C   UNL A   1      42.348  24.847  26.930  1.00  0.00     0.074 A 
ATOM     41  C   UNL A   1      41.717  25.513  25.824  1.00  0.00     0.031 C 
ATOM     42  C   UNL A   1      43.555  30.863  29.203  1.00  0.00     0.029 A 
ATOM     43  C   UNL A   1      44.557  29.847  28.946  1.00  0.00     0.049 A 
ATOM     44  H   UNL A   1      44.232  27.798  28.648  1.00  0.00     0.167 HD
ATOM     45  C   UNL A   1      43.284  23.856  26.962  1.00  0.00     0.037 A 
ATOM     46  C   UNL A   1      45.902  29.972  28.891  1.00  0.00     0.037 A 
ATOM     47  C   UNL A   1      43.729  23.628  28.314  1.00  0.00     0.049 A 
ATOM     48  C   UNL A   1      46.476  28.626  29.111  1.00  0.00     0.074 A 
ATOM     49  C   UNL A   1      43.208  23.084  29.466  1.00  0.00     0.029 A 
ATOM     50  N   UNL A   1      44.804  24.398  28.673  1.00  0.00    -0.354 N 
ATOM     51  N   UNL A   1      46.382  27.976  30.237  1.00  0.00    -0.248 NA
ATOM     52  C   UNL A   1      46.865  27.826  27.959  1.00  0.00     0.031 C 
ATOM     53  C   UNL A   1      43.866  23.753  30.543  1.00  0.00     0.029 A 
ATOM     54  C   UNL A   1      44.797  24.648  30.017  1.00  0.00     0.049 A 
ATOM     55  H   UNL A   1      45.489  24.727  28.047  1.00  0.00     0.167 HD
ATOM     56  C   UNL A   1      46.263  26.653  29.861  1.00  0.00     0.074 A 
ATOM     57  C   UNL A   1      46.754  26.604  28.488  1.00  0.00     0.031 C 
ATOM     58  C   UNL A   1      45.484  25.792  30.577  1.00  0.00     0.037 A 
BRANCH  45  59
ATOM     59  C   UNL A   1      44.171  23.456  25.796  1.00  0.00     0.057 A 
ATOM     60  C   UNL A   1      44.310  22.087  25.489  1.00  0.00     0.134 A 
ATOM     61  C   UNL A   1      45.129  24.297  25.193  1.00  0.00     0.134 A 
ATOM     62  F   UNL A   1      43.472  21.178  26.009  1.00  0.00    -0.206 F 
ATOM     63  C   UNL A   1      45.366  21.590  24.713  1.00  0.00     0.040 A 
ATOM     64  C   UNL A   1      46.157  23.815  24.376  1.00  0.00     0.040 A 
ATOM     65  F   UNL A   1      45.195  25.609  25.441  1.00  0.00    -0.206 F 
ATOM     66  C   UNL A   1      46.299  22.454  24.160  1.00  0.00     0.006 A 
ENDBRANCH  45  59
BRANCH  46  67
ATOM     67  C   UNL A   1      46.719  31.115  28.435  1.00  0.00     0.057 A 
ATOM     68  C   UNL A   1      46.685  31.543  27.101  1.00  0.00     0.134 A 
ATOM     69  C   UNL A   1      47.318  31.993  29.354  1.00  0.00     0.134 A 
ATOM     70  F   UNL A   1      46.109  30.783  26.158  1.00  0.00    -0.206 F 
ATOM     71  C   UNL A   1      47.175  32.795  26.709  1.00  0.00     0.040 A 
ATOM     72  C   UNL A   1      47.815  33.245  28.975  1.00  0.00     0.040 A 
ATOM     73  F   UNL A   1      47.353  31.705  30.664  1.00  0.00    -0.206 F 
ATOM     74  C   UNL A   1      47.726  33.657  27.651  1.00  0.00     0.006 A 
ENDBRANCH  46  67
BRANCH  58  75
ATOM     75  C   UNL A   1      45.179  26.159  31.999  1.00  0.00     0.057 A 
ATOM     76  C   UNL A   1      44.026  26.831  32.425  1.00  0.00     0.134 A 
ATOM     77  C   UNL A   1      46.066  25.729  32.993  1.00  0.00     0.134 A 
ATOM     78  F   UNL A   1      43.081  27.212  31.556  1.00  0.00    -0.206 F 
ATOM     79  C   UNL A   1      43.787  27.097  33.777  1.00  0.00     0.040 A 
ATOM     80  C   UNL A   1      45.823  25.956  34.347  1.00  0.00     0.040 A 
ATOM     81  F   UNL A   1      47.170  25.042  32.660  1.00  0.00    -0.206 F 
ATOM     82  C   UNL A   1      44.686  26.653  34.744  1.00  0.00     0.006 A 
ENDBRANCH  58  75
ENDBRANCH  32  33
ENDBRANCH  24  27
ENDBRANCH  22  23
ENDBRANCH   1  22
TORSDOF 12
ENDMDL
MODEL 3
REMARK VINA RESULT:     -11.8      3.811      9.056
REMARK SMILES CC(=O)c1nnn(-c2ccc(C(=O)NCCCNC(=O)c3ccc(-c4c5nc(c(-c6c(F)cccc6F)c6ccc([nH]6)c(-c6c(F)cccc6F)c6nc(c(-c7c(F)cccc7F)c7ccc4[nH]7)C=C6)C=C5)cc3)cc2)c1C
REMARK SMILES IDX 16 1 15 2 14 3 12 4 13 5 11 7 8 8 9 9 76 10 10 11 75 12 7 13
REMARK SMILES IDX 4 14 5 15 77 16 6 17 78 18 2 19 1 20 3 21 17 22 18 23 19 24
REMARK SMILES IDX 20 26 21 27 22 28 74 29 23 30 73 31 24 32 25 33 26 34 67 35
REMARK SMILES IDX 27 36 72 37 66 38 68 39 28 40 71 41 65 42 64 43 29 45 55 46
REMARK SMILES IDX 38 47 54 48 39 49 42 50 53 51 69 52 40 53 41 54 52 56 70 57
REMARK SMILES IDX 43 58 30 59 31 60 36 61 32 62 33 63 35 64 37 65 34 66 56 67
REMARK SMILES IDX 57 68 62 69 58 70 59 71 61 72 63 73 60 74 44 75 45 76 50 77
REMARK SMILES IDX 46 78 47 79 49 80 51 81 48 82
REMARK H PARENT 14 6 18 25 68 44 42 55
REMARK Flexibility Score: inf
ROOT
ATOM      1  C   UNL A   1      31.392  31.686  26.788  1.00  0.00     0.042 C 
ENDROOT
BRANCH   1   2
ATOM      2  C   UNL A   1      31.644  30.601  25.731  1.00  0.00     0.118 C 
BRANCH   2   3
ATOM      3  N   UNL A   1      30.651  30.630  24.662  1.00  0.00    -0.352 N 
ATOM      4  C   UNL A   1      30.383  29.765  23.625  1.00  0.00     0.251 C 
ATOM      5  O   UNL A   1      29.395  29.991  22.927  1.00  0.00    -0.269 OA
ATOM      6  H   UNL A   1      30.061  31.418  24.687  1.00  0.00     0.163 HD
BRANCH   4   7
ATOM      7  C   UNL A   1      31.195  28.543  23.359  1.00  0.00     0.039 A 
ATOM      8  C   UNL A   1      32.705  26.202  23.183  1.00  0.00     0.067 A 
ATOM      9  C   UNL A   1      31.333  26.104  23.416  1.00  0.00     0.029 A 
ATOM     10  C   UNL A   1      33.295  27.432  22.901  1.00  0.00     0.029 A 
ATOM     11  C   UNL A   1      30.588  27.285  23.532  1.00  0.00     0.016 A 
ATOM     12  C   UNL A   1      32.526  28.587  22.949  1.00  0.00     0.016 A 
BRANCH   8  13
ATOM     13  N   UNL A   1      33.533  25.076  23.303  1.00  0.00    -0.217 N 
ATOM     14  C   UNL A   1      35.003  23.628  23.989  1.00  0.00     0.151 A 
ATOM     15  N   UNL A   1      34.842  23.502  22.630  1.00  0.00    -0.126 NA
ATOM     16  C   UNL A   1      34.133  24.598  24.457  1.00  0.00     0.073 A 
ATOM     17  N   UNL A   1      33.866  24.314  22.246  1.00  0.00    -0.061 NA
ATOM     18  C   UNL A   1      33.770  25.072  25.816  1.00  0.00     0.069 C 
BRANCH  14  19
ATOM     19  C   UNL A   1      35.934  22.793  24.731  1.00  0.00     0.181 C 
ATOM     20  C   UNL A   1      37.230  23.417  25.189  1.00  0.00     0.095 C 
ATOM     21  O   UNL A   1      35.682  21.617  24.989  1.00  0.00    -0.293 OA
ENDBRANCH  14  19
ENDBRANCH   8  13
ENDBRANCH   4   7
ENDBRANCH   2   3
ENDBRANCH   1   2
BRANCH   1  22
ATOM     22  C   UNL A   1      32.657  32.411  27.203  1.00  0.00     0.118 C 
BRANCH  22  23
ATOM     23  N   UNL A   1      32.399  33.785  27.636  1.00  0.00    -0.352 N 
ATOM     24  C   UNL A   1      33.035  34.501  28.635  1.00  0.00     0.251 C 
ATOM     25  H   UNL A   1      31.682  34.259  27.155  1.00  0.00     0.163 HD
ATOM     26  O   UNL A   1      32.512  35.477  29.139  1.00  0.00    -0.269 OA
BRANCH  24  27
ATOM     27  C   UNL A   1      34.363  34.045  29.078  1.00  0.00     0.039 A 
ATOM     28  C   UNL A   1      34.509  33.156  30.145  1.00  0.00     0.014 A 
ATOM     29  C   UNL A   1      35.467  34.478  28.352  1.00  0.00     0.014 A 
ATOM     30  C   UNL A   1      35.773  32.636  30.412  1.00  0.00     0.010 A 
ATOM     31  C   UNL A   1      36.660  33.823  28.489  1.00  0.00     0.010 A 
ATOM     32  C   UNL A   1      36.842  32.954  29.558  1.00  0.00    -0.014 A 
BRANCH  32  33
ATOM     33  C   UNL A   1      38.139  32.302  29.701  1.00  0.00     0.031 A 
ATOM     34  C   UNL A   1      38.158  30.882  29.262  1.00  0.00     0.074 A 
ATOM     35  C   UNL A   1      39.274  32.982  29.982  1.00  0.00     0.049 A 
ATOM     36  N   UNL A   1      38.263  29.829  30.002  1.00  0.00    -0.248 NA
ATOM     37  C   UNL A   1      37.876  30.584  27.847  1.00  0.00     0.031 C 
ATOM     38  C   UNL A   1      39.449  34.438  30.092  1.00  0.00     0.029 A 
ATOM     39  N   UNL A   1      40.547  32.521  30.120  1.00  0.00    -0.354 N 
ATOM     40  C   UNL A   1      38.305  28.750  29.121  1.00  0.00     0.074 A 
ATOM     41  C   UNL A   1      37.853  29.249  27.852  1.00  0.00     0.031 C 
ATOM     42  C   UNL A   1      40.762  34.746  30.027  1.00  0.00     0.029 A 
ATOM     43  C   UNL A   1      41.521  33.512  30.078  1.00  0.00     0.049 A 
ATOM     44  H   UNL A   1      40.761  31.566  30.238  1.00  0.00     0.167 HD
ATOM     45  C   UNL A   1      39.000  27.623  29.444  1.00  0.00     0.037 A 
ATOM     46  C   UNL A   1      42.862  33.337  30.089  1.00  0.00     0.037 A 
ATOM     47  C   UNL A   1      39.363  27.637  30.839  1.00  0.00     0.049 A 
ATOM     48  C   UNL A   1      43.124  31.994  30.650  1.00  0.00     0.074 A 
ATOM     49  C   UNL A   1      38.716  27.505  32.047  1.00  0.00     0.029 A 
ATOM     50  N   UNL A   1      40.574  28.228  31.084  1.00  0.00    -0.354 N 
ATOM     51  N   UNL A   1      42.871  31.667  31.887  1.00  0.00    -0.248 NA
ATOM     52  C   UNL A   1      43.347  30.878  29.742  1.00  0.00     0.031 C 
ATOM     53  C   UNL A   1      39.487  28.260  32.984  1.00  0.00     0.029 A 
ATOM     54  C   UNL A   1      40.600  28.788  32.331  1.00  0.00     0.049 A 
ATOM     55  H   UNL A   1      41.324  28.248  30.447  1.00  0.00     0.167 HD
ATOM     56  C   UNL A   1      42.472  30.346  31.817  1.00  0.00     0.074 A 
ATOM     57  C   UNL A   1      42.962  29.870  30.529  1.00  0.00     0.031 C 
ATOM     58  C   UNL A   1      41.511  29.865  32.657  1.00  0.00     0.037 A 
BRANCH  45  59
ATOM     59  C   UNL A   1      39.798  26.780  28.464  1.00  0.00     0.057 A 
ATOM     60  C   UNL A   1      40.730  27.420  27.623  1.00  0.00     0.134 A 
ATOM     61  C   UNL A   1      39.465  25.463  28.084  1.00  0.00     0.134 A 
ATOM     62  F   UNL A   1      41.123  28.680  27.863  1.00  0.00    -0.206 F 
ATOM     63  C   UNL A   1      41.225  26.826  26.453  1.00  0.00     0.040 A 
ATOM     64  C   UNL A   1      39.993  24.843  26.946  1.00  0.00     0.040 A 
ATOM     65  F   UNL A   1      38.537  24.742  28.720  1.00  0.00    -0.206 F 
ATOM     66  C   UNL A   1      40.850  25.536  26.107  1.00  0.00     0.006 A 
ENDBRANCH  45  59
BRANCH  46  67
ATOM     67  C   UNL A   1      43.916  34.142  29.438  1.00  0.00     0.057 A 
ATOM     68  C   UNL A   1      44.173  34.026  28.065  1.00  0.00     0.134 A 
ATOM     69  C   UNL A   1      44.488  35.250  30.086  1.00  0.00     0.134 A 
ATOM     70  F   UNL A   1      43.647  33.014  27.359  1.00  0.00    -0.206 F 
ATOM     71  C   UNL A   1      44.917  34.983  27.365  1.00  0.00     0.040 A 
ATOM     72  C   UNL A   1      45.236  36.211  29.398  1.00  0.00     0.040 A 
ATOM     73  F   UNL A   1      44.259  35.485  31.386  1.00  0.00    -0.206 F 
ATOM     74  C   UNL A   1      45.436  36.090  28.028  1.00  0.00     0.006 A 
ENDBRANCH  46  67
BRANCH  58  75
ATOM     75  C   UNL A   1      41.271  30.616  33.933  1.00  0.00     0.057 A 
ATOM     76  C   UNL A   1      40.295  31.606  34.109  1.00  0.00     0.134 A 
ATOM     77  C   UNL A   1      42.014  30.251  35.061  1.00  0.00     0.134 A 
ATOM     78  F   UNL A   1      39.481  31.967  33.110  1.00  0.00    -0.206 F 
ATOM     79  C   UNL A   1      40.097  32.231  35.345  1.00  0.00     0.040 A 
ATOM     80  C   UNL A   1      41.804  30.840  36.307  1.00  0.00     0.040 A 
ATOM     81  F   UNL A   1      42.937  29.279  34.975  1.00  0.00    -0.206 F 
ATOM     82  C   UNL A   1      40.850  31.843  36.451  1.00  0.00     0.006 A 
ENDBRANCH  58  75
ENDBRANCH  32  33
ENDBRANCH  24  27
ENDBRANCH  22  23
ENDBRANCH   1  22
TORSDOF 12
ENDMDL
