MODEL 1
REMARK VINA RESULT:     -10.4      0.000      0.000
REMARK SMILES C=CCCCOc1ccc(C(=O)NCCCNC(=O)c2ccc(-c3c4nc(c(-c5c(F)cccc5F)c5ccc([nH]5)c(-c5c(F)cccc5F)c5nc(c(-c6c(F)cccc6F)c6ccc3[nH]6)C=C5)C=C4)cc2)cc1[N+](=O)[O-]
REMARK SMILES IDX 11 1 12 2 13 3 10 5 7 6 8 7 75 8 9 9 74 10 6 11 5 12 4 13
REMARK SMILES IDX 3 14 2 15 1 16 76 17 77 18 78 19 14 20 15 21 16 22 17 23
REMARK SMILES IDX 18 24 19 26 20 27 21 28 73 29 22 30 72 31 23 32 24 33 25 34
REMARK SMILES IDX 66 35 26 36 71 37 65 38 67 39 27 40 70 41 64 42 63 43 28 45
REMARK SMILES IDX 54 46 37 47 53 48 38 49 41 50 52 51 68 52 39 53 40 54 51 56
REMARK SMILES IDX 69 57 42 58 29 59 30 60 35 61 31 62 32 63 34 64 36 65 33 66
REMARK SMILES IDX 55 67 56 68 61 69 57 70 58 71 60 72 62 73 59 74 43 75 44 76
REMARK SMILES IDX 49 77 45 78 46 79 48 80 50 81 47 82
REMARK H PARENT 13 4 17 25 67 44 41 55
REMARK Flexibility Score: inf
ROOT
ATOM      1  C   UNL A   1      29.770  29.694  23.409  1.00  0.00     0.251 C 
ATOM      2  O   UNL A   1      28.775  30.000  22.755  1.00  0.00    -0.269 OA
ATOM      3  N   UNL A   1      30.319  30.601  24.283  1.00  0.00    -0.352 N 
ATOM      4  H   UNL A   1      29.949  31.512  24.220  1.00  0.00     0.163 HD
ENDROOT
BRANCH   1   5
ATOM      5  C   UNL A   1      30.326  28.330  23.287  1.00  0.00     0.046 A 
ATOM      6  C   UNL A   1      31.480  25.782  23.324  1.00  0.00     0.197 A 
ATOM      7  C   UNL A   1      30.298  26.022  24.030  1.00  0.00     0.055 A 
ATOM      8  C   UNL A   1      31.981  26.778  22.482  1.00  0.00     0.311 A 
ATOM      9  C   UNL A   1      29.725  27.297  24.016  1.00  0.00     0.018 A 
ATOM     10  C   UNL A   1      31.413  28.055  22.459  1.00  0.00     0.103 A 
BRANCH   6  11
ATOM     11  O   UNL A   1      32.133  24.592  23.458  1.00  0.00    -0.487 OA
BRANCH  11  12
ATOM     12  C   UNL A   1      32.618  24.346  24.789  1.00  0.00     0.230 C 
BRANCH  12  13
ATOM     13  C   UNL A   1      33.701  25.352  25.206  1.00  0.00     0.046 C 
BRANCH  13  14
ATOM     14  C   UNL A   1      33.251  26.465  26.165  1.00  0.00     0.030 C 
BRANCH  14  15
ATOM     15  C   UNL A   1      33.734  27.843  25.812  1.00  0.00    -0.035 C 
ATOM     16  C   UNL A   1      34.385  28.628  26.682  1.00  0.00     0.004 C 
ENDBRANCH  14  15
ENDBRANCH  13  14
ENDBRANCH  12  13
ENDBRANCH  11  12
ENDBRANCH   6  11
BRANCH   8  17
ATOM     17  N   UNL A   1      33.193  26.556  21.706  1.00  0.00     0.066 N 
ATOM     18  O   UNL A   1      34.183  27.236  22.018  1.00  0.00    -0.258 OA
ATOM     19  O   UNL A   1      33.155  25.738  20.779  1.00  0.00    -0.258 OA
ENDBRANCH   8  17
ENDBRANCH   1   5
BRANCH   3  20
ATOM     20  C   UNL A   1      31.361  30.431  25.288  1.00  0.00     0.118 C 
BRANCH  20  21
ATOM     21  C   UNL A   1      31.205  31.408  26.450  1.00  0.00     0.042 C 
BRANCH  21  22
ATOM     22  C   UNL A   1      32.515  32.038  26.912  1.00  0.00     0.118 C 
BRANCH  22  23
ATOM     23  N   UNL A   1      32.368  33.445  27.255  1.00  0.00    -0.352 N 
ATOM     24  C   UNL A   1      33.048  34.208  28.172  1.00  0.00     0.251 C 
ATOM     25  H   UNL A   1      31.672  33.925  26.750  1.00  0.00     0.163 HD
ATOM     26  O   UNL A   1      32.635  35.337  28.439  1.00  0.00    -0.269 OA
BRANCH  24  27
ATOM     27  C   UNL A   1      34.254  33.691  28.855  1.00  0.00     0.039 A 
ATOM     28  C   UNL A   1      34.095  32.739  29.869  1.00  0.00     0.014 A 
ATOM     29  C   UNL A   1      35.532  34.160  28.540  1.00  0.00     0.014 A 
ATOM     30  C   UNL A   1      35.216  32.217  30.519  1.00  0.00     0.010 A 
ATOM     31  C   UNL A   1      36.654  33.584  29.136  1.00  0.00     0.010 A 
ATOM     32  C   UNL A   1      36.508  32.609  30.134  1.00  0.00    -0.014 A 
BRANCH  32  33
ATOM     33  C   UNL A   1      37.714  32.001  30.755  1.00  0.00     0.031 A 
ATOM     34  C   UNL A   1      38.454  30.890  30.060  1.00  0.00     0.074 A 
ATOM     35  C   UNL A   1      38.107  32.405  31.979  1.00  0.00     0.049 A 
ATOM     36  N   UNL A   1      39.479  30.190  30.477  1.00  0.00    -0.248 NA
ATOM     37  C   UNL A   1      37.960  30.497  28.731  1.00  0.00     0.031 C 
ATOM     38  C   UNL A   1      37.451  33.442  32.778  1.00  0.00     0.029 A 
ATOM     39  N   UNL A   1      39.147  31.985  32.772  1.00  0.00    -0.354 N 
ATOM     40  C   UNL A   1      39.742  29.267  29.472  1.00  0.00     0.074 A 
ATOM     41  C   UNL A   1      38.740  29.464  28.447  1.00  0.00     0.031 C 
ATOM     42  C   UNL A   1      38.112  33.589  33.936  1.00  0.00     0.029 A 
ATOM     43  C   UNL A   1      39.213  32.632  33.982  1.00  0.00     0.049 A 
ATOM     44  H   UNL A   1      39.783  31.286  32.498  1.00  0.00     0.167 HD
ATOM     45  C   UNL A   1      40.740  28.354  29.400  1.00  0.00     0.037 A 
ATOM     46  C   UNL A   1      40.057  32.465  35.018  1.00  0.00     0.037 A 
ATOM     47  C   UNL A   1      41.749  28.175  30.413  1.00  0.00     0.049 A 
ATOM     48  C   UNL A   1      41.148  31.436  34.920  1.00  0.00     0.074 A 
ATOM     49  C   UNL A   1      42.838  27.322  30.403  1.00  0.00     0.029 A 
ATOM     50  N   UNL A   1      41.791  28.860  31.618  1.00  0.00    -0.354 N 
ATOM     51  N   UNL A   1      41.428  30.619  33.932  1.00  0.00    -0.248 NA
ATOM     52  C   UNL A   1      42.044  31.307  36.077  1.00  0.00     0.031 C 
ATOM     53  C   UNL A   1      43.508  27.452  31.623  1.00  0.00     0.029 A 
ATOM     54  C   UNL A   1      42.870  28.427  32.371  1.00  0.00     0.049 A 
ATOM     55  H   UNL A   1      41.148  29.551  31.898  1.00  0.00     0.167 HD
ATOM     56  C   UNL A   1      42.546  29.902  34.338  1.00  0.00     0.074 A 
ATOM     57  C   UNL A   1      42.902  30.390  35.653  1.00  0.00     0.031 C 
ATOM     58  C   UNL A   1      43.217  28.926  33.678  1.00  0.00     0.037 A 
BRANCH  45  59
ATOM     59  C   UNL A   1      40.790  27.473  28.186  1.00  0.00     0.057 A 
ATOM     60  C   UNL A   1      40.071  26.273  28.112  1.00  0.00     0.134 A 
ATOM     61  C   UNL A   1      41.534  27.848  27.060  1.00  0.00     0.134 A 
ATOM     62  F   UNL A   1      39.345  25.848  29.157  1.00  0.00    -0.206 F 
ATOM     63  C   UNL A   1      40.111  25.465  26.973  1.00  0.00     0.040 A 
ATOM     64  C   UNL A   1      41.559  27.064  25.905  1.00  0.00     0.040 A 
ATOM     65  F   UNL A   1      42.239  28.989  27.058  1.00  0.00    -0.206 F 
ATOM     66  C   UNL A   1      40.852  25.864  25.862  1.00  0.00     0.006 A 
ENDBRANCH  45  59
BRANCH  46  67
ATOM     67  C   UNL A   1      39.913  33.303  36.236  1.00  0.00     0.057 A 
ATOM     68  C   UNL A   1      40.590  34.522  36.358  1.00  0.00     0.134 A 
ATOM     69  C   UNL A   1      39.108  32.902  37.308  1.00  0.00     0.134 A 
ATOM     70  F   UNL A   1      41.393  34.950  35.372  1.00  0.00    -0.206 F 
ATOM     71  C   UNL A   1      40.486  35.304  37.509  1.00  0.00     0.040 A 
ATOM     72  C   UNL A   1      38.973  33.687  38.455  1.00  0.00     0.040 A 
ATOM     73  F   UNL A   1      38.429  31.747  37.252  1.00  0.00    -0.206 F 
ATOM     74  C   UNL A   1      39.671  34.890  38.561  1.00  0.00     0.006 A 
ENDBRANCH  46  67
BRANCH  58  75
ATOM     75  C   UNL A   1      44.425  28.344  34.354  1.00  0.00     0.057 A 
ATOM     76  C   UNL A   1      44.330  27.271  35.247  1.00  0.00     0.134 A 
ATOM     77  C   UNL A   1      45.705  28.843  34.076  1.00  0.00     0.134 A 
ATOM     78  F   UNL A   1      43.132  26.755  35.566  1.00  0.00    -0.206 F 
ATOM     79  C   UNL A   1      45.462  26.729  35.859  1.00  0.00     0.040 A 
ATOM     80  C   UNL A   1      46.846  28.291  34.660  1.00  0.00     0.040 A 
ATOM     81  F   UNL A   1      45.867  29.865  33.222  1.00  0.00    -0.206 F 
ATOM     82  C   UNL A   1      46.725  27.234  35.559  1.00  0.00     0.006 A 
ENDBRANCH  58  75
ENDBRANCH  32  33
ENDBRANCH  24  27
ENDBRANCH  22  23
ENDBRANCH  21  22
ENDBRANCH  20  21
ENDBRANCH   3  20
TORSDOF 16
ENDMDL
MODEL 2
REMARK VINA RESULT:     -10.1      1.485      2.292
REMARK SMILES C=CCCCOc1ccc(C(=O)NCCCNC(=O)c2ccc(-c3c4nc(c(-c5c(F)cccc5F)c5ccc([nH]5)c(-c5c(F)cccc5F)c5nc(c(-c6c(F)cccc6F)c6ccc3[nH]6)C=C5)C=C4)cc2)cc1[N+](=O)[O-]
REMARK SMILES IDX 11 1 12 2 13 3 10 5 7 6 8 7 75 8 9 9 74 10 6 11 5 12 4 13
REMARK SMILES IDX 3 14 2 15 1 16 76 17 77 18 78 19 14 20 15 21 16 22 17 23
REMARK SMILES IDX 18 24 19 26 20 27 21 28 73 29 22 30 72 31 23 32 24 33 25 34
REMARK SMILES IDX 66 35 26 36 71 37 65 38 67 39 27 40 70 41 64 42 63 43 28 45
REMARK SMILES IDX 54 46 37 47 53 48 38 49 41 50 52 51 68 52 39 53 40 54 51 56
REMARK SMILES IDX 69 57 42 58 29 59 30 60 35 61 31 62 32 63 34 64 36 65 33 66
REMARK SMILES IDX 55 67 56 68 61 69 57 70 58 71 60 72 62 73 59 74 43 75 44 76
REMARK SMILES IDX 49 77 45 78 46 79 48 80 50 81 47 82
REMARK H PARENT 13 4 17 25 67 44 41 55
REMARK Flexibility Score: inf
ROOT
ATOM      1  C   UNL A   1      30.865  28.961  23.910  1.00  0.00     0.251 C 
ATOM      2  O   UNL A   1      30.129  28.862  22.929  1.00  0.00    -0.269 OA
ATOM      3  N   UNL A   1      30.885  30.126  24.635  1.00  0.00    -0.352 N 
ATOM      4  H   UNL A   1      30.398  30.878  24.225  1.00  0.00     0.163 HD
ENDROOT
BRANCH   1   5
ATOM      5  C   UNL A   1      31.674  27.796  24.326  1.00  0.00     0.046 A 
ATOM      6  C   UNL A   1      33.208  25.513  24.834  1.00  0.00     0.197 A 
ATOM      7  C   UNL A   1      33.801  26.633  24.247  1.00  0.00     0.055 A 
ATOM      8  C   UNL A   1      31.896  25.606  25.303  1.00  0.00     0.311 A 
ATOM      9  C   UNL A   1      33.033  27.772  23.988  1.00  0.00     0.018 A 
ATOM     10  C   UNL A   1      31.120  26.743  25.051  1.00  0.00     0.103 A 
BRANCH   6  11
ATOM     11  O   UNL A   1      33.904  24.344  24.947  1.00  0.00    -0.487 OA
BRANCH  11  12
ATOM     12  C   UNL A   1      34.225  23.740  23.682  1.00  0.00     0.230 C 
BRANCH  12  13
ATOM     13  C   UNL A   1      35.266  22.620  23.822  1.00  0.00     0.046 C 
BRANCH  13  14
ATOM     14  C   UNL A   1      36.738  23.062  23.794  1.00  0.00     0.030 C 
BRANCH  14  15
ATOM     15  C   UNL A   1      37.358  23.296  25.142  1.00  0.00    -0.035 C 
ATOM     16  C   UNL A   1      38.124  22.384  25.756  1.00  0.00     0.004 C 
ENDBRANCH  14  15
ENDBRANCH  13  14
ENDBRANCH  12  13
ENDBRANCH  11  12
ENDBRANCH   6  11
BRANCH   8  17
ATOM     17  N   UNL A   1      31.253  24.471  25.949  1.00  0.00     0.066 N 
ATOM     18  O   UNL A   1      31.329  24.422  27.187  1.00  0.00    -0.258 OA
ATOM     19  O   UNL A   1      30.704  23.623  25.235  1.00  0.00    -0.258 OA
ENDBRANCH   8  17
ENDBRANCH   1   5
BRANCH   3  20
ATOM     20  C   UNL A   1      31.513  30.430  25.915  1.00  0.00     0.118 C 
BRANCH  20  21
ATOM     21  C   UNL A   1      31.390  31.907  26.282  1.00  0.00     0.042 C 
BRANCH  21  22
ATOM     22  C   UNL A   1      32.466  32.401  27.243  1.00  0.00     0.118 C 
BRANCH  22  23
ATOM     23  N   UNL A   1      32.309  33.808  27.582  1.00  0.00    -0.352 N 
ATOM     24  C   UNL A   1      33.024  34.593  28.452  1.00  0.00     0.251 C 
ATOM     25  H   UNL A   1      31.576  34.268  27.113  1.00  0.00     0.163 HD
ATOM     26  O   UNL A   1      32.605  35.716  28.732  1.00  0.00    -0.269 OA
BRANCH  24  27
ATOM     27  C   UNL A   1      34.279  34.107  29.069  1.00  0.00     0.039 A 
ATOM     28  C   UNL A   1      34.197  33.345  30.240  1.00  0.00     0.014 A 
ATOM     29  C   UNL A   1      35.530  34.426  28.536  1.00  0.00     0.014 A 
ATOM     30  C   UNL A   1      35.362  32.854  30.837  1.00  0.00     0.010 A 
ATOM     31  C   UNL A   1      36.686  33.874  29.088  1.00  0.00     0.010 A 
ATOM     32  C   UNL A   1      36.615  33.085  30.245  1.00  0.00    -0.014 A 
BRANCH  32  33
ATOM     33  C   UNL A   1      37.856  32.499  30.818  1.00  0.00     0.031 A 
ATOM     34  C   UNL A   1      38.469  31.266  30.211  1.00  0.00     0.074 A 
ATOM     35  C   UNL A   1      38.396  33.041  31.927  1.00  0.00     0.049 A 
ATOM     36  N   UNL A   1      39.504  30.573  30.613  1.00  0.00    -0.248 NA
ATOM     37  C   UNL A   1      37.817  30.728  29.007  1.00  0.00     0.031 C 
ATOM     38  C   UNL A   1      37.874  34.210  32.637  1.00  0.00     0.029 A 
ATOM     39  N   UNL A   1      39.498  32.673  32.660  1.00  0.00    -0.354 N 
ATOM     40  C   UNL A   1      39.618  29.511  29.724  1.00  0.00     0.074 A 
ATOM     41  C   UNL A   1      38.519  29.624  28.790  1.00  0.00     0.031 C 
ATOM     42  C   UNL A   1      38.664  34.473  33.690  1.00  0.00     0.029 A 
ATOM     43  C   UNL A   1      39.722  33.471  33.755  1.00  0.00     0.049 A 
ATOM     44  H   UNL A   1      40.072  31.909  32.421  1.00  0.00     0.167 HD
ATOM     45  C   UNL A   1      40.564  28.542  29.678  1.00  0.00     0.037 A 
ATOM     46  C   UNL A   1      40.667  33.398  34.711  1.00  0.00     0.037 A 
ATOM     47  C   UNL A   1      41.669  28.444  30.596  1.00  0.00     0.049 A 
ATOM     48  C   UNL A   1      41.698  32.305  34.646  1.00  0.00     0.074 A 
ATOM     49  C   UNL A   1      42.715  27.538  30.592  1.00  0.00     0.029 A 
ATOM     50  N   UNL A   1      41.870  29.281  31.685  1.00  0.00    -0.354 N 
ATOM     51  N   UNL A   1      41.835  31.350  33.757  1.00  0.00    -0.248 NA
ATOM     52  C   UNL A   1      42.709  32.282  35.711  1.00  0.00     0.031 C 
ATOM     53  C   UNL A   1      43.519  27.793  31.708  1.00  0.00     0.029 A 
ATOM     54  C   UNL A   1      43.007  28.893  32.375  1.00  0.00     0.049 A 
ATOM     55  H   UNL A   1      41.290  30.037  31.930  1.00  0.00     0.167 HD
ATOM     56  C   UNL A   1      42.960  30.632  34.141  1.00  0.00     0.074 A 
ATOM     57  C   UNL A   1      43.478  31.271  35.332  1.00  0.00     0.031 C 
ATOM     58  C   UNL A   1      43.515  29.541  33.558  1.00  0.00     0.037 A 
BRANCH  45  59
ATOM     59  C   UNL A   1      40.445  27.506  28.598  1.00  0.00     0.057 A 
ATOM     60  C   UNL A   1      39.625  26.378  28.742  1.00  0.00     0.134 A 
ATOM     61  C   UNL A   1      41.126  27.656  27.383  1.00  0.00     0.134 A 
ATOM     62  F   UNL A   1      38.953  26.166  29.883  1.00  0.00    -0.206 F 
ATOM     63  C   UNL A   1      39.509  25.425  27.728  1.00  0.00     0.040 A 
ATOM     64  C   UNL A   1      40.994  26.726  26.351  1.00  0.00     0.040 A 
ATOM     65  F   UNL A   1      41.920  28.717  27.174  1.00  0.00    -0.206 F 
ATOM     66  C   UNL A   1      40.190  25.601  26.525  1.00  0.00     0.006 A 
ENDBRANCH  45  59
BRANCH  46  67
ATOM     67  C   UNL A   1      40.692  34.397  35.811  1.00  0.00     0.057 A 
ATOM     68  C   UNL A   1      41.464  35.560  35.711  1.00  0.00     0.134 A 
ATOM     69  C   UNL A   1      39.956  34.209  36.986  1.00  0.00     0.134 A 
ATOM     70  F   UNL A   1      42.206  35.786  34.617  1.00  0.00    -0.206 F 
ATOM     71  C   UNL A   1      41.517  36.493  36.748  1.00  0.00     0.040 A 
ATOM     72  C   UNL A   1      39.979  35.146  38.020  1.00  0.00     0.040 A 
ATOM     73  F   UNL A   1      39.192  33.118  37.141  1.00  0.00    -0.206 F 
ATOM     74  C   UNL A   1      40.769  36.290  37.906  1.00  0.00     0.006 A 
ENDBRANCH  46  67
BRANCH  58  75
ATOM     75  C   UNL A   1      44.765  28.989  34.180  1.00  0.00     0.057 A 
ATOM     76  C   UNL A   1      46.037  29.440  33.811  1.00  0.00     0.134 A 
ATOM     77  C   UNL A   1      44.689  28.020  35.189  1.00  0.00     0.134 A 
ATOM     78  F   UNL A   1      46.181  30.358  32.842  1.00  0.00    -0.206 F 
ATOM     79  C   UNL A   1      47.193  28.930  34.407  1.00  0.00     0.040 A 
ATOM     80  C   UNL A   1      45.835  27.523  35.811  1.00  0.00     0.040 A 
ATOM     81  F   UNL A   1      43.500  27.551  35.595  1.00  0.00    -0.206 F 
ATOM     82  C   UNL A   1      47.092  27.974  35.416  1.00  0.00     0.006 A 
ENDBRANCH  58  75
ENDBRANCH  32  33
ENDBRANCH  24  27
ENDBRANCH  22  23
ENDBRANCH  21  22
ENDBRANCH  20  21
ENDBRANCH   3  20
TORSDOF 16
ENDMDL
MODEL 3
REMARK VINA RESULT:     -10.1      3.504      7.470
REMARK SMILES C=CCCCOc1ccc(C(=O)NCCCNC(=O)c2ccc(-c3c4nc(c(-c5c(F)cccc5F)c5ccc([nH]5)c(-c5c(F)cccc5F)c5nc(c(-c6c(F)cccc6F)c6ccc3[nH]6)C=C5)C=C4)cc2)cc1[N+](=O)[O-]
REMARK SMILES IDX 11 1 12 2 13 3 10 5 7 6 8 7 75 8 9 9 74 10 6 11 5 12 4 13
REMARK SMILES IDX 3 14 2 15 1 16 76 17 77 18 78 19 14 20 15 21 16 22 17 23
REMARK SMILES IDX 18 24 19 26 20 27 21 28 73 29 22 30 72 31 23 32 24 33 25 34
REMARK SMILES IDX 66 35 26 36 71 37 65 38 67 39 27 40 70 41 64 42 63 43 28 45
REMARK SMILES IDX 54 46 37 47 53 48 38 49 41 50 52 51 68 52 39 53 40 54 51 56
REMARK SMILES IDX 69 57 42 58 29 59 30 60 35 61 31 62 32 63 34 64 36 65 33 66
REMARK SMILES IDX 55 67 56 68 61 69 57 70 58 71 60 72 62 73 59 74 43 75 44 76
REMARK SMILES IDX 49 77 45 78 46 79 48 80 50 81 47 82
REMARK H PARENT 13 4 17 25 67 44 41 55
REMARK Flexibility Score: inf
ROOT
ATOM      1  C   UNL A   1      30.515  29.223  23.429  1.00  0.00     0.251 C 
ATOM      2  O   UNL A   1      29.843  29.904  22.656  1.00  0.00    -0.269 OA
ATOM      3  N   UNL A   1      31.068  29.799  24.545  1.00  0.00    -0.352 N 
ATOM      4  H   UNL A   1      31.004  30.782  24.578  1.00  0.00     0.163 HD
ENDROOT
BRANCH   1   5
ATOM      5  C   UNL A   1      30.666  27.775  23.170  1.00  0.00     0.046 A 
ATOM      6  C   UNL A   1      31.028  25.009  22.962  1.00  0.00     0.197 A 
ATOM      7  C   UNL A   1      29.891  25.516  23.594  1.00  0.00     0.055 A 
ATOM      8  C   UNL A   1      31.889  25.891  22.303  1.00  0.00     0.311 A 
ATOM      9  C   UNL A   1      29.713  26.899  23.704  1.00  0.00     0.018 A 
ATOM     10  C   UNL A   1      31.718  27.275  22.405  1.00  0.00     0.103 A 
BRANCH   6  11
ATOM     11  O   UNL A   1      31.292  23.670  22.988  1.00  0.00    -0.487 OA
BRANCH  11  12
ATOM     12  C   UNL A   1      31.994  23.244  24.168  1.00  0.00     0.230 C 
BRANCH  12  13
ATOM     13  C   UNL A   1      31.043  22.689  25.239  1.00  0.00     0.046 C 
BRANCH  13  14
ATOM     14  C   UNL A   1      31.120  23.359  26.619  1.00  0.00     0.030 C 
BRANCH  14  15
ATOM     15  C   UNL A   1      32.122  24.473  26.731  1.00  0.00    -0.035 C 
ATOM     16  C   UNL A   1      31.789  25.764  26.596  1.00  0.00     0.004 C 
ENDBRANCH  14  15
ENDBRANCH  13  14
ENDBRANCH  12  13
ENDBRANCH  11  12
ENDBRANCH   6  11
BRANCH   8  17
ATOM     17  N   UNL A   1      33.068  25.398  21.605  1.00  0.00     0.066 N 
ATOM     18  O   UNL A   1      34.072  25.180  22.301  1.00  0.00    -0.258 OA
ATOM     19  O   UNL A   1      33.008  25.257  20.378  1.00  0.00    -0.258 OA
ENDBRANCH   8  17
ENDBRANCH   1   5
BRANCH   3  20
ATOM     20  C   UNL A   1      31.735  29.190  25.689  1.00  0.00     0.118 C 
BRANCH  20  21
ATOM     21  C   UNL A   1      33.234  29.015  25.457  1.00  0.00     0.042 C 
BRANCH  21  22
ATOM     22  C   UNL A   1      34.063  28.993  26.737  1.00  0.00     0.118 C 
BRANCH  22  23
ATOM     23  N   UNL A   1      33.950  30.229  27.497  1.00  0.00    -0.352 N 
ATOM     24  C   UNL A   1      34.815  30.793  28.403  1.00  0.00     0.251 C 
ATOM     25  H   UNL A   1      33.126  30.742  27.335  1.00  0.00     0.163 HD
ATOM     26  O   UNL A   1      34.439  31.752  29.076  1.00  0.00    -0.269 OA
BRANCH  24  27
ATOM     27  C   UNL A   1      36.180  30.256  28.595  1.00  0.00     0.039 A 
ATOM     28  C   UNL A   1      37.082  30.317  27.527  1.00  0.00     0.014 A 
ATOM     29  C   UNL A   1      36.570  29.658  29.797  1.00  0.00     0.014 A 
ATOM     30  C   UNL A   1      38.385  29.837  27.684  1.00  0.00     0.010 A 
ATOM     31  C   UNL A   1      37.891  29.247  29.977  1.00  0.00     0.010 A 
ATOM     32  C   UNL A   1      38.811  29.330  28.922  1.00  0.00    -0.014 A 
BRANCH  32  33
ATOM     33  C   UNL A   1      40.217  28.894  29.132  1.00  0.00     0.031 A 
ATOM     34  C   UNL A   1      41.226  29.834  29.735  1.00  0.00     0.074 A 
ATOM     35  C   UNL A   1      40.603  27.671  28.719  1.00  0.00     0.049 A 
ATOM     36  N   UNL A   1      42.509  29.658  29.928  1.00  0.00    -0.248 NA
ATOM     37  C   UNL A   1      40.732  31.155  30.153  1.00  0.00     0.031 C 
ATOM     38  C   UNL A   1      39.733  26.681  28.080  1.00  0.00     0.029 A 
ATOM     39  N   UNL A   1      41.829  27.054  28.763  1.00  0.00    -0.354 N 
ATOM     40  C   UNL A   1      42.977  30.847  30.474  1.00  0.00     0.074 A 
ATOM     41  C   UNL A   1      41.851  31.753  30.536  1.00  0.00     0.031 C 
ATOM     42  C   UNL A   1      40.447  25.577  27.809  1.00  0.00     0.029 A 
ATOM     43  C   UNL A   1      41.831  25.794  28.215  1.00  0.00     0.049 A 
ATOM     44  H   UNL A   1      42.630  27.476  29.150  1.00  0.00     0.167 HD
ATOM     45  C   UNL A   1      44.226  31.148  30.903  1.00  0.00     0.037 A 
ATOM     46  C   UNL A   1      42.838  24.915  28.049  1.00  0.00     0.037 A 
ATOM     47  C   UNL A   1      45.341  30.236  30.859  1.00  0.00     0.049 A 
ATOM     48  C   UNL A   1      44.219  25.279  28.521  1.00  0.00     0.074 A 
ATOM     49  C   UNL A   1      46.628  30.426  31.329  1.00  0.00     0.029 A 
ATOM     50  N   UNL A   1      45.300  28.963  30.310  1.00  0.00    -0.354 N 
ATOM     51  N   UNL A   1      44.631  26.381  29.101  1.00  0.00    -0.248 NA
ATOM     52  C   UNL A   1      45.274  24.276  28.321  1.00  0.00     0.031 C 
ATOM     53  C   UNL A   1      47.380  29.289  31.017  1.00  0.00     0.029 A 
ATOM     54  C   UNL A   1      46.547  28.368  30.404  1.00  0.00     0.049 A 
ATOM     55  H   UNL A   1      44.502  28.545  29.912  1.00  0.00     0.167 HD
ATOM     56  C   UNL A   1      45.982  26.192  29.359  1.00  0.00     0.074 A 
ATOM     57  C   UNL A   1      46.317  24.865  28.887  1.00  0.00     0.031 C 
ATOM     58  C   UNL A   1      46.866  27.043  29.935  1.00  0.00     0.037 A 
BRANCH  45  59
ATOM     59  C   UNL A   1      44.458  32.524  31.457  1.00  0.00     0.057 A 
ATOM     60  C   UNL A   1      44.289  32.812  32.818  1.00  0.00     0.134 A 
ATOM     61  C   UNL A   1      44.895  33.566  30.628  1.00  0.00     0.134 A 
ATOM     62  F   UNL A   1      43.863  31.865  33.666  1.00  0.00    -0.206 F 
ATOM     63  C   UNL A   1      44.520  34.091  33.328  1.00  0.00     0.040 A 
ATOM     64  C   UNL A   1      45.157  34.840  31.132  1.00  0.00     0.040 A 
ATOM     65  F   UNL A   1      45.087  33.358  29.316  1.00  0.00    -0.206 F 
ATOM     66  C   UNL A   1      44.963  35.109  32.485  1.00  0.00     0.006 A 
ENDBRANCH  45  59
BRANCH  46  67
ATOM     67  C   UNL A   1      42.577  23.597  27.415  1.00  0.00     0.057 A 
ATOM     68  C   UNL A   1      42.235  22.481  28.187  1.00  0.00     0.134 A 
ATOM     69  C   UNL A   1      42.673  23.420  26.030  1.00  0.00     0.134 A 
ATOM     70  F   UNL A   1      42.147  22.583  29.521  1.00  0.00    -0.206 F 
ATOM     71  C   UNL A   1      42.015  21.231  27.606  1.00  0.00     0.040 A 
ATOM     72  C   UNL A   1      42.430  22.181  25.433  1.00  0.00     0.040 A 
ATOM     73  F   UNL A   1      42.992  24.451  25.234  1.00  0.00    -0.206 F 
ATOM     74  C   UNL A   1      42.107  21.079  26.224  1.00  0.00     0.006 A 
ENDBRANCH  46  67
BRANCH  58  75
ATOM     75  C   UNL A   1      48.273  26.552  30.119  1.00  0.00     0.057 A 
ATOM     76  C   UNL A   1      48.663  25.826  31.251  1.00  0.00     0.134 A 
ATOM     77  C   UNL A   1      49.241  26.778  29.131  1.00  0.00     0.134 A 
ATOM     78  F   UNL A   1      47.788  25.587  32.241  1.00  0.00    -0.206 F 
ATOM     79  C   UNL A   1      49.971  25.363  31.405  1.00  0.00     0.040 A 
ATOM     80  C   UNL A   1      50.543  26.295  29.260  1.00  0.00     0.040 A 
ATOM     81  F   UNL A   1      48.931  27.459  28.017  1.00  0.00    -0.206 F 
ATOM     82  C   UNL A   1      50.913  25.589  30.404  1.00  0.00     0.006 A 
ENDBRANCH  58  75
ENDBRANCH  32  33
ENDBRANCH  24  27
ENDBRANCH  22  23
ENDBRANCH  21  22
ENDBRANCH  20  21
ENDBRANCH   3  20
TORSDOF 16
ENDMDL
