MODEL 1
REMARK VINA RESULT:     -14.8      0.000      0.000
REMARK SMILES O=C1C[C@H](c2cn[nH]c2C(=O)NCCCNC(=O)c2ccc(-c3c4nc(c(-c5c(F)cccc5F)c5ccc([nH]5)c(-c5c(F)cccc5F)c5nc(c(-c6c(F)cccc6F)c6ccc3[nH]6)C=C5)C=C4)cc2)c2c(-c3cccs3)n[nH]c2N1
REMARK SMILES IDX 14 1 13 2 12 3 10 4 11 5 9 7 5 8 6 9 7 10 8 11 4 13 1 14
REMARK SMILES IDX 2 15 3 16 83 17 82 18 73 20 81 21 74 22 80 23 75 25 76 26
REMARK SMILES IDX 79 27 77 28 78 29 15 30 16 31 17 32 18 34 19 35 20 36 72 37
REMARK SMILES IDX 21 38 71 39 22 40 23 41 24 42 65 43 25 44 70 45 64 46 66 47
REMARK SMILES IDX 26 48 69 49 63 50 62 51 27 53 53 54 36 55 52 56 37 57 40 58
REMARK SMILES IDX 51 59 67 60 38 61 39 62 50 64 68 65 41 66 28 67 29 68 34 69
REMARK SMILES IDX 30 70 31 71 33 72 35 73 32 74 54 75 55 76 60 77 56 78 57 79
REMARK SMILES IDX 59 80 61 81 58 82 42 83 43 84 48 85 44 86 45 87 47 88 49 89
REMARK SMILES IDX 46 90
REMARK H PARENT 12 6 8 12 83 19 81 24 16 33 66 52 40 63
REMARK Flexibility Score: inf
ROOT
ATOM      1  C   UNL A   1      35.386  29.800  27.899  1.00  0.00     0.042 C 
ENDROOT
BRANCH   1   2
ATOM      2  C   UNL A   1      34.497  28.520  27.138  1.00  0.00     0.118 C 
BRANCH   2   3
ATOM      3  N   UNL A   1      33.405  28.442  25.249  1.00  0.00    -0.351 N 
ATOM      4  C   UNL A   1      32.924  27.862  24.048  1.00  0.00     0.269 C 
ATOM      5  O   UNL A   1      32.146  28.566  23.396  1.00  0.00    -0.268 OA
ATOM      6  H   UNL A   1      33.017  29.345  25.205  1.00  0.00     0.163 HD
BRANCH   4   7
ATOM      7  C   UNL A   1      33.219  26.515  23.616  1.00  0.00     0.126 A 
ATOM      8  C   UNL A   1      33.270  25.314  24.304  1.00  0.00     0.011 A 
ATOM      9  C   UNL A   1      33.521  24.339  23.321  1.00  0.00     0.140 A 
ATOM     10  N   UNL A   1      33.651  24.871  22.105  1.00  0.00    -0.183 NA
ATOM     11  N   UNL A   1      33.462  26.188  22.310  1.00  0.00    -0.273 N 
ATOM     12  H   UNL A   1      33.496  26.855  21.587  1.00  0.00     0.190 HD
BRANCH   8  13
ATOM     13  C   UNL A   1      33.056  25.166  25.763  1.00  0.00     0.069 C 
ATOM     14  O   UNL A   1      29.293  25.578  26.296  1.00  0.00    -0.275 OA
ATOM     15  C   UNL A   1      30.356  25.018  26.002  1.00  0.00     0.226 C 
ATOM     16  C   UNL A   1      31.704  25.766  26.224  1.00  0.00     0.114 C 
ATOM     17  N   UNL A   1      30.294  23.700  25.615  1.00  0.00    -0.311 N 
ATOM     18  C   UNL A   1      31.434  22.965  25.743  1.00  0.00     0.132 A 
ATOM     19  H   UNL A   1      29.465  23.305  25.261  1.00  0.00     0.171 HD
ATOM     20  C   UNL A   1      33.011  23.721  25.992  1.00  0.00     0.031 A 
ATOM     21  N   UNL A   1      31.688  21.135  25.676  1.00  0.00    -0.262 N 
ATOM     22  C   UNL A   1      34.363  22.297  25.952  1.00  0.00     0.108 A 
ATOM     23  N   UNL A   1      33.538  20.754  25.750  1.00  0.00    -0.173 NA
ATOM     24  H   UNL A   1      30.973  20.463  25.612  1.00  0.00     0.192 HD
BRANCH  22  25
ATOM     25  C   UNL A   1      35.810  22.546  25.794  1.00  0.00     0.055 A 
ATOM     26  C   UNL A   1      36.410  23.737  26.127  1.00  0.00     0.022 A 
ATOM     27  S   UNL A   1      36.914  21.356  25.300  1.00  0.00    -0.142 S 
ATOM     28  C   UNL A   1      37.828  23.639  26.036  1.00  0.00     0.012 A 
ATOM     29  C   UNL A   1      38.233  22.422  25.530  1.00  0.00     0.065 A 
ENDBRANCH  22  25
ENDBRANCH   8  13
ENDBRANCH   4   7
ENDBRANCH   2   3
ENDBRANCH   1   2
BRANCH   1  30
ATOM     30  C   UNL A   1      36.882  29.639  27.762  1.00  0.00     0.118 C 
BRANCH  30  31
ATOM     31  N   UNL A   1      37.658  30.603  28.526  1.00  0.00    -0.352 N 
ATOM     32  C   UNL A   1      38.882  30.339  29.110  1.00  0.00     0.251 C 
ATOM     33  H   UNL A   1      37.285  31.508  28.635  1.00  0.00     0.163 HD
ATOM     34  O   UNL A   1      39.303  30.948  30.080  1.00  0.00    -0.269 OA
BRANCH  32  35
ATOM     35  C   UNL A   1      39.712  29.360  28.392  1.00  0.00     0.039 A 
ATOM     36  C   UNL A   1      39.871  29.329  27.012  1.00  0.00     0.014 A 
ATOM     37  C   UNL A   1      40.497  28.565  29.224  1.00  0.00     0.014 A 
ATOM     38  C   UNL A   1      40.806  28.424  26.500  1.00  0.00     0.010 A 
ATOM     39  C   UNL A   1      41.661  28.097  28.696  1.00  0.00     0.010 A 
ATOM     40  C   UNL A   1      41.698  27.754  27.374  1.00  0.00    -0.014 A 
BRANCH  40  41
ATOM     41  C   UNL A   1      42.899  27.019  26.958  1.00  0.00     0.031 A 
ATOM     42  C   UNL A   1      42.557  25.582  26.851  1.00  0.00     0.074 A 
ATOM     43  C   UNL A   1      44.124  27.551  26.665  1.00  0.00     0.049 A 
ATOM     44  N   UNL A   1      42.657  24.767  27.842  1.00  0.00    -0.248 NA
ATOM     45  C   UNL A   1      41.713  25.060  25.762  1.00  0.00     0.031 C 
ATOM     46  C   UNL A   1      44.571  28.949  26.539  1.00  0.00     0.029 A 
ATOM     47  N   UNL A   1      45.318  26.878  26.470  1.00  0.00    -0.354 N 
ATOM     48  C   UNL A   1      42.202  23.544  27.394  1.00  0.00     0.074 A 
ATOM     49  C   UNL A   1      41.438  23.825  26.208  1.00  0.00     0.031 C 
ATOM     50  C   UNL A   1      45.847  29.010  26.064  1.00  0.00     0.029 A 
ATOM     51  C   UNL A   1      46.397  27.666  25.995  1.00  0.00     0.049 A 
ATOM     52  H   UNL A   1      45.411  25.915  26.649  1.00  0.00     0.167 HD
ATOM     53  C   UNL A   1      42.795  22.431  27.901  1.00  0.00     0.037 A 
ATOM     54  C   UNL A   1      47.690  27.255  25.760  1.00  0.00     0.037 A 
ATOM     55  C   UNL A   1      43.525  22.780  29.108  1.00  0.00     0.049 A 
ATOM     56  C   UNL A   1      47.881  26.008  26.550  1.00  0.00     0.074 A 
ATOM     57  C   UNL A   1      43.170  23.303  30.337  1.00  0.00     0.029 A 
ATOM     58  N   UNL A   1      44.851  23.096  28.925  1.00  0.00    -0.354 N 
ATOM     59  N   UNL A   1      47.900  26.009  27.854  1.00  0.00    -0.248 NA
ATOM     60  C   UNL A   1      47.434  24.779  25.908  1.00  0.00     0.031 C 
ATOM     61  C   UNL A   1      44.165  24.286  30.629  1.00  0.00     0.029 A 
ATOM     62  C   UNL A   1      45.164  24.211  29.659  1.00  0.00     0.049 A 
ATOM     63  H   UNL A   1      45.478  22.597  28.353  1.00  0.00     0.167 HD
ATOM     64  C   UNL A   1      47.017  25.000  28.199  1.00  0.00     0.074 A 
ATOM     65  C   UNL A   1      46.751  24.282  26.944  1.00  0.00     0.031 C 
ATOM     66  C   UNL A   1      46.303  25.050  29.364  1.00  0.00     0.037 A 
BRANCH  53  67
ATOM     67  C   UNL A   1      43.161  21.228  27.071  1.00  0.00     0.057 A 
ATOM     68  C   UNL A   1      44.039  21.404  25.987  1.00  0.00     0.134 A 
ATOM     69  C   UNL A   1      42.462  20.004  27.084  1.00  0.00     0.134 A 
ATOM     70  F   UNL A   1      44.745  22.537  25.852  1.00  0.00    -0.206 F 
ATOM     71  C   UNL A   1      44.154  20.468  24.953  1.00  0.00     0.040 A 
ATOM     72  C   UNL A   1      42.601  19.043  26.078  1.00  0.00     0.040 A 
ATOM     73  F   UNL A   1      41.534  19.711  28.001  1.00  0.00    -0.206 F 
ATOM     74  C   UNL A   1      43.428  19.285  24.994  1.00  0.00     0.006 A 
ENDBRANCH  53  67
BRANCH  54  75
ATOM     75  C   UNL A   1      48.609  27.526  24.600  1.00  0.00     0.057 A 
ATOM     76  C   UNL A   1      50.009  27.321  24.671  1.00  0.00     0.134 A 
ATOM     77  C   UNL A   1      48.098  27.668  23.305  1.00  0.00     0.134 A 
ATOM     78  F   UNL A   1      50.615  27.137  25.854  1.00  0.00    -0.206 F 
ATOM     79  C   UNL A   1      50.826  27.221  23.526  1.00  0.00     0.040 A 
ATOM     80  C   UNL A   1      48.900  27.558  22.155  1.00  0.00     0.040 A 
ATOM     81  F   UNL A   1      46.783  27.822  23.107  1.00  0.00    -0.206 F 
ATOM     82  C   UNL A   1      50.265  27.318  22.259  1.00  0.00     0.006 A 
ENDBRANCH  54  75
BRANCH  66  83
ATOM     83  C   UNL A   1      46.661  26.112  30.374  1.00  0.00     0.057 A 
ATOM     84  C   UNL A   1      47.809  26.121  31.185  1.00  0.00     0.134 A 
ATOM     85  C   UNL A   1      45.856  27.251  30.422  1.00  0.00     0.134 A 
ATOM     86  F   UNL A   1      48.699  25.123  31.141  1.00  0.00    -0.206 F 
ATOM     87  C   UNL A   1      48.108  27.197  32.035  1.00  0.00     0.040 A 
ATOM     88  C   UNL A   1      46.157  28.342  31.239  1.00  0.00     0.040 A 
ATOM     89  F   UNL A   1      44.776  27.344  29.630  1.00  0.00    -0.206 F 
ATOM     90  C   UNL A   1      47.278  28.313  32.062  1.00  0.00     0.006 A 
ENDBRANCH  66  83
ENDBRANCH  40  41
ENDBRANCH  32  35
ENDBRANCH  30  31
ENDBRANCH   1  30
TORSDOF 12
ENDMDL
MODEL 2
REMARK VINA RESULT:     -14.6      5.804     12.026
REMARK SMILES O=C1C[C@H](c2cn[nH]c2C(=O)NCCCNC(=O)c2ccc(-c3c4nc(c(-c5c(F)cccc5F)c5ccc([nH]5)c(-c5c(F)cccc5F)c5nc(c(-c6c(F)cccc6F)c6ccc3[nH]6)C=C5)C=C4)cc2)c2c(-c3cccs3)n[nH]c2N1
REMARK SMILES IDX 14 1 13 2 12 3 10 4 11 5 9 7 5 8 6 9 7 10 8 11 4 13 1 14
REMARK SMILES IDX 2 15 3 16 83 17 82 18 73 20 81 21 74 22 80 23 75 25 76 26
REMARK SMILES IDX 79 27 77 28 78 29 15 30 16 31 17 32 18 34 19 35 20 36 72 37
REMARK SMILES IDX 21 38 71 39 22 40 23 41 24 42 65 43 25 44 70 45 64 46 66 47
REMARK SMILES IDX 26 48 69 49 63 50 62 51 27 53 53 54 36 55 52 56 37 57 40 58
REMARK SMILES IDX 51 59 67 60 38 61 39 62 50 64 68 65 41 66 28 67 29 68 34 69
REMARK SMILES IDX 30 70 31 71 33 72 35 73 32 74 54 75 55 76 60 77 56 78 57 79
REMARK SMILES IDX 59 80 61 81 58 82 42 83 43 84 48 85 44 86 45 87 47 88 49 89
REMARK SMILES IDX 46 90
REMARK H PARENT 12 6 8 12 83 19 81 24 16 33 66 52 40 63
REMARK Flexibility Score: inf
ROOT
ATOM      1  C   UNL A   1      44.551  30.616  28.021  1.00  0.00     0.042 C 
ENDROOT
BRANCH   1   2
ATOM      2  C   UNL A   1      43.021  29.900  27.627  1.00  0.00     0.118 C 
BRANCH   2   3
ATOM      3  N   UNL A   1      42.506  28.174  26.393  1.00  0.00    -0.351 N 
ATOM      4  C   UNL A   1      42.335  26.802  26.083  1.00  0.00     0.269 C 
ATOM      5  O   UNL A   1      41.840  26.566  24.976  1.00  0.00    -0.268 OA
ATOM      6  H   UNL A   1      42.229  28.605  25.553  1.00  0.00     0.163 HD
BRANCH   4   7
ATOM      7  C   UNL A   1      42.619  25.717  26.995  1.00  0.00     0.126 A 
ATOM      8  C   UNL A   1      42.878  24.373  26.780  1.00  0.00     0.011 A 
ATOM      9  C   UNL A   1      43.168  23.848  28.053  1.00  0.00     0.140 A 
ATOM     10  N   UNL A   1      43.073  24.770  29.012  1.00  0.00    -0.183 NA
ATOM     11  N   UNL A   1      42.742  25.891  28.346  1.00  0.00    -0.273 N 
ATOM     12  H   UNL A   1      42.601  26.759  28.791  1.00  0.00     0.190 HD
BRANCH   8  13
ATOM     13  C   UNL A   1      42.871  23.712  25.454  1.00  0.00     0.069 C 
ATOM     14  O   UNL A   1      46.463  22.544  24.869  1.00  0.00    -0.275 OA
ATOM     15  C   UNL A   1      45.310  22.528  25.315  1.00  0.00     0.226 C 
ATOM     16  C   UNL A   1      44.290  23.606  24.841  1.00  0.00     0.114 C 
ATOM     17  N   UNL A   1      44.952  21.468  26.114  1.00  0.00    -0.311 N 
ATOM     18  C   UNL A   1      43.621  21.196  26.218  1.00  0.00     0.132 A 
ATOM     19  H   UNL A   1      45.625  20.930  26.590  1.00  0.00     0.171 HD
ATOM     20  C   UNL A   1      42.387  22.356  25.712  1.00  0.00     0.031 A 
ATOM     21  N   UNL A   1      42.755  19.701  26.878  1.00  0.00    -0.262 N 
ATOM     22  C   UNL A   1      40.638  21.607  26.197  1.00  0.00     0.108 A 
ATOM     23  N   UNL A   1      40.892  20.014  26.906  1.00  0.00    -0.173 NA
ATOM     24  H   UNL A   1      43.196  18.871  27.168  1.00  0.00     0.192 HD
BRANCH  22  25
ATOM     25  C   UNL A   1      39.392  22.400  26.244  1.00  0.00     0.055 A 
ATOM     26  C   UNL A   1      39.317  23.650  26.809  1.00  0.00     0.022 A 
ATOM     27  S   UNL A   1      37.946  21.912  25.504  1.00  0.00    -0.142 S 
ATOM     28  C   UNL A   1      38.048  24.249  26.560  1.00  0.00     0.012 A 
ATOM     29  C   UNL A   1      37.183  23.385  25.923  1.00  0.00     0.065 A 
ENDBRANCH  22  25
ENDBRANCH   8  13
ENDBRANCH   4   7
ENDBRANCH   2   3
ENDBRANCH   1   2
BRANCH   1  30
ATOM     30  C   UNL A   1      44.693  32.026  27.495  1.00  0.00     0.118 C 
BRANCH  30  31
ATOM     31  N   UNL A   1      45.873  32.726  27.978  1.00  0.00    -0.352 N 
ATOM     32  C   UNL A   1      45.854  33.967  28.584  1.00  0.00     0.251 C 
ATOM     33  H   UNL A   1      46.746  32.285  27.864  1.00  0.00     0.163 HD
ATOM     34  O   UNL A   1      46.810  34.727  28.577  1.00  0.00    -0.269 OA
BRANCH  32  35
ATOM     35  C   UNL A   1      44.643  34.257  29.367  1.00  0.00     0.039 A 
ATOM     36  C   UNL A   1      43.669  35.174  28.992  1.00  0.00     0.014 A 
ATOM     37  C   UNL A   1      44.441  33.392  30.439  1.00  0.00     0.014 A 
ATOM     38  C   UNL A   1      42.511  35.228  29.774  1.00  0.00     0.010 A 
ATOM     39  C   UNL A   1      43.150  33.189  30.822  1.00  0.00     0.010 A 
ATOM     40  C   UNL A   1      42.268  34.229  30.751  1.00  0.00    -0.014 A 
BRANCH  40  41
ATOM     41  C   UNL A   1      40.983  33.999  31.424  1.00  0.00     0.031 A 
ATOM     42  C   UNL A   1      41.221  33.948  32.884  1.00  0.00     0.074 A 
ATOM     43  C   UNL A   1      39.755  33.894  30.832  1.00  0.00     0.049 A 
ATOM     44  N   UNL A   1      41.504  32.857  33.506  1.00  0.00    -0.248 NA
ATOM     45  C   UNL A   1      41.551  35.154  33.664  1.00  0.00     0.031 C 
ATOM     46  C   UNL A   1      39.328  34.108  29.438  1.00  0.00     0.029 A 
ATOM     47  N   UNL A   1      38.567  33.480  31.407  1.00  0.00    -0.354 N 
ATOM     48  C   UNL A   1      41.715  33.200  34.827  1.00  0.00     0.074 A 
ATOM     49  C   UNL A   1      41.951  34.619  34.826  1.00  0.00     0.031 C 
ATOM     50  C   UNL A   1      37.970  34.056  29.333  1.00  0.00     0.029 A 
ATOM     51  C   UNL A   1      37.407  33.646  30.608  1.00  0.00     0.049 A 
ATOM     52  H   UNL A   1      38.530  33.095  32.312  1.00  0.00     0.167 HD
ATOM     53  C   UNL A   1      41.346  32.298  35.774  1.00  0.00     0.037 A 
ATOM     54  C   UNL A   1      36.117  33.280  30.924  1.00  0.00     0.037 A 
ATOM     55  C   UNL A   1      41.163  30.996  35.156  1.00  0.00     0.049 A 
ATOM     56  C   UNL A   1      36.226  32.251  31.995  1.00  0.00     0.074 A 
ATOM     57  C   UNL A   1      41.989  30.125  34.470  1.00  0.00     0.029 A 
ATOM     58  N   UNL A   1      39.882  30.711  34.747  1.00  0.00    -0.354 N 
ATOM     59  N   UNL A   1      36.727  31.068  31.771  1.00  0.00    -0.248 NA
ATOM     60  C   UNL A   1      36.353  32.764  33.353  1.00  0.00     0.031 C 
ATOM     61  C   UNL A   1      41.215  29.669  33.359  1.00  0.00     0.029 A 
ATOM     62  C   UNL A   1      39.912  30.144  33.498  1.00  0.00     0.049 A 
ATOM     63  H   UNL A   1      39.067  30.888  35.271  1.00  0.00     0.167 HD
ATOM     64  C   UNL A   1      37.651  30.901  32.789  1.00  0.00     0.074 A 
ATOM     65  C   UNL A   1      37.380  31.996  33.732  1.00  0.00     0.031 C 
ATOM     66  C   UNL A   1      38.769  30.135  32.614  1.00  0.00     0.037 A 
BRANCH  53  67
ATOM     67  C   UNL A   1      40.652  32.671  37.058  1.00  0.00     0.057 A 
ATOM     68  C   UNL A   1      39.500  33.475  36.988  1.00  0.00     0.134 A 
ATOM     69  C   UNL A   1      41.227  32.557  38.341  1.00  0.00     0.134 A 
ATOM     70  F   UNL A   1      38.875  33.679  35.818  1.00  0.00    -0.206 F 
ATOM     71  C   UNL A   1      39.003  34.174  38.093  1.00  0.00     0.040 A 
ATOM     72  C   UNL A   1      40.713  33.217  39.461  1.00  0.00     0.040 A 
ATOM     73  F   UNL A   1      42.366  31.894  38.566  1.00  0.00    -0.206 F 
ATOM     74  C   UNL A   1      39.614  34.051  39.334  1.00  0.00     0.006 A 
ENDBRANCH  53  67
BRANCH  54  75
ATOM     75  C   UNL A   1      34.820  34.024  30.764  1.00  0.00     0.057 A 
ATOM     76  C   UNL A   1      34.447  35.098  31.609  1.00  0.00     0.134 A 
ATOM     77  C   UNL A   1      34.081  33.919  29.580  1.00  0.00     0.134 A 
ATOM     78  F   UNL A   1      35.102  35.326  32.757  1.00  0.00    -0.206 F 
ATOM     79  C   UNL A   1      33.438  36.023  31.269  1.00  0.00     0.040 A 
ATOM     80  C   UNL A   1      33.081  34.841  29.224  1.00  0.00     0.040 A 
ATOM     81  F   UNL A   1      34.370  32.970  28.681  1.00  0.00    -0.206 F 
ATOM     82  C   UNL A   1      32.766  35.908  30.058  1.00  0.00     0.006 A 
ENDBRANCH  54  75
BRANCH  66  83
ATOM     83  C   UNL A   1      38.866  29.292  31.366  1.00  0.00     0.057 A 
ATOM     84  C   UNL A   1      39.368  29.717  30.124  1.00  0.00     0.134 A 
ATOM     85  C   UNL A   1      38.555  27.935  31.480  1.00  0.00     0.134 A 
ATOM     86  F   UNL A   1      39.789  30.973  29.938  1.00  0.00    -0.206 F 
ATOM     87  C   UNL A   1      39.506  28.838  29.039  1.00  0.00     0.040 A 
ATOM     88  C   UNL A   1      38.716  27.043  30.420  1.00  0.00     0.040 A 
ATOM     89  F   UNL A   1      38.130  27.441  32.653  1.00  0.00    -0.206 F 
ATOM     90  C   UNL A   1      39.178  27.494  29.188  1.00  0.00     0.006 A 
ENDBRANCH  66  83
ENDBRANCH  40  41
ENDBRANCH  32  35
ENDBRANCH  30  31
ENDBRANCH   1  30
TORSDOF 12
ENDMDL
MODEL 3
REMARK VINA RESULT:     -14.2      2.132      2.918
REMARK SMILES O=C1C[C@H](c2cn[nH]c2C(=O)NCCCNC(=O)c2ccc(-c3c4nc(c(-c5c(F)cccc5F)c5ccc([nH]5)c(-c5c(F)cccc5F)c5nc(c(-c6c(F)cccc6F)c6ccc3[nH]6)C=C5)C=C4)cc2)c2c(-c3cccs3)n[nH]c2N1
REMARK SMILES IDX 14 1 13 2 12 3 10 4 11 5 9 7 5 8 6 9 7 10 8 11 4 13 1 14
REMARK SMILES IDX 2 15 3 16 83 17 82 18 73 20 81 21 74 22 80 23 75 25 76 26
REMARK SMILES IDX 79 27 77 28 78 29 15 30 16 31 17 32 18 34 19 35 20 36 72 37
REMARK SMILES IDX 21 38 71 39 22 40 23 41 24 42 65 43 25 44 70 45 64 46 66 47
REMARK SMILES IDX 26 48 69 49 63 50 62 51 27 53 53 54 36 55 52 56 37 57 40 58
REMARK SMILES IDX 51 59 67 60 38 61 39 62 50 64 68 65 41 66 28 67 29 68 34 69
REMARK SMILES IDX 30 70 31 71 33 72 35 73 32 74 54 75 55 76 60 77 56 78 57 79
REMARK SMILES IDX 59 80 61 81 58 82 42 83 43 84 48 85 44 86 45 87 47 88 49 89
REMARK SMILES IDX 46 90
REMARK H PARENT 12 6 8 12 83 19 81 24 16 33 66 52 40 63
REMARK Flexibility Score: inf
ROOT
ATOM      1  C   UNL A   1      34.888  28.871  27.296  1.00  0.00     0.042 C 
ENDROOT
BRANCH   1   2
ATOM      2  C   UNL A   1      33.659  29.464  26.226  1.00  0.00     0.118 C 
BRANCH   2   3
ATOM      3  N   UNL A   1      32.274  28.424  24.897  1.00  0.00    -0.351 N 
ATOM      4  C   UNL A   1      31.833  27.401  24.021  1.00  0.00     0.269 C 
ATOM      5  O   UNL A   1      30.660  27.495  23.645  1.00  0.00    -0.268 OA
ATOM      6  H   UNL A   1      31.491  29.021  24.919  1.00  0.00     0.163 HD
BRANCH   4   7
ATOM      7  C   UNL A   1      32.628  26.258  23.634  1.00  0.00     0.126 A 
ATOM      8  C   UNL A   1      33.132  25.193  24.364  1.00  0.00     0.011 A 
ATOM      9  C   UNL A   1      33.748  24.358  23.414  1.00  0.00     0.140 A 
ATOM     10  N   UNL A   1      33.674  24.858  22.180  1.00  0.00    -0.183 NA
ATOM     11  N   UNL A   1      32.991  26.006  22.340  1.00  0.00    -0.273 N 
ATOM     12  H   UNL A   1      32.772  26.609  21.593  1.00  0.00     0.190 HD
BRANCH   8  13
ATOM     13  C   UNL A   1      32.978  25.024  25.828  1.00  0.00     0.069 C 
ATOM     14  O   UNL A   1      29.223  25.268  26.500  1.00  0.00    -0.275 OA
ATOM     15  C   UNL A   1      30.297  24.756  26.163  1.00  0.00     0.226 C 
ATOM     16  C   UNL A   1      31.619  25.560  26.343  1.00  0.00     0.114 C 
ATOM     17  N   UNL A   1      30.278  23.440  25.765  1.00  0.00    -0.311 N 
ATOM     18  C   UNL A   1      31.453  22.755  25.844  1.00  0.00     0.132 A 
ATOM     19  H   UNL A   1      29.454  23.013  25.437  1.00  0.00     0.171 HD
ATOM     20  C   UNL A   1      33.004  23.577  26.044  1.00  0.00     0.031 A 
ATOM     21  N   UNL A   1      31.783  20.938  25.749  1.00  0.00    -0.262 N 
ATOM     22  C   UNL A   1      34.413  22.213  25.941  1.00  0.00     0.108 A 
ATOM     23  N   UNL A   1      33.649  20.637  25.753  1.00  0.00    -0.173 NA
ATOM     24  H   UNL A   1      31.095  20.236  25.704  1.00  0.00     0.192 HD
BRANCH  22  25
ATOM     25  C   UNL A   1      35.842  22.526  25.733  1.00  0.00     0.055 A 
ATOM     26  C   UNL A   1      36.404  23.734  26.068  1.00  0.00     0.022 A 
ATOM     27  S   UNL A   1      36.974  21.393  25.171  1.00  0.00    -0.142 S 
ATOM     28  C   UNL A   1      37.821  23.698  25.922  1.00  0.00     0.012 A 
ATOM     29  C   UNL A   1      38.255  22.509  25.374  1.00  0.00     0.065 A 
ENDBRANCH  22  25
ENDBRANCH   8  13
ENDBRANCH   4   7
ENDBRANCH   2   3
ENDBRANCH   1   2
BRANCH   1  30
ATOM     30  C   UNL A   1      35.850  29.948  27.742  1.00  0.00     0.118 C 
BRANCH  30  31
ATOM     31  N   UNL A   1      36.051  30.010  29.181  1.00  0.00    -0.352 N 
ATOM     32  C   UNL A   1      36.949  29.229  29.882  1.00  0.00     0.251 C 
ATOM     33  H   UNL A   1      35.508  30.654  29.692  1.00  0.00     0.163 HD
ATOM     34  O   UNL A   1      36.813  28.954  31.063  1.00  0.00    -0.269 OA
BRANCH  32  35
ATOM     35  C   UNL A   1      38.164  28.864  29.138  1.00  0.00     0.039 A 
ATOM     36  C   UNL A   1      38.660  29.572  28.050  1.00  0.00     0.014 A 
ATOM     37  C   UNL A   1      38.906  27.846  29.731  1.00  0.00     0.014 A 
ATOM     38  C   UNL A   1      39.902  29.176  27.545  1.00  0.00     0.010 A 
ATOM     39  C   UNL A   1      40.247  27.853  29.492  1.00  0.00     0.010 A 
ATOM     40  C   UNL A   1      40.699  28.252  28.267  1.00  0.00    -0.014 A 
BRANCH  40  41
ATOM     41  C   UNL A   1      42.119  27.978  28.012  1.00  0.00     0.031 A 
ATOM     42  C   UNL A   1      42.219  26.770  27.162  1.00  0.00     0.074 A 
ATOM     43  C   UNL A   1      43.186  28.724  28.433  1.00  0.00     0.049 A 
ATOM     44  N   UNL A   1      42.293  25.581  27.648  1.00  0.00    -0.248 NA
ATOM     45  C   UNL A   1      41.841  26.785  25.738  1.00  0.00     0.031 C 
ATOM     46  C   UNL A   1      43.250  30.031  29.109  1.00  0.00     0.029 A 
ATOM     47  N   UNL A   1      44.527  28.390  28.385  1.00  0.00    -0.354 N 
ATOM     48  C   UNL A   1      42.313  24.716  26.573  1.00  0.00     0.074 A 
ATOM     49  C   UNL A   1      41.814  25.473  25.457  1.00  0.00     0.031 C 
ATOM     50  C   UNL A   1      44.537  30.474  29.188  1.00  0.00     0.029 A 
ATOM     51  C   UNL A   1      45.432  29.429  28.720  1.00  0.00     0.049 A 
ATOM     52  H   UNL A   1      44.834  27.489  28.134  1.00  0.00     0.167 HD
ATOM     53  C   UNL A   1      43.045  23.578  26.699  1.00  0.00     0.037 A 
ATOM     54  C   UNL A   1      46.806  29.349  28.791  1.00  0.00     0.037 A 
ATOM     55  C   UNL A   1      43.336  23.343  28.103  1.00  0.00     0.049 A 
ATOM     56  C   UNL A   1      47.132  27.905  28.950  1.00  0.00     0.074 A 
ATOM     57  C   UNL A   1      42.564  23.118  29.227  1.00  0.00     0.029 A 
ATOM     58  N   UNL A   1      44.528  23.860  28.553  1.00  0.00    -0.354 N 
ATOM     59  N   UNL A   1      46.832  27.242  30.031  1.00  0.00    -0.248 NA
ATOM     60  C   UNL A   1      47.207  27.135  27.715  1.00  0.00     0.031 C 
ATOM     61  C   UNL A   1      43.151  23.921  30.253  1.00  0.00     0.029 A 
ATOM     62  C   UNL A   1      44.337  24.470  29.766  1.00  0.00     0.049 A 
ATOM     63  H   UNL A   1      45.387  23.800  28.076  1.00  0.00     0.167 HD
ATOM     64  C   UNL A   1      46.201  26.104  29.558  1.00  0.00     0.074 A 
ATOM     65  C   UNL A   1      46.455  26.103  28.110  1.00  0.00     0.031 C 
ATOM     66  C   UNL A   1      45.240  25.467  30.293  1.00  0.00     0.037 A 
BRANCH  53  67
ATOM     67  C   UNL A   1      43.917  23.020  25.603  1.00  0.00     0.057 A 
ATOM     68  C   UNL A   1      43.894  21.633  25.372  1.00  0.00     0.134 A 
ATOM     69  C   UNL A   1      44.988  23.711  25.002  1.00  0.00     0.134 A 
ATOM     70  F   UNL A   1      42.936  20.862  25.909  1.00  0.00    -0.206 F 
ATOM     71  C   UNL A   1      44.903  20.974  24.660  1.00  0.00     0.040 A 
ATOM     72  C   UNL A   1      45.978  23.068  24.253  1.00  0.00     0.040 A 
ATOM     73  F   UNL A   1      45.199  25.019  25.186  1.00  0.00    -0.206 F 
ATOM     74  C   UNL A   1      45.953  21.691  24.103  1.00  0.00     0.006 A 
ENDBRANCH  53  67
BRANCH  54  75
ATOM     75  C   UNL A   1      47.869  30.280  28.275  1.00  0.00     0.057 A 
ATOM     76  C   UNL A   1      47.668  31.123  27.154  1.00  0.00     0.134 A 
ATOM     77  C   UNL A   1      48.975  30.606  29.068  1.00  0.00     0.134 A 
ATOM     78  F   UNL A   1      46.622  30.936  26.336  1.00  0.00    -0.206 F 
ATOM     79  C   UNL A   1      48.490  32.235  26.877  1.00  0.00     0.040 A 
ATOM     80  C   UNL A   1      49.795  31.718  28.810  1.00  0.00     0.040 A 
ATOM     81  F   UNL A   1      49.242  29.908  30.180  1.00  0.00    -0.206 F 
ATOM     82  C   UNL A   1      49.547  32.548  27.723  1.00  0.00     0.006 A 
ENDBRANCH  54  75
BRANCH  66  83
ATOM     83  C   UNL A   1      45.038  25.897  31.725  1.00  0.00     0.057 A 
ATOM     84  C   UNL A   1      45.888  25.594  32.802  1.00  0.00     0.134 A 
ATOM     85  C   UNL A   1      43.988  26.779  31.990  1.00  0.00     0.134 A 
ATOM     86  F   UNL A   1      46.979  24.838  32.635  1.00  0.00    -0.206 F 
ATOM     87  C   UNL A   1      45.670  26.111  34.088  1.00  0.00     0.040 A 
ATOM     88  C   UNL A   1      43.777  27.326  33.256  1.00  0.00     0.040 A 
ATOM     89  F   UNL A   1      43.171  27.166  30.998  1.00  0.00    -0.206 F 
ATOM     90  C   UNL A   1      44.609  26.981  34.316  1.00  0.00     0.006 A 
ENDBRANCH  66  83
ENDBRANCH  40  41
ENDBRANCH  32  35
ENDBRANCH  30  31
ENDBRANCH   1  30
TORSDOF 12
ENDMDL
