MODEL 1
REMARK VINA RESULT:     -12.3      0.000      0.000
REMARK SMILES COc1cc(/C=N/c2cccc(F)c2)ccc1OCc1cccc(C(=O)NCCCNC(=O)c2ccc(-c3c4nc(c(-c5c(F)cccc5F)c5ccc([nH]5)c(-c5c(F)cccc5F)c5nc(c(-c6c(F)cccc6F)c6ccc3[nH]6)C=C5)C=C4)cc2)c1
REMARK SMILES IDX 25 1 26 2 27 3 24 5 20 6 21 7 88 8 22 9 23 10 19 11 18 12
REMARK SMILES IDX 17 13 3 14 4 15 5 16 16 17 15 18 2 19 1 20 6 21 7 22 8 23
REMARK SMILES IDX 9 24 14 25 10 26 12 27 11 28 13 29 28 30 29 31 30 32 31 33
REMARK SMILES IDX 32 34 33 36 34 37 35 38 87 39 36 40 86 41 37 42 38 43 39 44
REMARK SMILES IDX 80 45 40 46 85 47 79 48 81 49 41 50 84 51 78 52 77 53 42 55
REMARK SMILES IDX 68 56 51 57 67 58 52 59 55 60 66 61 82 62 53 63 54 64 65 66
REMARK SMILES IDX 83 67 56 68 43 69 44 70 49 71 45 72 46 73 48 74 50 75 47 76
REMARK SMILES IDX 69 77 70 78 75 79 71 80 72 81 74 82 76 83 73 84 57 85 58 86
REMARK SMILES IDX 63 87 59 88 60 89 62 90 64 91 61 92
REMARK H PARENT 27 4 31 35 81 54 55 65
REMARK Flexibility Score: inf
ROOT
ATOM      1  C   UNL A   1      33.771  29.148  26.495  1.00  0.00     0.251 C 
ATOM      2  O   UNL A   1      34.764  28.988  27.207  1.00  0.00    -0.269 OA
ATOM      3  N   UNL A   1      32.842  30.054  26.934  1.00  0.00    -0.352 N 
ATOM      4  H   UNL A   1      33.062  30.446  27.810  1.00  0.00     0.163 HD
ENDROOT
BRANCH   1   5
ATOM      5  C   UNL A   1      33.665  28.374  25.222  1.00  0.00     0.040 A 
ATOM      6  C   UNL A   1      33.534  26.315  23.891  1.00  0.00    -0.010 A 
ATOM      7  C   UNL A   1      33.536  27.086  22.726  1.00  0.00     0.007 A 
ATOM      8  C   UNL A   1      33.652  26.980  25.126  1.00  0.00     0.021 A 
ATOM      9  C   UNL A   1      33.554  28.478  22.795  1.00  0.00     0.001 A 
ATOM     10  C   UNL A   1      33.606  29.116  24.034  1.00  0.00     0.014 A 
BRANCH   6  11
ATOM     11  C   UNL A   1      33.367  24.801  23.931  1.00  0.00     0.265 C 
BRANCH  11  12
ATOM     12  O   UNL A   1      33.594  24.121  25.164  1.00  0.00    -0.485 OA
BRANCH  12  13
ATOM     13  C   UNL A   1      34.689  23.314  25.309  1.00  0.00     0.161 A 
ATOM     14  C   UNL A   1      34.798  21.940  25.037  1.00  0.00     0.161 A 
ATOM     15  C   UNL A   1      36.057  21.324  25.093  1.00  0.00     0.060 A 
ATOM     16  C   UNL A   1      37.190  22.083  25.414  1.00  0.00    -0.003 A 
ATOM     17  C   UNL A   1      35.822  24.040  25.692  1.00  0.00     0.051 A 
ATOM     18  C   UNL A   1      37.073  23.436  25.732  1.00  0.00     0.014 A 
BRANCH  14  19
ATOM     19  O   UNL A   1      33.660  21.215  24.802  1.00  0.00    -0.493 OA
ATOM     20  C   UNL A   1      33.846  19.801  24.777  1.00  0.00     0.278 C 
ENDBRANCH  14  19
BRANCH  16  21
ATOM     21  C   UNL A   1      38.536  21.487  25.481  1.00  0.00     0.120 C 
ATOM     22  N   UNL A   1      39.419  21.841  26.361  1.00  0.00    -0.256 NA
BRANCH  22  23
ATOM     23  C   UNL A   1      40.695  21.269  26.218  1.00  0.00     0.066 A 
ATOM     24  C   UNL A   1      41.802  22.081  25.955  1.00  0.00     0.028 A 
ATOM     25  C   UNL A   1      40.868  19.882  26.265  1.00  0.00     0.067 A 
ATOM     26  C   UNL A   1      43.068  21.518  25.754  1.00  0.00     0.005 A 
ATOM     27  C   UNL A   1      42.127  19.330  26.071  1.00  0.00     0.125 A 
ATOM     28  C   UNL A   1      43.230  20.135  25.812  1.00  0.00     0.039 A 
ATOM     29  F   UNL A   1      42.278  18.000  26.125  1.00  0.00    -0.207 F 
ENDBRANCH  22  23
ENDBRANCH  16  21
ENDBRANCH  12  13
ENDBRANCH  11  12
ENDBRANCH   6  11
ENDBRANCH   1   5
BRANCH   3  30
ATOM     30  C   UNL A   1      31.601  30.557  26.376  1.00  0.00     0.118 C 
BRANCH  30  31
ATOM     31  C   UNL A   1      31.402  32.039  26.690  1.00  0.00     0.042 C 
BRANCH  31  32
ATOM     32  C   UNL A   1      32.707  32.801  26.892  1.00  0.00     0.118 C 
BRANCH  32  33
ATOM     33  N   UNL A   1      32.499  34.069  27.575  1.00  0.00    -0.352 N 
ATOM     34  C   UNL A   1      33.095  34.578  28.697  1.00  0.00     0.251 C 
ATOM     35  H   UNL A   1      31.821  34.654  27.165  1.00  0.00     0.163 HD
ATOM     36  O   UNL A   1      32.604  35.569  29.243  1.00  0.00    -0.269 OA
BRANCH  34  37
ATOM     37  C   UNL A   1      34.309  33.958  29.268  1.00  0.00     0.039 A 
ATOM     38  C   UNL A   1      35.557  34.319  28.751  1.00  0.00     0.014 A 
ATOM     39  C   UNL A   1      34.226  32.983  30.267  1.00  0.00     0.014 A 
ATOM     40  C   UNL A   1      36.720  33.739  29.263  1.00  0.00     0.010 A 
ATOM     41  C   UNL A   1      35.389  32.462  30.829  1.00  0.00     0.010 A 
ATOM     42  C   UNL A   1      36.646  32.825  30.325  1.00  0.00    -0.014 A 
BRANCH  42  43
ATOM     43  C   UNL A   1      37.873  32.233  30.915  1.00  0.00     0.031 A 
ATOM     44  C   UNL A   1      38.513  31.028  30.284  1.00  0.00     0.074 A 
ATOM     45  C   UNL A   1      38.367  32.735  32.063  1.00  0.00     0.049 A 
ATOM     46  N   UNL A   1      39.539  30.325  30.694  1.00  0.00    -0.248 NA
ATOM     47  C   UNL A   1      37.898  30.526  29.045  1.00  0.00     0.031 C 
ATOM     48  C   UNL A   1      37.800  33.863  32.804  1.00  0.00     0.029 A 
ATOM     49  N   UNL A   1      39.446  32.349  32.816  1.00  0.00    -0.354 N 
ATOM     50  C   UNL A   1      39.678  29.289  29.778  1.00  0.00     0.074 A 
ATOM     51  C   UNL A   1      38.603  29.427  28.820  1.00  0.00     0.031 C 
ATOM     52  C   UNL A   1      38.542  34.084  33.900  1.00  0.00     0.029 A 
ATOM     53  C   UNL A   1      39.613  33.095  33.957  1.00  0.00     0.049 A 
ATOM     54  H   UNL A   1      40.043  31.608  32.564  1.00  0.00     0.167 HD
ATOM     55  C   UNL A   1      40.626  28.323  29.730  1.00  0.00     0.037 A 
ATOM     56  C   UNL A   1      40.523  32.989  34.944  1.00  0.00     0.037 A 
ATOM     57  C   UNL A   1      41.711  28.209  30.669  1.00  0.00     0.049 A 
ATOM     58  C   UNL A   1      41.582  31.927  34.856  1.00  0.00     0.074 A 
ATOM     59  C   UNL A   1      42.770  27.318  30.659  1.00  0.00     0.029 A 
ATOM     60  N   UNL A   1      41.873  29.010  31.789  1.00  0.00    -0.354 N 
ATOM     61  N   UNL A   1      41.751  31.004  33.940  1.00  0.00    -0.248 NA
ATOM     62  C   UNL A   1      42.582  31.897  35.932  1.00  0.00     0.031 C 
ATOM     63  C   UNL A   1      43.548  27.551  31.800  1.00  0.00     0.029 A 
ATOM     64  C   UNL A   1      43.000  28.619  32.493  1.00  0.00     0.049 A 
ATOM     65  H   UNL A   1      41.274  29.749  32.046  1.00  0.00     0.167 HD
ATOM     66  C   UNL A   1      42.884  30.296  34.317  1.00  0.00     0.074 A 
ATOM     67  C   UNL A   1      43.372  30.908  35.537  1.00  0.00     0.031 C 
ATOM     68  C   UNL A   1      43.469  29.236  33.708  1.00  0.00     0.037 A 
BRANCH  55  69
ATOM     69  C   UNL A   1      40.524  27.310  28.625  1.00  0.00     0.057 A 
ATOM     70  C   UNL A   1      41.266  27.427  27.441  1.00  0.00     0.134 A 
ATOM     71  C   UNL A   1      39.686  26.197  28.751  1.00  0.00     0.134 A 
ATOM     72  F   UNL A   1      42.080  28.476  27.250  1.00  0.00    -0.206 F 
ATOM     73  C   UNL A   1      41.150  26.493  26.409  1.00  0.00     0.040 A 
ATOM     74  C   UNL A   1      39.583  25.239  27.738  1.00  0.00     0.040 A 
ATOM     75  F   UNL A   1      38.952  26.017  29.861  1.00  0.00    -0.206 F 
ATOM     76  C   UNL A   1      40.310  25.392  26.560  1.00  0.00     0.006 A 
ENDBRANCH  55  69
BRANCH  56  77
ATOM     77  C   UNL A   1      40.476  33.932  36.089  1.00  0.00     0.057 A 
ATOM     78  C   UNL A   1      41.199  35.130  36.069  1.00  0.00     0.134 A 
ATOM     79  C   UNL A   1      39.690  33.669  37.217  1.00  0.00     0.134 A 
ATOM     80  F   UNL A   1      41.981  35.429  35.021  1.00  0.00    -0.206 F 
ATOM     81  C   UNL A   1      41.151  36.029  37.135  1.00  0.00     0.040 A 
ATOM     82  C   UNL A   1      39.615  34.570  38.281  1.00  0.00     0.040 A 
ATOM     83  F   UNL A   1      38.967  32.543  37.292  1.00  0.00    -0.206 F 
ATOM     84  C   UNL A   1      40.351  35.753  38.242  1.00  0.00     0.006 A 
ENDBRANCH  56  77
BRANCH  68  85
ATOM     85  C   UNL A   1      44.712  28.682  34.341  1.00  0.00     0.057 A 
ATOM     86  C   UNL A   1      45.982  29.187  34.038  1.00  0.00     0.134 A 
ATOM     87  C   UNL A   1      44.631  27.656  35.291  1.00  0.00     0.134 A 
ATOM     88  F   UNL A   1      46.128  30.161  33.126  1.00  0.00    -0.206 F 
ATOM     89  C   UNL A   1      47.132  28.677  34.644  1.00  0.00     0.040 A 
ATOM     90  C   UNL A   1      45.771  27.156  35.922  1.00  0.00     0.040 A 
ATOM     91  F   UNL A   1      43.444  27.134  35.632  1.00  0.00    -0.206 F 
ATOM     92  C   UNL A   1      47.026  27.663  35.594  1.00  0.00     0.006 A 
ENDBRANCH  68  85
ENDBRANCH  42  43
ENDBRANCH  34  37
ENDBRANCH  32  33
ENDBRANCH  31  32
ENDBRANCH  30  31
ENDBRANCH   3  30
TORSDOF 16
ENDMDL
MODEL 2
REMARK VINA RESULT:     -11.9      0.794      6.071
REMARK SMILES COc1cc(/C=N/c2cccc(F)c2)ccc1OCc1cccc(C(=O)NCCCNC(=O)c2ccc(-c3c4nc(c(-c5c(F)cccc5F)c5ccc([nH]5)c(-c5c(F)cccc5F)c5nc(c(-c6c(F)cccc6F)c6ccc3[nH]6)C=C5)C=C4)cc2)c1
REMARK SMILES IDX 25 1 26 2 27 3 24 5 20 6 21 7 88 8 22 9 23 10 19 11 18 12
REMARK SMILES IDX 17 13 3 14 4 15 5 16 16 17 15 18 2 19 1 20 6 21 7 22 8 23
REMARK SMILES IDX 9 24 14 25 10 26 12 27 11 28 13 29 28 30 29 31 30 32 31 33
REMARK SMILES IDX 32 34 33 36 34 37 35 38 87 39 36 40 86 41 37 42 38 43 39 44
REMARK SMILES IDX 80 45 40 46 85 47 79 48 81 49 41 50 84 51 78 52 77 53 42 55
REMARK SMILES IDX 68 56 51 57 67 58 52 59 55 60 66 61 82 62 53 63 54 64 65 66
REMARK SMILES IDX 83 67 56 68 43 69 44 70 49 71 45 72 46 73 48 74 50 75 47 76
REMARK SMILES IDX 69 77 70 78 75 79 71 80 72 81 74 82 76 83 73 84 57 85 58 86
REMARK SMILES IDX 63 87 59 88 60 89 62 90 64 91 61 92
REMARK H PARENT 27 4 31 35 81 54 55 65
REMARK Flexibility Score: inf
ROOT
ATOM      1  C   UNL A   1      33.721  29.204  26.620  1.00  0.00     0.251 C 
ATOM      2  O   UNL A   1      34.739  29.073  27.301  1.00  0.00    -0.269 OA
ATOM      3  N   UNL A   1      32.756  30.043  27.114  1.00  0.00    -0.352 N 
ATOM      4  H   UNL A   1      32.978  30.414  27.999  1.00  0.00     0.163 HD
ENDROOT
BRANCH   1   5
ATOM      5  C   UNL A   1      33.623  28.472  25.322  1.00  0.00     0.040 A 
ATOM      6  C   UNL A   1      33.529  26.457  23.923  1.00  0.00    -0.010 A 
ATOM      7  C   UNL A   1      33.505  27.267  22.784  1.00  0.00     0.007 A 
ATOM      8  C   UNL A   1      33.641  27.082  25.179  1.00  0.00     0.021 A 
ATOM      9  C   UNL A   1      33.493  28.655  22.900  1.00  0.00     0.001 A 
ATOM     10  C   UNL A   1      33.539  29.252  24.160  1.00  0.00     0.014 A 
BRANCH   6  11
ATOM     11  C   UNL A   1      33.397  24.939  23.912  1.00  0.00     0.265 C 
BRANCH  11  12
ATOM     12  O   UNL A   1      33.557  24.231  25.140  1.00  0.00    -0.485 OA
BRANCH  12  13
ATOM     13  C   UNL A   1      34.612  23.376  25.303  1.00  0.00     0.161 A 
ATOM     14  C   UNL A   1      34.684  22.011  24.979  1.00  0.00     0.161 A 
ATOM     15  C   UNL A   1      35.915  21.345  25.071  1.00  0.00     0.060 A 
ATOM     16  C   UNL A   1      37.058  22.045  25.480  1.00  0.00    -0.003 A 
ATOM     17  C   UNL A   1      35.751  24.041  25.773  1.00  0.00     0.051 A 
ATOM     18  C   UNL A   1      36.974  23.386  25.850  1.00  0.00     0.014 A 
BRANCH  14  19
ATOM     19  O   UNL A   1      33.534  21.342  24.656  1.00  0.00    -0.493 OA
ATOM     20  C   UNL A   1      33.617  19.922  24.765  1.00  0.00     0.278 C 
ENDBRANCH  14  19
BRANCH  16  21
ATOM     21  C   UNL A   1      38.375  21.393  25.588  1.00  0.00     0.120 C 
ATOM     22  N   UNL A   1      39.393  21.957  26.157  1.00  0.00    -0.256 NA
BRANCH  22  23
ATOM     23  C   UNL A   1      40.611  21.260  26.070  1.00  0.00     0.066 A 
ATOM     24  C   UNL A   1      40.623  19.862  26.109  1.00  0.00     0.028 A 
ATOM     25  C   UNL A   1      41.828  21.947  26.014  1.00  0.00     0.067 A 
ATOM     26  C   UNL A   1      41.833  19.159  26.082  1.00  0.00     0.005 A 
ATOM     27  C   UNL A   1      43.024  21.243  25.981  1.00  0.00     0.125 A 
ATOM     28  C   UNL A   1      43.039  19.854  26.017  1.00  0.00     0.039 A 
ATOM     29  F   UNL A   1      44.181  21.915  25.920  1.00  0.00    -0.207 F 
ENDBRANCH  22  23
ENDBRANCH  16  21
ENDBRANCH  12  13
ENDBRANCH  11  12
ENDBRANCH   6  11
ENDBRANCH   1   5
BRANCH   3  30
ATOM     30  C   UNL A   1      31.476  30.497  26.605  1.00  0.00     0.118 C 
BRANCH  30  31
ATOM     31  C   UNL A   1      31.356  32.019  26.659  1.00  0.00     0.042 C 
BRANCH  31  32
ATOM     32  C   UNL A   1      32.684  32.728  26.905  1.00  0.00     0.118 C 
BRANCH  32  33
ATOM     33  N   UNL A   1      32.505  33.999  27.591  1.00  0.00    -0.352 N 
ATOM     34  C   UNL A   1      33.156  34.516  28.678  1.00  0.00     0.251 C 
ATOM     35  H   UNL A   1      31.805  34.579  27.213  1.00  0.00     0.163 HD
ATOM     36  O   UNL A   1      32.689  35.509  29.243  1.00  0.00    -0.269 OA
BRANCH  34  37
ATOM     37  C   UNL A   1      34.401  33.905  29.188  1.00  0.00     0.039 A 
ATOM     38  C   UNL A   1      34.318  32.984  30.237  1.00  0.00     0.014 A 
ATOM     39  C   UNL A   1      35.652  34.274  28.685  1.00  0.00     0.014 A 
ATOM     40  C   UNL A   1      35.480  32.401  30.749  1.00  0.00     0.010 A 
ATOM     41  C   UNL A   1      36.803  33.636  29.143  1.00  0.00     0.010 A 
ATOM     42  C   UNL A   1      36.729  32.704  30.187  1.00  0.00    -0.014 A 
BRANCH  42  43
ATOM     43  C   UNL A   1      37.971  32.060  30.685  1.00  0.00     0.031 A 
ATOM     44  C   UNL A   1      38.715  32.647  31.852  1.00  0.00     0.074 A 
ATOM     45  C   UNL A   1      38.470  30.989  30.037  1.00  0.00     0.049 A 
ATOM     46  N   UNL A   1      39.853  32.274  32.381  1.00  0.00    -0.248 NA
ATOM     47  C   UNL A   1      38.117  33.830  32.490  1.00  0.00     0.031 C 
ATOM     48  C   UNL A   1      37.873  30.365  28.855  1.00  0.00     0.029 A 
ATOM     49  N   UNL A   1      39.602  30.251  30.270  1.00  0.00    -0.354 N 
ATOM     50  C   UNL A   1      40.117  33.187  33.394  1.00  0.00     0.074 A 
ATOM     51  C   UNL A   1      39.045  34.159  33.375  1.00  0.00     0.031 C 
ATOM     52  C   UNL A   1      38.639  29.331  28.472  1.00  0.00     0.029 A 
ATOM     53  C   UNL A   1      39.795  29.241  29.359  1.00  0.00     0.049 A 
ATOM     54  H   UNL A   1      40.217  30.427  31.018  1.00  0.00     0.167 HD
ATOM     55  C   UNL A   1      41.147  33.203  34.273  1.00  0.00     0.037 A 
ATOM     56  C   UNL A   1      40.797  28.349  29.245  1.00  0.00     0.037 A 
ATOM     57  C   UNL A   1      42.195  32.216  34.308  1.00  0.00     0.049 A 
ATOM     58  C   UNL A   1      41.916  28.368  30.246  1.00  0.00     0.074 A 
ATOM     59  C   UNL A   1      43.237  32.095  35.210  1.00  0.00     0.029 A 
ATOM     60  N   UNL A   1      42.335  31.181  33.393  1.00  0.00    -0.354 N 
ATOM     61  N   UNL A   1      42.110  29.187  31.251  1.00  0.00    -0.248 NA
ATOM     62  C   UNL A   1      42.950  27.333  30.105  1.00  0.00     0.031 C 
ATOM     63  C   UNL A   1      44.034  31.013  34.815  1.00  0.00     0.029 A 
ATOM     64  C   UNL A   1      43.460  30.433  33.695  1.00  0.00     0.049 A 
ATOM     65  H   UNL A   1      41.723  31.006  32.642  1.00  0.00     0.167 HD
ATOM     66  C   UNL A   1      43.275  28.758  31.873  1.00  0.00     0.074 A 
ATOM     67  C   UNL A   1      43.734  27.594  31.142  1.00  0.00     0.031 C 
ATOM     68  C   UNL A   1      43.906  29.279  32.953  1.00  0.00     0.037 A 
BRANCH  55  69
ATOM     69  C   UNL A   1      41.191  34.329  35.266  1.00  0.00     0.057 A 
ATOM     70  C   UNL A   1      41.869  35.526  35.001  1.00  0.00     0.134 A 
ATOM     71  C   UNL A   1      40.536  34.221  36.499  1.00  0.00     0.134 A 
ATOM     72  F   UNL A   1      42.528  35.692  33.844  1.00  0.00    -0.206 F 
ATOM     73  C   UNL A   1      41.924  36.560  35.938  1.00  0.00     0.040 A 
ATOM     74  C   UNL A   1      40.558  35.259  37.433  1.00  0.00     0.040 A 
ATOM     75  F   UNL A   1      39.860  33.105  36.816  1.00  0.00    -0.206 F 
ATOM     76  C   UNL A   1      41.262  36.428  37.157  1.00  0.00     0.006 A 
ENDBRANCH  55  69
BRANCH  56  77
ATOM     77  C   UNL A   1      40.769  27.353  28.145  1.00  0.00     0.057 A 
ATOM     78  C   UNL A   1      40.017  26.177  28.253  1.00  0.00     0.134 A 
ATOM     79  C   UNL A   1      41.471  27.564  26.953  1.00  0.00     0.134 A 
ATOM     80  F   UNL A   1      39.336  25.914  29.378  1.00  0.00    -0.206 F 
ATOM     81  C   UNL A   1      39.975  25.241  27.219  1.00  0.00     0.040 A 
ATOM     82  C   UNL A   1      41.419  26.647  25.902  1.00  0.00     0.040 A 
ATOM     83  F   UNL A   1      42.201  28.676  26.784  1.00  0.00    -0.206 F 
ATOM     84  C   UNL A   1      40.672  25.478  26.036  1.00  0.00     0.006 A 
ENDBRANCH  56  77
BRANCH  68  85
ATOM     85  C   UNL A   1      45.151  28.584  33.420  1.00  0.00     0.057 A 
ATOM     86  C   UNL A   1      45.105  27.516  34.324  1.00  0.00     0.134 A 
ATOM     87  C   UNL A   1      46.407  28.967  32.931  1.00  0.00     0.134 A 
ATOM     88  F   UNL A   1      43.935  27.110  34.839  1.00  0.00    -0.206 F 
ATOM     89  C   UNL A   1      46.267  26.864  34.740  1.00  0.00     0.040 A 
ATOM     90  C   UNL A   1      47.573  28.307  33.321  1.00  0.00     0.040 A 
ATOM     91  F   UNL A   1      46.520  29.978  32.057  1.00  0.00    -0.206 F 
ATOM     92  C   UNL A   1      47.505  27.255  34.232  1.00  0.00     0.006 A 
ENDBRANCH  68  85
ENDBRANCH  42  43
ENDBRANCH  34  37
ENDBRANCH  32  33
ENDBRANCH  31  32
ENDBRANCH  30  31
ENDBRANCH   3  30
TORSDOF 16
ENDMDL
MODEL 3
REMARK VINA RESULT:     -11.9      2.414      3.569
REMARK SMILES COc1cc(/C=N/c2cccc(F)c2)ccc1OCc1cccc(C(=O)NCCCNC(=O)c2ccc(-c3c4nc(c(-c5c(F)cccc5F)c5ccc([nH]5)c(-c5c(F)cccc5F)c5nc(c(-c6c(F)cccc6F)c6ccc3[nH]6)C=C5)C=C4)cc2)c1
REMARK SMILES IDX 25 1 26 2 27 3 24 5 20 6 21 7 88 8 22 9 23 10 19 11 18 12
REMARK SMILES IDX 17 13 3 14 4 15 5 16 16 17 15 18 2 19 1 20 6 21 7 22 8 23
REMARK SMILES IDX 9 24 14 25 10 26 12 27 11 28 13 29 28 30 29 31 30 32 31 33
REMARK SMILES IDX 32 34 33 36 34 37 35 38 87 39 36 40 86 41 37 42 38 43 39 44
REMARK SMILES IDX 80 45 40 46 85 47 79 48 81 49 41 50 84 51 78 52 77 53 42 55
REMARK SMILES IDX 68 56 51 57 67 58 52 59 55 60 66 61 82 62 53 63 54 64 65 66
REMARK SMILES IDX 83 67 56 68 43 69 44 70 49 71 45 72 46 73 48 74 50 75 47 76
REMARK SMILES IDX 69 77 70 78 75 79 71 80 72 81 74 82 76 83 73 84 57 85 58 86
REMARK SMILES IDX 63 87 59 88 60 89 62 90 64 91 61 92
REMARK H PARENT 27 4 31 35 81 54 55 65
REMARK Flexibility Score: inf
ROOT
ATOM      1  C   UNL A   1      32.922  28.907  26.307  1.00  0.00     0.251 C 
ATOM      2  O   UNL A   1      33.644  28.416  27.177  1.00  0.00    -0.269 OA
ATOM      3  N   UNL A   1      32.206  30.021  26.662  1.00  0.00    -0.352 N 
ATOM      4  H   UNL A   1      32.322  30.275  27.606  1.00  0.00     0.163 HD
ENDROOT
BRANCH   1   5
ATOM      5  C   UNL A   1      32.896  28.279  24.952  1.00  0.00     0.040 A 
ATOM      6  C   UNL A   1      31.977  26.808  23.214  1.00  0.00    -0.010 A 
ATOM      7  C   UNL A   1      33.052  27.142  22.385  1.00  0.00     0.007 A 
ATOM      8  C   UNL A   1      31.950  27.349  24.514  1.00  0.00     0.021 A 
ATOM      9  C   UNL A   1      34.011  28.062  22.802  1.00  0.00     0.001 A 
ATOM     10  C   UNL A   1      33.927  28.635  24.071  1.00  0.00     0.014 A 
BRANCH   6  11
ATOM     11  C   UNL A   1      30.801  25.932  22.803  1.00  0.00     0.265 C 
BRANCH  11  12
ATOM     12  O   UNL A   1      30.233  25.052  23.770  1.00  0.00    -0.485 OA
BRANCH  12  13
ATOM     13  C   UNL A   1      30.899  23.915  24.136  1.00  0.00     0.161 A 
ATOM     14  C   UNL A   1      30.845  23.230  25.361  1.00  0.00     0.161 A 
ATOM     15  C   UNL A   1      31.479  21.985  25.483  1.00  0.00     0.060 A 
ATOM     16  C   UNL A   1      32.155  21.436  24.385  1.00  0.00    -0.003 A 
ATOM     17  C   UNL A   1      31.635  23.380  23.071  1.00  0.00     0.051 A 
ATOM     18  C   UNL A   1      32.251  22.140  23.186  1.00  0.00     0.014 A 
BRANCH  14  19
ATOM     19  O   UNL A   1      30.241  23.831  26.433  1.00  0.00    -0.493 OA
ATOM     20  C   UNL A   1      29.563  22.937  27.315  1.00  0.00     0.278 C 
ENDBRANCH  14  19
BRANCH  16  21
ATOM     21  C   UNL A   1      32.832  20.130  24.459  1.00  0.00     0.120 C 
ATOM     22  N   UNL A   1      32.213  19.032  24.763  1.00  0.00    -0.256 NA
BRANCH  22  23
ATOM     23  C   UNL A   1      33.021  17.891  24.913  1.00  0.00     0.066 A 
ATOM     24  C   UNL A   1      34.366  17.929  24.534  1.00  0.00     0.028 A 
ATOM     25  C   UNL A   1      32.480  16.688  25.376  1.00  0.00     0.067 A 
ATOM     26  C   UNL A   1      35.165  16.783  24.626  1.00  0.00     0.005 A 
ATOM     27  C   UNL A   1      33.279  15.557  25.471  1.00  0.00     0.125 A 
ATOM     28  C   UNL A   1      34.617  15.591  25.098  1.00  0.00     0.039 A 
ATOM     29  F   UNL A   1      32.749  14.412  25.923  1.00  0.00    -0.207 F 
ENDBRANCH  22  23
ENDBRANCH  16  21
ENDBRANCH  12  13
ENDBRANCH  11  12
ENDBRANCH   6  11
ENDBRANCH   1   5
BRANCH   3  30
ATOM     30  C   UNL A   1      31.312  30.902  25.936  1.00  0.00     0.118 C 
BRANCH  30  31
ATOM     31  C   UNL A   1      31.280  32.302  26.549  1.00  0.00     0.042 C 
BRANCH  31  32
ATOM     32  C   UNL A   1      32.568  32.681  27.271  1.00  0.00     0.118 C 
BRANCH  32  33
ATOM     33  N   UNL A   1      32.586  34.086  27.653  1.00  0.00    -0.352 N 
ATOM     34  C   UNL A   1      33.344  34.738  28.588  1.00  0.00     0.251 C 
ATOM     35  H   UNL A   1      31.953  34.657  27.161  1.00  0.00     0.163 HD
ATOM     36  O   UNL A   1      33.035  35.886  28.919  1.00  0.00    -0.269 OA
BRANCH  34  37
ATOM     37  C   UNL A   1      34.518  34.092  29.210  1.00  0.00     0.039 A 
ATOM     38  C   UNL A   1      34.309  33.128  30.202  1.00  0.00     0.014 A 
ATOM     39  C   UNL A   1      35.821  34.467  28.869  1.00  0.00     0.014 A 
ATOM     40  C   UNL A   1      35.401  32.511  30.817  1.00  0.00     0.010 A 
ATOM     41  C   UNL A   1      36.907  33.797  29.427  1.00  0.00     0.010 A 
ATOM     42  C   UNL A   1      36.708  32.822  30.415  1.00  0.00    -0.014 A 
BRANCH  42  43
ATOM     43  C   UNL A   1      37.881  32.143  31.023  1.00  0.00     0.031 A 
ATOM     44  C   UNL A   1      38.578  31.031  30.289  1.00  0.00     0.074 A 
ATOM     45  C   UNL A   1      38.271  32.478  32.268  1.00  0.00     0.049 A 
ATOM     46  N   UNL A   1      39.567  30.271  30.686  1.00  0.00    -0.248 NA
ATOM     47  C   UNL A   1      38.077  30.711  28.944  1.00  0.00     0.031 C 
ATOM     48  C   UNL A   1      37.637  33.498  33.105  1.00  0.00     0.029 A 
ATOM     49  N   UNL A   1      39.281  31.983  33.052  1.00  0.00    -0.354 N 
ATOM     50  C   UNL A   1      39.789  29.370  29.651  1.00  0.00     0.074 A 
ATOM     51  C   UNL A   1      38.802  29.647  28.631  1.00  0.00     0.031 C 
ATOM     52  C   UNL A   1      38.279  33.559  34.282  1.00  0.00     0.029 A 
ATOM     53  C   UNL A   1      39.345  32.563  34.295  1.00  0.00     0.049 A 
ATOM     54  H   UNL A   1      39.900  31.279  32.752  1.00  0.00     0.167 HD
ATOM     55  C   UNL A   1      40.741  28.412  29.552  1.00  0.00     0.037 A 
ATOM     56  C   UNL A   1      40.166  32.313  35.333  1.00  0.00     0.037 A 
ATOM     57  C   UNL A   1      41.741  28.160  30.558  1.00  0.00     0.049 A 
ATOM     58  C   UNL A   1      41.232  31.265  35.192  1.00  0.00     0.074 A 
ATOM     59  C   UNL A   1      42.800  27.270  30.517  1.00  0.00     0.029 A 
ATOM     60  N   UNL A   1      41.801  28.797  31.788  1.00  0.00    -0.354 N 
ATOM     61  N   UNL A   1      41.484  30.476  34.175  1.00  0.00    -0.248 NA
ATOM     62  C   UNL A   1      42.134  31.079  36.337  1.00  0.00     0.031 C 
ATOM     63  C   UNL A   1      43.474  27.337  31.743  1.00  0.00     0.029 A 
ATOM     64  C   UNL A   1      42.863  28.303  32.526  1.00  0.00     0.049 A 
ATOM     65  H   UNL A   1      41.180  29.499  32.091  1.00  0.00     0.167 HD
ATOM     66  C   UNL A   1      42.582  29.713  34.548  1.00  0.00     0.074 A 
ATOM     67  C   UNL A   1      42.960  30.147  35.878  1.00  0.00     0.031 C 
ATOM     68  C   UNL A   1      43.222  28.742  33.852  1.00  0.00     0.037 A 
BRANCH  55  69
ATOM     69  C   UNL A   1      40.741  27.562  28.314  1.00  0.00     0.057 A 
ATOM     70  C   UNL A   1      41.469  27.918  27.170  1.00  0.00     0.134 A 
ATOM     71  C   UNL A   1      40.016  26.365  28.268  1.00  0.00     0.134 A 
ATOM     72  F   UNL A   1      42.176  29.057  27.141  1.00  0.00    -0.206 F 
ATOM     73  C   UNL A   1      41.446  27.134  26.014  1.00  0.00     0.040 A 
ATOM     74  C   UNL A   1      40.008  25.557  27.129  1.00  0.00     0.040 A 
ATOM     75  F   UNL A   1      39.303  25.959  29.330  1.00  0.00    -0.206 F 
ATOM     76  C   UNL A   1      40.717  25.947  25.995  1.00  0.00     0.006 A 
ENDBRANCH  55  69
BRANCH  56  77
ATOM     77  C   UNL A   1      40.015  33.090  36.588  1.00  0.00     0.057 A 
ATOM     78  C   UNL A   1      39.102  32.699  37.575  1.00  0.00     0.134 A 
ATOM     79  C   UNL A   1      40.795  34.224  36.842  1.00  0.00     0.134 A 
ATOM     80  F   UNL A   1      38.317  31.630  37.381  1.00  0.00    -0.206 F 
ATOM     81  C   UNL A   1      38.962  33.415  38.764  1.00  0.00     0.040 A 
ATOM     82  C   UNL A   1      40.682  34.936  38.037  1.00  0.00     0.040 A 
ATOM     83  F   UNL A   1      41.695  34.643  35.941  1.00  0.00    -0.206 F 
ATOM     84  C   UNL A   1      39.758  34.534  39.001  1.00  0.00     0.006 A 
ENDBRANCH  56  77
BRANCH  68  85
ATOM     85  C   UNL A   1      44.407  28.096  34.508  1.00  0.00     0.057 A 
ATOM     86  C   UNL A   1      44.270  26.982  35.345  1.00  0.00     0.134 A 
ATOM     87  C   UNL A   1      45.702  28.574  34.269  1.00  0.00     0.134 A 
ATOM     88  F   UNL A   1      43.055  26.485  35.623  1.00  0.00    -0.206 F 
ATOM     89  C   UNL A   1      45.379  26.377  35.938  1.00  0.00     0.040 A 
ATOM     90  C   UNL A   1      46.821  27.961  34.836  1.00  0.00     0.040 A 
ATOM     91  F   UNL A   1      45.903  29.632  33.471  1.00  0.00    -0.206 F 
ATOM     92  C   UNL A   1      46.660  26.862  35.678  1.00  0.00     0.006 A 
ENDBRANCH  68  85
ENDBRANCH  42  43
ENDBRANCH  34  37
ENDBRANCH  32  33
ENDBRANCH  31  32
ENDBRANCH  30  31
ENDBRANCH   3  30
TORSDOF 16
ENDMDL
