MODEL 1
REMARK VINA RESULT:     -10.4      0.000      0.000
REMARK SMILES C=C(C)C(=O)OCC[C@@H](C(C)=O)C(=O)NCCCNC(=O)c1ccc(-c2c3nc(c(-c4c(F)cccc4F)c4ccc([nH]4)c(-c4c(F)cccc4F)c4nc(c(-c5c(F)cccc5F)c5ccc2[nH]5)C=C4)C=C3)cc1
REMARK SMILES IDX 13 1 14 2 15 3 9 5 8 6 7 7 6 8 4 9 5 10 2 11 1 12 3 13 10 14
REMARK SMILES IDX 11 15 12 16 16 17 17 18 18 19 19 20 20 21 21 23 22 24 23 25
REMARK SMILES IDX 75 26 24 27 74 28 25 29 26 30 27 31 68 32 28 33 73 34 67 35
REMARK SMILES IDX 69 36 29 37 72 38 66 39 65 40 30 42 56 43 39 44 55 45 40 46
REMARK SMILES IDX 43 47 54 48 70 49 41 50 42 51 53 53 71 54 44 55 31 56 32 57
REMARK SMILES IDX 37 58 33 59 34 60 36 61 38 62 35 63 57 64 58 65 63 66 59 67
REMARK SMILES IDX 60 68 62 69 64 70 61 71 45 72 46 73 51 74 47 75 48 76 50 77
REMARK SMILES IDX 52 78 49 79
REMARK H PARENT 15 4 19 22 69 41 43 52
REMARK Flexibility Score: inf
ROOT
ATOM      1  C   UNL A   1      32.536  29.132  24.951  1.00  0.00     0.230 C 
ATOM      2  O   UNL A   1      33.546  28.938  24.272  1.00  0.00    -0.274 OA
ATOM      3  N   UNL A   1      32.439  30.305  25.633  1.00  0.00    -0.355 N 
ATOM      4  H   UNL A   1      33.198  30.922  25.518  1.00  0.00     0.163 HD
ENDROOT
BRANCH   1   5
ATOM      5  C   UNL A   1      31.442  28.090  25.049  1.00  0.00     0.148 C 
BRANCH   5   6
ATOM      6  C   UNL A   1      31.315  27.392  23.678  1.00  0.00     0.063 C 
BRANCH   6   7
ATOM      7  C   UNL A   1      30.724  28.240  22.556  1.00  0.00     0.234 C 
BRANCH   7   8
ATOM      8  O   UNL A   1      30.032  29.380  23.079  1.00  0.00    -0.462 OA
BRANCH   8   9
ATOM      9  C   UNL A   1      29.053  29.897  22.301  1.00  0.00     0.333 C 
ATOM     10  O   UNL A   1      29.136  30.170  21.112  1.00  0.00    -0.247 OA
BRANCH   9  11
ATOM     11  C   UNL A   1      27.807  30.003  23.094  1.00  0.00     0.027 C 
ATOM     12  C   UNL A   1      27.521  31.197  23.638  1.00  0.00     0.020 C 
ATOM     13  C   UNL A   1      26.969  28.779  23.264  1.00  0.00     0.051 C 
ENDBRANCH   9  11
ENDBRANCH   8   9
ENDBRANCH   7   8
ENDBRANCH   6   7
ENDBRANCH   5   6
BRANCH   5  14
ATOM     14  C   UNL A   1      31.655  27.138  26.223  1.00  0.00     0.142 C 
ATOM     15  C   UNL A   1      32.531  25.925  26.013  1.00  0.00     0.088 C 
ATOM     16  O   UNL A   1      31.117  27.319  27.320  1.00  0.00    -0.299 OA
ENDBRANCH   5  14
ENDBRANCH   1   5
BRANCH   3  17
ATOM     17  C   UNL A   1      31.381  30.784  26.509  1.00  0.00     0.117 C 
BRANCH  17  18
ATOM     18  C   UNL A   1      31.351  32.296  26.576  1.00  0.00     0.042 C 
BRANCH  18  19
ATOM     19  C   UNL A   1      32.681  32.887  26.997  1.00  0.00     0.118 C 
BRANCH  19  20
ATOM     20  N   UNL A   1      32.526  34.155  27.696  1.00  0.00    -0.352 N 
ATOM     21  C   UNL A   1      33.172  34.618  28.813  1.00  0.00     0.251 C 
ATOM     22  H   UNL A   1      31.861  34.770  27.309  1.00  0.00     0.163 HD
ATOM     23  O   UNL A   1      32.754  35.610  29.399  1.00  0.00    -0.269 OA
BRANCH  21  24
ATOM     24  C   UNL A   1      34.367  33.908  29.303  1.00  0.00     0.039 A 
ATOM     25  C   UNL A   1      35.631  34.350  28.911  1.00  0.00     0.014 A 
ATOM     26  C   UNL A   1      34.235  32.802  30.148  1.00  0.00     0.014 A 
ATOM     27  C   UNL A   1      36.762  33.698  29.397  1.00  0.00     0.010 A 
ATOM     28  C   UNL A   1      35.360  32.238  30.728  1.00  0.00     0.010 A 
ATOM     29  C   UNL A   1      36.635  32.652  30.327  1.00  0.00    -0.014 A 
BRANCH  29  30
ATOM     30  C   UNL A   1      37.823  31.928  30.834  1.00  0.00     0.031 A 
ATOM     31  C   UNL A   1      38.351  32.236  32.211  1.00  0.00     0.074 A 
ATOM     32  C   UNL A   1      38.438  31.022  30.053  1.00  0.00     0.049 A 
ATOM     33  N   UNL A   1      39.382  31.727  32.835  1.00  0.00    -0.248 NA
ATOM     34  C   UNL A   1      37.646  33.279  32.977  1.00  0.00     0.031 C 
ATOM     35  C   UNL A   1      38.050  30.679  28.683  1.00  0.00     0.029 A 
ATOM     36  N   UNL A   1      39.518  30.217  30.304  1.00  0.00    -0.354 N 
ATOM     37  C   UNL A   1      39.449  32.390  34.053  1.00  0.00     0.074 A 
ATOM     38  C   UNL A   1      38.411  33.396  34.050  1.00  0.00     0.031 C 
ATOM     39  C   UNL A   1      38.852  29.701  28.232  1.00  0.00     0.029 A 
ATOM     40  C   UNL A   1      39.829  29.375  29.264  1.00  0.00     0.049 A 
ATOM     41  H   UNL A   1      40.023  30.239  31.148  1.00  0.00     0.167 HD
ATOM     42  C   UNL A   1      40.272  32.157  35.102  1.00  0.00     0.037 A 
ATOM     43  C   UNL A   1      40.793  28.441  29.164  1.00  0.00     0.037 A 
ATOM     44  C   UNL A   1      41.289  31.140  35.110  1.00  0.00     0.049 A 
ATOM     45  C   UNL A   1      41.702  28.207  30.340  1.00  0.00     0.074 A 
ATOM     46  C   UNL A   1      42.161  30.796  36.127  1.00  0.00     0.029 A 
ATOM     47  N   UNL A   1      41.568  30.300  34.041  1.00  0.00    -0.354 N 
ATOM     48  N   UNL A   1      41.714  28.799  31.511  1.00  0.00    -0.248 NA
ATOM     49  C   UNL A   1      42.722  27.163  30.184  1.00  0.00     0.031 C 
ATOM     50  C   UNL A   1      42.995  29.775  35.659  1.00  0.00     0.029 A 
ATOM     51  C   UNL A   1      42.605  29.444  34.371  1.00  0.00     0.049 A 
ATOM     52  H   UNL A   1      41.097  30.310  33.176  1.00  0.00     0.167 HD
ATOM     53  C   UNL A   1      42.713  28.170  32.244  1.00  0.00     0.074 A 
ATOM     54  C   UNL A   1      43.269  27.142  31.389  1.00  0.00     0.031 C 
ATOM     55  C   UNL A   1      43.134  28.417  33.509  1.00  0.00     0.037 A 
BRANCH  42  56
ATOM     56  C   UNL A   1      40.090  33.009  36.326  1.00  0.00     0.057 A 
ATOM     57  C   UNL A   1      39.144  32.691  37.313  1.00  0.00     0.134 A 
ATOM     58  C   UNL A   1      40.873  34.150  36.531  1.00  0.00     0.134 A 
ATOM     59  F   UNL A   1      38.347  31.621  37.171  1.00  0.00    -0.206 F 
ATOM     60  C   UNL A   1      38.965  33.494  38.441  1.00  0.00     0.040 A 
ATOM     61  C   UNL A   1      40.726  34.942  37.671  1.00  0.00     0.040 A 
ATOM     62  F   UNL A   1      41.799  34.513  35.630  1.00  0.00    -0.206 F 
ATOM     63  C   UNL A   1      39.763  34.619  38.626  1.00  0.00     0.006 A 
ENDBRANCH  42  56
BRANCH  43  64
ATOM     64  C   UNL A   1      40.926  27.625  27.930  1.00  0.00     0.057 A 
ATOM     65  C   UNL A   1      40.268  26.396  27.802  1.00  0.00     0.134 A 
ATOM     66  C   UNL A   1      41.735  28.036  26.864  1.00  0.00     0.134 A 
ATOM     67  F   UNL A   1      39.490  25.941  28.795  1.00  0.00    -0.206 F 
ATOM     68  C   UNL A   1      40.439  25.587  26.678  1.00  0.00     0.040 A 
ATOM     69  C   UNL A   1      41.890  27.251  25.720  1.00  0.00     0.040 A 
ATOM     70  F   UNL A   1      42.382  29.209  26.917  1.00  0.00    -0.206 F 
ATOM     71  C   UNL A   1      41.251  26.016  25.632  1.00  0.00     0.006 A 
ENDBRANCH  43  64
BRANCH  55  72
ATOM     72  C   UNL A   1      44.206  27.521  34.058  1.00  0.00     0.057 A 
ATOM     73  C   UNL A   1      45.565  27.850  33.984  1.00  0.00     0.134 A 
ATOM     74  C   UNL A   1      43.867  26.309  34.676  1.00  0.00     0.134 A 
ATOM     75  F   UNL A   1      45.959  28.989  33.395  1.00  0.00    -0.206 F 
ATOM     76  C   UNL A   1      46.552  26.985  34.462  1.00  0.00     0.040 A 
ATOM     77  C   UNL A   1      44.842  25.455  35.189  1.00  0.00     0.040 A 
ATOM     78  F   UNL A   1      42.583  25.940  34.795  1.00  0.00    -0.206 F 
ATOM     79  C   UNL A   1      46.190  25.785  35.071  1.00  0.00     0.006 A 
ENDBRANCH  55  72
ENDBRANCH  29  30
ENDBRANCH  21  24
ENDBRANCH  19  20
ENDBRANCH  18  19
ENDBRANCH  17  18
ENDBRANCH   3  17
TORSDOF 16
ENDMDL
MODEL 2
REMARK VINA RESULT:     -10.3      5.949     10.663
REMARK SMILES C=C(C)C(=O)OCC[C@@H](C(C)=O)C(=O)NCCCNC(=O)c1ccc(-c2c3nc(c(-c4c(F)cccc4F)c4ccc([nH]4)c(-c4c(F)cccc4F)c4nc(c(-c5c(F)cccc5F)c5ccc2[nH]5)C=C4)C=C3)cc1
REMARK SMILES IDX 13 1 14 2 15 3 9 5 8 6 7 7 6 8 4 9 5 10 2 11 1 12 3 13 10 14
REMARK SMILES IDX 11 15 12 16 16 17 17 18 18 19 19 20 20 21 21 23 22 24 23 25
REMARK SMILES IDX 75 26 24 27 74 28 25 29 26 30 27 31 68 32 28 33 73 34 67 35
REMARK SMILES IDX 69 36 29 37 72 38 66 39 65 40 30 42 56 43 39 44 55 45 40 46
REMARK SMILES IDX 43 47 54 48 70 49 41 50 42 51 53 53 71 54 44 55 31 56 32 57
REMARK SMILES IDX 37 58 33 59 34 60 36 61 38 62 35 63 57 64 58 65 63 66 59 67
REMARK SMILES IDX 60 68 62 69 64 70 61 71 45 72 46 73 51 74 47 75 48 76 50 77
REMARK SMILES IDX 52 78 49 79
REMARK H PARENT 15 4 19 22 69 41 43 52
REMARK Flexibility Score: inf
ROOT
ATOM      1  C   UNL A   1      34.541  21.066  25.769  1.00  0.00     0.230 C 
ATOM      2  O   UNL A   1      34.013  21.315  26.854  1.00  0.00    -0.274 OA
ATOM      3  N   UNL A   1      35.875  20.802  25.752  1.00  0.00    -0.355 N 
ATOM      4  H   UNL A   1      36.318  20.822  26.631  1.00  0.00     0.163 HD
ENDROOT
BRANCH   1   5
ATOM      5  C   UNL A   1      33.740  21.078  24.484  1.00  0.00     0.148 C 
BRANCH   5   6
ATOM      6  C   UNL A   1      32.540  20.123  24.653  1.00  0.00     0.063 C 
BRANCH   6   7
ATOM      7  C   UNL A   1      32.862  18.754  25.247  1.00  0.00     0.234 C 
BRANCH   7   8
ATOM      8  O   UNL A   1      32.356  17.700  24.420  1.00  0.00    -0.462 OA
BRANCH   8   9
ATOM      9  C   UNL A   1      33.277  16.869  23.879  1.00  0.00     0.333 C 
ATOM     10  O   UNL A   1      33.766  16.953  22.761  1.00  0.00    -0.247 OA
BRANCH   9  11
ATOM     11  C   UNL A   1      33.684  15.870  24.892  1.00  0.00     0.027 C 
ATOM     12  C   UNL A   1      32.729  15.066  25.387  1.00  0.00     0.020 C 
ATOM     13  C   UNL A   1      35.115  15.837  25.320  1.00  0.00     0.051 C 
ENDBRANCH   9  11
ENDBRANCH   8   9
ENDBRANCH   7   8
ENDBRANCH   6   7
ENDBRANCH   5   6
BRANCH   5  14
ATOM     14  C   UNL A   1      33.364  22.492  24.051  1.00  0.00     0.142 C 
ATOM     15  C   UNL A   1      34.047  23.076  22.836  1.00  0.00     0.088 C 
ATOM     16  O   UNL A   1      32.543  23.172  24.674  1.00  0.00    -0.299 OA
ENDBRANCH   5  14
ENDBRANCH   1   5
BRANCH   3  17
ATOM     17  C   UNL A   1      36.745  20.494  24.628  1.00  0.00     0.117 C 
BRANCH  17  18
ATOM     18  C   UNL A   1      37.803  19.477  25.001  1.00  0.00     0.042 C 
BRANCH  18  19
ATOM     19  C   UNL A   1      38.965  20.094  25.752  1.00  0.00     0.118 C 
BRANCH  19  20
ATOM     20  N   UNL A   1      40.111  19.198  25.828  1.00  0.00    -0.352 N 
ATOM     21  C   UNL A   1      41.435  19.495  26.026  1.00  0.00     0.251 C 
ATOM     22  H   UNL A   1      39.906  18.241  25.722  1.00  0.00     0.163 HD
ATOM     23  O   UNL A   1      42.294  18.641  25.832  1.00  0.00    -0.269 OA
BRANCH  21  24
ATOM     24  C   UNL A   1      41.814  20.849  26.468  1.00  0.00     0.039 A 
ATOM     25  C   UNL A   1      42.121  21.817  25.512  1.00  0.00     0.014 A 
ATOM     26  C   UNL A   1      41.872  21.157  27.831  1.00  0.00     0.014 A 
ATOM     27  C   UNL A   1      42.451  23.105  25.928  1.00  0.00     0.010 A 
ATOM     28  C   UNL A   1      42.076  22.466  28.235  1.00  0.00     0.010 A 
ATOM     29  C   UNL A   1      42.409  23.444  27.291  1.00  0.00    -0.014 A 
BRANCH  29  30
ATOM     30  C   UNL A   1      42.783  24.800  27.756  1.00  0.00     0.031 A 
ATOM     31  C   UNL A   1      44.237  25.188  27.826  1.00  0.00     0.074 A 
ATOM     32  C   UNL A   1      41.825  25.663  28.139  1.00  0.00     0.049 A 
ATOM     33  N   UNL A   1      44.775  26.315  28.216  1.00  0.00    -0.248 NA
ATOM     34  C   UNL A   1      45.221  24.163  27.436  1.00  0.00     0.031 C 
ATOM     35  C   UNL A   1      40.388  25.381  28.167  1.00  0.00     0.029 A 
ATOM     36  N   UNL A   1      41.917  26.960  28.573  1.00  0.00    -0.354 N 
ATOM     37  C   UNL A   1      46.147  26.129  28.124  1.00  0.00     0.074 A 
ATOM     38  C   UNL A   1      46.367  24.758  27.724  1.00  0.00     0.031 C 
ATOM     39  C   UNL A   1      39.731  26.487  28.550  1.00  0.00     0.029 A 
ATOM     40  C   UNL A   1      40.699  27.541  28.830  1.00  0.00     0.049 A 
ATOM     41  H   UNL A   1      42.774  27.430  28.690  1.00  0.00     0.167 HD
ATOM     42  C   UNL A   1      47.141  27.029  28.313  1.00  0.00     0.037 A 
ATOM     43  C   UNL A   1      40.404  28.789  29.239  1.00  0.00     0.037 A 
ATOM     44  C   UNL A   1      46.918  28.399  28.689  1.00  0.00     0.049 A 
ATOM     45  C   UNL A   1      41.527  29.768  29.451  1.00  0.00     0.074 A 
ATOM     46  C   UNL A   1      47.846  29.406  28.879  1.00  0.00     0.029 A 
ATOM     47  N   UNL A   1      45.669  28.954  28.931  1.00  0.00    -0.354 N 
ATOM     48  N   UNL A   1      42.818  29.596  29.300  1.00  0.00    -0.248 NA
ATOM     49  C   UNL A   1      41.146  31.120  29.877  1.00  0.00     0.031 C 
ATOM     50  C   UNL A   1      47.162  30.559  29.277  1.00  0.00     0.029 A 
ATOM     51  C   UNL A   1      45.803  30.287  29.278  1.00  0.00     0.049 A 
ATOM     52  H   UNL A   1      44.813  28.471  28.864  1.00  0.00     0.167 HD
ATOM     53  C   UNL A   1      43.400  30.829  29.570  1.00  0.00     0.074 A 
ATOM     54  C   UNL A   1      42.316  31.740  29.878  1.00  0.00     0.031 C 
ATOM     55  C   UNL A   1      44.710  31.180  29.566  1.00  0.00     0.037 A 
BRANCH  42  56
ATOM     56  C   UNL A   1      48.551  26.557  28.099  1.00  0.00     0.057 A 
ATOM     57  C   UNL A   1      49.308  25.998  29.139  1.00  0.00     0.134 A 
ATOM     58  C   UNL A   1      49.156  26.648  26.840  1.00  0.00     0.134 A 
ATOM     59  F   UNL A   1      48.796  25.898  30.375  1.00  0.00    -0.206 F 
ATOM     60  C   UNL A   1      50.624  25.576  28.941  1.00  0.00     0.040 A 
ATOM     61  C   UNL A   1      50.460  26.199  26.623  1.00  0.00     0.040 A 
ATOM     62  F   UNL A   1      48.491  27.170  25.798  1.00  0.00    -0.206 F 
ATOM     63  C   UNL A   1      51.201  25.669  27.678  1.00  0.00     0.006 A 
ENDBRANCH  42  56
BRANCH  43  64
ATOM     64  C   UNL A   1      38.991  29.203  29.432  1.00  0.00     0.057 A 
ATOM     65  C   UNL A   1      38.391  29.157  30.696  1.00  0.00     0.134 A 
ATOM     66  C   UNL A   1      38.197  29.623  28.358  1.00  0.00     0.134 A 
ATOM     67  F   UNL A   1      39.094  28.750  31.762  1.00  0.00    -0.206 F 
ATOM     68  C   UNL A   1      37.045  29.477  30.880  1.00  0.00     0.040 A 
ATOM     69  C   UNL A   1      36.858  29.975  28.532  1.00  0.00     0.040 A 
ATOM     70  F   UNL A   1      38.714  29.702  27.123  1.00  0.00    -0.206 F 
ATOM     71  C   UNL A   1      36.275  29.890  29.795  1.00  0.00     0.006 A 
ENDBRANCH  43  64
BRANCH  55  72
ATOM     72  C   UNL A   1      45.030  32.620  29.844  1.00  0.00     0.057 A 
ATOM     73  C   UNL A   1      45.301  33.089  31.136  1.00  0.00     0.134 A 
ATOM     74  C   UNL A   1      45.073  33.550  28.797  1.00  0.00     0.134 A 
ATOM     75  F   UNL A   1      45.266  32.253  32.185  1.00  0.00    -0.206 F 
ATOM     76  C   UNL A   1      45.556  34.439  31.383  1.00  0.00     0.040 A 
ATOM     77  C   UNL A   1      45.363  34.895  29.027  1.00  0.00     0.040 A 
ATOM     78  F   UNL A   1      44.839  33.166  27.533  1.00  0.00    -0.206 F 
ATOM     79  C   UNL A   1      45.593  35.345  30.324  1.00  0.00     0.006 A 
ENDBRANCH  55  72
ENDBRANCH  29  30
ENDBRANCH  21  24
ENDBRANCH  19  20
ENDBRANCH  18  19
ENDBRANCH  17  18
ENDBRANCH   3  17
TORSDOF 16
ENDMDL
MODEL 3
REMARK VINA RESULT:     -10.2      1.425      2.255
REMARK SMILES C=C(C)C(=O)OCC[C@@H](C(C)=O)C(=O)NCCCNC(=O)c1ccc(-c2c3nc(c(-c4c(F)cccc4F)c4ccc([nH]4)c(-c4c(F)cccc4F)c4nc(c(-c5c(F)cccc5F)c5ccc2[nH]5)C=C4)C=C3)cc1
REMARK SMILES IDX 13 1 14 2 15 3 9 5 8 6 7 7 6 8 4 9 5 10 2 11 1 12 3 13 10 14
REMARK SMILES IDX 11 15 12 16 16 17 17 18 18 19 19 20 20 21 21 23 22 24 23 25
REMARK SMILES IDX 75 26 24 27 74 28 25 29 26 30 27 31 68 32 28 33 73 34 67 35
REMARK SMILES IDX 69 36 29 37 72 38 66 39 65 40 30 42 56 43 39 44 55 45 40 46
REMARK SMILES IDX 43 47 54 48 70 49 41 50 42 51 53 53 71 54 44 55 31 56 32 57
REMARK SMILES IDX 37 58 33 59 34 60 36 61 38 62 35 63 57 64 58 65 63 66 59 67
REMARK SMILES IDX 60 68 62 69 64 70 61 71 45 72 46 73 51 74 47 75 48 76 50 77
REMARK SMILES IDX 52 78 49 79
REMARK H PARENT 15 4 19 22 69 41 43 52
REMARK Flexibility Score: inf
ROOT
ATOM      1  C   UNL A   1      33.430  29.221  26.741  1.00  0.00     0.230 C 
ATOM      2  O   UNL A   1      34.555  29.036  27.209  1.00  0.00    -0.274 OA
ATOM      3  N   UNL A   1      32.838  30.426  26.954  1.00  0.00    -0.355 N 
ATOM      4  H   UNL A   1      33.374  31.072  27.469  1.00  0.00     0.163 HD
ENDROOT
BRANCH   1   5
ATOM      5  C   UNL A   1      32.710  28.133  25.971  1.00  0.00     0.148 C 
BRANCH   5   6
ATOM      6  C   UNL A   1      33.765  27.289  25.226  1.00  0.00     0.063 C 
BRANCH   6   7
ATOM      7  C   UNL A   1      33.792  27.453  23.708  1.00  0.00     0.234 C 
BRANCH   7   8
ATOM      8  O   UNL A   1      33.754  26.180  23.051  1.00  0.00    -0.462 OA
BRANCH   8   9
ATOM      9  C   UNL A   1      32.939  26.086  21.975  1.00  0.00     0.333 C 
ATOM     10  O   UNL A   1      33.285  25.984  20.807  1.00  0.00    -0.247 OA
BRANCH   9  11
ATOM     11  C   UNL A   1      31.533  26.032  22.434  1.00  0.00     0.027 C 
ATOM     12  C   UNL A   1      30.806  27.157  22.331  1.00  0.00     0.020 C 
ATOM     13  C   UNL A   1      31.023  24.750  23.006  1.00  0.00     0.051 C 
ENDBRANCH   9  11
ENDBRANCH   8   9
ENDBRANCH   7   8
ENDBRANCH   6   7
ENDBRANCH   5   6
BRANCH   5  14
ATOM     14  C   UNL A   1      31.769  27.324  26.860  1.00  0.00     0.142 C 
ATOM     15  C   UNL A   1      31.420  25.915  26.439  1.00  0.00     0.088 C 
ATOM     16  O   UNL A   1      31.272  27.793  27.888  1.00  0.00    -0.299 OA
ENDBRANCH   5  14
ENDBRANCH   1   5
BRANCH   3  17
ATOM     17  C   UNL A   1      31.530  30.905  26.534  1.00  0.00     0.117 C 
BRANCH  17  18
ATOM     18  C   UNL A   1      31.409  32.407  26.683  1.00  0.00     0.042 C 
BRANCH  18  19
ATOM     19  C   UNL A   1      32.727  33.066  27.032  1.00  0.00     0.118 C 
BRANCH  19  20
ATOM     20  N   UNL A   1      32.545  34.325  27.741  1.00  0.00    -0.352 N 
ATOM     21  C   UNL A   1      33.149  34.774  28.887  1.00  0.00     0.251 C 
ATOM     22  H   UNL A   1      31.893  34.943  27.339  1.00  0.00     0.163 HD
ATOM     23  O   UNL A   1      32.709  35.758  29.471  1.00  0.00    -0.269 OA
BRANCH  21  24
ATOM     24  C   UNL A   1      34.327  34.059  29.410  1.00  0.00     0.039 A 
ATOM     25  C   UNL A   1      34.140  32.953  30.239  1.00  0.00     0.014 A 
ATOM     26  C   UNL A   1      35.617  34.489  29.084  1.00  0.00     0.014 A 
ATOM     27  C   UNL A   1      35.252  32.258  30.711  1.00  0.00     0.010 A 
ATOM     28  C   UNL A   1      36.712  33.724  29.450  1.00  0.00     0.010 A 
ATOM     29  C   UNL A   1      36.545  32.626  30.302  1.00  0.00    -0.014 A 
BRANCH  29  30
ATOM     30  C   UNL A   1      37.741  31.919  30.814  1.00  0.00     0.031 A 
ATOM     31  C   UNL A   1      38.259  32.234  32.193  1.00  0.00     0.074 A 
ATOM     32  C   UNL A   1      38.373  31.023  30.034  1.00  0.00     0.049 A 
ATOM     33  N   UNL A   1      39.295  31.739  32.821  1.00  0.00    -0.248 NA
ATOM     34  C   UNL A   1      37.535  33.265  32.958  1.00  0.00     0.031 C 
ATOM     35  C   UNL A   1      37.996  30.676  28.662  1.00  0.00     0.029 A 
ATOM     36  N   UNL A   1      39.464  30.234  30.289  1.00  0.00    -0.354 N 
ATOM     37  C   UNL A   1      39.346  32.402  34.040  1.00  0.00     0.074 A 
ATOM     38  C   UNL A   1      38.294  33.392  34.034  1.00  0.00     0.031 C 
ATOM     39  C   UNL A   1      38.814  29.710  28.214  1.00  0.00     0.029 A 
ATOM     40  C   UNL A   1      39.792  29.397  29.250  1.00  0.00     0.049 A 
ATOM     41  H   UNL A   1      39.965  30.263  31.136  1.00  0.00     0.167 HD
ATOM     42  C   UNL A   1      40.169  32.179  35.093  1.00  0.00     0.037 A 
ATOM     43  C   UNL A   1      40.770  28.479  29.153  1.00  0.00     0.037 A 
ATOM     44  C   UNL A   1      41.201  31.178  35.103  1.00  0.00     0.049 A 
ATOM     45  C   UNL A   1      41.677  28.257  30.333  1.00  0.00     0.074 A 
ATOM     46  C   UNL A   1      42.073  30.845  36.124  1.00  0.00     0.029 A 
ATOM     47  N   UNL A   1      41.497  30.344  34.035  1.00  0.00    -0.354 N 
ATOM     48  N   UNL A   1      41.676  28.847  31.504  1.00  0.00    -0.248 NA
ATOM     49  C   UNL A   1      42.713  27.228  30.180  1.00  0.00     0.031 C 
ATOM     50  C   UNL A   1      42.924  29.838  35.659  1.00  0.00     0.029 A 
ATOM     51  C   UNL A   1      42.544  29.502  34.369  1.00  0.00     0.049 A 
ATOM     52  H   UNL A   1      41.029  30.347  33.168  1.00  0.00     0.167 HD
ATOM     53  C   UNL A   1      42.680  28.232  32.241  1.00  0.00     0.074 A 
ATOM     54  C   UNL A   1      43.256  27.213  31.387  1.00  0.00     0.031 C 
ATOM     55  C   UNL A   1      43.092  28.485  33.508  1.00  0.00     0.037 A 
BRANCH  42  56
ATOM     56  C   UNL A   1      39.969  33.027  36.317  1.00  0.00     0.057 A 
ATOM     57  C   UNL A   1      40.684  34.218  36.515  1.00  0.00     0.134 A 
ATOM     58  C   UNL A   1      39.045  32.660  37.302  1.00  0.00     0.134 A 
ATOM     59  F   UNL A   1      41.598  34.620  35.620  1.00  0.00    -0.206 F 
ATOM     60  C   UNL A   1      40.508  34.995  37.662  1.00  0.00     0.040 A 
ATOM     61  C   UNL A   1      38.837  33.446  38.438  1.00  0.00     0.040 A 
ATOM     62  F   UNL A   1      38.325  31.535  37.178  1.00  0.00    -0.206 F 
ATOM     63  C   UNL A   1      39.576  34.613  38.624  1.00  0.00     0.006 A 
ENDBRANCH  42  56
BRANCH  43  64
ATOM     64  C   UNL A   1      40.920  27.666  27.919  1.00  0.00     0.057 A 
ATOM     65  C   UNL A   1      40.296  26.419  27.794  1.00  0.00     0.134 A 
ATOM     66  C   UNL A   1      41.712  28.099  26.849  1.00  0.00     0.134 A 
ATOM     67  F   UNL A   1      39.535  25.943  28.791  1.00  0.00    -0.206 F 
ATOM     68  C   UNL A   1      40.484  25.614  26.670  1.00  0.00     0.040 A 
ATOM     69  C   UNL A   1      41.885  27.318  25.705  1.00  0.00     0.040 A 
ATOM     70  F   UNL A   1      42.327  29.289  26.898  1.00  0.00    -0.206 F 
ATOM     71  C   UNL A   1      41.280  26.065  25.620  1.00  0.00     0.006 A 
ENDBRANCH  43  64
BRANCH  55  72
ATOM     72  C   UNL A   1      44.175  27.603  34.061  1.00  0.00     0.057 A 
ATOM     73  C   UNL A   1      43.897  26.379  34.682  1.00  0.00     0.134 A 
ATOM     74  C   UNL A   1      45.519  27.987  33.962  1.00  0.00     0.134 A 
ATOM     75  F   UNL A   1      42.631  25.957  34.819  1.00  0.00    -0.206 F 
ATOM     76  C   UNL A   1      44.912  25.591  35.227  1.00  0.00     0.040 A 
ATOM     77  C   UNL A   1      46.544  27.191  34.471  1.00  0.00     0.040 A 
ATOM     78  F   UNL A   1      45.857  29.140  33.366  1.00  0.00    -0.206 F 
ATOM     79  C   UNL A   1      46.241  25.995  35.118  1.00  0.00     0.006 A 
ENDBRANCH  55  72
ENDBRANCH  29  30
ENDBRANCH  21  24
ENDBRANCH  19  20
ENDBRANCH  18  19
ENDBRANCH  17  18
ENDBRANCH   3  17
TORSDOF 16
ENDMDL
