MODEL 1
REMARK VINA RESULT:     -11.6      0.000      0.000
REMARK SMILES O=C(NCCCNC(=O)C1(Cc2ccncc2)Cc2ccccc2C1)c1ccc(-c2c3nc(c(-c4c(F)cccc4F)c4ccc([nH]4)c(-c4c(F)cccc4F)c4nc(c(-c5c(F)cccc5F)c5ccc2[nH]5)C=C4)C=C3)cc1
REMARK SMILES IDX 5 1 4 2 3 3 1 4 2 5 26 7 27 8 79 9 28 10 78 11 29 12 30 13
REMARK SMILES IDX 31 14 72 15 32 16 77 17 71 18 73 19 33 20 76 21 70 22 69 23
REMARK SMILES IDX 34 25 60 26 43 27 59 28 44 29 47 30 58 31 74 32 45 33 46 34
REMARK SMILES IDX 57 36 75 37 48 38 35 39 36 40 41 41 37 42 38 43 40 44 42 45
REMARK SMILES IDX 39 46 61 47 62 48 67 49 63 50 64 51 66 52 68 53 65 54 49 55
REMARK SMILES IDX 50 56 55 57 51 58 52 59 54 60 56 61 53 62 6 63 7 64 8 65
REMARK SMILES IDX 9 67 10 68 18 69 25 70 19 71 24 72 20 73 23 74 21 75 22 76
REMARK SMILES IDX 11 77 12 78 13 79 17 80 14 81 16 82 15 83
REMARK H PARENT 3 6 73 24 47 35 7 66
REMARK Flexibility Score: inf
ROOT
ATOM      1  C   UNL A   1      35.175  23.186  26.274  1.00  0.00     0.042 C 
ENDROOT
BRANCH   1   2
ATOM      2  C   UNL A   1      36.528  23.608  25.733  1.00  0.00     0.118 C 
BRANCH   2   3
ATOM      3  N   UNL A   1      37.568  22.617  25.991  1.00  0.00    -0.352 N 
ATOM      4  O   UNL A   1      39.638  21.797  26.319  1.00  0.00    -0.269 OA
ATOM      5  C   UNL A   1      38.876  22.761  26.384  1.00  0.00     0.251 C 
ATOM      6  H   UNL A   1      37.282  21.685  25.860  1.00  0.00     0.163 HD
BRANCH   5   7
ATOM      7  C   UNL A   1      39.384  24.064  26.863  1.00  0.00     0.039 A 
ATOM      8  C   UNL A   1      39.306  24.403  28.211  1.00  0.00     0.014 A 
ATOM      9  C   UNL A   1      39.991  24.948  25.963  1.00  0.00     0.014 A 
ATOM     10  C   UNL A   1      39.635  25.684  28.626  1.00  0.00     0.010 A 
ATOM     11  C   UNL A   1      40.456  26.189  26.410  1.00  0.00     0.010 A 
ATOM     12  C   UNL A   1      40.250  26.581  27.741  1.00  0.00    -0.014 A 
BRANCH  12  13
ATOM     13  C   UNL A   1      40.745  27.874  28.276  1.00  0.00     0.031 A 
ATOM     14  C   UNL A   1      42.207  28.213  28.278  1.00  0.00     0.074 A 
ATOM     15  C   UNL A   1      39.837  28.769  28.716  1.00  0.00     0.049 A 
ATOM     16  N   UNL A   1      42.795  29.310  28.685  1.00  0.00    -0.248 NA
ATOM     17  C   UNL A   1      43.134  27.191  27.768  1.00  0.00     0.031 C 
ATOM     18  C   UNL A   1      38.389  28.544  28.768  1.00  0.00     0.029 A 
ATOM     19  N   UNL A   1      39.986  30.052  29.173  1.00  0.00    -0.354 N 
ATOM     20  C   UNL A   1      44.156  29.103  28.503  1.00  0.00     0.074 A 
ATOM     21  C   UNL A   1      44.311  27.767  27.969  1.00  0.00     0.031 C 
ATOM     22  C   UNL A   1      37.780  29.669  29.165  1.00  0.00     0.029 A 
ATOM     23  C   UNL A   1      38.794  30.665  29.478  1.00  0.00     0.049 A 
ATOM     24  H   UNL A   1      40.860  30.492  29.273  1.00  0.00     0.167 HD
ATOM     25  C   UNL A   1      45.179  29.956  28.756  1.00  0.00     0.037 A 
ATOM     26  C   UNL A   1      38.542  31.887  29.980  1.00  0.00     0.037 A 
ATOM     27  C   UNL A   1      45.010  31.290  29.273  1.00  0.00     0.049 A 
ATOM     28  C   UNL A   1      39.696  32.797  30.275  1.00  0.00     0.074 A 
ATOM     29  C   UNL A   1      45.979  32.243  29.536  1.00  0.00     0.029 A 
ATOM     30  N   UNL A   1      43.790  31.861  29.610  1.00  0.00    -0.354 N 
ATOM     31  N   UNL A   1      40.976  32.594  30.078  1.00  0.00    -0.248 NA
ATOM     32  C   UNL A   1      39.373  34.099  30.869  1.00  0.00     0.031 C 
ATOM     33  C   UNL A   1      45.351  33.371  30.075  1.00  0.00     0.029 A 
ATOM     34  C   UNL A   1      43.985  33.142  30.101  1.00  0.00     0.049 A 
ATOM     35  H   UNL A   1      42.915  31.419  29.515  1.00  0.00     0.167 HD
ATOM     36  C   UNL A   1      41.613  33.747  30.513  1.00  0.00     0.074 A 
ATOM     37  C   UNL A   1      40.574  34.652  30.961  1.00  0.00     0.031 C 
ATOM     38  C   UNL A   1      42.938  34.028  30.545  1.00  0.00     0.037 A 
BRANCH  25  39
ATOM     39  C   UNL A   1      46.575  29.466  28.500  1.00  0.00     0.057 A 
ATOM     40  C   UNL A   1      47.325  28.807  29.482  1.00  0.00     0.134 A 
ATOM     41  C   UNL A   1      47.161  29.617  27.235  1.00  0.00     0.134 A 
ATOM     42  F   UNL A   1      46.830  28.640  30.718  1.00  0.00    -0.206 F 
ATOM     43  C   UNL A   1      48.614  28.334  29.222  1.00  0.00     0.040 A 
ATOM     44  C   UNL A   1      48.438  29.127  26.957  1.00  0.00     0.040 A 
ATOM     45  F   UNL A   1      46.496  30.233  26.246  1.00  0.00    -0.206 F 
ATOM     46  C   UNL A   1      49.170  28.487  27.954  1.00  0.00     0.006 A 
ENDBRANCH  25  39
BRANCH  26  47
ATOM     47  C   UNL A   1      37.144  32.300  30.251  1.00  0.00     0.057 A 
ATOM     48  C   UNL A   1      36.526  32.017  31.474  1.00  0.00     0.134 A 
ATOM     49  C   UNL A   1      36.397  33.006  29.299  1.00  0.00     0.134 A 
ATOM     50  F   UNL A   1      37.184  31.331  32.419  1.00  0.00    -0.206 F 
ATOM     51  C   UNL A   1      35.213  32.409  31.736  1.00  0.00     0.040 A 
ATOM     52  C   UNL A   1      35.093  33.431  29.560  1.00  0.00     0.040 A 
ATOM     53  F   UNL A   1      36.936  33.319  28.111  1.00  0.00    -0.206 F 
ATOM     54  C   UNL A   1      34.496  33.126  30.779  1.00  0.00     0.006 A 
ENDBRANCH  26  47
BRANCH  38  55
ATOM     55  C   UNL A   1      43.329  35.381  31.058  1.00  0.00     0.057 A 
ATOM     56  C   UNL A   1      43.519  35.626  32.424  1.00  0.00     0.134 A 
ATOM     57  C   UNL A   1      43.536  36.446  30.173  1.00  0.00     0.134 A 
ATOM     58  F   UNL A   1      43.320  34.651  33.324  1.00  0.00    -0.206 F 
ATOM     59  C   UNL A   1      43.876  36.890  32.893  1.00  0.00     0.040 A 
ATOM     60  C   UNL A   1      43.919  37.708  30.628  1.00  0.00     0.040 A 
ATOM     61  F   UNL A   1      43.376  36.275  28.851  1.00  0.00    -0.206 F 
ATOM     62  C   UNL A   1      44.084  37.934  31.993  1.00  0.00     0.006 A 
ENDBRANCH  38  55
ENDBRANCH  12  13
ENDBRANCH   5   7
ENDBRANCH   2   3
ENDBRANCH   1   2
BRANCH   1  63
ATOM     63  C   UNL A   1      34.013  23.739  25.474  1.00  0.00     0.117 C 
BRANCH  63  64
ATOM     64  N   UNL A   1      32.843  24.051  26.283  1.00  0.00    -0.356 N 
ATOM     65  C   UNL A   1      31.992  25.113  26.325  1.00  0.00     0.227 C 
ATOM     66  H   UNL A   1      32.621  23.347  26.935  1.00  0.00     0.163 HD
ATOM     67  O   UNL A   1      30.921  24.897  26.906  1.00  0.00    -0.274 OA
BRANCH  65  68
ATOM     68  C   UNL A   1      32.352  26.524  25.837  1.00  0.00     0.061 C 
ATOM     69  C   UNL A   1      31.545  27.624  26.570  1.00  0.00     0.053 C 
ATOM     70  C   UNL A   1      33.842  26.840  26.213  1.00  0.00     0.053 C 
ATOM     71  C   UNL A   1      32.510  28.734  26.774  1.00  0.00    -0.044 A 
ATOM     72  C   UNL A   1      33.815  28.291  26.597  1.00  0.00    -0.044 A 
ATOM     73  C   UNL A   1      32.217  30.015  27.212  1.00  0.00     0.004 A 
ATOM     74  C   UNL A   1      34.876  29.133  26.872  1.00  0.00     0.004 A 
ATOM     75  C   UNL A   1      33.279  30.872  27.484  1.00  0.00     0.000 A 
ATOM     76  C   UNL A   1      34.601  30.431  27.318  1.00  0.00     0.000 A 
BRANCH  68  77
ATOM     77  C   UNL A   1      32.088  26.612  24.301  1.00  0.00     0.053 C 
BRANCH  77  78
ATOM     78  C   UNL A   1      30.846  27.350  23.836  1.00  0.00    -0.044 A 
ATOM     79  C   UNL A   1      30.908  28.657  23.346  1.00  0.00     0.024 A 
ATOM     80  C   UNL A   1      29.593  26.727  23.870  1.00  0.00     0.024 A 
ATOM     81  C   UNL A   1      29.735  29.282  22.941  1.00  0.00     0.111 A 
ATOM     82  C   UNL A   1      28.478  27.431  23.435  1.00  0.00     0.111 A 
ATOM     83  N   UNL A   1      28.521  28.696  22.970  1.00  0.00    -0.265 NA
ENDBRANCH  77  78
ENDBRANCH  68  77
ENDBRANCH  65  68
ENDBRANCH  63  64
ENDBRANCH   1  63
TORSDOF 12
ENDMDL
MODEL 2
REMARK VINA RESULT:     -11.6      1.929      6.352
REMARK SMILES O=C(NCCCNC(=O)C1(Cc2ccncc2)Cc2ccccc2C1)c1ccc(-c2c3nc(c(-c4c(F)cccc4F)c4ccc([nH]4)c(-c4c(F)cccc4F)c4nc(c(-c5c(F)cccc5F)c5ccc2[nH]5)C=C4)C=C3)cc1
REMARK SMILES IDX 5 1 4 2 3 3 1 4 2 5 26 7 27 8 79 9 28 10 78 11 29 12 30 13
REMARK SMILES IDX 31 14 72 15 32 16 77 17 71 18 73 19 33 20 76 21 70 22 69 23
REMARK SMILES IDX 34 25 60 26 43 27 59 28 44 29 47 30 58 31 74 32 45 33 46 34
REMARK SMILES IDX 57 36 75 37 48 38 35 39 36 40 41 41 37 42 38 43 40 44 42 45
REMARK SMILES IDX 39 46 61 47 62 48 67 49 63 50 64 51 66 52 68 53 65 54 49 55
REMARK SMILES IDX 50 56 55 57 51 58 52 59 54 60 56 61 53 62 6 63 7 64 8 65
REMARK SMILES IDX 9 67 10 68 18 69 25 70 19 71 24 72 20 73 23 74 21 75 22 76
REMARK SMILES IDX 11 77 12 78 13 79 17 80 14 81 16 82 15 83
REMARK H PARENT 3 6 73 24 47 35 7 66
REMARK Flexibility Score: inf
ROOT
ATOM      1  C   UNL A   1      35.747  23.353  26.237  1.00  0.00     0.042 C 
ENDROOT
BRANCH   1   2
ATOM      2  C   UNL A   1      36.943  23.738  25.388  1.00  0.00     0.118 C 
BRANCH   2   3
ATOM      3  N   UNL A   1      38.080  22.844  25.583  1.00  0.00    -0.352 N 
ATOM      4  O   UNL A   1      40.206  22.223  25.982  1.00  0.00    -0.269 OA
ATOM      5  C   UNL A   1      39.322  23.066  26.128  1.00  0.00     0.251 C 
ATOM      6  H   UNL A   1      37.931  21.922  25.271  1.00  0.00     0.163 HD
BRANCH   5   7
ATOM      7  C   UNL A   1      39.613  24.313  26.865  1.00  0.00     0.039 A 
ATOM      8  C   UNL A   1      39.234  24.454  28.197  1.00  0.00     0.014 A 
ATOM      9  C   UNL A   1      40.317  25.346  26.235  1.00  0.00     0.014 A 
ATOM     10  C   UNL A   1      39.365  25.679  28.832  1.00  0.00     0.010 A 
ATOM     11  C   UNL A   1      40.578  26.535  26.926  1.00  0.00     0.010 A 
ATOM     12  C   UNL A   1      40.074  26.722  28.221  1.00  0.00    -0.014 A 
BRANCH  12  13
ATOM     13  C   UNL A   1      40.341  27.952  29.009  1.00  0.00     0.031 A 
ATOM     14  C   UNL A   1      39.318  29.044  29.127  1.00  0.00     0.074 A 
ATOM     15  C   UNL A   1      41.516  28.045  29.664  1.00  0.00     0.049 A 
ATOM     16  N   UNL A   1      39.389  30.165  29.799  1.00  0.00    -0.248 NA
ATOM     17  C   UNL A   1      38.055  28.863  28.396  1.00  0.00     0.031 C 
ATOM     18  C   UNL A   1      42.589  27.046  29.614  1.00  0.00     0.029 A 
ATOM     19  N   UNL A   1      41.996  28.999  30.521  1.00  0.00    -0.354 N 
ATOM     20  C   UNL A   1      38.197  30.833  29.553  1.00  0.00     0.074 A 
ATOM     21  C   UNL A   1      37.426  30.002  28.653  1.00  0.00     0.031 C 
ATOM     22  C   UNL A   1      43.568  27.406  30.453  1.00  0.00     0.029 A 
ATOM     23  C   UNL A   1      43.235  28.699  31.035  1.00  0.00     0.049 A 
ATOM     24  H   UNL A   1      41.503  29.820  30.748  1.00  0.00     0.167 HD
ATOM     25  C   UNL A   1      37.785  32.029  30.041  1.00  0.00     0.037 A 
ATOM     26  C   UNL A   1      44.031  29.396  31.864  1.00  0.00     0.037 A 
ATOM     27  C   UNL A   1      38.555  32.840  30.949  1.00  0.00     0.049 A 
ATOM     28  C   UNL A   1      43.559  30.728  32.365  1.00  0.00     0.074 A 
ATOM     29  C   UNL A   1      38.214  34.053  31.524  1.00  0.00     0.029 A 
ATOM     30  N   UNL A   1      39.824  32.523  31.414  1.00  0.00    -0.354 N 
ATOM     31  N   UNL A   1      42.420  31.336  32.139  1.00  0.00    -0.248 NA
ATOM     32  C   UNL A   1      44.485  31.474  33.225  1.00  0.00     0.031 C 
ATOM     33  C   UNL A   1      39.294  34.491  32.298  1.00  0.00     0.029 A 
ATOM     34  C   UNL A   1      40.289  33.528  32.248  1.00  0.00     0.049 A 
ATOM     35  H   UNL A   1      40.321  31.704  31.184  1.00  0.00     0.167 HD
ATOM     36  C   UNL A   1      42.485  32.533  32.839  1.00  0.00     0.074 A 
ATOM     37  C   UNL A   1      43.767  32.550  33.515  1.00  0.00     0.031 C 
ATOM     38  C   UNL A   1      41.570  33.528  32.910  1.00  0.00     0.037 A 
BRANCH  25  39
ATOM     39  C   UNL A   1      36.450  32.546  29.584  1.00  0.00     0.057 A 
ATOM     40  C   UNL A   1      35.276  32.321  30.313  1.00  0.00     0.134 A 
ATOM     41  C   UNL A   1      36.348  33.320  28.420  1.00  0.00     0.134 A 
ATOM     42  F   UNL A   1      35.300  31.578  31.430  1.00  0.00    -0.206 F 
ATOM     43  C   UNL A   1      34.045  32.829  29.890  1.00  0.00     0.040 A 
ATOM     44  C   UNL A   1      35.128  33.853  28.001  1.00  0.00     0.040 A 
ATOM     45  F   UNL A   1      37.435  33.580  27.677  1.00  0.00    -0.206 F 
ATOM     46  C   UNL A   1      33.971  33.604  28.735  1.00  0.00     0.006 A 
ENDBRANCH  25  39
BRANCH  26  47
ATOM     47  C   UNL A   1      45.356  28.853  32.248  1.00  0.00     0.057 A 
ATOM     48  C   UNL A   1      46.504  29.140  31.500  1.00  0.00     0.134 A 
ATOM     49  C   UNL A   1      45.512  28.047  33.383  1.00  0.00     0.134 A 
ATOM     50  F   UNL A   1      46.417  29.893  30.394  1.00  0.00    -0.206 F 
ATOM     51  C   UNL A   1      47.755  28.636  31.860  1.00  0.00     0.040 A 
ATOM     52  C   UNL A   1      46.761  27.562  33.772  1.00  0.00     0.040 A 
ATOM     53  F   UNL A   1      44.452  27.745  34.149  1.00  0.00    -0.206 F 
ATOM     54  C   UNL A   1      47.885  27.850  33.005  1.00  0.00     0.006 A 
ENDBRANCH  26  47
BRANCH  38  55
ATOM     55  C   UNL A   1      41.917  34.705  33.771  1.00  0.00     0.057 A 
ATOM     56  C   UNL A   1      41.539  34.772  35.118  1.00  0.00     0.134 A 
ATOM     57  C   UNL A   1      42.653  35.776  33.250  1.00  0.00     0.134 A 
ATOM     58  F   UNL A   1      40.818  33.785  35.671  1.00  0.00    -0.206 F 
ATOM     59  C   UNL A   1      41.860  35.875  35.910  1.00  0.00     0.040 A 
ATOM     60  C   UNL A   1      43.003  36.872  34.039  1.00  0.00     0.040 A 
ATOM     61  F   UNL A   1      43.050  35.771  31.968  1.00  0.00    -0.206 F 
ATOM     62  C   UNL A   1      42.600  36.926  35.372  1.00  0.00     0.006 A 
ENDBRANCH  38  55
ENDBRANCH  12  13
ENDBRANCH   5   7
ENDBRANCH   2   3
ENDBRANCH   1   2
BRANCH   1  63
ATOM     63  C   UNL A   1      34.431  23.450  25.494  1.00  0.00     0.117 C 
BRANCH  63  64
ATOM     64  N   UNL A   1      33.278  23.623  26.367  1.00  0.00    -0.356 N 
ATOM     65  C   UNL A   1      32.278  24.546  26.423  1.00  0.00     0.227 C 
ATOM     66  H   UNL A   1      33.207  22.929  27.062  1.00  0.00     0.163 HD
ATOM     67  O   UNL A   1      31.291  24.201  27.084  1.00  0.00    -0.274 OA
BRANCH  65  68
ATOM     68  C   UNL A   1      32.387  25.968  25.853  1.00  0.00     0.061 C 
ATOM     69  C   UNL A   1      31.457  26.968  26.584  1.00  0.00     0.053 C 
ATOM     70  C   UNL A   1      33.827  26.529  26.126  1.00  0.00     0.053 C 
ATOM     71  C   UNL A   1      32.246  28.222  26.682  1.00  0.00    -0.044 A 
ATOM     72  C   UNL A   1      33.592  27.976  26.447  1.00  0.00    -0.044 A 
ATOM     73  C   UNL A   1      31.778  29.464  27.080  1.00  0.00     0.004 A 
ATOM     74  C   UNL A   1      34.521  28.985  26.621  1.00  0.00     0.004 A 
ATOM     75  C   UNL A   1      32.705  30.487  27.251  1.00  0.00     0.000 A 
ATOM     76  C   UNL A   1      34.070  30.247  27.025  1.00  0.00     0.000 A 
BRANCH  68  77
ATOM     77  C   UNL A   1      32.033  25.933  24.334  1.00  0.00     0.053 C 
BRANCH  77  78
ATOM     78  C   UNL A   1      30.943  26.866  23.838  1.00  0.00    -0.044 A 
ATOM     79  C   UNL A   1      31.241  28.086  23.226  1.00  0.00     0.024 A 
ATOM     80  C   UNL A   1      29.593  26.516  23.967  1.00  0.00     0.024 A 
ATOM     81  C   UNL A   1      30.200  28.899  22.799  1.00  0.00     0.111 A 
ATOM     82  C   UNL A   1      28.622  27.393  23.501  1.00  0.00     0.111 A 
ATOM     83  N   UNL A   1      28.895  28.578  22.918  1.00  0.00    -0.265 NA
ENDBRANCH  77  78
ENDBRANCH  68  77
ENDBRANCH  65  68
ENDBRANCH  63  64
ENDBRANCH   1  63
TORSDOF 12
ENDMDL
MODEL 3
REMARK VINA RESULT:     -11.5      2.977      7.864
REMARK SMILES O=C(NCCCNC(=O)C1(Cc2ccncc2)Cc2ccccc2C1)c1ccc(-c2c3nc(c(-c4c(F)cccc4F)c4ccc([nH]4)c(-c4c(F)cccc4F)c4nc(c(-c5c(F)cccc5F)c5ccc2[nH]5)C=C4)C=C3)cc1
REMARK SMILES IDX 5 1 4 2 3 3 1 4 2 5 26 7 27 8 79 9 28 10 78 11 29 12 30 13
REMARK SMILES IDX 31 14 72 15 32 16 77 17 71 18 73 19 33 20 76 21 70 22 69 23
REMARK SMILES IDX 34 25 60 26 43 27 59 28 44 29 47 30 58 31 74 32 45 33 46 34
REMARK SMILES IDX 57 36 75 37 48 38 35 39 36 40 41 41 37 42 38 43 40 44 42 45
REMARK SMILES IDX 39 46 61 47 62 48 67 49 63 50 64 51 66 52 68 53 65 54 49 55
REMARK SMILES IDX 50 56 55 57 51 58 52 59 54 60 56 61 53 62 6 63 7 64 8 65
REMARK SMILES IDX 9 67 10 68 18 69 25 70 19 71 24 72 20 73 23 74 21 75 22 76
REMARK SMILES IDX 11 77 12 78 13 79 17 80 14 81 16 82 15 83
REMARK H PARENT 3 6 73 24 47 35 7 66
REMARK Flexibility Score: inf
ROOT
ATOM      1  C   UNL A   1      33.901  28.299  25.575  1.00  0.00     0.042 C 
ENDROOT
BRANCH   1   2
ATOM      2  C   UNL A   1      33.893  28.414  27.088  1.00  0.00     0.118 C 
BRANCH   2   3
ATOM      3  N   UNL A   1      33.815  29.798  27.544  1.00  0.00    -0.352 N 
ATOM      4  O   UNL A   1      34.338  31.643  28.722  1.00  0.00    -0.269 OA
ATOM      5  C   UNL A   1      34.708  30.570  28.247  1.00  0.00     0.251 C 
ATOM      6  H   UNL A   1      32.977  30.258  27.306  1.00  0.00     0.163 HD
BRANCH   5   7
ATOM      7  C   UNL A   1      36.099  30.116  28.458  1.00  0.00     0.039 A 
ATOM      8  C   UNL A   1      37.062  30.302  27.470  1.00  0.00     0.014 A 
ATOM      9  C   UNL A   1      36.464  29.537  29.679  1.00  0.00     0.014 A 
ATOM     10  C   UNL A   1      38.318  29.733  27.609  1.00  0.00     0.010 A 
ATOM     11  C   UNL A   1      37.776  29.091  29.874  1.00  0.00     0.010 A 
ATOM     12  C   UNL A   1      38.705  29.155  28.826  1.00  0.00    -0.014 A 
BRANCH  12  13
ATOM     13  C   UNL A   1      40.116  28.720  28.985  1.00  0.00     0.031 A 
ATOM     14  C   UNL A   1      40.570  27.360  28.540  1.00  0.00     0.074 A 
ATOM     15  C   UNL A   1      41.000  29.600  29.496  1.00  0.00     0.049 A 
ATOM     16  N   UNL A   1      41.771  26.841  28.586  1.00  0.00    -0.248 NA
ATOM     17  C   UNL A   1      39.550  26.461  27.979  1.00  0.00     0.031 C 
ATOM     18  C   UNL A   1      40.667  30.948  29.970  1.00  0.00     0.029 A 
ATOM     19  N   UNL A   1      42.355  29.514  29.676  1.00  0.00    -0.354 N 
ATOM     20  C   UNL A   1      41.649  25.551  28.084  1.00  0.00     0.074 A 
ATOM     21  C   UNL A   1      40.251  25.357  27.760  1.00  0.00     0.031 C 
ATOM     22  C   UNL A   1      41.793  31.583  30.321  1.00  0.00     0.029 A 
ATOM     23  C   UNL A   1      42.913  30.664  30.181  1.00  0.00     0.049 A 
ATOM     24  H   UNL A   1      42.878  28.709  29.464  1.00  0.00     0.167 HD
ATOM     25  C   UNL A   1      42.617  24.620  27.909  1.00  0.00     0.037 A 
ATOM     26  C   UNL A   1      44.183  30.944  30.521  1.00  0.00     0.037 A 
ATOM     27  C   UNL A   1      44.008  24.831  28.222  1.00  0.00     0.049 A 
ATOM     28  C   UNL A   1      45.228  29.884  30.340  1.00  0.00     0.074 A 
ATOM     29  C   UNL A   1      45.072  23.962  28.053  1.00  0.00     0.029 A 
ATOM     30  N   UNL A   1      44.529  25.994  28.773  1.00  0.00    -0.354 N 
ATOM     31  N   UNL A   1      45.099  28.677  29.845  1.00  0.00    -0.248 NA
ATOM     32  C   UNL A   1      46.589  30.220  30.774  1.00  0.00     0.031 C 
ATOM     33  C   UNL A   1      46.226  24.580  28.545  1.00  0.00     0.029 A 
ATOM     34  C   UNL A   1      45.893  25.855  28.973  1.00  0.00     0.049 A 
ATOM     35  H   UNL A   1      44.005  26.800  28.990  1.00  0.00     0.167 HD
ATOM     36  C   UNL A   1      46.364  28.110  29.896  1.00  0.00     0.074 A 
ATOM     37  C   UNL A   1      47.249  29.117  30.448  1.00  0.00     0.031 C 
ATOM     38  C   UNL A   1      46.756  26.868  29.526  1.00  0.00     0.037 A 
BRANCH  25  39
ATOM     39  C   UNL A   1      42.206  23.278  27.374  1.00  0.00     0.057 A 
ATOM     40  C   UNL A   1      42.286  22.963  26.012  1.00  0.00     0.134 A 
ATOM     41  C   UNL A   1      41.765  22.271  28.244  1.00  0.00     0.134 A 
ATOM     42  F   UNL A   1      42.687  23.884  25.123  1.00  0.00    -0.206 F 
ATOM     43  C   UNL A   1      41.924  21.702  25.531  1.00  0.00     0.040 A 
ATOM     44  C   UNL A   1      41.424  21.000  27.779  1.00  0.00     0.040 A 
ATOM     45  F   UNL A   1      41.670  22.502  29.562  1.00  0.00    -0.206 F 
ATOM     46  C   UNL A   1      41.498  20.714  26.417  1.00  0.00     0.006 A 
ENDBRANCH  25  39
BRANCH  26  47
ATOM     47  C   UNL A   1      44.522  32.274  31.082  1.00  0.00     0.057 A 
ATOM     48  C   UNL A   1      44.929  33.330  30.259  1.00  0.00     0.134 A 
ATOM     49  C   UNL A   1      44.428  32.529  32.457  1.00  0.00     0.134 A 
ATOM     50  F   UNL A   1      45.052  33.144  28.937  1.00  0.00    -0.206 F 
ATOM     51  C   UNL A   1      45.242  34.585  30.782  1.00  0.00     0.040 A 
ATOM     52  C   UNL A   1      44.709  33.787  32.990  1.00  0.00     0.040 A 
ATOM     53  F   UNL A   1      44.032  31.562  33.299  1.00  0.00    -0.206 F 
ATOM     54  C   UNL A   1      45.125  34.817  32.151  1.00  0.00     0.006 A 
ENDBRANCH  26  47
BRANCH  38  55
ATOM     55  C   UNL A   1      48.212  26.545  29.682  1.00  0.00     0.057 A 
ATOM     56  C   UNL A   1      49.146  26.838  28.680  1.00  0.00     0.134 A 
ATOM     57  C   UNL A   1      48.686  25.948  30.857  1.00  0.00     0.134 A 
ATOM     58  F   UNL A   1      48.751  27.394  27.525  1.00  0.00    -0.206 F 
ATOM     59  C   UNL A   1      50.497  26.526  28.831  1.00  0.00     0.040 A 
ATOM     60  C   UNL A   1      50.040  25.656  31.030  1.00  0.00     0.040 A 
ATOM     61  F   UNL A   1      47.844  25.646  31.857  1.00  0.00    -0.206 F 
ATOM     62  C   UNL A   1      50.948  25.939  30.013  1.00  0.00     0.006 A 
ENDBRANCH  38  55
ENDBRANCH  12  13
ENDBRANCH   5   7
ENDBRANCH   2   3
ENDBRANCH   1   2
BRANCH   1  63
ATOM     63  C   UNL A   1      33.014  27.187  25.056  1.00  0.00     0.117 C 
BRANCH  63  64
ATOM     64  N   UNL A   1      33.413  26.684  23.748  1.00  0.00    -0.356 N 
ATOM     65  C   UNL A   1      33.724  25.444  23.279  1.00  0.00     0.227 C 
ATOM     66  H   UNL A   1      33.469  27.387  23.061  1.00  0.00     0.163 HD
ATOM     67  O   UNL A   1      33.698  25.335  22.047  1.00  0.00    -0.274 OA
BRANCH  65  68
ATOM     68  C   UNL A   1      34.219  24.289  24.162  1.00  0.00     0.061 C 
ATOM     69  C   UNL A   1      35.107  23.289  23.380  1.00  0.00     0.053 C 
ATOM     70  C   UNL A   1      35.178  24.854  25.268  1.00  0.00     0.053 C 
ATOM     71  C   UNL A   1      36.180  22.906  24.331  1.00  0.00    -0.044 A 
ATOM     72  C   UNL A   1      36.242  23.802  25.391  1.00  0.00    -0.044 A 
ATOM     73  C   UNL A   1      37.107  21.889  24.167  1.00  0.00     0.004 A 
ATOM     74  C   UNL A   1      37.260  23.706  26.321  1.00  0.00     0.004 A 
ATOM     75  C   UNL A   1      38.130  21.780  25.103  1.00  0.00     0.000 A 
ATOM     76  C   UNL A   1      38.208  22.686  26.172  1.00  0.00     0.000 A 
BRANCH  68  77
ATOM     77  C   UNL A   1      32.985  23.544  24.759  1.00  0.00     0.053 C 
BRANCH  77  78
ATOM     78  C   UNL A   1      32.847  22.060  24.473  1.00  0.00    -0.044 A 
ATOM     79  C   UNL A   1      33.228  21.092  25.406  1.00  0.00     0.024 A 
ATOM     80  C   UNL A   1      32.310  21.615  23.259  1.00  0.00     0.024 A 
ATOM     81  C   UNL A   1      33.083  19.749  25.084  1.00  0.00     0.111 A 
ATOM     82  C   UNL A   1      32.196  20.250  23.031  1.00  0.00     0.111 A 
ATOM     83  N   UNL A   1      32.569  19.305  23.918  1.00  0.00    -0.265 NA
ENDBRANCH  77  78
ENDBRANCH  68  77
ENDBRANCH  65  68
ENDBRANCH  63  64
ENDBRANCH   1  63
TORSDOF 12
ENDMDL
