MODEL 1
REMARK VINA RESULT:     -11.2      0.000      0.000
REMARK SMILES C[C@@H](C(=O)NCCCNC(=O)c1ccc(-c2c3nc(c(-c4c(F)cccc4F)c4ccc([nH]4)c(-c4c(F)cccc4F)c4nc(c(-c5c(F)cccc5F)c5ccc2[nH]5)C=C4)C=C3)cc1)N1C(=O)c2nccnc2C1=O
REMARK SMILES IDX 7 1 6 2 5 3 3 4 4 5 2 7 1 8 66 9 67 10 75 11 68 12 69 13
REMARK SMILES IDX 74 14 76 15 70 16 73 17 71 18 72 19 8 20 9 21 10 22 11 24
REMARK SMILES IDX 12 25 13 26 65 27 14 28 64 29 15 30 16 31 17 32 58 33 18 34
REMARK SMILES IDX 63 35 57 36 59 37 19 38 62 39 56 40 55 41 20 43 46 44 29 45
REMARK SMILES IDX 45 46 30 47 33 48 44 49 60 50 31 51 32 52 43 54 61 55 34 56
REMARK SMILES IDX 21 57 22 58 27 59 23 60 24 61 26 62 28 63 25 64 47 65 48 66
REMARK SMILES IDX 53 67 49 68 50 69 52 70 54 71 51 72 35 73 36 74 41 75 37 76
REMARK SMILES IDX 38 77 40 78 42 79 39 80
REMARK H PARENT 5 6 9 23 59 42 33 53
REMARK Flexibility Score: inf
ROOT
ATOM      1  C   UNL A   1      35.145  34.589  28.542  1.00  0.00     0.042 C 
ENDROOT
BRANCH   1   2
ATOM      2  C   UNL A   1      33.677  34.878  28.851  1.00  0.00     0.117 C 
BRANCH   2   3
ATOM      3  N   UNL A   1      33.498  36.159  29.511  1.00  0.00    -0.354 N 
ATOM      4  C   UNL A   1      33.085  36.444  30.783  1.00  0.00     0.243 C 
ATOM      5  O   UNL A   1      33.074  37.629  31.123  1.00  0.00    -0.273 OA
ATOM      6  H   UNL A   1      33.705  36.946  28.955  1.00  0.00     0.163 HD
BRANCH   4   7
ATOM      7  C   UNL A   1      32.666  35.307  31.737  1.00  0.00     0.180 C 
ATOM      8  C   UNL A   1      31.573  35.733  32.712  1.00  0.00     0.042 C 
BRANCH   7   9
ATOM      9  N   UNL A   1      33.867  34.810  32.412  1.00  0.00    -0.259 N 
ATOM     10  C   UNL A   1      34.722  35.555  33.189  1.00  0.00     0.282 C 
ATOM     11  C   UNL A   1      34.342  33.535  32.227  1.00  0.00     0.282 C 
ATOM     12  O   UNL A   1      34.622  36.718  33.526  1.00  0.00    -0.267 OA
ATOM     13  C   UNL A   1      35.803  34.655  33.589  1.00  0.00     0.160 A 
ATOM     14  C   UNL A   1      35.575  33.435  33.008  1.00  0.00     0.160 A 
ATOM     15  O   UNL A   1      33.843  32.644  31.564  1.00  0.00    -0.267 OA
ATOM     16  N   UNL A   1      36.809  34.909  34.450  1.00  0.00    -0.247 NA
ATOM     17  N   UNL A   1      36.332  32.341  33.221  1.00  0.00    -0.247 NA
ATOM     18  C   UNL A   1      37.594  33.823  34.674  1.00  0.00     0.132 A 
ATOM     19  C   UNL A   1      37.364  32.575  34.076  1.00  0.00     0.132 A 
ENDBRANCH   7   9
ENDBRANCH   4   7
ENDBRANCH   2   3
ENDBRANCH   1   2
BRANCH   1  20
ATOM     20  C   UNL A   1      35.607  33.181  28.914  1.00  0.00     0.118 C 
BRANCH  20  21
ATOM     21  N   UNL A   1      34.660  32.149  28.514  1.00  0.00    -0.352 N 
ATOM     22  C   UNL A   1      34.851  30.820  28.219  1.00  0.00     0.251 C 
ATOM     23  H   UNL A   1      33.727  32.454  28.442  1.00  0.00     0.163 HD
ATOM     24  O   UNL A   1      33.922  30.172  27.742  1.00  0.00    -0.269 OA
BRANCH  22  25
ATOM     25  C   UNL A   1      36.162  30.164  28.433  1.00  0.00     0.039 A 
ATOM     26  C   UNL A   1      37.065  30.121  27.365  1.00  0.00     0.014 A 
ATOM     27  C   UNL A   1      36.502  29.571  29.651  1.00  0.00     0.014 A 
ATOM     28  C   UNL A   1      38.337  29.572  27.548  1.00  0.00     0.010 A 
ATOM     29  C   UNL A   1      37.795  29.081  29.852  1.00  0.00     0.010 A 
ATOM     30  C   UNL A   1      38.734  29.099  28.809  1.00  0.00    -0.014 A 
BRANCH  30  31
ATOM     31  C   UNL A   1      40.144  28.703  29.068  1.00  0.00     0.031 A 
ATOM     32  C   UNL A   1      41.125  29.668  29.675  1.00  0.00     0.074 A 
ATOM     33  C   UNL A   1      40.560  27.479  28.682  1.00  0.00     0.049 A 
ATOM     34  N   UNL A   1      42.406  29.509  29.898  1.00  0.00    -0.248 NA
ATOM     35  C   UNL A   1      40.607  30.988  30.070  1.00  0.00     0.031 C 
ATOM     36  C   UNL A   1      39.719  26.464  28.043  1.00  0.00     0.029 A 
ATOM     37  N   UNL A   1      41.795  26.884  28.752  1.00  0.00    -0.354 N 
ATOM     38  C   UNL A   1      42.849  30.706  30.447  1.00  0.00     0.074 A 
ATOM     39  C   UNL A   1      41.708  31.596  30.493  1.00  0.00     0.031 C 
ATOM     40  C   UNL A   1      40.456  25.371  27.793  1.00  0.00     0.029 A 
ATOM     41  C   UNL A   1      41.833  25.622  28.206  1.00  0.00     0.049 A 
ATOM     42  H   UNL A   1      42.581  27.319  29.157  1.00  0.00     0.167 HD
ATOM     43  C   UNL A   1      44.091  31.026  30.884  1.00  0.00     0.037 A 
ATOM     44  C   UNL A   1      42.861  24.770  28.034  1.00  0.00     0.037 A 
ATOM     45  C   UNL A   1      45.222  30.133  30.856  1.00  0.00     0.049 A 
ATOM     46  C   UNL A   1      44.234  25.172  28.498  1.00  0.00     0.074 A 
ATOM     47  C   UNL A   1      46.497  30.347  31.349  1.00  0.00     0.029 A 
ATOM     48  N   UNL A   1      45.218  28.866  30.295  1.00  0.00    -0.354 N 
ATOM     49  N   UNL A   1      44.615  26.273  29.098  1.00  0.00    -0.248 NA
ATOM     50  C   UNL A   1      45.322  24.211  28.261  1.00  0.00     0.031 C 
ATOM     51  C   UNL A   1      47.283  29.235  31.031  1.00  0.00     0.029 A 
ATOM     52  C   UNL A   1      46.482  28.304  30.392  1.00  0.00     0.049 A 
ATOM     53  H   UNL A   1      44.436  28.429  29.889  1.00  0.00     0.167 HD
ATOM     54  C   UNL A   1      45.977  26.127  29.329  1.00  0.00     0.074 A 
ATOM     55  C   UNL A   1      46.350  24.821  28.830  1.00  0.00     0.031 C 
ATOM     56  C   UNL A   1      46.843  27.001  29.896  1.00  0.00     0.037 A 
BRANCH  43  57
ATOM     57  C   UNL A   1      44.313  32.404  31.437  1.00  0.00     0.057 A 
ATOM     58  C   UNL A   1      44.168  32.686  32.801  1.00  0.00     0.134 A 
ATOM     59  C   UNL A   1      44.778  33.436  30.610  1.00  0.00     0.134 A 
ATOM     60  F   UNL A   1      43.723  31.745  33.646  1.00  0.00    -0.206 F 
ATOM     61  C   UNL A   1      44.469  33.947  33.322  1.00  0.00     0.040 A 
ATOM     62  C   UNL A   1      45.106  34.693  31.123  1.00  0.00     0.040 A 
ATOM     63  F   UNL A   1      44.950  33.231  29.296  1.00  0.00    -0.206 F 
ATOM     64  C   UNL A   1      44.951  34.950  32.483  1.00  0.00     0.006 A 
ENDBRANCH  43  57
BRANCH  44  65
ATOM     65  C   UNL A   1      42.649  23.457  27.369  1.00  0.00     0.057 A 
ATOM     66  C   UNL A   1      42.301  22.318  28.106  1.00  0.00     0.134 A 
ATOM     67  C   UNL A   1      42.839  23.296  25.991  1.00  0.00     0.134 A 
ATOM     68  F   UNL A   1      42.126  22.402  29.434  1.00  0.00    -0.206 F 
ATOM     69  C   UNL A   1      42.185  21.064  27.505  1.00  0.00     0.040 A 
ATOM     70  C   UNL A   1      42.694  22.055  25.371  1.00  0.00     0.040 A 
ATOM     71  F   UNL A   1      43.166  24.348  25.224  1.00  0.00    -0.206 F 
ATOM     72  C   UNL A   1      42.379  20.931  26.133  1.00  0.00     0.006 A 
ENDBRANCH  44  65
BRANCH  56  73
ATOM     73  C   UNL A   1      48.273  26.564  30.030  1.00  0.00     0.057 A 
ATOM     74  C   UNL A   1      49.235  26.880  29.062  1.00  0.00     0.134 A 
ATOM     75  C   UNL A   1      48.701  25.848  31.155  1.00  0.00     0.134 A 
ATOM     76  F   UNL A   1      48.889  27.551  27.953  1.00  0.00    -0.206 F 
ATOM     77  C   UNL A   1      50.565  26.477  29.195  1.00  0.00     0.040 A 
ATOM     78  C   UNL A   1      50.034  25.466  31.314  1.00  0.00     0.040 A 
ATOM     79  F   UNL A   1      47.835  25.520  32.125  1.00  0.00    -0.206 F 
ATOM     80  C   UNL A   1      50.969  25.774  30.328  1.00  0.00     0.006 A 
ENDBRANCH  56  73
ENDBRANCH  30  31
ENDBRANCH  22  25
ENDBRANCH  20  21
ENDBRANCH   1  20
TORSDOF 11
ENDMDL
MODEL 2
REMARK VINA RESULT:     -11.1      4.422      9.818
REMARK SMILES C[C@@H](C(=O)NCCCNC(=O)c1ccc(-c2c3nc(c(-c4c(F)cccc4F)c4ccc([nH]4)c(-c4c(F)cccc4F)c4nc(c(-c5c(F)cccc5F)c5ccc2[nH]5)C=C4)C=C3)cc1)N1C(=O)c2nccnc2C1=O
REMARK SMILES IDX 7 1 6 2 5 3 3 4 4 5 2 7 1 8 66 9 67 10 75 11 68 12 69 13
REMARK SMILES IDX 74 14 76 15 70 16 73 17 71 18 72 19 8 20 9 21 10 22 11 24
REMARK SMILES IDX 12 25 13 26 65 27 14 28 64 29 15 30 16 31 17 32 58 33 18 34
REMARK SMILES IDX 63 35 57 36 59 37 19 38 62 39 56 40 55 41 20 43 46 44 29 45
REMARK SMILES IDX 45 46 30 47 33 48 44 49 60 50 31 51 32 52 43 54 61 55 34 56
REMARK SMILES IDX 21 57 22 58 27 59 23 60 24 61 26 62 28 63 25 64 47 65 48 66
REMARK SMILES IDX 53 67 49 68 50 69 52 70 54 71 51 72 35 73 36 74 41 75 37 76
REMARK SMILES IDX 38 77 40 78 42 79 39 80
REMARK H PARENT 5 6 9 23 59 42 33 53
REMARK Flexibility Score: inf
ROOT
ATOM      1  C   UNL A   1      31.406  32.173  26.503  1.00  0.00     0.042 C 
ENDROOT
BRANCH   1   2
ATOM      2  C   UNL A   1      31.474  30.650  26.392  1.00  0.00     0.117 C 
BRANCH   2   3
ATOM      3  N   UNL A   1      31.115  30.181  25.065  1.00  0.00    -0.354 N 
ATOM      4  C   UNL A   1      31.624  29.147  24.329  1.00  0.00     0.243 C 
ATOM      5  O   UNL A   1      31.097  28.914  23.239  1.00  0.00    -0.273 OA
ATOM      6  H   UNL A   1      30.392  30.687  24.627  1.00  0.00     0.163 HD
BRANCH   4   7
ATOM      7  C   UNL A   1      32.803  28.314  24.871  1.00  0.00     0.180 C 
ATOM      8  C   UNL A   1      34.023  28.360  23.955  1.00  0.00     0.042 C 
BRANCH   7   9
ATOM      9  N   UNL A   1      32.327  26.951  25.116  1.00  0.00    -0.259 N 
ATOM     10  C   UNL A   1      32.295  25.932  24.194  1.00  0.00     0.282 C 
ATOM     11  C   UNL A   1      31.731  26.579  26.294  1.00  0.00     0.282 C 
ATOM     12  O   UNL A   1      32.709  25.927  23.052  1.00  0.00    -0.267 OA
ATOM     13  C   UNL A   1      31.684  24.787  24.870  1.00  0.00     0.160 A 
ATOM     14  C   UNL A   1      31.341  25.178  26.137  1.00  0.00     0.160 A 
ATOM     15  O   UNL A   1      31.564  27.259  27.291  1.00  0.00    -0.267 OA
ATOM     16  N   UNL A   1      31.549  23.530  24.401  1.00  0.00    -0.247 NA
ATOM     17  N   UNL A   1      30.822  24.355  27.071  1.00  0.00    -0.247 NA
ATOM     18  C   UNL A   1      31.018  22.682  25.320  1.00  0.00     0.132 A 
ATOM     19  C   UNL A   1      30.663  23.082  26.617  1.00  0.00     0.132 A 
ENDBRANCH   7   9
ENDBRANCH   4   7
ENDBRANCH   2   3
ENDBRANCH   1   2
BRANCH   1  20
ATOM     20  C   UNL A   1      32.590  32.809  27.229  1.00  0.00     0.118 C 
BRANCH  20  21
ATOM     21  N   UNL A   1      32.344  34.192  27.614  1.00  0.00    -0.352 N 
ATOM     22  C   UNL A   1      32.968  34.991  28.541  1.00  0.00     0.251 C 
ATOM     23  H   UNL A   1      31.604  34.627  27.130  1.00  0.00     0.163 HD
ATOM     24  O   UNL A   1      32.480  36.086  28.814  1.00  0.00    -0.269 OA
BRANCH  22  25
ATOM     25  C   UNL A   1      34.197  34.548  29.238  1.00  0.00     0.039 A 
ATOM     26  C   UNL A   1      34.080  34.062  30.546  1.00  0.00     0.014 A 
ATOM     27  C   UNL A   1      35.457  34.626  28.639  1.00  0.00     0.014 A 
ATOM     28  C   UNL A   1      35.207  33.570  31.211  1.00  0.00     0.010 A 
ATOM     29  C   UNL A   1      36.569  34.075  29.280  1.00  0.00     0.010 A 
ATOM     30  C   UNL A   1      36.451  33.519  30.563  1.00  0.00    -0.014 A 
BRANCH  30  31
ATOM     31  C   UNL A   1      37.606  32.814  31.180  1.00  0.00     0.031 A 
ATOM     32  C   UNL A   1      38.244  31.629  30.510  1.00  0.00     0.074 A 
ATOM     33  C   UNL A   1      38.036  33.208  32.397  1.00  0.00     0.049 A 
ATOM     34  N   UNL A   1      39.208  30.856  30.947  1.00  0.00    -0.248 NA
ATOM     35  C   UNL A   1      37.724  31.250  29.187  1.00  0.00     0.031 C 
ATOM     36  C   UNL A   1      37.475  34.316  33.173  1.00  0.00     0.029 A 
ATOM     37  N   UNL A   1      39.030  32.712  33.205  1.00  0.00    -0.354 N 
ATOM     38  C   UNL A   1      39.404  29.897  29.961  1.00  0.00     0.074 A 
ATOM     39  C   UNL A   1      38.435  30.162  28.917  1.00  0.00     0.031 C 
ATOM     40  C   UNL A   1      38.139  34.425  34.335  1.00  0.00     0.029 A 
ATOM     41  C   UNL A   1      39.139  33.365  34.410  1.00  0.00     0.049 A 
ATOM     42  H   UNL A   1      39.610  31.960  32.946  1.00  0.00     0.167 HD
ATOM     43  C   UNL A   1      40.316  28.896  29.926  1.00  0.00     0.037 A 
ATOM     44  C   UNL A   1      39.936  33.126  35.470  1.00  0.00     0.037 A 
ATOM     45  C   UNL A   1      41.292  28.645  30.955  1.00  0.00     0.049 A 
ATOM     46  C   UNL A   1      40.913  31.984  35.411  1.00  0.00     0.074 A 
ATOM     47  C   UNL A   1      42.305  27.701  30.967  1.00  0.00     0.029 A 
ATOM     48  N   UNL A   1      41.369  29.327  32.159  1.00  0.00    -0.354 N 
ATOM     49  N   UNL A   1      41.147  31.144  34.432  1.00  0.00    -0.248 NA
ATOM     50  C   UNL A   1      41.739  31.757  36.606  1.00  0.00     0.031 C 
ATOM     51  C   UNL A   1      42.956  27.770  32.203  1.00  0.00     0.029 A 
ATOM     52  C   UNL A   1      42.386  28.797  32.938  1.00  0.00     0.049 A 
ATOM     53  H   UNL A   1      40.789  30.077  32.422  1.00  0.00     0.167 HD
ATOM     54  C   UNL A   1      42.158  30.306  34.885  1.00  0.00     0.074 A 
ATOM     55  C   UNL A   1      42.513  30.757  36.214  1.00  0.00     0.031 C 
ATOM     56  C   UNL A   1      42.735  29.253  34.258  1.00  0.00     0.037 A 
BRANCH  43  57
ATOM     57  C   UNL A   1      40.318  27.981  28.735  1.00  0.00     0.057 A 
ATOM     58  C   UNL A   1      41.049  28.275  27.577  1.00  0.00     0.134 A 
ATOM     59  C   UNL A   1      39.662  26.743  28.788  1.00  0.00     0.134 A 
ATOM     60  F   UNL A   1      41.695  29.444  27.460  1.00  0.00    -0.206 F 
ATOM     61  C   UNL A   1      41.122  27.374  26.512  1.00  0.00     0.040 A 
ATOM     62  C   UNL A   1      39.749  25.824  27.740  1.00  0.00     0.040 A 
ATOM     63  F   UNL A   1      38.953  26.394  29.872  1.00  0.00    -0.206 F 
ATOM     64  C   UNL A   1      40.480  26.141  26.597  1.00  0.00     0.006 A 
ENDBRANCH  43  57
BRANCH  44  65
ATOM     65  C   UNL A   1      39.835  33.965  36.694  1.00  0.00     0.057 A 
ATOM     66  C   UNL A   1      38.995  33.603  37.753  1.00  0.00     0.134 A 
ATOM     67  C   UNL A   1      40.536  35.171  36.812  1.00  0.00     0.134 A 
ATOM     68  F   UNL A   1      38.281  32.469  37.691  1.00  0.00    -0.206 F 
ATOM     69  C   UNL A   1      38.827  34.426  38.868  1.00  0.00     0.040 A 
ATOM     70  C   UNL A   1      40.403  35.988  37.935  1.00  0.00     0.040 A 
ATOM     71  F   UNL A   1      41.364  35.574  35.836  1.00  0.00    -0.206 F 
ATOM     72  C   UNL A   1      39.535  35.622  38.962  1.00  0.00     0.006 A 
ENDBRANCH  44  65
BRANCH  56  73
ATOM     73  C   UNL A   1      43.827  28.530  34.992  1.00  0.00     0.057 A 
ATOM     74  C   UNL A   1      43.562  27.418  35.802  1.00  0.00     0.134 A 
ATOM     75  C   UNL A   1      45.164  28.929  34.861  1.00  0.00     0.134 A 
ATOM     76  F   UNL A   1      42.302  26.993  35.980  1.00  0.00    -0.206 F 
ATOM     77  C   UNL A   1      44.582  26.746  36.475  1.00  0.00     0.040 A 
ATOM     78  C   UNL A   1      46.196  28.246  35.506  1.00  0.00     0.040 A 
ATOM     79  F   UNL A   1      45.490  29.980  34.095  1.00  0.00    -0.206 F 
ATOM     80  C   UNL A   1      45.906  27.155  36.323  1.00  0.00     0.006 A 
ENDBRANCH  56  73
ENDBRANCH  30  31
ENDBRANCH  22  25
ENDBRANCH  20  21
ENDBRANCH   1  20
TORSDOF 11
ENDMDL
MODEL 3
REMARK VINA RESULT:     -11.1      4.214      9.208
REMARK SMILES C[C@@H](C(=O)NCCCNC(=O)c1ccc(-c2c3nc(c(-c4c(F)cccc4F)c4ccc([nH]4)c(-c4c(F)cccc4F)c4nc(c(-c5c(F)cccc5F)c5ccc2[nH]5)C=C4)C=C3)cc1)N1C(=O)c2nccnc2C1=O
REMARK SMILES IDX 7 1 6 2 5 3 3 4 4 5 2 7 1 8 66 9 67 10 75 11 68 12 69 13
REMARK SMILES IDX 74 14 76 15 70 16 73 17 71 18 72 19 8 20 9 21 10 22 11 24
REMARK SMILES IDX 12 25 13 26 65 27 14 28 64 29 15 30 16 31 17 32 58 33 18 34
REMARK SMILES IDX 63 35 57 36 59 37 19 38 62 39 56 40 55 41 20 43 46 44 29 45
REMARK SMILES IDX 45 46 30 47 33 48 44 49 60 50 31 51 32 52 43 54 61 55 34 56
REMARK SMILES IDX 21 57 22 58 27 59 23 60 24 61 26 62 28 63 25 64 47 65 48 66
REMARK SMILES IDX 53 67 49 68 50 69 52 70 54 71 51 72 35 73 36 74 41 75 37 76
REMARK SMILES IDX 38 77 40 78 42 79 39 80
REMARK H PARENT 5 6 9 23 59 42 33 53
REMARK Flexibility Score: inf
ROOT
ATOM      1  C   UNL A   1      30.898  31.135  25.299  1.00  0.00     0.042 C 
ENDROOT
BRANCH   1   2
ATOM      2  C   UNL A   1      30.923  29.696  24.786  1.00  0.00     0.117 C 
BRANCH   2   3
ATOM      3  N   UNL A   1      32.150  29.390  24.072  1.00  0.00    -0.354 N 
ATOM      4  C   UNL A   1      33.264  28.713  24.485  1.00  0.00     0.243 C 
ATOM      5  O   UNL A   1      34.158  28.533  23.655  1.00  0.00    -0.273 OA
ATOM      6  H   UNL A   1      32.185  29.722  23.145  1.00  0.00     0.163 HD
BRANCH   4   7
ATOM      7  C   UNL A   1      33.367  28.196  25.934  1.00  0.00     0.180 C 
ATOM      8  C   UNL A   1      34.778  28.319  26.501  1.00  0.00     0.042 C 
BRANCH   7   9
ATOM      9  N   UNL A   1      32.859  26.823  25.967  1.00  0.00    -0.259 N 
ATOM     10  C   UNL A   1      33.394  25.750  25.295  1.00  0.00     0.282 C 
ATOM     11  C   UNL A   1      31.686  26.485  26.595  1.00  0.00     0.282 C 
ATOM     12  O   UNL A   1      34.403  25.703  24.621  1.00  0.00    -0.267 OA
ATOM     13  C   UNL A   1      32.518  24.612  25.576  1.00  0.00     0.160 A 
ATOM     14  C   UNL A   1      31.486  25.056  26.360  1.00  0.00     0.160 A 
ATOM     15  O   UNL A   1      30.952  27.213  27.240  1.00  0.00    -0.267 OA
ATOM     16  N   UNL A   1      32.706  23.323  25.228  1.00  0.00    -0.247 NA
ATOM     17  N   UNL A   1      30.528  24.260  26.875  1.00  0.00    -0.247 NA
ATOM     18  C   UNL A   1      31.747  22.500  25.727  1.00  0.00     0.132 A 
ATOM     19  C   UNL A   1      30.688  22.954  26.526  1.00  0.00     0.132 A 
ENDBRANCH   7   9
ENDBRANCH   4   7
ENDBRANCH   2   3
ENDBRANCH   1   2
BRANCH   1  20
ATOM     20  C   UNL A   1      31.803  31.396  26.503  1.00  0.00     0.118 C 
BRANCH  20  21
ATOM     21  N   UNL A   1      31.860  32.802  26.876  1.00  0.00    -0.352 N 
ATOM     22  C   UNL A   1      32.770  33.493  27.639  1.00  0.00     0.251 C 
ATOM     23  H   UNL A   1      31.122  33.351  26.522  1.00  0.00     0.163 HD
ATOM     24  O   UNL A   1      32.526  34.654  27.958  1.00  0.00    -0.269 OA
BRANCH  22  25
ATOM     25  C   UNL A   1      34.021  32.856  28.111  1.00  0.00     0.039 A 
ATOM     26  C   UNL A   1      35.172  33.646  28.210  1.00  0.00     0.014 A 
ATOM     27  C   UNL A   1      34.085  31.498  28.431  1.00  0.00     0.014 A 
ATOM     28  C   UNL A   1      36.354  33.097  28.717  1.00  0.00     0.010 A 
ATOM     29  C   UNL A   1      35.246  30.967  28.997  1.00  0.00     0.010 A 
ATOM     30  C   UNL A   1      36.386  31.768  29.169  1.00  0.00    -0.014 A 
BRANCH  30  31
ATOM     31  C   UNL A   1      37.570  31.236  29.894  1.00  0.00     0.031 A 
ATOM     32  C   UNL A   1      38.495  30.240  29.251  1.00  0.00     0.074 A 
ATOM     33  C   UNL A   1      37.768  31.604  31.177  1.00  0.00     0.049 A 
ATOM     34  N   UNL A   1      39.528  29.621  29.768  1.00  0.00    -0.248 NA
ATOM     35  C   UNL A   1      38.219  29.879  27.852  1.00  0.00     0.031 C 
ATOM     36  C   UNL A   1      36.920  32.530  31.931  1.00  0.00     0.029 A 
ATOM     37  N   UNL A   1      38.733  31.233  32.081  1.00  0.00    -0.354 N 
ATOM     38  C   UNL A   1      40.017  28.793  28.766  1.00  0.00     0.074 A 
ATOM     39  C   UNL A   1      39.149  28.962  27.619  1.00  0.00     0.031 C 
ATOM     40  C   UNL A   1      37.407  32.664  33.175  1.00  0.00     0.029 A 
ATOM     41  C   UNL A   1      38.572  31.799  33.325  1.00  0.00     0.049 A 
ATOM     42  H   UNL A   1      39.472  30.620  31.860  1.00  0.00     0.167 HD
ATOM     43  C   UNL A   1      41.099  27.978  28.798  1.00  0.00     0.037 A 
ATOM     44  C   UNL A   1      39.266  31.625  34.466  1.00  0.00     0.037 A 
ATOM     45  C   UNL A   1      41.974  27.826  29.933  1.00  0.00     0.049 A 
ATOM     46  C   UNL A   1      40.441  30.685  34.475  1.00  0.00     0.074 A 
ATOM     47  C   UNL A   1      43.137  27.082  30.027  1.00  0.00     0.029 A 
ATOM     48  N   UNL A   1      41.776  28.415  31.171  1.00  0.00    -0.354 N 
ATOM     49  N   UNL A   1      40.944  29.979  33.491  1.00  0.00    -0.248 NA
ATOM     50  C   UNL A   1      41.145  30.516  35.754  1.00  0.00     0.031 C 
ATOM     51  C   UNL A   1      43.610  27.170  31.340  1.00  0.00     0.029 A 
ATOM     52  C   UNL A   1      42.773  28.017  32.048  1.00  0.00     0.049 A 
ATOM     53  H   UNL A   1      41.038  29.026  31.396  1.00  0.00     0.167 HD
ATOM     54  C   UNL A   1      42.032  29.304  34.027  1.00  0.00     0.074 A 
ATOM     55  C   UNL A   1      42.134  29.705  35.414  1.00  0.00     0.031 C 
ATOM     56  C   UNL A   1      42.868  28.424  33.426  1.00  0.00     0.037 A 
BRANCH  43  57
ATOM     57  C   UNL A   1      41.416  27.174  27.570  1.00  0.00     0.057 A 
ATOM     58  C   UNL A   1      42.222  27.680  26.543  1.00  0.00     0.134 A 
ATOM     59  C   UNL A   1      40.993  25.842  27.463  1.00  0.00     0.134 A 
ATOM     60  F   UNL A   1      42.657  28.948  26.582  1.00  0.00    -0.206 F 
ATOM     61  C   UNL A   1      42.591  26.893  25.449  1.00  0.00     0.040 A 
ATOM     62  C   UNL A   1      41.375  25.038  26.387  1.00  0.00     0.040 A 
ATOM     63  F   UNL A   1      40.227  25.292  28.416  1.00  0.00    -0.206 F 
ATOM     64  C   UNL A   1      42.176  25.565  25.376  1.00  0.00     0.006 A 
ENDBRANCH  43  57
BRANCH  44  65
ATOM     65  C   UNL A   1      38.863  32.333  35.709  1.00  0.00     0.057 A 
ATOM     66  C   UNL A   1      39.220  33.668  35.931  1.00  0.00     0.134 A 
ATOM     67  C   UNL A   1      38.157  31.678  36.726  1.00  0.00     0.134 A 
ATOM     68  F   UNL A   1      39.916  34.344  35.004  1.00  0.00    -0.206 F 
ATOM     69  C   UNL A   1      38.922  34.315  37.132  1.00  0.00     0.040 A 
ATOM     70  C   UNL A   1      37.824  32.323  37.918  1.00  0.00     0.040 A 
ATOM     71  F   UNL A   1      37.777  30.400  36.575  1.00  0.00    -0.206 F 
ATOM     72  C   UNL A   1      38.220  33.643  38.128  1.00  0.00     0.006 A 
ENDBRANCH  44  65
BRANCH  56  73
ATOM     73  C   UNL A   1      43.981  27.852  34.258  1.00  0.00     0.057 A 
ATOM     74  C   UNL A   1      43.844  26.636  34.939  1.00  0.00     0.134 A 
ATOM     75  C   UNL A   1      45.215  28.510  34.352  1.00  0.00     0.134 A 
ATOM     76  F   UNL A   1      42.684  25.963  34.901  1.00  0.00    -0.206 F 
ATOM     77  C   UNL A   1      44.884  26.107  35.704  1.00  0.00     0.040 A 
ATOM     78  C   UNL A   1      46.271  27.976  35.090  1.00  0.00     0.040 A 
ATOM     79  F   UNL A   1      45.417  29.675  33.719  1.00  0.00    -0.206 F 
ATOM     80  C   UNL A   1      46.105  26.775  35.776  1.00  0.00     0.006 A 
ENDBRANCH  56  73
ENDBRANCH  30  31
ENDBRANCH  22  25
ENDBRANCH  20  21
ENDBRANCH   1  20
TORSDOF 11
ENDMDL
