MODEL 1
REMARK VINA RESULT:     -11.9      0.000      0.000
REMARK SMILES CCn1ncc(CNc2ccccc2C(=O)NCCCNC(=O)c2ccc(-c3c4nc(c(-c5c(F)cccc5F)c5ccc([nH]5)c(-c5c(F)cccc5F)c5nc(c(-c6c(F)cccc6F)c6ccc3[nH]6)C=C5)C=C4)cc2)c1C
REMARK SMILES IDX 18 1 17 2 15 3 16 4 14 6 9 7 10 8 11 9 13 10 12 11 8 12 7 14
REMARK SMILES IDX 6 15 3 16 4 17 78 18 5 19 79 20 2 21 1 22 19 23 20 24 21 25
REMARK SMILES IDX 22 26 23 28 24 29 25 30 77 31 26 32 76 33 27 34 28 35 29 36
REMARK SMILES IDX 70 37 30 38 75 39 69 40 71 41 31 42 74 43 68 44 67 45 32 47
REMARK SMILES IDX 58 48 41 49 57 50 42 51 45 52 56 53 72 54 43 55 44 56 55 58
REMARK SMILES IDX 73 59 46 60 33 61 34 62 39 63 35 64 36 65 38 66 40 67 37 68
REMARK SMILES IDX 59 69 60 70 65 71 61 72 62 73 64 74 66 75 63 76 47 77 48 78
REMARK SMILES IDX 53 79 49 80 50 81 52 82 54 83 51 84
REMARK H PARENT 17 5 8 13 21 27 71 46 45 57
REMARK Flexibility Score: inf
ROOT
ATOM      1  C   UNL A   1      33.303  29.495  26.913  1.00  0.00     0.118 C 
ENDROOT
BRANCH   1   2
ATOM      2  N   UNL A   1      34.094  29.206  25.760  1.00  0.00    -0.352 N 
ATOM      3  C   UNL A   1      33.702  28.266  24.810  1.00  0.00     0.253 C 
ATOM      4  O   UNL A   1      33.998  28.500  23.635  1.00  0.00    -0.269 OA
ATOM      5  H   UNL A   1      34.944  29.686  25.634  1.00  0.00     0.163 HD
BRANCH   3   6
ATOM      6  C   UNL A   1      33.135  26.908  25.169  1.00  0.00     0.062 A 
ATOM      7  C   UNL A   1      31.806  26.492  25.441  1.00  0.00     0.047 A 
ATOM      8  C   UNL A   1      31.642  25.197  26.005  1.00  0.00     0.026 A 
ATOM      9  C   UNL A   1      32.696  24.309  26.212  1.00  0.00     0.002 A 
ATOM     10  C   UNL A   1      34.187  25.966  25.344  1.00  0.00     0.016 A 
ATOM     11  C   UNL A   1      33.973  24.682  25.847  1.00  0.00     0.001 A 
BRANCH   7  12
ATOM     12  N   UNL A   1      30.596  27.120  25.179  1.00  0.00    -0.380 N 
ATOM     13  H   UNL A   1      30.325  27.798  25.838  1.00  0.00     0.160 HD
BRANCH  12  14
ATOM     14  C   UNL A   1      29.670  26.926  24.073  1.00  0.00     0.152 C 
BRANCH  14  15
ATOM     15  C   UNL A   1      29.539  28.074  23.145  1.00  0.00     0.012 A 
ATOM     16  N   UNL A   1      28.786  29.761  21.963  1.00  0.00    -0.270 N 
ATOM     17  N   UNL A   1      30.114  29.714  21.695  1.00  0.00    -0.181 NA
ATOM     18  C   UNL A   1      28.391  28.784  22.844  1.00  0.00     0.040 A 
ATOM     19  C   UNL A   1      30.565  28.686  22.403  1.00  0.00     0.141 A 
ATOM     20  C   UNL A   1      27.043  28.515  23.406  1.00  0.00     0.067 C 
BRANCH  16  21
ATOM     21  C   UNL A   1      28.070  30.812  21.270  1.00  0.00     0.141 C 
ATOM     22  C   UNL A   1      28.244  32.242  21.731  1.00  0.00     0.029 C 
ENDBRANCH  16  21
ENDBRANCH  14  15
ENDBRANCH  12  14
ENDBRANCH   7  12
ENDBRANCH   3   6
ENDBRANCH   1   2
BRANCH   1  23
ATOM     23  C   UNL A   1      32.817  30.876  27.293  1.00  0.00     0.042 C 
BRANCH  23  24
ATOM     24  C   UNL A   1      33.958  31.819  27.633  1.00  0.00     0.118 C 
BRANCH  24  25
ATOM     25  N   UNL A   1      34.140  32.149  29.061  1.00  0.00    -0.352 N 
ATOM     26  C   UNL A   1      35.207  31.764  29.886  1.00  0.00     0.251 C 
ATOM     27  H   UNL A   1      33.436  32.697  29.478  1.00  0.00     0.163 HD
ATOM     28  O   UNL A   1      35.179  31.860  31.080  1.00  0.00    -0.269 OA
BRANCH  26  29
ATOM     29  C   UNL A   1      36.397  31.234  29.180  1.00  0.00     0.039 A 
ATOM     30  C   UNL A   1      37.607  31.930  29.199  1.00  0.00     0.014 A 
ATOM     31  C   UNL A   1      36.334  29.884  28.885  1.00  0.00     0.014 A 
ATOM     32  C   UNL A   1      38.791  31.198  29.111  1.00  0.00     0.010 A 
ATOM     33  C   UNL A   1      37.494  29.165  29.037  1.00  0.00     0.010 A 
ATOM     34  C   UNL A   1      38.735  29.794  29.125  1.00  0.00    -0.014 A 
BRANCH  34  35
ATOM     35  C   UNL A   1      39.934  28.984  29.371  1.00  0.00     0.031 A 
ATOM     36  C   UNL A   1      40.346  28.807  30.802  1.00  0.00     0.074 A 
ATOM     37  C   UNL A   1      40.571  28.265  28.419  1.00  0.00     0.049 A 
ATOM     38  N   UNL A   1      41.374  29.333  31.384  1.00  0.00    -0.248 NA
ATOM     39  C   UNL A   1      39.485  28.041  31.716  1.00  0.00     0.031 C 
ATOM     40  C   UNL A   1      40.216  28.030  27.013  1.00  0.00     0.029 A 
ATOM     41  N   UNL A   1      41.688  27.502  28.563  1.00  0.00    -0.354 N 
ATOM     42  C   UNL A   1      41.404  28.827  32.683  1.00  0.00     0.074 A 
ATOM     43  C   UNL A   1      40.143  28.157  32.875  1.00  0.00     0.031 C 
ATOM     44  C   UNL A   1      40.933  26.998  26.523  1.00  0.00     0.029 A 
ATOM     45  C   UNL A   1      41.950  26.658  27.494  1.00  0.00     0.049 A 
ATOM     46  H   UNL A   1      42.264  27.546  29.360  1.00  0.00     0.167 HD
ATOM     47  C   UNL A   1      42.552  28.838  33.423  1.00  0.00     0.037 A 
ATOM     48  C   UNL A   1      42.953  25.756  27.390  1.00  0.00     0.037 A 
ATOM     49  C   UNL A   1      43.539  29.714  32.838  1.00  0.00     0.049 A 
ATOM     50  C   UNL A   1      44.012  26.178  28.340  1.00  0.00     0.074 A 
ATOM     51  C   UNL A   1      43.564  31.054  32.501  1.00  0.00     0.029 A 
ATOM     52  N   UNL A   1      44.577  29.145  32.137  1.00  0.00    -0.354 N 
ATOM     53  N   UNL A   1      44.720  27.265  28.192  1.00  0.00    -0.248 NA
ATOM     54  C   UNL A   1      43.947  25.654  29.695  1.00  0.00     0.031 C 
ATOM     55  C   UNL A   1      44.220  31.092  31.234  1.00  0.00     0.029 A 
ATOM     56  C   UNL A   1      44.627  29.793  30.929  1.00  0.00     0.049 A 
ATOM     57  H   UNL A   1      45.167  28.418  32.441  1.00  0.00     0.167 HD
ATOM     58  C   UNL A   1      44.821  27.798  29.469  1.00  0.00     0.074 A 
ATOM     59  C   UNL A   1      44.399  26.719  30.363  1.00  0.00     0.031 C 
ATOM     60  C   UNL A   1      44.956  29.141  29.680  1.00  0.00     0.037 A 
BRANCH  47  61
ATOM     61  C   UNL A   1      42.929  27.819  34.473  1.00  0.00     0.057 A 
ATOM     62  C   UNL A   1      43.205  26.492  34.084  1.00  0.00     0.134 A 
ATOM     63  C   UNL A   1      42.742  28.006  35.855  1.00  0.00     0.134 A 
ATOM     64  F   UNL A   1      43.397  26.178  32.793  1.00  0.00    -0.206 F 
ATOM     65  C   UNL A   1      43.209  25.426  34.992  1.00  0.00     0.040 A 
ATOM     66  C   UNL A   1      42.793  26.955  36.777  1.00  0.00     0.040 A 
ATOM     67  F   UNL A   1      42.401  29.191  36.377  1.00  0.00    -0.206 F 
ATOM     68  C   UNL A   1      42.993  25.654  36.343  1.00  0.00     0.006 A 
ENDBRANCH  47  61
BRANCH  48  69
ATOM     69  C   UNL A   1      42.913  24.435  26.729  1.00  0.00     0.057 A 
ATOM     70  C   UNL A   1      43.610  24.200  25.538  1.00  0.00     0.134 A 
ATOM     71  C   UNL A   1      42.406  23.297  27.384  1.00  0.00     0.134 A 
ATOM     72  F   UNL A   1      44.159  25.218  24.859  1.00  0.00    -0.206 F 
ATOM     73  C   UNL A   1      43.819  22.906  25.042  1.00  0.00     0.040 A 
ATOM     74  C   UNL A   1      42.601  22.001  26.895  1.00  0.00     0.040 A 
ATOM     75  F   UNL A   1      41.779  23.395  28.565  1.00  0.00    -0.206 F 
ATOM     76  C   UNL A   1      43.325  21.801  25.729  1.00  0.00     0.006 A 
ENDBRANCH  48  69
BRANCH  60  77
ATOM     77  C   UNL A   1      45.209  30.043  28.500  1.00  0.00     0.057 A 
ATOM     78  C   UNL A   1      44.197  30.672  27.757  1.00  0.00     0.134 A 
ATOM     79  C   UNL A   1      46.523  30.434  28.222  1.00  0.00     0.134 A 
ATOM     80  F   UNL A   1      42.904  30.448  28.012  1.00  0.00    -0.206 F 
ATOM     81  C   UNL A   1      44.483  31.615  26.764  1.00  0.00     0.040 A 
ATOM     82  C   UNL A   1      46.821  31.399  27.255  1.00  0.00     0.040 A 
ATOM     83  F   UNL A   1      47.545  29.923  28.928  1.00  0.00    -0.206 F 
ATOM     84  C   UNL A   1      45.799  31.987  26.515  1.00  0.00     0.006 A 
ENDBRANCH  60  77
ENDBRANCH  34  35
ENDBRANCH  26  29
ENDBRANCH  24  25
ENDBRANCH  23  24
ENDBRANCH   1  23
TORSDOF 14
ENDMDL
MODEL 2
REMARK VINA RESULT:     -11.7      4.889      8.373
REMARK SMILES CCn1ncc(CNc2ccccc2C(=O)NCCCNC(=O)c2ccc(-c3c4nc(c(-c5c(F)cccc5F)c5ccc([nH]5)c(-c5c(F)cccc5F)c5nc(c(-c6c(F)cccc6F)c6ccc3[nH]6)C=C5)C=C4)cc2)c1C
REMARK SMILES IDX 18 1 17 2 15 3 16 4 14 6 9 7 10 8 11 9 13 10 12 11 8 12 7 14
REMARK SMILES IDX 6 15 3 16 4 17 78 18 5 19 79 20 2 21 1 22 19 23 20 24 21 25
REMARK SMILES IDX 22 26 23 28 24 29 25 30 77 31 26 32 76 33 27 34 28 35 29 36
REMARK SMILES IDX 70 37 30 38 75 39 69 40 71 41 31 42 74 43 68 44 67 45 32 47
REMARK SMILES IDX 58 48 41 49 57 50 42 51 45 52 56 53 72 54 43 55 44 56 55 58
REMARK SMILES IDX 73 59 46 60 33 61 34 62 39 63 35 64 36 65 38 66 40 67 37 68
REMARK SMILES IDX 59 69 60 70 65 71 61 72 62 73 64 74 66 75 63 76 47 77 48 78
REMARK SMILES IDX 53 79 49 80 50 81 52 82 54 83 51 84
REMARK H PARENT 17 5 8 13 21 27 71 46 45 57
REMARK Flexibility Score: inf
ROOT
ATOM      1  C   UNL A   1      39.158  30.492  33.582  1.00  0.00     0.118 C 
ENDROOT
BRANCH   1   2
ATOM      2  N   UNL A   1      38.332  29.329  33.661  1.00  0.00    -0.352 N 
ATOM      3  C   UNL A   1      38.097  28.512  32.558  1.00  0.00     0.253 C 
ATOM      4  O   UNL A   1      37.977  27.302  32.773  1.00  0.00    -0.269 OA
ATOM      5  H   UNL A   1      37.916  29.099  34.523  1.00  0.00     0.163 HD
BRANCH   3   6
ATOM      6  C   UNL A   1      37.777  29.049  31.178  1.00  0.00     0.062 A 
ATOM      7  C   UNL A   1      36.749  29.917  30.729  1.00  0.00     0.047 A 
ATOM      8  C   UNL A   1      36.567  30.020  29.322  1.00  0.00     0.026 A 
ATOM      9  C   UNL A   1      37.390  29.389  28.391  1.00  0.00     0.002 A 
ATOM     10  C   UNL A   1      38.633  28.455  30.208  1.00  0.00     0.016 A 
ATOM     11  C   UNL A   1      38.451  28.629  28.836  1.00  0.00     0.001 A 
BRANCH   7  12
ATOM     12  N   UNL A   1      35.914  30.766  31.442  1.00  0.00    -0.380 N 
ATOM     13  H   UNL A   1      34.979  30.468  31.514  1.00  0.00     0.160 HD
BRANCH  12  14
ATOM     14  C   UNL A   1      36.214  32.029  32.099  1.00  0.00     0.152 C 
BRANCH  14  15
ATOM     15  C   UNL A   1      35.265  33.133  31.821  1.00  0.00     0.012 A 
ATOM     16  N   UNL A   1      34.040  34.947  31.942  1.00  0.00    -0.270 N 
ATOM     17  N   UNL A   1      33.803  34.450  30.704  1.00  0.00    -0.181 NA
ATOM     18  C   UNL A   1      34.926  34.180  32.658  1.00  0.00     0.040 A 
ATOM     19  C   UNL A   1      34.538  33.346  30.637  1.00  0.00     0.141 A 
ATOM     20  C   UNL A   1      35.461  34.393  34.026  1.00  0.00     0.067 C 
BRANCH  16  21
ATOM     21  C   UNL A   1      33.314  36.162  32.252  1.00  0.00     0.141 C 
ATOM     22  C   UNL A   1      31.818  36.086  32.460  1.00  0.00     0.029 C 
ENDBRANCH  16  21
ENDBRANCH  14  15
ENDBRANCH  12  14
ENDBRANCH   7  12
ENDBRANCH   3   6
ENDBRANCH   1   2
BRANCH   1  23
ATOM     23  C   UNL A   1      40.669  30.467  33.537  1.00  0.00     0.042 C 
BRANCH  23  24
ATOM     24  C   UNL A   1      41.270  31.862  33.504  1.00  0.00     0.118 C 
BRANCH  24  25
ATOM     25  N   UNL A   1      40.394  32.948  33.023  1.00  0.00    -0.352 N 
ATOM     26  C   UNL A   1      40.430  33.567  31.764  1.00  0.00     0.251 C 
ATOM     27  H   UNL A   1      39.711  33.273  33.653  1.00  0.00     0.163 HD
ATOM     28  O   UNL A   1      39.859  34.591  31.521  1.00  0.00    -0.269 OA
BRANCH  26  29
ATOM     29  C   UNL A   1      41.223  32.859  30.732  1.00  0.00     0.039 A 
ATOM     30  C   UNL A   1      42.617  32.930  30.729  1.00  0.00     0.014 A 
ATOM     31  C   UNL A   1      40.541  31.846  30.081  1.00  0.00     0.014 A 
ATOM     32  C   UNL A   1      43.333  31.846  30.221  1.00  0.00     0.010 A 
ATOM     33  C   UNL A   1      41.249  30.702  29.807  1.00  0.00     0.010 A 
ATOM     34  C   UNL A   1      42.643  30.682  29.844  1.00  0.00    -0.014 A 
BRANCH  34  35
ATOM     35  C   UNL A   1      43.348  29.413  29.627  1.00  0.00     0.031 A 
ATOM     36  C   UNL A   1      44.346  29.379  28.508  1.00  0.00     0.074 A 
ATOM     37  C   UNL A   1      43.276  28.352  30.463  1.00  0.00     0.049 A 
ATOM     38  N   UNL A   1      44.227  28.758  27.380  1.00  0.00    -0.248 NA
ATOM     39  C   UNL A   1      45.570  30.189  28.603  1.00  0.00     0.031 C 
ATOM     40  C   UNL A   1      42.611  28.217  31.766  1.00  0.00     0.029 A 
ATOM     41  N   UNL A   1      43.886  27.144  30.328  1.00  0.00    -0.354 N 
ATOM     42  C   UNL A   1      45.426  28.939  26.692  1.00  0.00     0.074 A 
ATOM     43  C   UNL A   1      46.153  29.944  27.425  1.00  0.00     0.031 C 
ATOM     44  C   UNL A   1      43.065  27.119  32.404  1.00  0.00     0.029 A 
ATOM     45  C   UNL A   1      43.865  26.357  31.469  1.00  0.00     0.049 A 
ATOM     46  H   UNL A   1      44.307  26.851  29.487  1.00  0.00     0.167 HD
ATOM     47  C   UNL A   1      45.799  28.098  25.682  1.00  0.00     0.037 A 
ATOM     48  C   UNL A   1      44.437  25.143  31.637  1.00  0.00     0.037 A 
ATOM     49  C   UNL A   1      44.685  27.297  25.235  1.00  0.00     0.049 A 
ATOM     50  C   UNL A   1      44.625  24.564  30.283  1.00  0.00     0.074 A 
ATOM     51  C   UNL A   1      43.427  27.581  24.738  1.00  0.00     0.029 A 
ATOM     52  N   UNL A   1      44.624  25.985  25.645  1.00  0.00    -0.354 N 
ATOM     53  N   UNL A   1      43.636  24.201  29.512  1.00  0.00    -0.248 NA
ATOM     54  C   UNL A   1      45.880  24.842  29.603  1.00  0.00     0.031 C 
ATOM     55  C   UNL A   1      42.567  26.643  25.384  1.00  0.00     0.029 A 
ATOM     56  C   UNL A   1      43.365  25.799  26.155  1.00  0.00     0.049 A 
ATOM     57  H   UNL A   1      45.341  25.313  25.583  1.00  0.00     0.167 HD
ATOM     58  C   UNL A   1      44.005  24.622  28.243  1.00  0.00     0.074 A 
ATOM     59  C   UNL A   1      45.432  24.932  28.347  1.00  0.00     0.031 C 
ATOM     60  C   UNL A   1      43.077  24.958  27.297  1.00  0.00     0.037 A 
BRANCH  47  61
ATOM     61  C   UNL A   1      47.221  27.740  25.318  1.00  0.00     0.057 A 
ATOM     62  C   UNL A   1      47.608  27.727  23.963  1.00  0.00     0.134 A 
ATOM     63  C   UNL A   1      48.129  27.127  26.201  1.00  0.00     0.134 A 
ATOM     64  F   UNL A   1      46.827  28.273  23.017  1.00  0.00    -0.206 F 
ATOM     65  C   UNL A   1      48.765  27.078  23.515  1.00  0.00     0.040 A 
ATOM     66  C   UNL A   1      49.314  26.519  25.770  1.00  0.00     0.040 A 
ATOM     67  F   UNL A   1      47.875  26.992  27.508  1.00  0.00    -0.206 F 
ATOM     68  C   UNL A   1      49.619  26.462  24.419  1.00  0.00     0.006 A 
ENDBRANCH  47  61
BRANCH  48  69
ATOM     69  C   UNL A   1      45.061  24.601  32.862  1.00  0.00     0.057 A 
ATOM     70  C   UNL A   1      44.600  23.416  33.447  1.00  0.00     0.134 A 
ATOM     71  C   UNL A   1      46.292  25.090  33.341  1.00  0.00     0.134 A 
ATOM     72  F   UNL A   1      43.455  22.855  33.034  1.00  0.00    -0.206 F 
ATOM     73  C   UNL A   1      45.334  22.738  34.429  1.00  0.00     0.040 A 
ATOM     74  C   UNL A   1      47.029  24.427  34.326  1.00  0.00     0.040 A 
ATOM     75  F   UNL A   1      46.862  26.181  32.809  1.00  0.00    -0.206 F 
ATOM     76  C   UNL A   1      46.560  23.237  34.862  1.00  0.00     0.006 A 
ENDBRANCH  48  69
BRANCH  60  77
ATOM     77  C   UNL A   1      41.623  24.670  27.568  1.00  0.00     0.057 A 
ATOM     78  C   UNL A   1      40.759  25.544  28.246  1.00  0.00     0.134 A 
ATOM     79  C   UNL A   1      41.034  23.556  26.960  1.00  0.00     0.134 A 
ATOM     80  F   UNL A   1      41.202  26.690  28.775  1.00  0.00    -0.206 F 
ATOM     81  C   UNL A   1      39.385  25.300  28.345  1.00  0.00     0.040 A 
ATOM     82  C   UNL A   1      39.658  23.317  27.023  1.00  0.00     0.040 A 
ATOM     83  F   UNL A   1      41.783  22.702  26.243  1.00  0.00    -0.206 F 
ATOM     84  C   UNL A   1      38.828  24.187  27.725  1.00  0.00     0.006 A 
ENDBRANCH  60  77
ENDBRANCH  34  35
ENDBRANCH  26  29
ENDBRANCH  24  25
ENDBRANCH  23  24
ENDBRANCH   1  23
TORSDOF 14
ENDMDL
MODEL 3
REMARK VINA RESULT:     -11.6      3.339      8.361
REMARK SMILES CCn1ncc(CNc2ccccc2C(=O)NCCCNC(=O)c2ccc(-c3c4nc(c(-c5c(F)cccc5F)c5ccc([nH]5)c(-c5c(F)cccc5F)c5nc(c(-c6c(F)cccc6F)c6ccc3[nH]6)C=C5)C=C4)cc2)c1C
REMARK SMILES IDX 18 1 17 2 15 3 16 4 14 6 9 7 10 8 11 9 13 10 12 11 8 12 7 14
REMARK SMILES IDX 6 15 3 16 4 17 78 18 5 19 79 20 2 21 1 22 19 23 20 24 21 25
REMARK SMILES IDX 22 26 23 28 24 29 25 30 77 31 26 32 76 33 27 34 28 35 29 36
REMARK SMILES IDX 70 37 30 38 75 39 69 40 71 41 31 42 74 43 68 44 67 45 32 47
REMARK SMILES IDX 58 48 41 49 57 50 42 51 45 52 56 53 72 54 43 55 44 56 55 58
REMARK SMILES IDX 73 59 46 60 33 61 34 62 39 63 35 64 36 65 38 66 40 67 37 68
REMARK SMILES IDX 59 69 60 70 65 71 61 72 62 73 64 74 66 75 63 76 47 77 48 78
REMARK SMILES IDX 53 79 49 80 50 81 52 82 54 83 51 84
REMARK H PARENT 17 5 8 13 21 27 71 46 45 57
REMARK Flexibility Score: inf
ROOT
ATOM      1  C   UNL A   1      39.997  20.494  26.114  1.00  0.00     0.118 C 
ENDROOT
BRANCH   1   2
ATOM      2  N   UNL A   1      39.784  21.870  25.797  1.00  0.00    -0.352 N 
ATOM      3  C   UNL A   1      38.549  22.489  25.977  1.00  0.00     0.253 C 
ATOM      4  O   UNL A   1      38.562  23.675  26.317  1.00  0.00    -0.269 OA
ATOM      5  H   UNL A   1      40.534  22.397  25.439  1.00  0.00     0.163 HD
BRANCH   3   6
ATOM      6  C   UNL A   1      37.234  21.852  25.578  1.00  0.00     0.062 A 
ATOM      7  C   UNL A   1      35.894  22.277  25.771  1.00  0.00     0.047 A 
ATOM      8  C   UNL A   1      34.875  21.320  25.508  1.00  0.00     0.026 A 
ATOM      9  C   UNL A   1      35.126  20.048  24.998  1.00  0.00     0.002 A 
ATOM     10  C   UNL A   1      37.461  20.567  25.011  1.00  0.00     0.016 A 
ATOM     11  C   UNL A   1      36.425  19.680  24.715  1.00  0.00     0.001 A 
BRANCH   7  12
ATOM     12  N   UNL A   1      35.386  23.522  26.112  1.00  0.00    -0.380 N 
ATOM     13  H   UNL A   1      36.014  24.115  26.586  1.00  0.00     0.160 HD
BRANCH  12  14
ATOM     14  C   UNL A   1      34.065  24.084  25.873  1.00  0.00     0.152 C 
BRANCH  14  15
ATOM     15  C   UNL A   1      33.940  24.919  24.655  1.00  0.00     0.012 A 
ATOM     16  N   UNL A   1      33.757  26.591  23.248  1.00  0.00    -0.270 N 
ATOM     17  N   UNL A   1      33.859  25.489  22.466  1.00  0.00    -0.181 NA
ATOM     18  C   UNL A   1      33.805  26.293  24.588  1.00  0.00     0.040 A 
ATOM     19  C   UNL A   1      33.960  24.477  23.320  1.00  0.00     0.141 A 
ATOM     20  C   UNL A   1      33.753  27.208  25.756  1.00  0.00     0.067 C 
BRANCH  16  21
ATOM     21  C   UNL A   1      33.614  27.835  22.519  1.00  0.00     0.141 C 
ATOM     22  C   UNL A   1      32.413  28.711  22.799  1.00  0.00     0.029 C 
ENDBRANCH  16  21
ENDBRANCH  14  15
ENDBRANCH  12  14
ENDBRANCH   7  12
ENDBRANCH   3   6
ENDBRANCH   1   2
BRANCH   1  23
ATOM     23  C   UNL A   1      41.270  19.941  26.715  1.00  0.00     0.042 C 
BRANCH  23  24
ATOM     24  C   UNL A   1      42.514  20.584  26.128  1.00  0.00     0.118 C 
BRANCH  24  25
ATOM     25  N   UNL A   1      43.354  19.732  25.262  1.00  0.00    -0.352 N 
ATOM     26  C   UNL A   1      44.370  20.155  24.393  1.00  0.00     0.251 C 
ATOM     27  H   UNL A   1      43.181  18.764  25.300  1.00  0.00     0.163 HD
ATOM     28  O   UNL A   1      44.847  19.450  23.550  1.00  0.00    -0.269 OA
BRANCH  26  29
ATOM     29  C   UNL A   1      44.835  21.548  24.590  1.00  0.00     0.039 A 
ATOM     30  C   UNL A   1      44.181  22.613  23.967  1.00  0.00     0.014 A 
ATOM     31  C   UNL A   1      45.639  21.733  25.700  1.00  0.00     0.014 A 
ATOM     32  C   UNL A   1      44.190  23.855  24.602  1.00  0.00     0.010 A 
ATOM     33  C   UNL A   1      45.441  22.883  26.422  1.00  0.00     0.010 A 
ATOM     34  C   UNL A   1      44.745  23.967  25.888  1.00  0.00    -0.014 A 
BRANCH  34  35
ATOM     35  C   UNL A   1      44.488  25.141  26.731  1.00  0.00     0.031 A 
ATOM     36  C   UNL A   1      45.496  26.250  26.668  1.00  0.00     0.074 A 
ATOM     37  C   UNL A   1      43.339  25.347  27.414  1.00  0.00     0.049 A 
ATOM     38  N   UNL A   1      46.342  26.583  27.587  1.00  0.00    -0.248 NA
ATOM     39  C   UNL A   1      45.651  27.019  25.424  1.00  0.00     0.031 C 
ATOM     40  C   UNL A   1      42.090  24.574  27.422  1.00  0.00     0.029 A 
ATOM     41  N   UNL A   1      43.029  26.397  28.221  1.00  0.00    -0.354 N 
ATOM     42  C   UNL A   1      47.014  27.714  27.125  1.00  0.00     0.074 A 
ATOM     43  C   UNL A   1      46.654  27.847  25.737  1.00  0.00     0.031 C 
ATOM     44  C   UNL A   1      41.099  25.305  27.971  1.00  0.00     0.029 A 
ATOM     45  C   UNL A   1      41.687  26.490  28.557  1.00  0.00     0.049 A 
ATOM     46  H   UNL A   1      43.704  27.039  28.542  1.00  0.00     0.167 HD
ATOM     47  C   UNL A   1      47.659  28.557  27.985  1.00  0.00     0.037 A 
ATOM     48  C   UNL A   1      41.092  27.455  29.295  1.00  0.00     0.037 A 
ATOM     49  C   UNL A   1      47.834  27.945  29.280  1.00  0.00     0.049 A 
ATOM     50  C   UNL A   1      42.156  28.088  30.114  1.00  0.00     0.074 A 
ATOM     51  C   UNL A   1      48.436  26.784  29.728  1.00  0.00     0.029 A 
ATOM     52  N   UNL A   1      46.997  28.335  30.300  1.00  0.00    -0.354 N 
ATOM     53  N   UNL A   1      42.783  27.473  31.080  1.00  0.00    -0.248 NA
ATOM     54  C   UNL A   1      42.853  29.229  29.543  1.00  0.00     0.031 C 
ATOM     55  C   UNL A   1      47.531  26.264  30.702  1.00  0.00     0.029 A 
ATOM     56  C   UNL A   1      46.491  27.183  30.846  1.00  0.00     0.049 A 
ATOM     57  H   UNL A   1      46.801  29.258  30.582  1.00  0.00     0.167 HD
ATOM     58  C   UNL A   1      44.107  27.861  30.945  1.00  0.00     0.074 A 
ATOM     59  C   UNL A   1      44.075  29.008  30.037  1.00  0.00     0.031 C 
ATOM     60  C   UNL A   1      45.138  27.056  31.342  1.00  0.00     0.037 A 
BRANCH  47  61
ATOM     61  C   UNL A   1      47.834  30.045  27.788  1.00  0.00     0.057 A 
ATOM     62  C   UNL A   1      46.714  30.838  27.464  1.00  0.00     0.134 A 
ATOM     63  C   UNL A   1      49.079  30.675  27.609  1.00  0.00     0.134 A 
ATOM     64  F   UNL A   1      45.468  30.352  27.584  1.00  0.00    -0.206 F 
ATOM     65  C   UNL A   1      46.831  32.124  26.924  1.00  0.00     0.040 A 
ATOM     66  C   UNL A   1      49.206  31.979  27.117  1.00  0.00     0.040 A 
ATOM     67  F   UNL A   1      50.239  30.035  27.802  1.00  0.00    -0.206 F 
ATOM     68  C   UNL A   1      48.082  32.696  26.740  1.00  0.00     0.006 A 
ENDBRANCH  47  61
BRANCH  48  69
ATOM     69  C   UNL A   1      39.738  28.018  29.119  1.00  0.00     0.057 A 
ATOM     70  C   UNL A   1      38.818  28.038  30.175  1.00  0.00     0.134 A 
ATOM     71  C   UNL A   1      39.400  28.788  27.989  1.00  0.00     0.134 A 
ATOM     72  F   UNL A   1      39.068  27.363  31.306  1.00  0.00    -0.206 F 
ATOM     73  C   UNL A   1      37.646  28.803  30.125  1.00  0.00     0.040 A 
ATOM     74  C   UNL A   1      38.229  29.549  27.924  1.00  0.00     0.040 A 
ATOM     75  F   UNL A   1      40.234  28.896  26.945  1.00  0.00    -0.206 F 
ATOM     76  C   UNL A   1      37.355  29.573  29.002  1.00  0.00     0.006 A 
ENDBRANCH  48  69
BRANCH  60  77
ATOM     77  C   UNL A   1      44.828  25.810  32.130  1.00  0.00     0.057 A 
ATOM     78  C   UNL A   1      44.567  25.793  33.509  1.00  0.00     0.134 A 
ATOM     79  C   UNL A   1      44.602  24.615  31.437  1.00  0.00     0.134 A 
ATOM     80  F   UNL A   1      44.652  26.905  34.247  1.00  0.00    -0.206 F 
ATOM     81  C   UNL A   1      44.139  24.636  34.170  1.00  0.00     0.040 A 
ATOM     82  C   UNL A   1      44.143  23.460  32.079  1.00  0.00     0.040 A 
ATOM     83  F   UNL A   1      44.772  24.562  30.106  1.00  0.00    -0.206 F 
ATOM     84  C   UNL A   1      43.918  23.466  33.452  1.00  0.00     0.006 A 
ENDBRANCH  60  77
ENDBRANCH  34  35
ENDBRANCH  26  29
ENDBRANCH  24  25
ENDBRANCH  23  24
ENDBRANCH   1  23
TORSDOF 14
ENDMDL
