MODEL 1
REMARK VINA RESULT:     -12.9      0.000      0.000
REMARK SMILES O=C(NCCCNC(=O)[C@@]12CN(CC3CC3)C(=O)[C@@H]1CN(c1nc3ccccc3o1)C2)c1ccc(-c2c3nc(c(-c4c(F)cccc4F)c4ccc([nH]4)c(-c4c(F)cccc4F)c4nc(c(-c5c(F)cccc5F)c5ccc2[nH]5)C=C4)C=C3)cc1
REMARK SMILES IDX 5 1 4 2 3 3 1 4 2 5 32 7 33 8 85 9 34 10 84 11 35 12 36 13
REMARK SMILES IDX 37 14 78 15 38 16 83 17 77 18 79 19 39 20 82 21 76 22 75 23
REMARK SMILES IDX 40 25 66 26 49 27 65 28 50 29 53 30 64 31 80 32 51 33 52 34
REMARK SMILES IDX 63 36 81 37 54 38 41 39 42 40 47 41 43 42 44 43 46 44 48 45
REMARK SMILES IDX 45 46 67 47 68 48 73 49 69 50 70 51 72 52 74 53 71 54 55 55
REMARK SMILES IDX 56 56 61 57 57 58 58 59 60 60 62 61 59 62 6 63 7 64 8 65
REMARK SMILES IDX 9 67 10 68 11 69 19 70 31 71 12 72 17 73 20 74 21 75 18 76
REMARK SMILES IDX 13 77 14 78 15 79 16 80 22 81 23 82 30 83 24 84 29 85 25 86
REMARK SMILES IDX 28 87 26 88 27 89
REMARK H PARENT 3 6 79 24 53 35 7 66
REMARK Flexibility Score: inf
ROOT
ATOM      1  C   UNL A   1      38.182  20.139  24.904  1.00  0.00     0.042 C 
ENDROOT
BRANCH   1   2
ATOM      2  C   UNL A   1      39.132  20.179  26.086  1.00  0.00     0.118 C 
BRANCH   2   3
ATOM      3  N   UNL A   1      40.275  19.297  25.892  1.00  0.00    -0.352 N 
ATOM      4  O   UNL A   1      42.454  18.814  25.551  1.00  0.00    -0.269 OA
ATOM      5  C   UNL A   1      41.615  19.608  25.961  1.00  0.00     0.251 C 
ATOM      6  H   UNL A   1      40.063  18.358  25.685  1.00  0.00     0.163 HD
BRANCH   5   7
ATOM      7  C   UNL A   1      42.029  20.918  26.512  1.00  0.00     0.039 A 
ATOM      8  C   UNL A   1      42.094  21.106  27.893  1.00  0.00     0.014 A 
ATOM      9  C   UNL A   1      42.332  21.973  25.647  1.00  0.00     0.014 A 
ATOM     10  C   UNL A   1      42.270  22.380  28.406  1.00  0.00     0.010 A 
ATOM     11  C   UNL A   1      42.644  23.232  26.173  1.00  0.00     0.010 A 
ATOM     12  C   UNL A   1      42.579  23.454  27.557  1.00  0.00    -0.014 A 
BRANCH  12  13
ATOM     13  C   UNL A   1      42.883  24.774  28.168  1.00  0.00     0.031 A 
ATOM     14  C   UNL A   1      44.293  25.182  28.492  1.00  0.00     0.074 A 
ATOM     15  C   UNL A   1      41.862  25.631  28.371  1.00  0.00     0.049 A 
ATOM     16  N   UNL A   1      44.727  26.310  28.995  1.00  0.00    -0.248 NA
ATOM     17  C   UNL A   1      45.354  24.196  28.234  1.00  0.00     0.031 C 
ATOM     18  C   UNL A   1      40.451  25.336  28.101  1.00  0.00     0.029 A 
ATOM     19  N   UNL A   1      41.847  26.929  28.809  1.00  0.00    -0.354 N 
ATOM     20  C   UNL A   1      46.099  26.159  29.146  1.00  0.00     0.074 A 
ATOM     21  C   UNL A   1      46.427  24.822  28.700  1.00  0.00     0.031 C 
ATOM     22  C   UNL A   1      39.723  26.444  28.295  1.00  0.00     0.029 A 
ATOM     23  C   UNL A   1      40.597  27.498  28.792  1.00  0.00     0.049 A 
ATOM     24  H   UNL A   1      42.654  27.407  29.107  1.00  0.00     0.167 HD
ATOM     25  C   UNL A   1      47.001  27.058  29.612  1.00  0.00     0.037 A 
ATOM     26  C   UNL A   1      40.191  28.727  29.151  1.00  0.00     0.037 A 
ATOM     27  C   UNL A   1      46.664  28.397  30.025  1.00  0.00     0.049 A 
ATOM     28  C   UNL A   1      41.211  29.698  29.667  1.00  0.00     0.074 A 
ATOM     29  C   UNL A   1      47.506  29.398  30.480  1.00  0.00     0.029 A 
ATOM     30  N   UNL A   1      45.380  28.925  30.027  1.00  0.00    -0.354 N 
ATOM     31  N   UNL A   1      42.506  29.543  29.791  1.00  0.00    -0.248 NA
ATOM     32  C   UNL A   1      40.712  31.007  30.101  1.00  0.00     0.031 C 
ATOM     33  C   UNL A   1      46.725  30.513  30.805  1.00  0.00     0.029 A 
ATOM     34  C   UNL A   1      45.404  30.229  30.497  1.00  0.00     0.049 A 
ATOM     35  H   UNL A   1      44.572  28.444  29.738  1.00  0.00     0.167 HD
ATOM     36  C   UNL A   1      42.983  30.743  30.297  1.00  0.00     0.074 A 
ATOM     37  C   UNL A   1      41.837  31.620  30.435  1.00  0.00     0.031 C 
ATOM     38  C   UNL A   1      44.253  31.088  30.621  1.00  0.00     0.037 A 
BRANCH  25  39
ATOM     39  C   UNL A   1      48.432  26.613  29.732  1.00  0.00     0.057 A 
ATOM     40  C   UNL A   1      49.383  26.870  28.735  1.00  0.00     0.134 A 
ATOM     41  C   UNL A   1      48.873  25.945  30.883  1.00  0.00     0.134 A 
ATOM     42  F   UNL A   1      49.027  27.494  27.602  1.00  0.00    -0.206 F 
ATOM     43  C   UNL A   1      50.711  26.455  28.867  1.00  0.00     0.040 A 
ATOM     44  C   UNL A   1      50.203  25.551  31.038  1.00  0.00     0.040 A 
ATOM     45  F   UNL A   1      48.019  25.672  31.881  1.00  0.00    -0.206 F 
ATOM     46  C   UNL A   1      51.125  25.799  30.024  1.00  0.00     0.006 A 
ENDBRANCH  25  39
BRANCH  26  47
ATOM     47  C   UNL A   1      38.757  29.099  29.041  1.00  0.00     0.057 A 
ATOM     48  C   UNL A   1      37.901  29.021  30.146  1.00  0.00     0.134 A 
ATOM     49  C   UNL A   1      38.210  29.551  27.833  1.00  0.00     0.134 A 
ATOM     50  F   UNL A   1      38.361  28.583  31.326  1.00  0.00    -0.206 F 
ATOM     51  C   UNL A   1      36.552  29.364  30.050  1.00  0.00     0.040 A 
ATOM     52  C   UNL A   1      36.872  29.928  27.731  1.00  0.00     0.040 A 
ATOM     53  F   UNL A   1      38.980  29.660  26.740  1.00  0.00    -0.206 F 
ATOM     54  C   UNL A   1      36.036  29.827  28.840  1.00  0.00     0.006 A 
ENDBRANCH  26  47
BRANCH  38  55
ATOM     55  C   UNL A   1      44.467  32.489  31.111  1.00  0.00     0.057 A 
ATOM     56  C   UNL A   1      44.725  33.551  30.236  1.00  0.00     0.134 A 
ATOM     57  C   UNL A   1      44.407  32.777  32.481  1.00  0.00     0.134 A 
ATOM     58  F   UNL A   1      44.813  33.337  28.914  1.00  0.00    -0.206 F 
ATOM     59  C   UNL A   1      44.949  34.845  30.708  1.00  0.00     0.040 A 
ATOM     60  C   UNL A   1      44.599  34.072  32.962  1.00  0.00     0.040 A 
ATOM     61  F   UNL A   1      44.156  31.806  33.371  1.00  0.00    -0.206 F 
ATOM     62  C   UNL A   1      44.881  35.109  32.075  1.00  0.00     0.006 A 
ENDBRANCH  38  55
ENDBRANCH  12  13
ENDBRANCH   5   7
ENDBRANCH   2   3
ENDBRANCH   1   2
BRANCH   1  63
ATOM     63  C   UNL A   1      36.934  20.988  25.160  1.00  0.00     0.117 C 
BRANCH  63  64
ATOM     64  N   UNL A   1      36.988  22.183  24.324  1.00  0.00    -0.355 N 
ATOM     65  C   UNL A   1      36.021  22.741  23.528  1.00  0.00     0.230 C 
ATOM     66  H   UNL A   1      37.848  22.661  24.333  1.00  0.00     0.163 HD
ATOM     67  O   UNL A   1      36.406  23.224  22.460  1.00  0.00    -0.274 OA
BRANCH  65  68
ATOM     68  C   UNL A   1      34.614  23.008  24.045  1.00  0.00     0.097 C 
ATOM     69  C   UNL A   1      34.623  24.498  24.393  1.00  0.00     0.139 C 
ATOM     70  C   UNL A   1      33.492  22.914  22.993  1.00  0.00     0.117 C 
ATOM     71  C   UNL A   1      34.093  22.091  25.147  1.00  0.00     0.141 C 
ATOM     72  N   UNL A   1      33.303  24.981  24.081  1.00  0.00    -0.341 N 
ATOM     73  C   UNL A   1      32.546  24.029  23.404  1.00  0.00     0.228 C 
ATOM     74  C   UNL A   1      32.861  21.537  23.149  1.00  0.00     0.136 C 
ATOM     75  N   UNL A   1      33.183  21.152  24.510  1.00  0.00    -0.324 N 
ATOM     76  O   UNL A   1      31.366  24.078  23.148  1.00  0.00    -0.274 OA
BRANCH  72  77
ATOM     77  C   UNL A   1      32.823  26.241  24.621  1.00  0.00     0.123 C 
BRANCH  77  78
ATOM     78  C   UNL A   1      33.467  26.706  25.896  1.00  0.00     0.008 C 
ATOM     79  C   UNL A   1      34.039  28.080  26.169  1.00  0.00     0.006 C 
ATOM     80  C   UNL A   1      32.721  27.687  26.772  1.00  0.00     0.006 C 
ENDBRANCH  77  78
ENDBRANCH  72  77
BRANCH  75  81
ATOM     81  C   UNL A   1      33.203  19.861  24.901  1.00  0.00     0.298 A 
ATOM     82  N   UNL A   1      32.225  19.106  25.358  1.00  0.00    -0.193 NA
ATOM     83  O   UNL A   1      34.365  19.180  24.636  1.00  0.00    -0.423 OA
ATOM     84  C   UNL A   1      32.736  17.831  25.281  1.00  0.00     0.111 A 
ATOM     85  C   UNL A   1      34.048  17.877  24.845  1.00  0.00     0.156 A 
ATOM     86  C   UNL A   1      32.155  16.579  25.517  1.00  0.00     0.032 A 
ATOM     87  C   UNL A   1      34.859  16.774  24.615  1.00  0.00     0.049 A 
ATOM     88  C   UNL A   1      32.934  15.433  25.281  1.00  0.00     0.003 A 
ATOM     89  C   UNL A   1      34.259  15.531  24.838  1.00  0.00     0.004 A 
ENDBRANCH  75  81
ENDBRANCH  65  68
ENDBRANCH  63  64
ENDBRANCH   1  63
TORSDOF 13
ENDMDL
MODEL 2
REMARK VINA RESULT:     -12.9      4.064      9.627
REMARK SMILES O=C(NCCCNC(=O)[C@@]12CN(CC3CC3)C(=O)[C@@H]1CN(c1nc3ccccc3o1)C2)c1ccc(-c2c3nc(c(-c4c(F)cccc4F)c4ccc([nH]4)c(-c4c(F)cccc4F)c4nc(c(-c5c(F)cccc5F)c5ccc2[nH]5)C=C4)C=C3)cc1
REMARK SMILES IDX 5 1 4 2 3 3 1 4 2 5 32 7 33 8 85 9 34 10 84 11 35 12 36 13
REMARK SMILES IDX 37 14 78 15 38 16 83 17 77 18 79 19 39 20 82 21 76 22 75 23
REMARK SMILES IDX 40 25 66 26 49 27 65 28 50 29 53 30 64 31 80 32 51 33 52 34
REMARK SMILES IDX 63 36 81 37 54 38 41 39 42 40 47 41 43 42 44 43 46 44 48 45
REMARK SMILES IDX 45 46 67 47 68 48 73 49 69 50 70 51 72 52 74 53 71 54 55 55
REMARK SMILES IDX 56 56 61 57 57 58 58 59 60 60 62 61 59 62 6 63 7 64 8 65
REMARK SMILES IDX 9 67 10 68 11 69 19 70 31 71 12 72 17 73 20 74 21 75 18 76
REMARK SMILES IDX 13 77 14 78 15 79 16 80 22 81 23 82 30 83 24 84 29 85 25 86
REMARK SMILES IDX 28 87 26 88 27 89
REMARK H PARENT 3 6 79 24 53 35 7 66
REMARK Flexibility Score: inf
ROOT
ATOM      1  C   UNL A   1      31.501  31.829  26.826  1.00  0.00     0.042 C 
ENDROOT
BRANCH   1   2
ATOM      2  C   UNL A   1      32.776  32.574  27.176  1.00  0.00     0.118 C 
BRANCH   2   3
ATOM      3  N   UNL A   1      32.497  33.888  27.738  1.00  0.00    -0.352 N 
ATOM      4  O   UNL A   1      32.674  35.542  29.265  1.00  0.00    -0.269 OA
ATOM      5  C   UNL A   1      33.164  34.543  28.750  1.00  0.00     0.251 C 
ATOM      6  H   UNL A   1      31.735  34.371  27.345  1.00  0.00     0.163 HD
BRANCH   5   7
ATOM      7  C   UNL A   1      34.463  34.016  29.223  1.00  0.00     0.039 A 
ATOM      8  C   UNL A   1      35.645  34.395  28.585  1.00  0.00     0.014 A 
ATOM      9  C   UNL A   1      34.503  33.121  30.295  1.00  0.00     0.014 A 
ATOM     10  C   UNL A   1      36.829  33.741  28.886  1.00  0.00     0.010 A 
ATOM     11  C   UNL A   1      35.725  32.562  30.687  1.00  0.00     0.010 A 
ATOM     12  C   UNL A   1      36.893  32.841  29.961  1.00  0.00    -0.014 A 
BRANCH  12  13
ATOM     13  C   UNL A   1      38.213  32.263  30.321  1.00  0.00     0.031 A 
ATOM     14  C   UNL A   1      39.085  32.894  31.371  1.00  0.00     0.074 A 
ATOM     15  C   UNL A   1      38.589  31.114  29.723  1.00  0.00     0.049 A 
ATOM     16  N   UNL A   1      40.246  32.493  31.823  1.00  0.00    -0.248 NA
ATOM     17  C   UNL A   1      38.603  34.140  31.984  1.00  0.00     0.031 C 
ATOM     18  C   UNL A   1      37.824  30.418  28.683  1.00  0.00     0.029 A 
ATOM     19  N   UNL A   1      39.677  30.306  29.924  1.00  0.00    -0.354 N 
ATOM     20  C   UNL A   1      40.649  33.452  32.744  1.00  0.00     0.074 A 
ATOM     21  C   UNL A   1      39.618  34.466  32.774  1.00  0.00     0.031 C 
ATOM     22  C   UNL A   1      38.419  29.252  28.402  1.00  0.00     0.029 A 
ATOM     23  C   UNL A   1      39.653  29.158  29.170  1.00  0.00     0.049 A 
ATOM     24  H   UNL A   1      40.404  30.527  30.550  1.00  0.00     0.167 HD
ATOM     25  C   UNL A   1      41.777  33.477  33.496  1.00  0.00     0.037 A 
ATOM     26  C   UNL A   1      40.534  28.147  29.089  1.00  0.00     0.037 A 
ATOM     27  C   UNL A   1      42.782  32.444  33.478  1.00  0.00     0.049 A 
ATOM     28  C   UNL A   1      41.774  28.206  29.930  1.00  0.00     0.074 A 
ATOM     29  C   UNL A   1      43.944  32.356  34.225  1.00  0.00     0.029 A 
ATOM     30  N   UNL A   1      42.740  31.314  32.673  1.00  0.00    -0.354 N 
ATOM     31  N   UNL A   1      42.133  29.114  30.805  1.00  0.00    -0.248 NA
ATOM     32  C   UNL A   1      42.733  27.108  29.766  1.00  0.00     0.031 C 
ATOM     33  C   UNL A   1      44.629  31.200  33.836  1.00  0.00     0.029 A 
ATOM     34  C   UNL A   1      43.867  30.536  32.889  1.00  0.00     0.049 A 
ATOM     35  H   UNL A   1      42.017  31.097  32.041  1.00  0.00     0.167 HD
ATOM     36  C   UNL A   1      43.351  28.686  31.314  1.00  0.00     0.074 A 
ATOM     37  C   UNL A   1      43.654  27.427  30.662  1.00  0.00     0.031 C 
ATOM     38  C   UNL A   1      44.147  29.282  32.234  1.00  0.00     0.037 A 
BRANCH  25  39
ATOM     39  C   UNL A   1      42.001  34.675  34.377  1.00  0.00     0.057 A 
ATOM     40  C   UNL A   1      42.656  35.827  33.923  1.00  0.00     0.134 A 
ATOM     41  C   UNL A   1      41.519  34.687  35.694  1.00  0.00     0.134 A 
ATOM     42  F   UNL A   1      43.153  35.880  32.678  1.00  0.00    -0.206 F 
ATOM     43  C   UNL A   1      42.849  36.934  34.753  1.00  0.00     0.040 A 
ATOM     44  C   UNL A   1      41.681  35.797  36.524  1.00  0.00     0.040 A 
ATOM     45  F   UNL A   1      40.876  33.621  36.193  1.00  0.00    -0.206 F 
ATOM     46  C   UNL A   1      42.355  36.924  36.056  1.00  0.00     0.006 A 
ENDBRANCH  25  39
BRANCH  26  47
ATOM     47  C   UNL A   1      40.274  27.005  28.176  1.00  0.00     0.057 A 
ATOM     48  C   UNL A   1      40.826  26.965  26.890  1.00  0.00     0.134 A 
ATOM     49  C   UNL A   1      39.478  25.922  28.568  1.00  0.00     0.134 A 
ATOM     50  F   UNL A   1      41.587  27.978  26.450  1.00  0.00    -0.206 F 
ATOM     51  C   UNL A   1      40.584  25.898  26.024  1.00  0.00     0.040 A 
ATOM     52  C   UNL A   1      39.253  24.835  27.725  1.00  0.00     0.040 A 
ATOM     53  F   UNL A   1      38.928  25.894  29.792  1.00  0.00    -0.206 F 
ATOM     54  C   UNL A   1      39.800  24.825  26.445  1.00  0.00     0.006 A 
ENDBRANCH  26  47
BRANCH  38  55
ATOM     55  C   UNL A   1      45.398  28.549  32.619  1.00  0.00     0.057 A 
ATOM     56  C   UNL A   1      46.619  28.771  31.969  1.00  0.00     0.134 A 
ATOM     57  C   UNL A   1      45.378  27.613  33.661  1.00  0.00     0.134 A 
ATOM     58  F   UNL A   1      46.699  29.641  30.952  1.00  0.00    -0.206 F 
ATOM     59  C   UNL A   1      47.768  28.062  32.319  1.00  0.00     0.040 A 
ATOM     60  C   UNL A   1      46.528  26.921  34.041  1.00  0.00     0.040 A 
ATOM     61  F   UNL A   1      44.242  27.361  34.329  1.00  0.00    -0.206 F 
ATOM     62  C   UNL A   1      47.725  27.137  33.362  1.00  0.00     0.006 A 
ENDBRANCH  38  55
ENDBRANCH  12  13
ENDBRANCH   5   7
ENDBRANCH   2   3
ENDBRANCH   1   2
BRANCH   1  63
ATOM     63  C   UNL A   1      31.801  30.527  26.078  1.00  0.00     0.117 C 
BRANCH  63  64
ATOM     64  N   UNL A   1      32.019  29.458  27.047  1.00  0.00    -0.355 N 
ATOM     65  C   UNL A   1      31.568  28.163  27.042  1.00  0.00     0.230 C 
ATOM     66  H   UNL A   1      32.575  29.703  27.821  1.00  0.00     0.163 HD
ATOM     67  O   UNL A   1      31.244  27.694  28.135  1.00  0.00    -0.274 OA
BRANCH  65  68
ATOM     68  C   UNL A   1      31.724  27.266  25.821  1.00  0.00     0.097 C 
ATOM     69  C   UNL A   1      32.849  26.304  26.208  1.00  0.00     0.139 C 
ATOM     70  C   UNL A   1      30.546  26.312  25.545  1.00  0.00     0.117 C 
ATOM     71  C   UNL A   1      31.899  27.954  24.471  1.00  0.00     0.141 C 
ATOM     72  N   UNL A   1      32.515  25.044  25.597  1.00  0.00    -0.341 N 
ATOM     73  C   UNL A   1      31.236  25.054  25.049  1.00  0.00     0.228 C 
ATOM     74  C   UNL A   1      29.698  26.967  24.462  1.00  0.00     0.136 C 
ATOM     75  N   UNL A   1      30.614  27.871  23.793  1.00  0.00    -0.324 N 
ATOM     76  O   UNL A   1      30.735  24.211  24.342  1.00  0.00    -0.274 OA
BRANCH  72  77
ATOM     77  C   UNL A   1      33.519  24.008  25.429  1.00  0.00     0.123 C 
BRANCH  77  78
ATOM     78  C   UNL A   1      34.919  24.477  25.150  1.00  0.00     0.008 C 
ATOM     79  C   UNL A   1      36.198  23.851  25.660  1.00  0.00     0.006 C 
ATOM     80  C   UNL A   1      35.791  23.656  24.228  1.00  0.00     0.006 C 
ENDBRANCH  77  78
ENDBRANCH  72  77
BRANCH  75  81
ATOM     81  C   UNL A   1      30.180  28.940  23.092  1.00  0.00     0.298 A 
ATOM     82  N   UNL A   1      29.761  29.013  21.846  1.00  0.00    -0.193 NA
ATOM     83  O   UNL A   1      29.988  30.087  23.821  1.00  0.00    -0.423 OA
ATOM     84  C   UNL A   1      29.152  30.244  21.780  1.00  0.00     0.111 A 
ATOM     85  C   UNL A   1      29.297  30.904  22.987  1.00  0.00     0.156 A 
ATOM     86  C   UNL A   1      28.420  30.868  20.762  1.00  0.00     0.032 A 
ATOM     87  C   UNL A   1      28.772  32.154  23.289  1.00  0.00     0.049 A 
ATOM     88  C   UNL A   1      27.856  32.127  21.029  1.00  0.00     0.003 A 
ATOM     89  C   UNL A   1      28.029  32.756  22.269  1.00  0.00     0.004 A 
ENDBRANCH  75  81
ENDBRANCH  65  68
ENDBRANCH  63  64
ENDBRANCH   1  63
TORSDOF 13
ENDMDL
MODEL 3
REMARK VINA RESULT:     -12.8      0.296      6.171
REMARK SMILES O=C(NCCCNC(=O)[C@@]12CN(CC3CC3)C(=O)[C@@H]1CN(c1nc3ccccc3o1)C2)c1ccc(-c2c3nc(c(-c4c(F)cccc4F)c4ccc([nH]4)c(-c4c(F)cccc4F)c4nc(c(-c5c(F)cccc5F)c5ccc2[nH]5)C=C4)C=C3)cc1
REMARK SMILES IDX 5 1 4 2 3 3 1 4 2 5 32 7 33 8 85 9 34 10 84 11 35 12 36 13
REMARK SMILES IDX 37 14 78 15 38 16 83 17 77 18 79 19 39 20 82 21 76 22 75 23
REMARK SMILES IDX 40 25 66 26 49 27 65 28 50 29 53 30 64 31 80 32 51 33 52 34
REMARK SMILES IDX 63 36 81 37 54 38 41 39 42 40 47 41 43 42 44 43 46 44 48 45
REMARK SMILES IDX 45 46 67 47 68 48 73 49 69 50 70 51 72 52 74 53 71 54 55 55
REMARK SMILES IDX 56 56 61 57 57 58 58 59 60 60 62 61 59 62 6 63 7 64 8 65
REMARK SMILES IDX 9 67 10 68 11 69 19 70 31 71 12 72 17 73 20 74 21 75 18 76
REMARK SMILES IDX 13 77 14 78 15 79 16 80 22 81 23 82 30 83 24 84 29 85 25 86
REMARK SMILES IDX 28 87 26 88 27 89
REMARK H PARENT 3 6 79 24 53 35 7 66
REMARK Flexibility Score: inf
ROOT
ATOM      1  C   UNL A   1      38.191  19.992  24.923  1.00  0.00     0.042 C 
ENDROOT
BRANCH   1   2
ATOM      2  C   UNL A   1      39.183  20.184  26.054  1.00  0.00     0.118 C 
BRANCH   2   3
ATOM      3  N   UNL A   1      40.319  19.279  25.937  1.00  0.00    -0.352 N 
ATOM      4  O   UNL A   1      42.499  18.752  25.682  1.00  0.00    -0.269 OA
ATOM      5  C   UNL A   1      41.660  19.577  26.027  1.00  0.00     0.251 C 
ATOM      6  H   UNL A   1      40.099  18.334  25.772  1.00  0.00     0.163 HD
BRANCH   5   7
ATOM      7  C   UNL A   1      42.077  20.908  26.522  1.00  0.00     0.039 A 
ATOM      8  C   UNL A   1      42.043  21.187  27.889  1.00  0.00     0.014 A 
ATOM      9  C   UNL A   1      42.483  21.892  25.616  1.00  0.00     0.014 A 
ATOM     10  C   UNL A   1      42.225  22.488  28.329  1.00  0.00     0.010 A 
ATOM     11  C   UNL A   1      42.799  23.173  26.081  1.00  0.00     0.010 A 
ATOM     12  C   UNL A   1      42.636  23.492  27.438  1.00  0.00    -0.014 A 
BRANCH  12  13
ATOM     13  C   UNL A   1      42.939  24.840  27.983  1.00  0.00     0.031 A 
ATOM     14  C   UNL A   1      41.847  25.833  28.268  1.00  0.00     0.074 A 
ATOM     15  C   UNL A   1      44.221  25.134  28.279  1.00  0.00     0.049 A 
ATOM     16  N   UNL A   1      41.943  27.036  28.776  1.00  0.00    -0.248 NA
ATOM     17  C   UNL A   1      40.472  25.437  27.927  1.00  0.00     0.031 C 
ATOM     18  C   UNL A   1      45.364  24.247  28.036  1.00  0.00     0.029 A 
ATOM     19  N   UNL A   1      44.780  26.231  28.879  1.00  0.00    -0.354 N 
ATOM     20  C   UNL A   1      40.653  27.552  28.784  1.00  0.00     0.074 A 
ATOM     21  C   UNL A   1      39.792  26.540  28.212  1.00  0.00     0.031 C 
ATOM     22  C   UNL A   1      46.468  24.796  28.560  1.00  0.00     0.029 A 
ATOM     23  C   UNL A   1      46.133  26.110  29.090  1.00  0.00     0.049 A 
ATOM     24  H   UNL A   1      44.263  27.028  29.135  1.00  0.00     0.167 HD
ATOM     25  C   UNL A   1      40.230  28.760  29.232  1.00  0.00     0.037 A 
ATOM     26  C   UNL A   1      47.013  26.967  29.634  1.00  0.00     0.037 A 
ATOM     27  C   UNL A   1      41.096  29.747  29.828  1.00  0.00     0.049 A 
ATOM     28  C   UNL A   1      46.515  28.296  30.116  1.00  0.00     0.074 A 
ATOM     29  C   UNL A   1      40.763  30.987  30.344  1.00  0.00     0.029 A 
ATOM     30  N   UNL A   1      42.466  29.602  29.990  1.00  0.00    -0.354 N 
ATOM     31  N   UNL A   1      45.290  28.763  30.128  1.00  0.00    -0.248 NA
ATOM     32  C   UNL A   1      47.521  29.220  30.651  1.00  0.00     0.031 C 
ATOM     33  C   UNL A   1      41.939  31.613  30.773  1.00  0.00     0.029 A 
ATOM     34  C   UNL A   1      42.997  30.739  30.578  1.00  0.00     0.049 A 
ATOM     35  H   UNL A   1      42.985  28.808  29.726  1.00  0.00     0.167 HD
ATOM     36  C   UNL A   1      45.374  30.028  30.691  1.00  0.00     0.074 A 
ATOM     37  C   UNL A   1      46.768  30.243  31.026  1.00  0.00     0.031 C 
ATOM     38  C   UNL A   1      44.387  30.931  30.909  1.00  0.00     0.037 A 
BRANCH  25  39
ATOM     39  C   UNL A   1      38.774  29.095  29.065  1.00  0.00     0.057 A 
ATOM     40  C   UNL A   1      37.858  29.000  30.121  1.00  0.00     0.134 A 
ATOM     41  C   UNL A   1      38.289  29.554  27.833  1.00  0.00     0.134 A 
ATOM     42  F   UNL A   1      38.251  28.556  31.324  1.00  0.00    -0.206 F 
ATOM     43  C   UNL A   1      36.509  29.323  29.951  1.00  0.00     0.040 A 
ATOM     44  C   UNL A   1      36.949  29.906  27.657  1.00  0.00     0.040 A 
ATOM     45  F   UNL A   1      39.111  29.676  26.780  1.00  0.00    -0.206 F 
ATOM     46  C   UNL A   1      36.053  29.784  28.717  1.00  0.00     0.006 A 
ENDBRANCH  25  39
BRANCH  26  47
ATOM     47  C   UNL A   1      48.445  26.592  29.742  1.00  0.00     0.057 A 
ATOM     48  C   UNL A   1      49.368  26.963  28.757  1.00  0.00     0.134 A 
ATOM     49  C   UNL A   1      48.930  25.865  30.837  1.00  0.00     0.134 A 
ATOM     50  F   UNL A   1      48.964  27.648  27.678  1.00  0.00    -0.206 F 
ATOM     51  C   UNL A   1      50.715  26.612  28.849  1.00  0.00     0.040 A 
ATOM     52  C   UNL A   1      50.280  25.535  30.958  1.00  0.00     0.040 A 
ATOM     53  F   UNL A   1      48.100  25.489  31.822  1.00  0.00    -0.206 F 
ATOM     54  C   UNL A   1      51.175  25.901  29.957  1.00  0.00     0.006 A 
ENDBRANCH  26  47
BRANCH  38  55
ATOM     55  C   UNL A   1      44.782  32.212  31.582  1.00  0.00     0.057 A 
ATOM     56  C   UNL A   1      44.765  32.356  32.975  1.00  0.00     0.134 A 
ATOM     57  C   UNL A   1      45.193  33.314  30.821  1.00  0.00     0.134 A 
ATOM     58  F   UNL A   1      44.365  31.343  33.758  1.00  0.00    -0.206 F 
ATOM     59  C   UNL A   1      45.109  33.562  33.586  1.00  0.00     0.040 A 
ATOM     60  C   UNL A   1      45.569  34.515  31.422  1.00  0.00     0.040 A 
ATOM     61  F   UNL A   1      45.239  33.239  29.482  1.00  0.00    -0.206 F 
ATOM     62  C   UNL A   1      45.518  34.645  32.808  1.00  0.00     0.006 A 
ENDBRANCH  38  55
ENDBRANCH  12  13
ENDBRANCH   5   7
ENDBRANCH   2   3
ENDBRANCH   1   2
BRANCH   1  63
ATOM     63  C   UNL A   1      36.936  20.845  25.128  1.00  0.00     0.117 C 
BRANCH  63  64
ATOM     64  N   UNL A   1      37.050  22.063  24.332  1.00  0.00    -0.355 N 
ATOM     65  C   UNL A   1      36.123  22.677  23.529  1.00  0.00     0.230 C 
ATOM     66  H   UNL A   1      37.925  22.512  24.378  1.00  0.00     0.163 HD
ATOM     67  O   UNL A   1      36.552  23.180  22.488  1.00  0.00    -0.274 OA
BRANCH  65  68
ATOM     68  C   UNL A   1      34.712  22.974  24.019  1.00  0.00     0.097 C 
ATOM     69  C   UNL A   1      34.739  24.468  24.344  1.00  0.00     0.139 C 
ATOM     70  C   UNL A   1      33.607  22.881  22.949  1.00  0.00     0.117 C 
ATOM     71  C   UNL A   1      34.159  22.082  25.125  1.00  0.00     0.141 C 
ATOM     72  N   UNL A   1      33.432  24.967  24.002  1.00  0.00    -0.341 N 
ATOM     73  C   UNL A   1      32.672  24.016  23.327  1.00  0.00     0.228 C 
ATOM     74  C   UNL A   1      32.951  21.516  23.115  1.00  0.00     0.136 C 
ATOM     75  N   UNL A   1      33.244  21.147  24.487  1.00  0.00    -0.324 N 
ATOM     76  O   UNL A   1      31.497  24.079  23.051  1.00  0.00    -0.274 OA
BRANCH  72  77
ATOM     77  C   UNL A   1      32.963  26.242  24.514  1.00  0.00     0.123 C 
BRANCH  77  78
ATOM     78  C   UNL A   1      33.563  26.698  25.814  1.00  0.00     0.008 C 
ATOM     79  C   UNL A   1      33.982  28.108  26.170  1.00  0.00     0.006 C 
ATOM     80  C   UNL A   1      32.722  27.534  26.751  1.00  0.00     0.006 C 
ENDBRANCH  77  78
ENDBRANCH  72  77
BRANCH  75  81
ATOM     81  C   UNL A   1      33.237  19.862  24.899  1.00  0.00     0.298 A 
ATOM     82  N   UNL A   1      32.247  19.139  25.380  1.00  0.00    -0.193 NA
ATOM     83  O   UNL A   1      34.378  19.148  24.628  1.00  0.00    -0.423 OA
ATOM     84  C   UNL A   1      32.725  17.852  25.317  1.00  0.00     0.111 A 
ATOM     85  C   UNL A   1      34.031  17.857  24.861  1.00  0.00     0.156 A 
ATOM     86  C   UNL A   1      32.116  16.618  25.581  1.00  0.00     0.032 A 
ATOM     87  C   UNL A   1      34.811  16.730  24.637  1.00  0.00     0.049 A 
ATOM     88  C   UNL A   1      32.862  15.449  25.352  1.00  0.00     0.003 A 
ATOM     89  C   UNL A   1      34.183  15.506  24.889  1.00  0.00     0.004 A 
ENDBRANCH  75  81
ENDBRANCH  65  68
ENDBRANCH  63  64
ENDBRANCH   1  63
TORSDOF 13
ENDMDL
