MODEL 1
REMARK VINA RESULT:     -10.9      0.000      0.000
REMARK SMILES CC(C)[NH2+][C@]1(C(=O)NCCCNC(=O)c2ccc(-c3c4nc(c(-c5c(F)cccc5F)c5ccc([nH]5)c(-c5c(F)cccc5F)c5nc(c(-c6c(F)cccc6F)c6ccc3[nH]6)C=C5)C=C4)cc2)CC[C@@H]([N@@H+](C)[C@@H](C)C(C)C)C1
REMARK SMILES IDX 9 1 8 2 6 3 7 4 5 6 69 7 79 8 70 9 71 10 4 11 2 14 1 15 3 16
REMARK SMILES IDX 72 17 73 18 74 20 75 21 76 22 77 23 78 24 10 25 11 26 12 27
REMARK SMILES IDX 13 28 14 30 15 31 16 32 68 33 17 34 67 35 18 36 19 37 20 38
REMARK SMILES IDX 61 39 21 40 66 41 60 42 62 43 22 44 65 45 59 46 58 47 23 49
REMARK SMILES IDX 49 50 32 51 48 52 33 53 36 54 47 55 63 56 34 57 35 58 46 60
REMARK SMILES IDX 64 61 37 62 24 63 25 64 30 65 26 66 27 67 29 68 31 69 28 70
REMARK SMILES IDX 50 71 51 72 56 73 52 74 53 75 55 76 57 77 54 78 38 79 39 80
REMARK SMILES IDX 44 81 40 82 41 83 43 84 45 85 42 86
REMARK H PARENT 8 5 4 12 4 13 72 19 12 29 62 48 36 59
REMARK Flexibility Score: inf
ROOT
ATOM      1  C   UNL A   1      31.316  30.684  26.413  1.00  0.00     0.118 C 
ENDROOT
BRANCH   1   2
ATOM      2  N   UNL A   1      32.496  30.134  25.775  1.00  0.00    -0.351 N 
ATOM      3  C   UNL A   1      32.638  29.318  24.687  1.00  0.00     0.281 C 
ATOM      4  O   UNL A   1      33.797  28.991  24.413  1.00  0.00    -0.268 OA
ATOM      5  H   UNL A   1      33.344  30.394  26.201  1.00  0.00     0.163 HD
BRANCH   3   6
ATOM      6  C   UNL A   1      31.386  28.800  23.878  1.00  0.00     0.181 C 
ATOM      7  C   UNL A   1      31.865  27.909  22.714  1.00  0.00     0.085 C 
ATOM      8  C   UNL A   1      30.600  27.800  24.766  1.00  0.00     0.144 C 
ATOM      9  C   UNL A   1      30.829  26.834  22.508  1.00  0.00     0.072 C 
ATOM     10  C   UNL A   1      30.194  26.606  23.873  1.00  0.00     0.191 C 
BRANCH   6  11
ATOM     11  N   UNL A   1      30.663  30.014  23.450  1.00  0.00    -0.331 N 
ATOM     12  H   UNL A   1      30.944  30.749  24.100  1.00  0.00     0.347 HD
ATOM     13  H   UNL A   1      30.927  30.067  22.466  1.00  0.00     0.347 HD
BRANCH  11  14
ATOM     14  C   UNL A   1      29.213  30.095  23.361  1.00  0.00     0.176 C 
ATOM     15  C   UNL A   1      28.827  31.537  23.719  1.00  0.00     0.075 C 
ATOM     16  C   UNL A   1      28.672  29.771  21.971  1.00  0.00     0.075 C 
ENDBRANCH  11  14
ENDBRANCH   6  11
BRANCH  10  17
ATOM     17  N   UNL A   1      30.303  25.241  24.425  1.00  0.00    -0.332 N 
ATOM     18  C   UNL A   1      30.492  24.283  23.323  1.00  0.00     0.333 C 
ATOM     19  H   UNL A   1      29.409  25.154  24.906  1.00  0.00     0.348 HD
BRANCH  17  20
ATOM     20  C   UNL A   1      31.207  24.926  25.573  1.00  0.00     0.183 C 
ATOM     21  C   UNL A   1      30.716  23.840  26.547  1.00  0.00     0.075 C 
BRANCH  20  22
ATOM     22  C   UNL A   1      32.704  24.714  25.186  1.00  0.00     0.041 C 
ATOM     23  C   UNL A   1      33.586  25.826  25.773  1.00  0.00     0.013 C 
ATOM     24  C   UNL A   1      33.273  23.361  25.634  1.00  0.00     0.013 C 
ENDBRANCH  20  22
ENDBRANCH  17  20
ENDBRANCH  10  17
ENDBRANCH   3   6
ENDBRANCH   1   2
BRANCH   1  25
ATOM     25  C   UNL A   1      31.365  32.195  26.517  1.00  0.00     0.042 C 
BRANCH  25  26
ATOM     26  C   UNL A   1      32.689  32.711  27.043  1.00  0.00     0.118 C 
BRANCH  26  27
ATOM     27  N   UNL A   1      32.569  34.027  27.660  1.00  0.00    -0.352 N 
ATOM     28  C   UNL A   1      33.227  34.569  28.738  1.00  0.00     0.251 C 
ATOM     29  H   UNL A   1      31.911  34.623  27.236  1.00  0.00     0.163 HD
ATOM     30  O   UNL A   1      32.828  35.618  29.230  1.00  0.00    -0.269 OA
BRANCH  28  31
ATOM     31  C   UNL A   1      34.402  33.881  29.314  1.00  0.00     0.039 A 
ATOM     32  C   UNL A   1      34.208  32.902  30.293  1.00  0.00     0.014 A 
ATOM     33  C   UNL A   1      35.695  34.209  28.903  1.00  0.00     0.014 A 
ATOM     34  C   UNL A   1      35.309  32.219  30.813  1.00  0.00     0.010 A 
ATOM     35  C   UNL A   1      36.771  33.441  29.323  1.00  0.00     0.010 A 
ATOM     36  C   UNL A   1      36.597  32.461  30.309  1.00  0.00    -0.014 A 
BRANCH  36  37
ATOM     37  C   UNL A   1      37.788  31.751  30.837  1.00  0.00     0.031 A 
ATOM     38  C   UNL A   1      38.330  32.114  32.196  1.00  0.00     0.074 A 
ATOM     39  C   UNL A   1      38.413  30.829  30.082  1.00  0.00     0.049 A 
ATOM     40  N   UNL A   1      39.394  31.663  32.811  1.00  0.00    -0.248 NA
ATOM     41  C   UNL A   1      37.598  33.147  32.948  1.00  0.00     0.031 C 
ATOM     42  C   UNL A   1      38.017  30.426  28.731  1.00  0.00     0.029 A 
ATOM     43  N   UNL A   1      39.522  30.064  30.344  1.00  0.00    -0.354 N 
ATOM     44  C   UNL A   1      39.464  32.369  34.006  1.00  0.00     0.074 A 
ATOM     45  C   UNL A   1      38.386  33.331  33.996  1.00  0.00     0.031 C 
ATOM     46  C   UNL A   1      38.847  29.463  28.299  1.00  0.00     0.029 A 
ATOM     47  C   UNL A   1      39.857  29.211  29.321  1.00  0.00     0.049 A 
ATOM     48  H   UNL A   1      40.029  30.123  31.186  1.00  0.00     0.167 HD
ATOM     49  C   UNL A   1      40.328  32.211  35.036  1.00  0.00     0.037 A 
ATOM     50  C   UNL A   1      40.865  28.325  29.224  1.00  0.00     0.037 A 
ATOM     51  C   UNL A   1      41.386  31.235  35.053  1.00  0.00     0.049 A 
ATOM     52  C   UNL A   1      41.816  28.169  30.379  1.00  0.00     0.074 A 
ATOM     53  C   UNL A   1      42.289  30.960  36.063  1.00  0.00     0.029 A 
ATOM     54  N   UNL A   1      41.678  30.374  34.006  1.00  0.00    -0.354 N 
ATOM     55  N   UNL A   1      41.836  28.800  31.528  1.00  0.00    -0.248 NA
ATOM     56  C   UNL A   1      42.877  27.165  30.227  1.00  0.00     0.031 C 
ATOM     57  C   UNL A   1      43.160  29.964  35.609  1.00  0.00     0.029 A 
ATOM     58  C   UNL A   1      42.760  29.575  34.341  1.00  0.00     0.049 A 
ATOM     59  H   UNL A   1      41.191  30.336  33.151  1.00  0.00     0.167 HD
ATOM     60  C   UNL A   1      42.881  28.241  32.252  1.00  0.00     0.074 A 
ATOM     61  C   UNL A   1      43.464  27.214  31.414  1.00  0.00     0.031 C 
ATOM     62  C   UNL A   1      43.316  28.545  33.501  1.00  0.00     0.037 A 
BRANCH  49  63
ATOM     63  C   UNL A   1      40.155  33.111  36.226  1.00  0.00     0.057 A 
ATOM     64  C   UNL A   1      39.250  32.814  37.256  1.00  0.00     0.134 A 
ATOM     65  C   UNL A   1      40.908  34.287  36.352  1.00  0.00     0.134 A 
ATOM     66  F   UNL A   1      38.486  31.713  37.193  1.00  0.00    -0.206 F 
ATOM     67  C   UNL A   1      39.074  33.669  38.345  1.00  0.00     0.040 A 
ATOM     68  C   UNL A   1      40.765  35.131  37.454  1.00  0.00     0.040 A 
ATOM     69  F   UNL A   1      41.796  34.631  35.408  1.00  0.00    -0.206 F 
ATOM     70  C   UNL A   1      39.840  34.829  38.450  1.00  0.00     0.006 A 
ENDBRANCH  49  63
BRANCH  50  71
ATOM     71  C   UNL A   1      41.005  27.485  28.007  1.00  0.00     0.057 A 
ATOM     72  C   UNL A   1      41.744  27.931  26.903  1.00  0.00     0.134 A 
ATOM     73  C   UNL A   1      40.397  26.227  27.908  1.00  0.00     0.134 A 
ATOM     74  F   UNL A   1      42.337  29.133  26.931  1.00  0.00    -0.206 F 
ATOM     75  C   UNL A   1      41.851  27.172  25.738  1.00  0.00     0.040 A 
ATOM     76  C   UNL A   1      40.519  25.445  26.758  1.00  0.00     0.040 A 
ATOM     77  F   UNL A   1      39.686  25.737  28.934  1.00  0.00    -0.206 F 
ATOM     78  C   UNL A   1      41.239  25.922  25.666  1.00  0.00     0.006 A 
ENDBRANCH  50  71
BRANCH  62  79
ATOM     79  C   UNL A   1      44.435  27.713  34.060  1.00  0.00     0.057 A 
ATOM     80  C   UNL A   1      44.213  26.472  34.669  1.00  0.00     0.134 A 
ATOM     81  C   UNL A   1      45.760  28.158  33.963  1.00  0.00     0.134 A 
ATOM     82  F   UNL A   1      42.967  25.992  34.804  1.00  0.00    -0.206 F 
ATOM     83  C   UNL A   1      45.266  25.719  35.194  1.00  0.00     0.040 A 
ATOM     84  C   UNL A   1      46.823  27.399  34.453  1.00  0.00     0.040 A 
ATOM     85  F   UNL A   1      46.045  29.332  33.380  1.00  0.00    -0.206 F 
ATOM     86  C   UNL A   1      46.576  26.181  35.080  1.00  0.00     0.006 A 
ENDBRANCH  62  79
ENDBRANCH  36  37
ENDBRANCH  28  31
ENDBRANCH  26  27
ENDBRANCH  25  26
ENDBRANCH   1  25
TORSDOF 15
ENDMDL
MODEL 2
REMARK VINA RESULT:     -10.8      4.646      9.617
REMARK SMILES CC(C)[NH2+][C@]1(C(=O)NCCCNC(=O)c2ccc(-c3c4nc(c(-c5c(F)cccc5F)c5ccc([nH]5)c(-c5c(F)cccc5F)c5nc(c(-c6c(F)cccc6F)c6ccc3[nH]6)C=C5)C=C4)cc2)CC[C@@H]([N@@H+](C)[C@@H](C)C(C)C)C1
REMARK SMILES IDX 9 1 8 2 6 3 7 4 5 6 69 7 79 8 70 9 71 10 4 11 2 14 1 15 3 16
REMARK SMILES IDX 72 17 73 18 74 20 75 21 76 22 77 23 78 24 10 25 11 26 12 27
REMARK SMILES IDX 13 28 14 30 15 31 16 32 68 33 17 34 67 35 18 36 19 37 20 38
REMARK SMILES IDX 61 39 21 40 66 41 60 42 62 43 22 44 65 45 59 46 58 47 23 49
REMARK SMILES IDX 49 50 32 51 48 52 33 53 36 54 47 55 63 56 34 57 35 58 46 60
REMARK SMILES IDX 64 61 37 62 24 63 25 64 30 65 26 66 27 67 29 68 31 69 28 70
REMARK SMILES IDX 50 71 51 72 56 73 52 74 53 75 55 76 57 77 54 78 38 79 39 80
REMARK SMILES IDX 44 81 40 82 41 83 43 84 45 85 42 86
REMARK H PARENT 8 5 4 12 4 13 72 19 12 29 62 48 36 59
REMARK Flexibility Score: inf
ROOT
ATOM      1  C   UNL A   1      37.070  20.759  24.452  1.00  0.00     0.118 C 
ENDROOT
BRANCH   1   2
ATOM      2  N   UNL A   1      36.586  21.575  25.547  1.00  0.00    -0.351 N 
ATOM      3  C   UNL A   1      35.320  21.812  26.008  1.00  0.00     0.281 C 
ATOM      4  O   UNL A   1      35.236  22.600  26.955  1.00  0.00    -0.268 OA
ATOM      5  H   UNL A   1      37.293  22.042  26.047  1.00  0.00     0.163 HD
BRANCH   3   6
ATOM      6  C   UNL A   1      34.060  21.149  25.328  1.00  0.00     0.181 C 
ATOM      7  C   UNL A   1      32.779  21.667  26.014  1.00  0.00     0.085 C 
ATOM      8  C   UNL A   1      33.920  21.709  23.888  1.00  0.00     0.144 C 
ATOM      9  C   UNL A   1      31.701  21.746  24.964  1.00  0.00     0.072 C 
ATOM     10  C   UNL A   1      32.423  22.009  23.650  1.00  0.00     0.191 C 
BRANCH   6  11
ATOM     11  N   UNL A   1      34.265  19.692  25.454  1.00  0.00    -0.331 N 
ATOM     12  H   UNL A   1      35.275  19.553  25.472  1.00  0.00     0.347 HD
ATOM     13  H   UNL A   1      33.702  19.482  26.278  1.00  0.00     0.347 HD
BRANCH  11  14
ATOM     14  C   UNL A   1      33.747  18.723  24.499  1.00  0.00     0.176 C 
ATOM     15  C   UNL A   1      34.821  17.639  24.342  1.00  0.00     0.075 C 
ATOM     16  C   UNL A   1      32.445  18.065  24.950  1.00  0.00     0.075 C 
ENDBRANCH  11  14
ENDBRANCH   6  11
BRANCH  10  17
ATOM     17  N   UNL A   1      32.055  23.250  22.940  1.00  0.00    -0.332 N 
ATOM     18  C   UNL A   1      30.734  23.704  23.405  1.00  0.00     0.333 C 
ATOM     19  H   UNL A   1      32.071  22.931  21.972  1.00  0.00     0.348 HD
BRANCH  17  20
ATOM     20  C   UNL A   1      33.005  24.396  22.814  1.00  0.00     0.183 C 
ATOM     21  C   UNL A   1      32.963  25.172  21.485  1.00  0.00     0.075 C 
BRANCH  20  22
ATOM     22  C   UNL A   1      33.031  25.361  24.040  1.00  0.00     0.041 C 
ATOM     23  C   UNL A   1      34.344  25.218  24.824  1.00  0.00     0.013 C 
ATOM     24  C   UNL A   1      32.851  26.839  23.668  1.00  0.00     0.013 C 
ENDBRANCH  20  22
ENDBRANCH  17  20
ENDBRANCH  10  17
ENDBRANCH   3   6
ENDBRANCH   1   2
BRANCH   1  25
ATOM     25  C   UNL A   1      37.954  19.622  24.923  1.00  0.00     0.042 C 
BRANCH  25  26
ATOM     26  C   UNL A   1      38.993  20.059  25.937  1.00  0.00     0.118 C 
BRANCH  26  27
ATOM     27  N   UNL A   1      40.199  19.241  25.888  1.00  0.00    -0.352 N 
ATOM     28  C   UNL A   1      41.518  19.588  26.054  1.00  0.00     0.251 C 
ATOM     29  H   UNL A   1      40.043  18.287  25.705  1.00  0.00     0.163 HD
ATOM     30  O   UNL A   1      42.400  18.788  25.762  1.00  0.00    -0.269 OA
BRANCH  28  31
ATOM     31  C   UNL A   1      41.875  20.928  26.566  1.00  0.00     0.039 A 
ATOM     32  C   UNL A   1      42.140  21.958  25.660  1.00  0.00     0.014 A 
ATOM     33  C   UNL A   1      41.965  21.167  27.938  1.00  0.00     0.014 A 
ATOM     34  C   UNL A   1      42.438  23.236  26.136  1.00  0.00     0.010 A 
ATOM     35  C   UNL A   1      42.132  22.462  28.407  1.00  0.00     0.010 A 
ATOM     36  C   UNL A   1      42.405  23.506  27.513  1.00  0.00    -0.014 A 
BRANCH  36  37
ATOM     37  C   UNL A   1      42.714  24.853  28.052  1.00  0.00     0.031 A 
ATOM     38  C   UNL A   1      44.141  25.218  28.374  1.00  0.00     0.074 A 
ATOM     39  C   UNL A   1      41.718  25.723  28.305  1.00  0.00     0.049 A 
ATOM     40  N   UNL A   1      44.614  26.313  28.912  1.00  0.00    -0.248 NA
ATOM     41  C   UNL A   1      45.167  24.201  28.086  1.00  0.00     0.031 C 
ATOM     42  C   UNL A   1      40.293  25.471  28.083  1.00  0.00     0.029 A 
ATOM     43  N   UNL A   1      41.755  26.999  28.808  1.00  0.00    -0.354 N 
ATOM     44  C   UNL A   1      45.983  26.106  29.041  1.00  0.00     0.074 A 
ATOM     45  C   UNL A   1      46.252  24.757  28.601  1.00  0.00     0.031 C 
ATOM     46  C   UNL A   1      39.596  26.570  28.415  1.00  0.00     0.029 A 
ATOM     47  C   UNL A   1      40.518  27.587  28.910  1.00  0.00     0.049 A 
ATOM     48  H   UNL A   1      42.590  27.449  29.071  1.00  0.00     0.167 HD
ATOM     49  C   UNL A   1      46.937  26.971  29.457  1.00  0.00     0.037 A 
ATOM     50  C   UNL A   1      40.171  28.809  29.353  1.00  0.00     0.037 A 
ATOM     51  C   UNL A   1      46.668  28.323  29.872  1.00  0.00     0.049 A 
ATOM     52  C   UNL A   1      41.247  29.753  29.815  1.00  0.00     0.074 A 
ATOM     53  C   UNL A   1      47.564  29.298  30.269  1.00  0.00     0.029 A 
ATOM     54  N   UNL A   1      45.403  28.888  29.940  1.00  0.00    -0.354 N 
ATOM     55  N   UNL A   1      42.544  29.567  29.875  1.00  0.00    -0.248 NA
ATOM     56  C   UNL A   1      40.811  31.084  30.258  1.00  0.00     0.031 C 
ATOM     57  C   UNL A   1      46.837  30.440  30.624  1.00  0.00     0.029 A 
ATOM     58  C   UNL A   1      45.494  30.196  30.388  1.00  0.00     0.049 A 
ATOM     59  H   UNL A   1      44.565  28.428  29.706  1.00  0.00     0.167 HD
ATOM     60  C   UNL A   1      43.081  30.768  30.320  1.00  0.00     0.074 A 
ATOM     61  C   UNL A   1      41.969  31.678  30.505  1.00  0.00     0.031 C 
ATOM     62  C   UNL A   1      44.378  31.093  30.549  1.00  0.00     0.037 A 
BRANCH  49  63
ATOM     63  C   UNL A   1      48.356  26.478  29.477  1.00  0.00     0.057 A 
ATOM     64  C   UNL A   1      48.893  25.805  30.585  1.00  0.00     0.134 A 
ATOM     65  C   UNL A   1      49.197  26.668  28.372  1.00  0.00     0.134 A 
ATOM     66  F   UNL A   1      48.149  25.601  31.683  1.00  0.00    -0.206 F 
ATOM     67  C   UNL A   1      50.220  25.374  30.607  1.00  0.00     0.040 A 
ATOM     68  C   UNL A   1      50.515  26.210  28.370  1.00  0.00     0.040 A 
ATOM     69  F   UNL A   1      48.749  27.298  27.276  1.00  0.00    -0.206 F 
ATOM     70  C   UNL A   1      51.033  25.570  29.493  1.00  0.00     0.006 A 
ENDBRANCH  49  63
BRANCH  50  71
ATOM     71  C   UNL A   1      38.746  29.230  29.342  1.00  0.00     0.057 A 
ATOM     72  C   UNL A   1      37.958  29.140  30.497  1.00  0.00     0.134 A 
ATOM     73  C   UNL A   1      38.133  29.717  28.181  1.00  0.00     0.134 A 
ATOM     74  F   UNL A   1      38.484  28.667  31.636  1.00  0.00    -0.206 F 
ATOM     75  C   UNL A   1      36.608  29.492  30.491  1.00  0.00     0.040 A 
ATOM     76  C   UNL A   1      36.790  30.099  28.169  1.00  0.00     0.040 A 
ATOM     77  F   UNL A   1      38.835  29.839  27.045  1.00  0.00    -0.206 F 
ATOM     78  C   UNL A   1      36.022  29.978  29.324  1.00  0.00     0.006 A 
ENDBRANCH  50  71
BRANCH  62  79
ATOM     79  C   UNL A   1      44.670  32.508  30.960  1.00  0.00     0.057 A 
ATOM     80  C   UNL A   1      44.744  32.897  32.303  1.00  0.00     0.134 A 
ATOM     81  C   UNL A   1      44.904  33.490  29.988  1.00  0.00     0.134 A 
ATOM     82  F   UNL A   1      44.520  32.009  33.283  1.00  0.00    -0.206 F 
ATOM     83  C   UNL A   1      45.004  34.221  32.665  1.00  0.00     0.040 A 
ATOM     84  C   UNL A   1      45.198  34.808  30.338  1.00  0.00     0.040 A 
ATOM     85  F   UNL A   1      44.861  33.183  28.683  1.00  0.00    -0.206 F 
ATOM     86  C   UNL A   1      45.239  35.179  31.680  1.00  0.00     0.006 A 
ENDBRANCH  62  79
ENDBRANCH  36  37
ENDBRANCH  28  31
ENDBRANCH  26  27
ENDBRANCH  25  26
ENDBRANCH   1  25
TORSDOF 15
ENDMDL
MODEL 3
REMARK VINA RESULT:     -10.8      5.125      9.335
REMARK SMILES CC(C)[NH2+][C@]1(C(=O)NCCCNC(=O)c2ccc(-c3c4nc(c(-c5c(F)cccc5F)c5ccc([nH]5)c(-c5c(F)cccc5F)c5nc(c(-c6c(F)cccc6F)c6ccc3[nH]6)C=C5)C=C4)cc2)CC[C@@H]([N@@H+](C)[C@@H](C)C(C)C)C1
REMARK SMILES IDX 9 1 8 2 6 3 7 4 5 6 69 7 79 8 70 9 71 10 4 11 2 14 1 15 3 16
REMARK SMILES IDX 72 17 73 18 74 20 75 21 76 22 77 23 78 24 10 25 11 26 12 27
REMARK SMILES IDX 13 28 14 30 15 31 16 32 68 33 17 34 67 35 18 36 19 37 20 38
REMARK SMILES IDX 61 39 21 40 66 41 60 42 62 43 22 44 65 45 59 46 58 47 23 49
REMARK SMILES IDX 49 50 32 51 48 52 33 53 36 54 47 55 63 56 34 57 35 58 46 60
REMARK SMILES IDX 64 61 37 62 24 63 25 64 30 65 26 66 27 67 29 68 31 69 28 70
REMARK SMILES IDX 50 71 51 72 56 73 52 74 53 75 55 76 57 77 54 78 38 79 39 80
REMARK SMILES IDX 44 81 40 82 41 83 43 84 45 85 42 86
REMARK H PARENT 8 5 4 12 4 13 72 19 12 29 62 48 36 59
REMARK Flexibility Score: inf
ROOT
ATOM      1  C   UNL A   1      36.724  20.415  24.974  1.00  0.00     0.118 C 
ENDROOT
BRANCH   1   2
ATOM      2  N   UNL A   1      36.926  21.502  24.037  1.00  0.00    -0.351 N 
ATOM      3  C   UNL A   1      36.153  22.589  23.732  1.00  0.00     0.281 C 
ATOM      4  O   UNL A   1      36.596  23.326  22.846  1.00  0.00    -0.268 OA
ATOM      5  H   UNL A   1      37.768  21.448  23.532  1.00  0.00     0.163 HD
BRANCH   3   6
ATOM      6  C   UNL A   1      34.767  22.838  24.443  1.00  0.00     0.181 C 
ATOM      7  C   UNL A   1      35.013  23.437  25.843  1.00  0.00     0.085 C 
ATOM      8  C   UNL A   1      34.032  23.991  23.710  1.00  0.00     0.144 C 
ATOM      9  C   UNL A   1      33.879  24.384  26.139  1.00  0.00     0.072 C 
ATOM     10  C   UNL A   1      33.418  24.911  24.788  1.00  0.00     0.191 C 
BRANCH   6  11
ATOM     11  N   UNL A   1      34.090  21.526  24.459  1.00  0.00    -0.331 N 
ATOM     12  H   UNL A   1      34.594  20.944  23.791  1.00  0.00     0.347 HD
ATOM     13  H   UNL A   1      34.110  21.303  25.455  1.00  0.00     0.347 HD
BRANCH  11  14
ATOM     14  C   UNL A   1      32.677  21.349  24.156  1.00  0.00     0.176 C 
ATOM     15  C   UNL A   1      32.528  19.946  23.553  1.00  0.00     0.075 C 
ATOM     16  C   UNL A   1      31.776  21.456  25.383  1.00  0.00     0.075 C 
ENDBRANCH  11  14
ENDBRANCH   6  11
BRANCH  10  17
ATOM     17  N   UNL A   1      33.494  26.373  24.597  1.00  0.00    -0.332 N 
ATOM     18  C   UNL A   1      33.580  26.673  23.158  1.00  0.00     0.333 C 
ATOM     19  H   UNL A   1      34.340  26.593  25.122  1.00  0.00     0.348 HD
BRANCH  17  20
ATOM     20  C   UNL A   1      32.554  27.307  25.287  1.00  0.00     0.183 C 
ATOM     21  C   UNL A   1      31.055  26.981  25.158  1.00  0.00     0.075 C 
BRANCH  20  22
ATOM     22  C   UNL A   1      32.940  27.653  26.759  1.00  0.00     0.041 C 
ATOM     23  C   UNL A   1      34.088  28.673  26.801  1.00  0.00     0.013 C 
ATOM     24  C   UNL A   1      31.775  28.205  27.591  1.00  0.00     0.013 C 
ENDBRANCH  20  22
ENDBRANCH  17  20
ENDBRANCH  10  17
ENDBRANCH   3   6
ENDBRANCH   1   2
BRANCH   1  25
ATOM     25  C   UNL A   1      37.895  19.456  25.011  1.00  0.00     0.042 C 
BRANCH  25  26
ATOM     26  C   UNL A   1      39.105  20.023  25.726  1.00  0.00     0.118 C 
BRANCH  26  27
ATOM     27  N   UNL A   1      40.165  19.036  25.896  1.00  0.00    -0.352 N 
ATOM     28  C   UNL A   1      41.514  19.205  26.100  1.00  0.00     0.251 C 
ATOM     29  H   UNL A   1      39.868  18.099  25.857  1.00  0.00     0.163 HD
ATOM     30  O   UNL A   1      42.269  18.244  26.004  1.00  0.00    -0.269 OA
BRANCH  28  31
ATOM     31  C   UNL A   1      42.056  20.543  26.417  1.00  0.00     0.039 A 
ATOM     32  C   UNL A   1      42.473  21.376  25.375  1.00  0.00     0.014 A 
ATOM     33  C   UNL A   1      42.169  20.973  27.740  1.00  0.00     0.014 A 
ATOM     34  C   UNL A   1      42.948  22.657  25.663  1.00  0.00     0.010 A 
ATOM     35  C   UNL A   1      42.517  22.288  28.014  1.00  0.00     0.010 A 
ATOM     36  C   UNL A   1      42.944  23.135  26.983  1.00  0.00    -0.014 A 
BRANCH  36  37
ATOM     37  C   UNL A   1      43.440  24.491  27.324  1.00  0.00     0.031 A 
ATOM     38  C   UNL A   1      42.465  25.551  27.769  1.00  0.00     0.074 A 
ATOM     39  C   UNL A   1      44.745  24.788  27.179  1.00  0.00     0.049 A 
ATOM     40  N   UNL A   1      42.682  26.811  28.048  1.00  0.00    -0.248 NA
ATOM     41  C   UNL A   1      41.053  25.149  27.881  1.00  0.00     0.031 C 
ATOM     42  C   UNL A   1      45.779  23.864  26.709  1.00  0.00     0.029 A 
ATOM     43  N   UNL A   1      45.424  25.956  27.413  1.00  0.00    -0.354 N 
ATOM     44  C   UNL A   1      41.436  27.349  28.348  1.00  0.00     0.074 A 
ATOM     45  C   UNL A   1      40.460  26.303  28.142  1.00  0.00     0.031 C 
ATOM     46  C   UNL A   1      46.966  24.491  26.723  1.00  0.00     0.029 A 
ATOM     47  C   UNL A   1      46.772  25.869  27.162  1.00  0.00     0.049 A 
ATOM     48  H   UNL A   1      44.987  26.779  27.729  1.00  0.00     0.167 HD
ATOM     49  C   UNL A   1      41.132  28.592  28.788  1.00  0.00     0.037 A 
ATOM     50  C   UNL A   1      47.739  26.798  27.277  1.00  0.00     0.037 A 
ATOM     51  C   UNL A   1      42.109  29.623  29.017  1.00  0.00     0.049 A 
ATOM     52  C   UNL A   1      47.378  28.174  27.764  1.00  0.00     0.074 A 
ATOM     53  C   UNL A   1      41.915  30.903  29.504  1.00  0.00     0.029 A 
ATOM     54  N   UNL A   1      43.467  29.488  28.772  1.00  0.00    -0.354 N 
ATOM     55  N   UNL A   1      46.205  28.653  28.102  1.00  0.00    -0.248 NA
ATOM     56  C   UNL A   1      48.479  29.136  27.898  1.00  0.00     0.031 C 
ATOM     57  C   UNL A   1      43.150  31.559  29.510  1.00  0.00     0.029 A 
ATOM     58  C   UNL A   1      44.122  30.668  29.086  1.00  0.00     0.049 A 
ATOM     59  H   UNL A   1      43.902  28.675  28.427  1.00  0.00     0.167 HD
ATOM     60  C   UNL A   1      46.433  29.954  28.530  1.00  0.00     0.074 A 
ATOM     61  C   UNL A   1      47.858  30.185  28.416  1.00  0.00     0.031 C 
ATOM     62  C   UNL A   1      45.545  30.875  28.983  1.00  0.00     0.037 A 
BRANCH  49  63
ATOM     63  C   UNL A   1      39.684  28.895  29.055  1.00  0.00     0.057 A 
ATOM     64  C   UNL A   1      39.125  28.777  30.337  1.00  0.00     0.134 A 
ATOM     65  C   UNL A   1      38.837  29.317  28.022  1.00  0.00     0.134 A 
ATOM     66  F   UNL A   1      39.875  28.363  31.370  1.00  0.00    -0.206 F 
ATOM     67  C   UNL A   1      37.774  29.033  30.572  1.00  0.00     0.040 A 
ATOM     68  C   UNL A   1      37.493  29.610  28.253  1.00  0.00     0.040 A 
ATOM     69  F   UNL A   1      39.305  29.457  26.773  1.00  0.00    -0.206 F 
ATOM     70  C   UNL A   1      36.954  29.458  29.528  1.00  0.00     0.006 A 
ENDBRANCH  49  63
BRANCH  50  71
ATOM     71  C   UNL A   1      49.149  26.449  26.966  1.00  0.00     0.057 A 
ATOM     72  C   UNL A   1      49.671  26.632  25.679  1.00  0.00     0.134 A 
ATOM     73  C   UNL A   1      50.005  25.914  27.937  1.00  0.00     0.134 A 
ATOM     74  F   UNL A   1      48.897  27.126  24.702  1.00  0.00    -0.206 F 
ATOM     75  C   UNL A   1      50.981  26.271  25.362  1.00  0.00     0.040 A 
ATOM     76  C   UNL A   1      51.326  25.575  27.640  1.00  0.00     0.040 A 
ATOM     77  F   UNL A   1      49.571  25.725  29.192  1.00  0.00    -0.206 F 
ATOM     78  C   UNL A   1      51.814  25.743  26.347  1.00  0.00     0.006 A 
ENDBRANCH  50  71
BRANCH  62  79
ATOM     79  C   UNL A   1      46.097  32.191  29.450  1.00  0.00     0.057 A 
ATOM     80  C   UNL A   1      46.503  32.406  30.773  1.00  0.00     0.134 A 
ATOM     81  C   UNL A   1      46.245  33.253  28.548  1.00  0.00     0.134 A 
ATOM     82  F   UNL A   1      46.379  31.434  31.690  1.00  0.00    -0.206 F 
ATOM     83  C   UNL A   1      47.004  33.641  31.190  1.00  0.00     0.040 A 
ATOM     84  C   UNL A   1      46.774  34.481  28.946  1.00  0.00     0.040 A 
ATOM     85  F   UNL A   1      45.888  33.112  27.262  1.00  0.00    -0.206 F 
ATOM     86  C   UNL A   1      47.146  34.681  30.273  1.00  0.00     0.006 A 
ENDBRANCH  62  79
ENDBRANCH  36  37
ENDBRANCH  28  31
ENDBRANCH  26  27
ENDBRANCH  25  26
ENDBRANCH   1  25
TORSDOF 15
ENDMDL
