MODEL 1
REMARK VINA RESULT:     -12.7      0.000      0.000
REMARK SMILES O=C(CC1CCN(C(=O)c2ccc3[nH]ccc3c2)CC1)NCCCNC(=O)c1ccc(-c2c3nc(c(-c4c(F)cccc4F)c4ccc([nH]4)c(-c4c(F)cccc4F)c4nc(c(-c5c(F)cccc5F)c5ccc2[nH]5)C=C4)C=C3)cc1
REMARK SMILES IDX 23 1 22 2 21 3 1 4 2 5 3 7 4 8 5 9 20 10 6 11 19 12 7 13
REMARK SMILES IDX 8 14 9 15 10 16 11 17 18 18 12 19 17 20 13 21 16 22 14 23
REMARK SMILES IDX 15 24 24 26 25 27 26 28 27 30 28 31 29 32 81 33 30 34 80 35
REMARK SMILES IDX 31 36 32 37 33 38 74 39 34 40 79 41 73 42 75 43 35 44 78 45
REMARK SMILES IDX 72 46 71 47 36 49 62 50 45 51 61 52 46 53 49 54 60 55 76 56
REMARK SMILES IDX 47 57 48 58 59 60 77 61 50 62 37 63 38 64 43 65 39 66 40 67
REMARK SMILES IDX 42 68 44 69 41 70 63 71 64 72 69 73 65 74 66 75 68 76 70 77
REMARK SMILES IDX 67 78 51 79 52 80 57 81 53 82 54 83 56 84 58 85 55 86
REMARK H PARENT 21 6 14 25 25 29 75 48 49 59
REMARK Flexibility Score: inf
ROOT
ATOM      1  C   UNL A   1      37.780  20.094  24.606  1.00  0.00     0.042 C 
ENDROOT
BRANCH   1   2
ATOM      2  C   UNL A   1      36.421  19.512  24.982  1.00  0.00     0.117 C 
BRANCH   2   3
ATOM      3  N   UNL A   1      35.432  20.541  25.247  1.00  0.00    -0.356 N 
ATOM      4  O   UNL A   1      33.620  19.300  24.597  1.00  0.00    -0.275 OA
ATOM      5  C   UNL A   1      34.085  20.338  25.057  1.00  0.00     0.220 C 
ATOM      6  H   UNL A   1      35.738  21.417  25.576  1.00  0.00     0.163 HD
BRANCH   5   7
ATOM      7  C   UNL A   1      33.193  21.533  25.364  1.00  0.00     0.103 C 
BRANCH   7   8
ATOM      8  C   UNL A   1      32.223  21.920  24.227  1.00  0.00     0.002 C 
ATOM      9  C   UNL A   1      32.954  22.098  22.882  1.00  0.00     0.026 C 
ATOM     10  C   UNL A   1      31.450  23.213  24.547  1.00  0.00     0.026 C 
ATOM     11  C   UNL A   1      33.821  23.354  22.846  1.00  0.00     0.120 C 
ATOM     12  C   UNL A   1      32.325  24.467  24.476  1.00  0.00     0.120 C 
ATOM     13  N   UNL A   1      33.048  24.539  23.208  1.00  0.00    -0.339 N 
ATOM     14  C   UNL A   1      33.061  25.639  22.352  1.00  0.00     0.253 C 
ATOM     15  O   UNL A   1      33.580  25.637  21.238  1.00  0.00    -0.269 OA
BRANCH  14  16
ATOM     16  C   UNL A   1      32.405  26.887  22.795  1.00  0.00     0.040 A 
ATOM     17  C   UNL A   1      33.088  27.782  23.624  1.00  0.00     0.016 A 
ATOM     18  C   UNL A   1      31.100  27.146  22.354  1.00  0.00     0.024 A 
ATOM     19  C   UNL A   1      32.460  28.942  24.087  1.00  0.00     0.027 A 
ATOM     20  C   UNL A   1      30.455  28.310  22.813  1.00  0.00     0.000 A 
ATOM     21  C   UNL A   1      31.142  29.172  23.670  1.00  0.00     0.045 A 
ATOM     22  C   UNL A   1      29.165  28.870  22.600  1.00  0.00     0.028 A 
ATOM     23  N   UNL A   1      30.287  30.209  23.970  1.00  0.00    -0.361 N 
ATOM     24  C   UNL A   1      29.088  30.035  23.329  1.00  0.00     0.083 A 
ATOM     25  H   UNL A   1      30.504  30.968  24.559  1.00  0.00     0.166 HD
ENDBRANCH  14  16
ENDBRANCH   7   8
ENDBRANCH   5   7
ENDBRANCH   2   3
ENDBRANCH   1   2
BRANCH   1  26
ATOM     26  C   UNL A   1      38.755  20.248  25.773  1.00  0.00     0.118 C 
BRANCH  26  27
ATOM     27  N   UNL A   1      39.791  19.225  25.798  1.00  0.00    -0.352 N 
ATOM     28  C   UNL A   1      41.136  19.320  26.050  1.00  0.00     0.251 C 
ATOM     29  H   UNL A   1      39.473  18.314  25.602  1.00  0.00     0.163 HD
ATOM     30  O   UNL A   1      41.850  18.330  25.883  1.00  0.00    -0.269 OA
BRANCH  28  31
ATOM     31  C   UNL A   1      41.751  20.591  26.492  1.00  0.00     0.039 A 
ATOM     32  C   UNL A   1      42.185  21.496  25.518  1.00  0.00     0.014 A 
ATOM     33  C   UNL A   1      41.935  20.889  27.845  1.00  0.00     0.014 A 
ATOM     34  C   UNL A   1      42.724  22.728  25.897  1.00  0.00     0.010 A 
ATOM     35  C   UNL A   1      42.413  22.143  28.224  1.00  0.00     0.010 A 
ATOM     36  C   UNL A   1      42.801  23.080  27.254  1.00  0.00    -0.014 A 
BRANCH  36  37
ATOM     37  C   UNL A   1      43.242  24.438  27.672  1.00  0.00     0.031 A 
ATOM     38  C   UNL A   1      42.240  25.488  28.059  1.00  0.00     0.074 A 
ATOM     39  C   UNL A   1      44.554  24.747  27.632  1.00  0.00     0.049 A 
ATOM     40  N   UNL A   1      42.436  26.747  28.363  1.00  0.00    -0.248 NA
ATOM     41  C   UNL A   1      40.827  25.076  28.086  1.00  0.00     0.031 C 
ATOM     42  C   UNL A   1      45.626  23.832  27.236  1.00  0.00     0.029 A 
ATOM     43  N   UNL A   1      45.206  25.922  27.912  1.00  0.00    -0.354 N 
ATOM     44  C   UNL A   1      41.177  27.280  28.605  1.00  0.00     0.074 A 
ATOM     45  C   UNL A   1      40.220  26.219  28.371  1.00  0.00     0.031 C 
ATOM     46  C   UNL A   1      46.802  24.475  27.313  1.00  0.00     0.029 A 
ATOM     47  C   UNL A   1      46.565  25.855  27.724  1.00  0.00     0.049 A 
ATOM     48  H   UNL A   1      44.743  26.735  28.219  1.00  0.00     0.167 HD
ATOM     49  C   UNL A   1      40.850  28.533  29.002  1.00  0.00     0.037 A 
ATOM     50  C   UNL A   1      47.514  26.801  27.852  1.00  0.00     0.037 A 
ATOM     51  C   UNL A   1      41.804  29.583  29.255  1.00  0.00     0.049 A 
ATOM     52  C   UNL A   1      47.123  28.187  28.278  1.00  0.00     0.074 A 
ATOM     53  C   UNL A   1      41.570  30.865  29.722  1.00  0.00     0.029 A 
ATOM     54  N   UNL A   1      43.172  29.473  29.061  1.00  0.00    -0.354 N 
ATOM     55  N   UNL A   1      45.935  28.661  28.560  1.00  0.00    -0.248 NA
ATOM     56  C   UNL A   1      48.208  29.173  28.403  1.00  0.00     0.031 C 
ATOM     57  C   UNL A   1      42.792  31.545  29.769  1.00  0.00     0.029 A 
ATOM     58  C   UNL A   1      43.792  30.672  29.373  1.00  0.00     0.049 A 
ATOM     59  H   UNL A   1      43.635  28.663  28.747  1.00  0.00     0.167 HD
ATOM     60  C   UNL A   1      46.128  29.989  28.916  1.00  0.00     0.074 A 
ATOM     61  C   UNL A   1      47.552  30.242  28.830  1.00  0.00     0.031 C 
ATOM     62  C   UNL A   1      45.209  30.914  29.282  1.00  0.00     0.037 A 
BRANCH  49  63
ATOM     63  C   UNL A   1      39.394  28.843  29.188  1.00  0.00     0.057 A 
ATOM     64  C   UNL A   1      38.759  28.683  30.427  1.00  0.00     0.134 A 
ATOM     65  C   UNL A   1      38.628  29.350  28.131  1.00  0.00     0.134 A 
ATOM     66  F   UNL A   1      39.433  28.192  31.478  1.00  0.00    -0.206 F 
ATOM     67  C   UNL A   1      37.409  28.993  30.601  1.00  0.00     0.040 A 
ATOM     68  C   UNL A   1      37.284  29.689  28.300  1.00  0.00     0.040 A 
ATOM     69  F   UNL A   1      39.176  29.535  26.920  1.00  0.00    -0.206 F 
ATOM     70  C   UNL A   1      36.670  29.504  29.536  1.00  0.00     0.006 A 
ENDBRANCH  49  63
BRANCH  50  71
ATOM     71  C   UNL A   1      48.935  26.466  27.583  1.00  0.00     0.057 A 
ATOM     72  C   UNL A   1      49.780  26.035  28.611  1.00  0.00     0.134 A 
ATOM     73  C   UNL A   1      49.480  26.572  26.299  1.00  0.00     0.134 A 
ATOM     74  F   UNL A   1      49.318  25.934  29.866  1.00  0.00    -0.206 F 
ATOM     75  C   UNL A   1      51.123  25.736  28.376  1.00  0.00     0.040 A 
ATOM     76  C   UNL A   1      50.815  26.254  26.044  1.00  0.00     0.040 A 
ATOM     77  F   UNL A   1      48.720  26.974  25.270  1.00  0.00    -0.206 F 
ATOM     78  C   UNL A   1      51.642  25.841  27.087  1.00  0.00     0.006 A 
ENDBRANCH  50  71
BRANCH  62  79
ATOM     79  C   UNL A   1      45.718  32.281  29.636  1.00  0.00     0.057 A 
ATOM     80  C   UNL A   1      45.805  33.304  28.684  1.00  0.00     0.134 A 
ATOM     81  C   UNL A   1      46.096  32.583  30.949  1.00  0.00     0.134 A 
ATOM     82  F   UNL A   1      45.472  33.074  27.405  1.00  0.00    -0.206 F 
ATOM     83  C   UNL A   1      46.272  34.576  29.022  1.00  0.00     0.040 A 
ATOM     84  C   UNL A   1      46.542  33.858  31.305  1.00  0.00     0.040 A 
ATOM     85  F   UNL A   1      46.030  31.650  31.910  1.00  0.00    -0.206 F 
ATOM     86  C   UNL A   1      46.635  34.856  30.338  1.00  0.00     0.006 A 
ENDBRANCH  62  79
ENDBRANCH  36  37
ENDBRANCH  28  31
ENDBRANCH  26  27
ENDBRANCH   1  26
TORSDOF 12
ENDMDL
MODEL 2
REMARK VINA RESULT:     -12.6      4.797     10.212
REMARK SMILES O=C(CC1CCN(C(=O)c2ccc3[nH]ccc3c2)CC1)NCCCNC(=O)c1ccc(-c2c3nc(c(-c4c(F)cccc4F)c4ccc([nH]4)c(-c4c(F)cccc4F)c4nc(c(-c5c(F)cccc5F)c5ccc2[nH]5)C=C4)C=C3)cc1
REMARK SMILES IDX 23 1 22 2 21 3 1 4 2 5 3 7 4 8 5 9 20 10 6 11 19 12 7 13
REMARK SMILES IDX 8 14 9 15 10 16 11 17 18 18 12 19 17 20 13 21 16 22 14 23
REMARK SMILES IDX 15 24 24 26 25 27 26 28 27 30 28 31 29 32 81 33 30 34 80 35
REMARK SMILES IDX 31 36 32 37 33 38 74 39 34 40 79 41 73 42 75 43 35 44 78 45
REMARK SMILES IDX 72 46 71 47 36 49 62 50 45 51 61 52 46 53 49 54 60 55 76 56
REMARK SMILES IDX 47 57 48 58 59 60 77 61 50 62 37 63 38 64 43 65 39 66 40 67
REMARK SMILES IDX 42 68 44 69 41 70 63 71 64 72 69 73 65 74 66 75 68 76 70 77
REMARK SMILES IDX 67 78 51 79 52 80 57 81 53 82 54 83 56 84 58 85 55 86
REMARK H PARENT 21 6 14 25 25 29 75 48 49 59
REMARK Flexibility Score: inf
ROOT
ATOM      1  C   UNL A   1      31.427  31.519  26.876  1.00  0.00     0.042 C 
ENDROOT
BRANCH   1   2
ATOM      2  C   UNL A   1      30.962  31.216  25.455  1.00  0.00     0.117 C 
BRANCH   2   3
ATOM      3  N   UNL A   1      31.515  29.976  24.943  1.00  0.00    -0.356 N 
ATOM      4  O   UNL A   1      29.886  29.622  23.372  1.00  0.00    -0.275 OA
ATOM      5  C   UNL A   1      30.938  29.282  23.905  1.00  0.00     0.220 C 
ATOM      6  H   UNL A   1      32.334  29.619  25.355  1.00  0.00     0.163 HD
BRANCH   5   7
ATOM      7  C   UNL A   1      31.640  27.990  23.512  1.00  0.00     0.103 C 
BRANCH   7   8
ATOM      8  C   UNL A   1      30.717  26.754  23.439  1.00  0.00     0.002 C 
ATOM      9  C   UNL A   1      29.909  26.560  24.737  1.00  0.00     0.026 C 
ATOM     10  C   UNL A   1      31.506  25.464  23.148  1.00  0.00     0.026 C 
ATOM     11  C   UNL A   1      30.777  26.097  25.905  1.00  0.00     0.120 C 
ATOM     12  C   UNL A   1      32.347  24.995  24.337  1.00  0.00     0.120 C 
ATOM     13  N   UNL A   1      31.541  24.903  25.554  1.00  0.00    -0.339 N 
ATOM     14  C   UNL A   1      31.467  23.787  26.385  1.00  0.00     0.253 C 
ATOM     15  O   UNL A   1      30.695  23.690  27.338  1.00  0.00    -0.269 OA
BRANCH  14  16
ATOM     16  C   UNL A   1      32.357  22.641  26.111  1.00  0.00     0.040 A 
ATOM     17  C   UNL A   1      33.659  22.624  26.623  1.00  0.00     0.016 A 
ATOM     18  C   UNL A   1      31.860  21.580  25.342  1.00  0.00     0.024 A 
ATOM     19  C   UNL A   1      34.524  21.566  26.330  1.00  0.00     0.027 A 
ATOM     20  C   UNL A   1      32.721  20.508  25.038  1.00  0.00     0.000 A 
ATOM     21  C   UNL A   1      34.028  20.530  25.529  1.00  0.00     0.045 A 
ATOM     22  C   UNL A   1      32.573  19.308  24.290  1.00  0.00     0.028 A 
ATOM     23  N   UNL A   1      34.646  19.384  25.079  1.00  0.00    -0.361 N 
ATOM     24  C   UNL A   1      33.776  18.640  24.327  1.00  0.00     0.083 A 
ATOM     25  H   UNL A   1      35.579  19.135  25.270  1.00  0.00     0.166 HD
ENDBRANCH  14  16
ENDBRANCH   7   8
ENDBRANCH   5   7
ENDBRANCH   2   3
ENDBRANCH   1   2
BRANCH   1  26
ATOM     26  C   UNL A   1      32.699  32.361  26.968  1.00  0.00     0.118 C 
BRANCH  26  27
ATOM     27  N   UNL A   1      32.457  33.723  27.423  1.00  0.00    -0.352 N 
ATOM     28  C   UNL A   1      33.076  34.462  28.399  1.00  0.00     0.251 C 
ATOM     29  H   UNL A   1      31.730  34.190  26.951  1.00  0.00     0.163 HD
ATOM     30  O   UNL A   1      32.610  35.560  28.706  1.00  0.00    -0.269 OA
BRANCH  28  31
ATOM     31  C   UNL A   1      34.272  33.958  29.109  1.00  0.00     0.039 A 
ATOM     32  C   UNL A   1      34.090  33.062  30.168  1.00  0.00     0.014 A 
ATOM     33  C   UNL A   1      35.561  34.376  28.770  1.00  0.00     0.014 A 
ATOM     34  C   UNL A   1      35.198  32.525  30.829  1.00  0.00     0.010 A 
ATOM     35  C   UNL A   1      36.668  33.793  29.386  1.00  0.00     0.010 A 
ATOM     36  C   UNL A   1      36.498  32.852  30.413  1.00  0.00    -0.014 A 
BRANCH  36  37
ATOM     37  C   UNL A   1      37.687  32.188  31.012  1.00  0.00     0.031 A 
ATOM     38  C   UNL A   1      38.412  31.098  30.273  1.00  0.00     0.074 A 
ATOM     39  C   UNL A   1      38.069  32.520  32.260  1.00  0.00     0.049 A 
ATOM     40  N   UNL A   1      39.409  30.349  30.675  1.00  0.00    -0.248 NA
ATOM     41  C   UNL A   1      37.942  30.795  28.912  1.00  0.00     0.031 C 
ATOM     42  C   UNL A   1      37.427  33.532  33.101  1.00  0.00     0.029 A 
ATOM     43  N   UNL A   1      39.082  32.029  33.048  1.00  0.00    -0.354 N 
ATOM     44  C   UNL A   1      39.677  29.480  29.626  1.00  0.00     0.074 A 
ATOM     45  C   UNL A   1      38.711  29.765  28.586  1.00  0.00     0.031 C 
ATOM     46  C   UNL A   1      38.068  33.597  34.278  1.00  0.00     0.029 A 
ATOM     47  C   UNL A   1      39.140  32.606  34.292  1.00  0.00     0.049 A 
ATOM     48  H   UNL A   1      39.707  31.330  32.747  1.00  0.00     0.167 HD
ATOM     49  C   UNL A   1      40.649  28.541  29.532  1.00  0.00     0.037 A 
ATOM     50  C   UNL A   1      39.954  32.359  35.334  1.00  0.00     0.037 A 
ATOM     51  C   UNL A   1      41.624  28.271  30.557  1.00  0.00     0.049 A 
ATOM     52  C   UNL A   1      41.014  31.301  35.210  1.00  0.00     0.074 A 
ATOM     53  C   UNL A   1      42.686  27.384  30.525  1.00  0.00     0.029 A 
ATOM     54  N   UNL A   1      41.655  28.883  31.801  1.00  0.00    -0.354 N 
ATOM     55  N   UNL A   1      41.294  30.528  34.190  1.00  0.00    -0.248 NA
ATOM     56  C   UNL A   1      41.873  31.083  36.383  1.00  0.00     0.031 C 
ATOM     57  C   UNL A   1      43.334  27.427  31.764  1.00  0.00     0.029 A 
ATOM     58  C   UNL A   1      42.701  28.374  32.554  1.00  0.00     0.049 A 
ATOM     59  H   UNL A   1      41.026  29.577  32.105  1.00  0.00     0.167 HD
ATOM     60  C   UNL A   1      42.371  29.747  34.588  1.00  0.00     0.074 A 
ATOM     61  C   UNL A   1      42.705  30.152  35.938  1.00  0.00     0.031 C 
ATOM     62  C   UNL A   1      43.024  28.782  33.897  1.00  0.00     0.037 A 
BRANCH  49  63
ATOM     63  C   UNL A   1      40.710  27.731  28.270  1.00  0.00     0.057 A 
ATOM     64  C   UNL A   1      41.461  28.146  27.162  1.00  0.00     0.134 A 
ATOM     65  C   UNL A   1      40.048  26.500  28.176  1.00  0.00     0.134 A 
ATOM     66  F   UNL A   1      42.111  29.320  27.184  1.00  0.00    -0.206 F 
ATOM     67  C   UNL A   1      41.532  27.379  25.999  1.00  0.00     0.040 A 
ATOM     68  C   UNL A   1      40.133  25.712  27.027  1.00  0.00     0.040 A 
ATOM     69  F   UNL A   1      39.317  26.040  29.203  1.00  0.00    -0.206 F 
ATOM     70  C   UNL A   1      40.872  26.154  25.932  1.00  0.00     0.006 A 
ENDBRANCH  49  63
BRANCH  50  71
ATOM     71  C   UNL A   1      39.807  33.135  36.591  1.00  0.00     0.057 A 
ATOM     72  C   UNL A   1      38.913  32.730  37.588  1.00  0.00     0.134 A 
ATOM     73  C   UNL A   1      40.551  34.298  36.823  1.00  0.00     0.134 A 
ATOM     74  F   UNL A   1      38.159  31.635  37.412  1.00  0.00    -0.206 F 
ATOM     75  C   UNL A   1      38.750  33.461  38.765  1.00  0.00     0.040 A 
ATOM     76  C   UNL A   1      40.416  35.027  38.006  1.00  0.00     0.040 A 
ATOM     77  F   UNL A   1      41.428  34.735  35.908  1.00  0.00    -0.206 F 
ATOM     78  C   UNL A   1      39.508  34.612  38.977  1.00  0.00     0.006 A 
ENDBRANCH  50  71
BRANCH  62  79
ATOM     79  C   UNL A   1      44.179  28.112  34.581  1.00  0.00     0.057 A 
ATOM     80  C   UNL A   1      44.022  26.912  35.286  1.00  0.00     0.134 A 
ATOM     81  C   UNL A   1      45.465  28.659  34.511  1.00  0.00     0.134 A 
ATOM     82  F   UNL A   1      42.812  26.345  35.403  1.00  0.00    -0.206 F 
ATOM     83  C   UNL A   1      45.102  26.290  35.915  1.00  0.00     0.040 A 
ATOM     84  C   UNL A   1      46.558  28.034  35.114  1.00  0.00     0.040 A 
ATOM     85  F   UNL A   1      45.684  29.803  33.845  1.00  0.00    -0.206 F 
ATOM     86  C   UNL A   1      46.376  26.848  35.823  1.00  0.00     0.006 A 
ENDBRANCH  62  79
ENDBRANCH  36  37
ENDBRANCH  28  31
ENDBRANCH  26  27
ENDBRANCH   1  26
TORSDOF 12
ENDMDL
MODEL 3
REMARK VINA RESULT:     -12.6      1.566      6.403
REMARK SMILES O=C(CC1CCN(C(=O)c2ccc3[nH]ccc3c2)CC1)NCCCNC(=O)c1ccc(-c2c3nc(c(-c4c(F)cccc4F)c4ccc([nH]4)c(-c4c(F)cccc4F)c4nc(c(-c5c(F)cccc5F)c5ccc2[nH]5)C=C4)C=C3)cc1
REMARK SMILES IDX 23 1 22 2 21 3 1 4 2 5 3 7 4 8 5 9 20 10 6 11 19 12 7 13
REMARK SMILES IDX 8 14 9 15 10 16 11 17 18 18 12 19 17 20 13 21 16 22 14 23
REMARK SMILES IDX 15 24 24 26 25 27 26 28 27 30 28 31 29 32 81 33 30 34 80 35
REMARK SMILES IDX 31 36 32 37 33 38 74 39 34 40 79 41 73 42 75 43 35 44 78 45
REMARK SMILES IDX 72 46 71 47 36 49 62 50 45 51 61 52 46 53 49 54 60 55 76 56
REMARK SMILES IDX 47 57 48 58 59 60 77 61 50 62 37 63 38 64 43 65 39 66 40 67
REMARK SMILES IDX 42 68 44 69 41 70 63 71 64 72 69 73 65 74 66 75 68 76 70 77
REMARK SMILES IDX 67 78 51 79 52 80 57 81 53 82 54 83 56 84 58 85 55 86
REMARK H PARENT 21 6 14 25 25 29 75 48 49 59
REMARK Flexibility Score: inf
ROOT
ATOM      1  C   UNL A   1      37.897  19.964  24.602  1.00  0.00     0.042 C 
ENDROOT
BRANCH   1   2
ATOM      2  C   UNL A   1      36.520  19.467  25.030  1.00  0.00     0.117 C 
BRANCH   2   3
ATOM      3  N   UNL A   1      35.540  20.536  25.093  1.00  0.00    -0.356 N 
ATOM      4  O   UNL A   1      33.730  19.228  24.585  1.00  0.00    -0.275 OA
ATOM      5  C   UNL A   1      34.197  20.321  24.890  1.00  0.00     0.220 C 
ATOM      6  H   UNL A   1      35.850  21.450  25.288  1.00  0.00     0.163 HD
BRANCH   5   7
ATOM      7  C   UNL A   1      33.316  21.560  24.972  1.00  0.00     0.103 C 
BRANCH   7   8
ATOM      8  C   UNL A   1      34.038  22.831  25.470  1.00  0.00     0.002 C 
ATOM      9  C   UNL A   1      33.432  23.363  26.782  1.00  0.00     0.026 C 
ATOM     10  C   UNL A   1      34.011  23.955  24.418  1.00  0.00     0.026 C 
ATOM     11  C   UNL A   1      32.050  23.980  26.583  1.00  0.00     0.120 C 
ATOM     12  C   UNL A   1      32.627  24.585  24.251  1.00  0.00     0.120 C 
ATOM     13  N   UNL A   1      32.074  25.001  25.539  1.00  0.00    -0.339 N 
ATOM     14  C   UNL A   1      31.568  26.268  25.825  1.00  0.00     0.253 C 
ATOM     15  O   UNL A   1      31.216  26.631  26.946  1.00  0.00    -0.269 OA
BRANCH  14  16
ATOM     16  C   UNL A   1      31.454  27.248  24.725  1.00  0.00     0.040 A 
ATOM     17  C   UNL A   1      32.601  27.847  24.196  1.00  0.00     0.016 A 
ATOM     18  C   UNL A   1      30.178  27.546  24.229  1.00  0.00     0.024 A 
ATOM     19  C   UNL A   1      32.499  28.811  23.189  1.00  0.00     0.027 A 
ATOM     20  C   UNL A   1      30.060  28.515  23.215  1.00  0.00     0.000 A 
ATOM     21  C   UNL A   1      31.216  29.128  22.727  1.00  0.00     0.045 A 
ATOM     22  C   UNL A   1      28.959  29.070  22.506  1.00  0.00     0.028 A 
ATOM     23  N   UNL A   1      30.818  30.030  21.765  1.00  0.00    -0.361 N 
ATOM     24  C   UNL A   1      29.455  30.005  21.626  1.00  0.00     0.083 A 
ATOM     25  H   UNL A   1      31.425  30.610  21.250  1.00  0.00     0.166 HD
ENDBRANCH  14  16
ENDBRANCH   7   8
ENDBRANCH   5   7
ENDBRANCH   2   3
ENDBRANCH   1   2
BRANCH   1  26
ATOM     26  C   UNL A   1      38.867  20.233  25.752  1.00  0.00     0.118 C 
BRANCH  26  27
ATOM     27  N   UNL A   1      40.000  19.319  25.777  1.00  0.00    -0.352 N 
ATOM     28  C   UNL A   1      41.317  19.536  26.094  1.00  0.00     0.251 C 
ATOM     29  H   UNL A   1      39.785  18.391  25.526  1.00  0.00     0.163 HD
ATOM     30  O   UNL A   1      42.135  18.632  25.914  1.00  0.00    -0.269 OA
BRANCH  28  31
ATOM     31  C   UNL A   1      41.780  20.839  26.620  1.00  0.00     0.039 A 
ATOM     32  C   UNL A   1      42.227  21.805  25.712  1.00  0.00     0.014 A 
ATOM     33  C   UNL A   1      41.811  21.111  27.990  1.00  0.00     0.014 A 
ATOM     34  C   UNL A   1      42.624  23.064  26.168  1.00  0.00     0.010 A 
ATOM     35  C   UNL A   1      42.146  22.388  28.440  1.00  0.00     0.010 A 
ATOM     36  C   UNL A   1      42.544  23.382  27.533  1.00  0.00    -0.014 A 
BRANCH  36  37
ATOM     37  C   UNL A   1      42.830  24.757  28.021  1.00  0.00     0.031 A 
ATOM     38  C   UNL A   1      44.219  25.154  28.434  1.00  0.00     0.074 A 
ATOM     39  C   UNL A   1      41.815  25.632  28.159  1.00  0.00     0.049 A 
ATOM     40  N   UNL A   1      44.635  26.277  28.965  1.00  0.00    -0.248 NA
ATOM     41  C   UNL A   1      45.278  24.149  28.248  1.00  0.00     0.031 C 
ATOM     42  C   UNL A   1      40.414  25.361  27.832  1.00  0.00     0.029 A 
ATOM     43  N   UNL A   1      41.802  26.923  28.628  1.00  0.00    -0.354 N 
ATOM     44  C   UNL A   1      45.995  26.111  29.187  1.00  0.00     0.074 A 
ATOM     45  C   UNL A   1      46.328  24.764  28.773  1.00  0.00     0.031 C 
ATOM     46  C   UNL A   1      39.681  26.454  28.096  1.00  0.00     0.029 A 
ATOM     47  C   UNL A   1      40.551  27.489  28.647  1.00  0.00     0.049 A 
ATOM     48  H   UNL A   1      42.613  27.397  28.922  1.00  0.00     0.167 HD
ATOM     49  C   UNL A   1      46.889  27.004  29.676  1.00  0.00     0.037 A 
ATOM     50  C   UNL A   1      40.144  28.699  29.072  1.00  0.00     0.037 A 
ATOM     51  C   UNL A   1      46.563  28.352  30.068  1.00  0.00     0.049 A 
ATOM     52  C   UNL A   1      41.152  29.666  29.625  1.00  0.00     0.074 A 
ATOM     53  C   UNL A   1      47.413  29.350  30.513  1.00  0.00     0.029 A 
ATOM     54  N   UNL A   1      45.285  28.891  30.064  1.00  0.00    -0.354 N 
ATOM     55  N   UNL A   1      42.445  29.516  29.775  1.00  0.00    -0.248 NA
ATOM     56  C   UNL A   1      40.644  30.972  30.069  1.00  0.00     0.031 C 
ATOM     57  C   UNL A   1      46.645  30.478  30.820  1.00  0.00     0.029 A 
ATOM     58  C   UNL A   1      45.321  30.197  30.524  1.00  0.00     0.049 A 
ATOM     59  H   UNL A   1      44.473  28.415  29.777  1.00  0.00     0.167 HD
ATOM     60  C   UNL A   1      42.908  30.711  30.307  1.00  0.00     0.074 A 
ATOM     61  C   UNL A   1      41.759  31.583  30.441  1.00  0.00     0.031 C 
ATOM     62  C   UNL A   1      44.171  31.055  30.655  1.00  0.00     0.037 A 
BRANCH  49  63
ATOM     63  C   UNL A   1      48.313  26.554  29.816  1.00  0.00     0.057 A 
ATOM     64  C   UNL A   1      48.766  25.884  30.960  1.00  0.00     0.134 A 
ATOM     65  C   UNL A   1      49.233  26.752  28.778  1.00  0.00     0.134 A 
ATOM     66  F   UNL A   1      47.939  25.672  31.996  1.00  0.00    -0.206 F 
ATOM     67  C   UNL A   1      50.087  25.449  31.077  1.00  0.00     0.040 A 
ATOM     68  C   UNL A   1      50.549  26.297  28.872  1.00  0.00     0.040 A 
ATOM     69  F   UNL A   1      48.863  27.380  27.651  1.00  0.00    -0.206 F 
ATOM     70  C   UNL A   1      50.981  25.649  30.027  1.00  0.00     0.006 A 
ENDBRANCH  49  63
BRANCH  50  71
ATOM     71  C   UNL A   1      38.710  29.072  28.984  1.00  0.00     0.057 A 
ATOM     72  C   UNL A   1      38.162  29.546  27.787  1.00  0.00     0.134 A 
ATOM     73  C   UNL A   1      37.858  28.968  30.089  1.00  0.00     0.134 A 
ATOM     74  F   UNL A   1      38.935  29.686  26.700  1.00  0.00    -0.206 F 
ATOM     75  C   UNL A   1      36.820  29.920  27.695  1.00  0.00     0.040 A 
ATOM     76  C   UNL A   1      36.508  29.315  30.006  1.00  0.00     0.040 A 
ATOM     77  F   UNL A   1      38.323  28.516  31.263  1.00  0.00    -0.206 F 
ATOM     78  C   UNL A   1      35.989  29.799  28.807  1.00  0.00     0.006 A 
ENDBRANCH  50  71
BRANCH  62  79
ATOM     79  C   UNL A   1      44.380  32.440  31.194  1.00  0.00     0.057 A 
ATOM     80  C   UNL A   1      44.333  32.711  32.567  1.00  0.00     0.134 A 
ATOM     81  C   UNL A   1      44.660  33.507  30.331  1.00  0.00     0.134 A 
ATOM     82  F   UNL A   1      44.055  31.736  33.444  1.00  0.00    -0.206 F 
ATOM     83  C   UNL A   1      44.535  34.002  33.061  1.00  0.00     0.040 A 
ATOM     84  C   UNL A   1      44.889  34.796  30.816  1.00  0.00     0.040 A 
ATOM     85  F   UNL A   1      44.726  33.312  29.005  1.00  0.00    -0.206 F 
ATOM     86  C   UNL A   1      44.821  35.047  32.184  1.00  0.00     0.006 A 
ENDBRANCH  62  79
ENDBRANCH  36  37
ENDBRANCH  28  31
ENDBRANCH  26  27
ENDBRANCH   1  26
TORSDOF 12
ENDMDL
