MODEL 1
REMARK VINA RESULT:     -12.9      0.000      0.000
REMARK SMILES NS(=O)(=O)c1ccc(-n2nc(C(F)(F)F)cc2-c2ccc(CC(=O)NCCCNC(=O)c3ccc(-c4c5nc(c(-c6c(F)cccc6F)c6ccc([nH]6)c(-c6c(F)cccc6F)c6nc(c(-c7c(F)cccc7F)c7ccc4[nH]7)C=C6)C=C5)cc3)cc2)cc1
REMARK SMILES IDX 23 1 24 2 25 3 22 5 21 6 18 7 19 8 87 9 20 10 86 11 17 12
REMARK SMILES IDX 9 13 10 14 11 15 16 16 8 17 5 18 6 19 89 20 7 21 88 22 2 23
REMARK SMILES IDX 3 24 4 25 1 26 12 29 13 30 14 31 15 32 26 33 27 34 28 35
REMARK SMILES IDX 29 36 30 37 31 39 32 40 33 41 85 42 34 43 84 44 35 45 36 46
REMARK SMILES IDX 37 47 78 48 38 49 83 50 77 51 79 52 39 53 82 54 76 55 75 56
REMARK SMILES IDX 40 58 66 59 49 60 65 61 50 62 53 63 64 64 80 65 51 66 52 67
REMARK SMILES IDX 63 69 81 70 54 71 41 72 42 73 47 74 43 75 44 76 46 77 48 78
REMARK SMILES IDX 45 79 67 80 68 81 73 82 69 83 70 84 72 85 74 86 71 87 55 88
REMARK SMILES IDX 56 89 61 90 57 91 58 92 60 93 62 94 59 95
REMARK H PARENT 25 4 1 27 1 28 29 38 79 57 53 68
REMARK Flexibility Score: inf
ROOT
ATOM      1  C   UNL A   1      39.737  22.784  26.404  1.00  0.00     0.224 C 
ATOM      2  O   UNL A   1      39.805  23.986  26.139  1.00  0.00    -0.275 OA
ATOM      3  N   UNL A   1      40.657  22.254  27.264  1.00  0.00    -0.356 N 
ATOM      4  H   UNL A   1      41.315  22.890  27.625  1.00  0.00     0.163 HD
ENDROOT
BRANCH   1   5
ATOM      5  C   UNL A   1      38.639  21.907  25.826  1.00  0.00     0.135 C 
BRANCH   5   6
ATOM      6  C   UNL A   1      37.426  22.675  25.353  1.00  0.00    -0.039 A 
ATOM      7  C   UNL A   1      35.101  24.028  24.496  1.00  0.00     0.000 A 
ATOM      8  C   UNL A   1      35.884  23.294  23.591  1.00  0.00     0.010 A 
ATOM      9  C   UNL A   1      35.525  24.121  25.824  1.00  0.00     0.010 A 
ATOM     10  C   UNL A   1      37.026  22.610  24.016  1.00  0.00     0.005 A 
ATOM     11  C   UNL A   1      36.684  23.461  26.245  1.00  0.00     0.005 A 
BRANCH   7  12
ATOM     12  C   UNL A   1      33.852  24.672  24.068  1.00  0.00     0.075 A 
ATOM     13  N   UNL A   1      32.722  24.003  23.610  1.00  0.00    -0.233 N 
ATOM     14  N   UNL A   1      31.823  24.836  23.038  1.00  0.00    -0.163 NA
ATOM     15  C   UNL A   1      32.267  26.072  23.335  1.00  0.00     0.167 A 
ATOM     16  C   UNL A   1      33.541  26.012  23.956  1.00  0.00     0.064 A 
BRANCH  13  17
ATOM     17  C   UNL A   1      32.479  22.612  23.664  1.00  0.00     0.065 A 
ATOM     18  C   UNL A   1      32.499  19.854  23.691  1.00  0.00     0.082 A 
ATOM     19  C   UNL A   1      32.651  20.553  24.891  1.00  0.00     0.024 A 
ATOM     20  C   UNL A   1      32.247  20.521  22.490  1.00  0.00     0.024 A 
ATOM     21  C   UNL A   1      32.650  21.937  24.880  1.00  0.00     0.030 A 
ATOM     22  C   UNL A   1      32.209  21.916  22.478  1.00  0.00     0.030 A 
BRANCH  18  23
ATOM     23  S   UNL A   1      32.607  18.099  23.750  1.00  0.00     0.238 S 
ATOM     24  O   UNL A   1      31.736  17.650  24.806  1.00  0.00    -0.207 OA
ATOM     25  O   UNL A   1      33.999  17.721  23.684  1.00  0.00    -0.207 OA
BRANCH  23  26
ATOM     26  N   UNL A   1      31.901  17.611  22.312  1.00  0.00    -0.225 NA
ATOM     27  H   UNL A   1      31.628  18.432  21.772  1.00  0.00     0.137 HD
ATOM     28  H   UNL A   1      31.077  17.046  22.513  1.00  0.00     0.137 HD
ENDBRANCH  23  26
ENDBRANCH  18  23
ENDBRANCH  13  17
BRANCH  15  29
ATOM     29  C   UNL A   1      31.489  27.318  23.011  1.00  0.00     0.435 C 
ATOM     30  F   UNL A   1      30.716  27.745  24.043  1.00  0.00    -0.164 F 
ATOM     31  F   UNL A   1      32.303  28.351  22.664  1.00  0.00    -0.164 F 
ATOM     32  F   UNL A   1      30.650  27.123  21.954  1.00  0.00    -0.164 F 
ENDBRANCH  15  29
ENDBRANCH   7  12
ENDBRANCH   5   6
ENDBRANCH   1   5
BRANCH   3  33
ATOM     33  C   UNL A   1      40.800  20.881  27.721  1.00  0.00     0.117 C 
BRANCH  33  34
ATOM     34  C   UNL A   1      42.106  20.233  27.252  1.00  0.00     0.042 C 
BRANCH  34  35
ATOM     35  C   UNL A   1      42.220  20.180  25.737  1.00  0.00     0.118 C 
BRANCH  35  36
ATOM     36  N   UNL A   1      43.589  19.960  25.273  1.00  0.00    -0.352 N 
ATOM     37  C   UNL A   1      44.557  20.900  24.975  1.00  0.00     0.251 C 
ATOM     38  H   UNL A   1      43.856  19.019  25.158  1.00  0.00     0.163 HD
ATOM     39  O   UNL A   1      45.513  20.602  24.269  1.00  0.00    -0.269 OA
BRANCH  37  40
ATOM     40  C   UNL A   1      44.432  22.263  25.518  1.00  0.00     0.039 A 
ATOM     41  C   UNL A   1      43.479  23.163  25.027  1.00  0.00     0.014 A 
ATOM     42  C   UNL A   1      45.299  22.644  26.535  1.00  0.00     0.014 A 
ATOM     43  C   UNL A   1      43.373  24.426  25.610  1.00  0.00     0.010 A 
ATOM     44  C   UNL A   1      45.062  23.797  27.231  1.00  0.00     0.010 A 
ATOM     45  C   UNL A   1      44.162  24.732  26.726  1.00  0.00    -0.014 A 
BRANCH  45  46
ATOM     46  C   UNL A   1      43.993  25.974  27.485  1.00  0.00     0.031 A 
ATOM     47  C   UNL A   1      44.970  27.071  27.148  1.00  0.00     0.074 A 
ATOM     48  C   UNL A   1      42.848  26.176  28.189  1.00  0.00     0.049 A 
ATOM     49  N   UNL A   1      45.462  27.981  27.922  1.00  0.00    -0.248 NA
ATOM     50  C   UNL A   1      45.504  27.160  25.772  1.00  0.00     0.031 C 
ATOM     51  C   UNL A   1      41.695  25.267  28.330  1.00  0.00     0.029 A 
ATOM     52  N   UNL A   1      42.389  27.295  28.813  1.00  0.00    -0.354 N 
ATOM     53  C   UNL A   1      46.216  28.838  27.116  1.00  0.00     0.074 A 
ATOM     54  C   UNL A   1      46.215  28.286  25.794  1.00  0.00     0.031 C 
ATOM     55  C   UNL A   1      40.610  25.957  28.743  1.00  0.00     0.029 A 
ATOM     56  C   UNL A   1      41.015  27.311  29.060  1.00  0.00     0.049 A 
ATOM     57  H   UNL A   1      42.982  28.037  29.071  1.00  0.00     0.167 HD
ATOM     58  C   UNL A   1      46.693  30.020  27.589  1.00  0.00     0.037 A 
ATOM     59  C   UNL A   1      40.268  28.377  29.455  1.00  0.00     0.037 A 
ATOM     60  C   UNL A   1      46.898  29.942  29.008  1.00  0.00     0.049 A 
ATOM     61  C   UNL A   1      41.218  29.412  29.934  1.00  0.00     0.074 A 
ATOM     62  C   UNL A   1      47.659  29.096  29.796  1.00  0.00     0.029 A 
ATOM     63  N   UNL A   1      45.951  30.482  29.843  1.00  0.00    -0.354 N 
ATOM     64  N   UNL A   1      41.922  29.302  31.026  1.00  0.00    -0.248 NA
ATOM     65  C   UNL A   1      41.734  30.341  28.939  1.00  0.00     0.031 C 
ATOM     66  C   UNL A   1      46.794  28.744  30.870  1.00  0.00     0.029 A 
ATOM     67  C   UNL A   1      45.625  29.494  30.739  1.00  0.00     0.049 A 
ATOM     68  H   UNL A   1      45.582  31.393  29.806  1.00  0.00     0.167 HD
ATOM     69  C   UNL A   1      43.172  29.786  30.679  1.00  0.00     0.074 A 
ATOM     70  C   UNL A   1      42.982  30.467  29.397  1.00  0.00     0.031 C 
ATOM     71  C   UNL A   1      44.305  29.338  31.294  1.00  0.00     0.037 A 
BRANCH  58  72
ATOM     72  C   UNL A   1      46.599  31.322  26.842  1.00  0.00     0.057 A 
ATOM     73  C   UNL A   1      47.719  32.172  26.800  1.00  0.00     0.134 A 
ATOM     74  C   UNL A   1      45.376  31.915  26.474  1.00  0.00     0.134 A 
ATOM     75  F   UNL A   1      48.941  31.718  27.117  1.00  0.00    -0.206 F 
ATOM     76  C   UNL A   1      47.611  33.540  26.524  1.00  0.00     0.040 A 
ATOM     77  C   UNL A   1      45.262  33.273  26.164  1.00  0.00     0.040 A 
ATOM     78  F   UNL A   1      44.224  31.232  26.487  1.00  0.00    -0.206 F 
ATOM     79  C   UNL A   1      46.375  34.099  26.226  1.00  0.00     0.006 A 
ENDBRANCH  58  72
BRANCH  59  80
ATOM     80  C   UNL A   1      38.839  28.708  29.216  1.00  0.00     0.057 A 
ATOM     81  C   UNL A   1      37.923  28.743  30.281  1.00  0.00     0.134 A 
ATOM     82  C   UNL A   1      38.394  29.280  28.012  1.00  0.00     0.134 A 
ATOM     83  F   UNL A   1      38.254  28.244  31.481  1.00  0.00    -0.206 F 
ATOM     84  C   UNL A   1      36.665  29.355  30.174  1.00  0.00     0.040 A 
ATOM     85  C   UNL A   1      37.138  29.888  27.888  1.00  0.00     0.040 A 
ATOM     86  F   UNL A   1      39.195  29.349  26.941  1.00  0.00    -0.206 F 
ATOM     87  C   UNL A   1      36.276  29.946  28.978  1.00  0.00     0.006 A 
ENDBRANCH  59  80
BRANCH  71  88
ATOM     88  C   UNL A   1      44.180  28.442  32.496  1.00  0.00     0.057 A 
ATOM     89  C   UNL A   1      44.085  27.042  32.449  1.00  0.00     0.134 A 
ATOM     90  C   UNL A   1      44.337  29.016  33.763  1.00  0.00     0.134 A 
ATOM     91  F   UNL A   1      44.044  26.381  31.286  1.00  0.00    -0.206 F 
ATOM     92  C   UNL A   1      44.098  26.261  33.609  1.00  0.00     0.040 A 
ATOM     93  C   UNL A   1      44.394  28.245  34.925  1.00  0.00     0.040 A 
ATOM     94  F   UNL A   1      44.494  30.344  33.889  1.00  0.00    -0.206 F 
ATOM     95  C   UNL A   1      44.261  26.863  34.852  1.00  0.00     0.006 A 
ENDBRANCH  71  88
ENDBRANCH  45  46
ENDBRANCH  37  40
ENDBRANCH  35  36
ENDBRANCH  34  35
ENDBRANCH  33  34
ENDBRANCH   3  33
TORSDOF 16
ENDMDL
MODEL 2
REMARK VINA RESULT:     -12.7      4.273      8.555
REMARK SMILES NS(=O)(=O)c1ccc(-n2nc(C(F)(F)F)cc2-c2ccc(CC(=O)NCCCNC(=O)c3ccc(-c4c5nc(c(-c6c(F)cccc6F)c6ccc([nH]6)c(-c6c(F)cccc6F)c6nc(c(-c7c(F)cccc7F)c7ccc4[nH]7)C=C6)C=C5)cc3)cc2)cc1
REMARK SMILES IDX 23 1 24 2 25 3 22 5 21 6 18 7 19 8 87 9 20 10 86 11 17 12
REMARK SMILES IDX 9 13 10 14 11 15 16 16 8 17 5 18 6 19 89 20 7 21 88 22 2 23
REMARK SMILES IDX 3 24 4 25 1 26 12 29 13 30 14 31 15 32 26 33 27 34 28 35
REMARK SMILES IDX 29 36 30 37 31 39 32 40 33 41 85 42 34 43 84 44 35 45 36 46
REMARK SMILES IDX 37 47 78 48 38 49 83 50 77 51 79 52 39 53 82 54 76 55 75 56
REMARK SMILES IDX 40 58 66 59 49 60 65 61 50 62 53 63 64 64 80 65 51 66 52 67
REMARK SMILES IDX 63 69 81 70 54 71 41 72 42 73 47 74 43 75 44 76 46 77 48 78
REMARK SMILES IDX 45 79 67 80 68 81 73 82 69 83 70 84 72 85 74 86 71 87 55 88
REMARK SMILES IDX 56 89 61 90 57 91 58 92 60 93 62 94 59 95
REMARK H PARENT 25 4 1 27 1 28 29 38 79 57 53 68
REMARK Flexibility Score: inf
ROOT
ATOM      1  C   UNL A   1      33.132  31.452  27.460  1.00  0.00     0.224 C 
ATOM      2  O   UNL A   1      32.134  31.452  26.738  1.00  0.00    -0.275 OA
ATOM      3  N   UNL A   1      33.632  32.652  27.881  1.00  0.00    -0.356 N 
ATOM      4  H   UNL A   1      33.137  33.447  27.577  1.00  0.00     0.163 HD
ENDROOT
BRANCH   1   5
ATOM      5  C   UNL A   1      33.783  30.155  27.912  1.00  0.00     0.135 C 
BRANCH   5   6
ATOM      6  C   UNL A   1      33.366  28.947  27.106  1.00  0.00    -0.039 A 
ATOM      7  C   UNL A   1      32.644  26.631  25.662  1.00  0.00     0.000 A 
ATOM      8  C   UNL A   1      33.730  27.423  25.258  1.00  0.00     0.010 A 
ATOM      9  C   UNL A   1      31.890  27.040  26.765  1.00  0.00     0.010 A 
ATOM     10  C   UNL A   1      34.099  28.561  25.981  1.00  0.00     0.005 A 
ATOM     11  C   UNL A   1      32.241  28.195  27.472  1.00  0.00     0.005 A 
BRANCH   7  12
ATOM     12  C   UNL A   1      32.311  25.386  24.956  1.00  0.00     0.075 A 
ATOM     13  N   UNL A   1      31.265  25.232  24.053  1.00  0.00    -0.233 N 
ATOM     14  N   UNL A   1      31.023  23.934  23.757  1.00  0.00    -0.163 NA
ATOM     15  C   UNL A   1      32.063  23.264  24.288  1.00  0.00     0.167 A 
ATOM     16  C   UNL A   1      32.877  24.131  25.062  1.00  0.00     0.064 A 
BRANCH  13  17
ATOM     17  C   UNL A   1      30.470  26.256  23.492  1.00  0.00     0.065 A 
ATOM     18  C   UNL A   1      29.060  28.523  22.798  1.00  0.00     0.082 A 
ATOM     19  C   UNL A   1      30.366  28.358  22.331  1.00  0.00     0.024 A 
ATOM     20  C   UNL A   1      28.421  27.523  23.534  1.00  0.00     0.024 A 
ATOM     21  C   UNL A   1      31.080  27.225  22.684  1.00  0.00     0.030 A 
ATOM     22  C   UNL A   1      29.124  26.363  23.864  1.00  0.00     0.030 A 
BRANCH  18  23
ATOM     23  S   UNL A   1      28.235  30.025  22.400  1.00  0.00     0.238 S 
ATOM     24  O   UNL A   1      27.184  30.207  23.368  1.00  0.00    -0.207 OA
ATOM     25  O   UNL A   1      27.989  30.053  20.978  1.00  0.00    -0.207 OA
BRANCH  23  26
ATOM     26  N   UNL A   1      29.384  31.202  22.718  1.00  0.00    -0.225 NA
ATOM     27  H   UNL A   1      28.948  31.975  23.222  1.00  0.00     0.137 HD
ATOM     28  H   UNL A   1      29.772  31.544  21.840  1.00  0.00     0.137 HD
ENDBRANCH  23  26
ENDBRANCH  18  23
ENDBRANCH  13  17
BRANCH  15  29
ATOM     29  C   UNL A   1      32.278  21.791  24.075  1.00  0.00     0.435 C 
ATOM     30  F   UNL A   1      31.814  21.354  22.875  1.00  0.00    -0.164 F 
ATOM     31  F   UNL A   1      33.594  21.453  24.143  1.00  0.00    -0.164 F 
ATOM     32  F   UNL A   1      31.644  21.050  25.027  1.00  0.00    -0.164 F 
ENDBRANCH  15  29
ENDBRANCH   7  12
ENDBRANCH   5   6
ENDBRANCH   1   5
BRANCH   3  33
ATOM     33  C   UNL A   1      34.791  32.921  28.717  1.00  0.00     0.117 C 
BRANCH  33  34
ATOM     34  C   UNL A   1      36.110  32.849  27.941  1.00  0.00     0.042 C 
BRANCH  34  35
ATOM     35  C   UNL A   1      37.162  32.017  28.656  1.00  0.00     0.118 C 
BRANCH  35  36
ATOM     36  N   UNL A   1      36.700  31.490  29.939  1.00  0.00    -0.352 N 
ATOM     37  C   UNL A   1      37.031  30.295  30.547  1.00  0.00     0.251 C 
ATOM     38  H   UNL A   1      36.070  32.062  30.436  1.00  0.00     0.163 HD
ATOM     39  O   UNL A   1      36.313  29.823  31.422  1.00  0.00    -0.269 OA
BRANCH  37  40
ATOM     40  C   UNL A   1      38.258  29.591  30.138  1.00  0.00     0.039 A 
ATOM     41  C   UNL A   1      39.392  30.287  29.704  1.00  0.00     0.014 A 
ATOM     42  C   UNL A   1      38.262  28.203  30.184  1.00  0.00     0.014 A 
ATOM     43  C   UNL A   1      40.543  29.573  29.373  1.00  0.00     0.010 A 
ATOM     44  C   UNL A   1      39.442  27.523  30.053  1.00  0.00     0.010 A 
ATOM     45  C   UNL A   1      40.566  28.185  29.565  1.00  0.00    -0.014 A 
BRANCH  45  46
ATOM     46  C   UNL A   1      41.785  27.392  29.390  1.00  0.00     0.031 A 
ATOM     47  C   UNL A   1      42.745  27.424  30.551  1.00  0.00     0.074 A 
ATOM     48  C   UNL A   1      41.848  26.478  28.385  1.00  0.00     0.049 A 
ATOM     49  N   UNL A   1      44.036  27.348  30.534  1.00  0.00    -0.248 NA
ATOM     50  C   UNL A   1      42.214  27.591  31.919  1.00  0.00     0.031 C 
ATOM     51  C   UNL A   1      40.821  26.167  27.374  1.00  0.00     0.029 A 
ATOM     52  N   UNL A   1      42.778  25.518  28.131  1.00  0.00    -0.354 N 
ATOM     53  C   UNL A   1      44.458  27.291  31.865  1.00  0.00     0.074 A 
ATOM     54  C   UNL A   1      43.294  27.449  32.686  1.00  0.00     0.031 C 
ATOM     55  C   UNL A   1      41.064  24.957  26.824  1.00  0.00     0.029 A 
ATOM     56  C   UNL A   1      42.343  24.478  27.306  1.00  0.00     0.049 A 
ATOM     57  H   UNL A   1      43.689  25.554  28.502  1.00  0.00     0.167 HD
ATOM     58  C   UNL A   1      45.744  26.996  32.189  1.00  0.00     0.037 A 
ATOM     59  C   UNL A   1      42.976  23.296  27.079  1.00  0.00     0.037 A 
ATOM     60  C   UNL A   1      46.629  27.398  31.132  1.00  0.00     0.049 A 
ATOM     61  C   UNL A   1      44.371  23.458  27.559  1.00  0.00     0.074 A 
ATOM     62  C   UNL A   1      46.858  28.619  30.522  1.00  0.00     0.029 A 
ATOM     63  N   UNL A   1      47.084  26.447  30.253  1.00  0.00    -0.354 N 
ATOM     64  N   UNL A   1      45.254  24.221  26.978  1.00  0.00    -0.248 NA
ATOM     65  C   UNL A   1      44.626  23.145  28.957  1.00  0.00     0.031 C 
ATOM     66  C   UNL A   1      46.889  28.316  29.132  1.00  0.00     0.029 A 
ATOM     67  C   UNL A   1      46.812  26.930  28.996  1.00  0.00     0.049 A 
ATOM     68  H   UNL A   1      47.516  25.593  30.478  1.00  0.00     0.167 HD
ATOM     69  C   UNL A   1      45.913  24.842  28.025  1.00  0.00     0.074 A 
ATOM     70  C   UNL A   1      45.524  24.097  29.224  1.00  0.00     0.031 C 
ATOM     71  C   UNL A   1      46.468  26.081  27.884  1.00  0.00     0.037 A 
BRANCH  58  72
ATOM     72  C   UNL A   1      46.136  26.015  33.260  1.00  0.00     0.057 A 
ATOM     73  C   UNL A   1      45.524  24.749  33.290  1.00  0.00     0.134 A 
ATOM     74  C   UNL A   1      46.813  26.386  34.438  1.00  0.00     0.134 A 
ATOM     75  F   UNL A   1      44.860  24.280  32.223  1.00  0.00    -0.206 F 
ATOM     76  C   UNL A   1      45.490  23.960  34.446  1.00  0.00     0.040 A 
ATOM     77  C   UNL A   1      46.813  25.591  35.588  1.00  0.00     0.040 A 
ATOM     78  F   UNL A   1      47.424  27.572  34.561  1.00  0.00    -0.206 F 
ATOM     79  C   UNL A   1      46.117  24.392  35.607  1.00  0.00     0.006 A 
ENDBRANCH  58  72
BRANCH  59  80
ATOM     80  C   UNL A   1      42.438  21.952  26.739  1.00  0.00     0.057 A 
ATOM     81  C   UNL A   1      43.077  21.146  25.783  1.00  0.00     0.134 A 
ATOM     82  C   UNL A   1      41.479  21.306  27.537  1.00  0.00     0.134 A 
ATOM     83  F   UNL A   1      44.026  21.657  24.984  1.00  0.00    -0.206 F 
ATOM     84  C   UNL A   1      42.818  19.772  25.661  1.00  0.00     0.040 A 
ATOM     85  C   UNL A   1      41.204  19.937  27.421  1.00  0.00     0.040 A 
ATOM     86  F   UNL A   1      40.838  21.960  28.515  1.00  0.00    -0.206 F 
ATOM     87  C   UNL A   1      41.890  19.160  26.495  1.00  0.00     0.006 A 
ENDBRANCH  59  80
BRANCH  71  88
ATOM     88  C   UNL A   1      46.529  26.703  26.516  1.00  0.00     0.057 A 
ATOM     89  C   UNL A   1      45.534  27.525  25.962  1.00  0.00     0.134 A 
ATOM     90  C   UNL A   1      47.728  26.604  25.801  1.00  0.00     0.134 A 
ATOM     91  F   UNL A   1      44.393  27.781  26.613  1.00  0.00    -0.206 F 
ATOM     92  C   UNL A   1      45.710  28.174  24.736  1.00  0.00     0.040 A 
ATOM     93  C   UNL A   1      47.931  27.280  24.597  1.00  0.00     0.040 A 
ATOM     94  F   UNL A   1      48.751  25.885  26.292  1.00  0.00    -0.206 F 
ATOM     95  C   UNL A   1      46.916  28.058  24.052  1.00  0.00     0.006 A 
ENDBRANCH  71  88
ENDBRANCH  45  46
ENDBRANCH  37  40
ENDBRANCH  35  36
ENDBRANCH  34  35
ENDBRANCH  33  34
ENDBRANCH   3  33
TORSDOF 16
ENDMDL
MODEL 3
REMARK VINA RESULT:     -12.4      4.471      9.122
REMARK SMILES NS(=O)(=O)c1ccc(-n2nc(C(F)(F)F)cc2-c2ccc(CC(=O)NCCCNC(=O)c3ccc(-c4c5nc(c(-c6c(F)cccc6F)c6ccc([nH]6)c(-c6c(F)cccc6F)c6nc(c(-c7c(F)cccc7F)c7ccc4[nH]7)C=C6)C=C5)cc3)cc2)cc1
REMARK SMILES IDX 23 1 24 2 25 3 22 5 21 6 18 7 19 8 87 9 20 10 86 11 17 12
REMARK SMILES IDX 9 13 10 14 11 15 16 16 8 17 5 18 6 19 89 20 7 21 88 22 2 23
REMARK SMILES IDX 3 24 4 25 1 26 12 29 13 30 14 31 15 32 26 33 27 34 28 35
REMARK SMILES IDX 29 36 30 37 31 39 32 40 33 41 85 42 34 43 84 44 35 45 36 46
REMARK SMILES IDX 37 47 78 48 38 49 83 50 77 51 79 52 39 53 82 54 76 55 75 56
REMARK SMILES IDX 40 58 66 59 49 60 65 61 50 62 53 63 64 64 80 65 51 66 52 67
REMARK SMILES IDX 63 69 81 70 54 71 41 72 42 73 47 74 43 75 44 76 46 77 48 78
REMARK SMILES IDX 45 79 67 80 68 81 73 82 69 83 70 84 72 85 74 86 71 87 55 88
REMARK SMILES IDX 56 89 61 90 57 91 58 92 60 93 62 94 59 95
REMARK H PARENT 25 4 1 27 1 28 29 38 79 57 53 68
REMARK Flexibility Score: inf
ROOT
ATOM      1  C   UNL A   1      34.891  30.743  28.132  1.00  0.00     0.224 C 
ATOM      2  O   UNL A   1      35.474  29.735  28.536  1.00  0.00    -0.275 OA
ATOM      3  N   UNL A   1      35.518  31.951  28.255  1.00  0.00    -0.356 N 
ATOM      4  H   UNL A   1      36.416  31.923  28.656  1.00  0.00     0.163 HD
ENDROOT
BRANCH   1   5
ATOM      5  C   UNL A   1      33.523  30.657  27.476  1.00  0.00     0.135 C 
BRANCH   5   6
ATOM      6  C   UNL A   1      33.228  29.316  26.845  1.00  0.00    -0.039 A 
ATOM      7  C   UNL A   1      32.622  26.858  25.595  1.00  0.00     0.000 A 
ATOM      8  C   UNL A   1      31.843  27.337  26.660  1.00  0.00     0.010 A 
ATOM      9  C   UNL A   1      33.740  27.597  25.198  1.00  0.00     0.010 A 
ATOM     10  C   UNL A   1      32.131  28.562  27.269  1.00  0.00     0.005 A 
ATOM     11  C   UNL A   1      34.047  28.808  25.827  1.00  0.00     0.005 A 
BRANCH   7  12
ATOM     12  C   UNL A   1      32.266  25.617  24.895  1.00  0.00     0.075 A 
ATOM     13  N   UNL A   1      31.201  25.472  24.012  1.00  0.00    -0.233 N 
ATOM     14  N   UNL A   1      30.942  24.177  23.720  1.00  0.00    -0.163 NA
ATOM     15  C   UNL A   1      31.987  23.498  24.231  1.00  0.00     0.167 A 
ATOM     16  C   UNL A   1      32.823  24.357  24.990  1.00  0.00     0.064 A 
BRANCH  13  17
ATOM     17  C   UNL A   1      30.405  26.503  23.467  1.00  0.00     0.065 A 
ATOM     18  C   UNL A   1      28.980  28.773  22.813  1.00  0.00     0.082 A 
ATOM     19  C   UNL A   1      30.296  28.638  22.366  1.00  0.00     0.024 A 
ATOM     20  C   UNL A   1      28.339  27.744  23.508  1.00  0.00     0.024 A 
ATOM     21  C   UNL A   1      31.017  27.503  22.700  1.00  0.00     0.030 A 
ATOM     22  C   UNL A   1      29.050  26.583  23.816  1.00  0.00     0.030 A 
BRANCH  18  23
ATOM     23  S   UNL A   1      28.144  30.277  22.444  1.00  0.00     0.238 S 
ATOM     24  O   UNL A   1      29.131  31.326  22.439  1.00  0.00    -0.207 OA
ATOM     25  O   UNL A   1      26.946  30.347  23.247  1.00  0.00    -0.207 OA
BRANCH  23  26
ATOM     26  N   UNL A   1      27.654  30.077  20.855  1.00  0.00    -0.225 NA
ATOM     27  H   UNL A   1      27.448  29.093  20.684  1.00  0.00     0.137 HD
ATOM     28  H   UNL A   1      28.398  30.384  20.229  1.00  0.00     0.137 HD
ENDBRANCH  23  26
ENDBRANCH  18  23
ENDBRANCH  13  17
BRANCH  15  29
ATOM     29  C   UNL A   1      32.185  22.023  24.013  1.00  0.00     0.435 C 
ATOM     30  F   UNL A   1      33.489  21.646  24.073  1.00  0.00    -0.164 F 
ATOM     31  F   UNL A   1      31.510  21.278  24.930  1.00  0.00    -0.164 F 
ATOM     32  F   UNL A   1      31.725  21.631  22.791  1.00  0.00    -0.164 F 
ENDBRANCH  15  29
ENDBRANCH   7  12
ENDBRANCH   5   6
ENDBRANCH   1   5
BRANCH   3  33
ATOM     33  C   UNL A   1      35.045  33.272  27.874  1.00  0.00     0.117 C 
BRANCH  33  34
ATOM     34  C   UNL A   1      34.995  34.247  29.054  1.00  0.00     0.042 C 
BRANCH  34  35
ATOM     35  C   UNL A   1      33.762  34.048  29.922  1.00  0.00     0.118 C 
BRANCH  35  36
ATOM     36  N   UNL A   1      33.766  34.883  31.122  1.00  0.00    -0.352 N 
ATOM     37  C   UNL A   1      34.475  34.702  32.293  1.00  0.00     0.251 C 
ATOM     38  H   UNL A   1      33.188  35.680  31.091  1.00  0.00     0.163 HD
ATOM     39  O   UNL A   1      34.120  35.258  33.326  1.00  0.00    -0.269 OA
BRANCH  37  40
ATOM     40  C   UNL A   1      35.666  33.836  32.291  1.00  0.00     0.039 A 
ATOM     41  C   UNL A   1      35.559  32.442  32.347  1.00  0.00     0.014 A 
ATOM     42  C   UNL A   1      36.915  34.442  32.239  1.00  0.00     0.014 A 
ATOM     43  C   UNL A   1      36.718  31.668  32.294  1.00  0.00     0.010 A 
ATOM     44  C   UNL A   1      38.026  33.686  31.987  1.00  0.00     0.010 A 
ATOM     45  C   UNL A   1      37.953  32.300  32.097  1.00  0.00    -0.014 A 
BRANCH  45  46
ATOM     46  C   UNL A   1      39.190  31.545  31.874  1.00  0.00     0.031 A 
ATOM     47  C   UNL A   1      39.957  31.186  33.120  1.00  0.00     0.074 A 
ATOM     48  C   UNL A   1      39.414  30.976  30.660  1.00  0.00     0.049 A 
ATOM     49  N   UNL A   1      41.235  31.064  33.275  1.00  0.00    -0.248 NA
ATOM     50  C   UNL A   1      39.217  30.954  34.378  1.00  0.00     0.031 C 
ATOM     51  C   UNL A   1      38.559  31.027  29.459  1.00  0.00     0.029 A 
ATOM     52  N   UNL A   1      40.378  30.098  30.268  1.00  0.00    -0.354 N 
ATOM     53  C   UNL A   1      41.444  30.590  34.573  1.00  0.00     0.074 A 
ATOM     54  C   UNL A   1      40.166  30.542  35.218  1.00  0.00     0.031 C 
ATOM     55  C   UNL A   1      38.892  30.031  28.611  1.00  0.00     0.029 A 
ATOM     56  C   UNL A   1      40.083  29.375  29.111  1.00  0.00     0.049 A 
ATOM     57  H   UNL A   1      41.220  29.983  30.765  1.00  0.00     0.167 HD
ATOM     58  C   UNL A   1      42.666  30.157  34.981  1.00  0.00     0.037 A 
ATOM     59  C   UNL A   1      40.750  28.291  28.632  1.00  0.00     0.037 A 
ATOM     60  C   UNL A   1      43.703  30.822  34.243  1.00  0.00     0.049 A 
ATOM     61  C   UNL A   1      42.053  28.242  29.342  1.00  0.00     0.074 A 
ATOM     62  C   UNL A   1      44.017  32.159  34.075  1.00  0.00     0.029 A 
ATOM     63  N   UNL A   1      44.294  30.163  33.195  1.00  0.00    -0.354 N 
ATOM     64  N   UNL A   1      43.011  29.107  29.161  1.00  0.00    -0.248 NA
ATOM     65  C   UNL A   1      42.088  27.512  30.601  1.00  0.00     0.031 C 
ATOM     66  C   UNL A   1      44.266  32.289  32.680  1.00  0.00     0.029 A 
ATOM     67  C   UNL A   1      44.219  31.012  32.119  1.00  0.00     0.049 A 
ATOM     68  H   UNL A   1      44.691  29.263  33.212  1.00  0.00     0.167 HD
ATOM     69  C   UNL A   1      43.495  29.355  30.435  1.00  0.00     0.074 A 
ATOM     70  C   UNL A   1      42.928  28.300  31.277  1.00  0.00     0.031 C 
ATOM     71  C   UNL A   1      44.058  30.554  30.762  1.00  0.00     0.037 A 
BRANCH  58  72
ATOM     72  C   UNL A   1      42.891  28.884  35.749  1.00  0.00     0.057 A 
ATOM     73  C   UNL A   1      43.790  28.884  36.831  1.00  0.00     0.134 A 
ATOM     74  C   UNL A   1      42.537  27.612  35.258  1.00  0.00     0.134 A 
ATOM     75  F   UNL A   1      44.192  30.034  37.393  1.00  0.00    -0.206 F 
ATOM     76  C   UNL A   1      44.382  27.710  37.313  1.00  0.00     0.040 A 
ATOM     77  C   UNL A   1      43.097  26.431  35.754  1.00  0.00     0.040 A 
ATOM     78  F   UNL A   1      41.707  27.460  34.217  1.00  0.00    -0.206 F 
ATOM     79  C   UNL A   1      44.052  26.480  36.759  1.00  0.00     0.006 A 
ENDBRANCH  58  72
BRANCH  59  80
ATOM     80  C   UNL A   1      40.280  27.137  27.823  1.00  0.00     0.057 A 
ATOM     81  C   UNL A   1      40.860  26.852  26.575  1.00  0.00     0.134 A 
ATOM     82  C   UNL A   1      39.474  26.121  28.365  1.00  0.00     0.134 A 
ATOM     83  F   UNL A   1      41.665  27.743  25.979  1.00  0.00    -0.206 F 
ATOM     84  C   UNL A   1      40.693  25.617  25.931  1.00  0.00     0.040 A 
ATOM     85  C   UNL A   1      39.292  24.886  27.729  1.00  0.00     0.040 A 
ATOM     86  F   UNL A   1      38.906  26.257  29.571  1.00  0.00    -0.206 F 
ATOM     87  C   UNL A   1      39.920  24.622  26.517  1.00  0.00     0.006 A 
ENDBRANCH  59  80
BRANCH  71  88
ATOM     88  C   UNL A   1      44.328  31.557  29.674  1.00  0.00     0.057 A 
ATOM     89  C   UNL A   1      43.420  32.537  29.241  1.00  0.00     0.134 A 
ATOM     90  C   UNL A   1      45.629  31.641  29.166  1.00  0.00     0.134 A 
ATOM     91  F   UNL A   1      42.184  32.618  29.746  1.00  0.00    -0.206 F 
ATOM     92  C   UNL A   1      43.780  33.519  28.313  1.00  0.00     0.040 A 
ATOM     93  C   UNL A   1      46.012  32.642  28.271  1.00  0.00     0.040 A 
ATOM     94  F   UNL A   1      46.573  30.778  29.575  1.00  0.00    -0.206 F 
ATOM     95  C   UNL A   1      45.083  33.578  27.830  1.00  0.00     0.006 A 
ENDBRANCH  71  88
ENDBRANCH  45  46
ENDBRANCH  37  40
ENDBRANCH  35  36
ENDBRANCH  34  35
ENDBRANCH  33  34
ENDBRANCH   3  33
TORSDOF 16
ENDMDL
