MODEL 1
REMARK VINA RESULT:     -13.1      0.000      0.000
REMARK SMILES Cc1ccc(-c2cc(OCC(=O)NCCCNC(=O)c3ccc(-c4c5nc(c(-c6c(F)cccc6F)c6ccc([nH]6)c(-c6c(F)cccc6F)c6nc(c(-c7c(F)cccc7F)c7ccc4[nH]7)C=C6)C=C5)cc3)nc(NCc3ccc4c(c3)OCO4)n2)cc1
REMARK SMILES IDX 11 1 12 2 13 3 10 5 9 6 8 7 6 8 7 9 87 10 75 11 74 12 5 13
REMARK SMILES IDX 1 14 2 15 3 16 89 17 4 18 88 19 76 20 77 22 78 23 79 24
REMARK SMILES IDX 83 25 80 26 82 27 81 28 84 29 86 30 85 31 14 32 15 33 16 34
REMARK SMILES IDX 17 35 18 36 19 38 20 39 21 40 73 41 22 42 72 43 23 44 24 45
REMARK SMILES IDX 25 46 66 47 26 48 71 49 65 50 67 51 27 52 70 53 64 54 63 55
REMARK SMILES IDX 28 57 54 58 37 59 53 60 38 61 41 62 52 63 68 64 39 65 40 66
REMARK SMILES IDX 51 68 69 69 42 70 29 71 30 72 35 73 31 74 32 75 34 76 36 77
REMARK SMILES IDX 33 78 55 79 56 80 61 81 57 82 58 83 60 84 62 85 59 86 43 87
REMARK SMILES IDX 44 88 49 89 45 90 46 91 48 92 50 93 47 94
REMARK H PARENT 13 4 76 21 17 37 67 56 41 67
REMARK Flexibility Score: inf
ROOT
ATOM      1  C   UNL A   1      38.124  21.519  25.392  1.00  0.00     0.258 C 
ATOM      2  O   UNL A   1      37.578  20.590  24.793  1.00  0.00    -0.271 OA
ATOM      3  N   UNL A   1      39.346  21.307  25.964  1.00  0.00    -0.353 N 
ATOM      4  H   UNL A   1      39.701  20.391  25.887  1.00  0.00     0.163 HD
ENDROOT
BRANCH   1   5
ATOM      5  C   UNL A   1      37.456  22.894  25.506  1.00  0.00     0.331 C 
BRANCH   5   6
ATOM      6  O   UNL A   1      36.643  23.261  24.403  1.00  0.00    -0.467 OA
BRANCH   6   7
ATOM      7  C   UNL A   1      35.374  23.699  24.667  1.00  0.00     0.219 A 
ATOM      8  C   UNL A   1      33.714  25.171  25.389  1.00  0.00     0.080 A 
ATOM      9  C   UNL A   1      35.058  24.904  25.237  1.00  0.00     0.097 A 
ATOM     10  N   UNL A   1      32.755  24.284  25.065  1.00  0.00    -0.213 NA
ATOM     11  C   UNL A   1      33.155  23.131  24.521  1.00  0.00     0.226 A 
ATOM     12  N   UNL A   1      34.436  22.815  24.293  1.00  0.00    -0.177 NA
BRANCH   8  13
ATOM     13  C   UNL A   1      33.274  26.489  25.855  1.00  0.00     0.000 A 
ATOM     14  C   UNL A   1      31.893  30.439  26.955  1.00  0.00     0.044 C 
ATOM     15  C   UNL A   1      32.367  29.062  26.598  1.00  0.00    -0.051 A 
ATOM     16  C   UNL A   1      33.738  28.792  26.486  1.00  0.00     0.004 A 
ATOM     17  C   UNL A   1      31.452  28.036  26.351  1.00  0.00     0.004 A 
ATOM     18  C   UNL A   1      34.187  27.516  26.126  1.00  0.00     0.010 A 
ATOM     19  C   UNL A   1      31.902  26.766  25.983  1.00  0.00     0.010 A 
ENDBRANCH   8  13
BRANCH  11  20
ATOM     20  N   UNL A   1      32.244  22.189  24.121  1.00  0.00    -0.350 N 
ATOM     21  H   UNL A   1      31.881  22.231  23.207  1.00  0.00     0.164 HD
BRANCH  20  22
ATOM     22  C   UNL A   1      31.805  21.141  25.006  1.00  0.00     0.152 C 
BRANCH  22  23
ATOM     23  C   UNL A   1      32.310  19.765  24.604  1.00  0.00    -0.025 A 
ATOM     24  C   UNL A   1      32.329  19.428  23.228  1.00  0.00     0.009 A 
ATOM     25  C   UNL A   1      32.776  18.822  25.539  1.00  0.00     0.056 A 
ATOM     26  C   UNL A   1      32.756  18.168  22.790  1.00  0.00     0.051 A 
ATOM     27  C   UNL A   1      33.168  17.581  25.081  1.00  0.00     0.166 A 
ATOM     28  C   UNL A   1      33.151  17.260  23.746  1.00  0.00     0.165 A 
ATOM     29  O   UNL A   1      33.581  16.545  25.860  1.00  0.00    -0.454 OA
ATOM     30  O   UNL A   1      33.546  15.979  23.518  1.00  0.00    -0.454 OA
ATOM     31  C   UNL A   1      33.673  15.497  24.873  1.00  0.00     0.468 C 
ENDBRANCH  22  23
ENDBRANCH  20  22
ENDBRANCH  11  20
ENDBRANCH   6   7
ENDBRANCH   5   6
ENDBRANCH   1   5
BRANCH   3  32
ATOM     32  C   UNL A   1      40.193  22.253  26.671  1.00  0.00     0.117 C 
BRANCH  32  33
ATOM     33  C   UNL A   1      41.623  22.288  26.146  1.00  0.00     0.042 C 
BRANCH  33  34
ATOM     34  C   UNL A   1      42.398  21.005  26.399  1.00  0.00     0.118 C 
BRANCH  34  35
ATOM     35  N   UNL A   1      43.279  20.597  25.308  1.00  0.00    -0.352 N 
ATOM     36  C   UNL A   1      44.332  21.266  24.710  1.00  0.00     0.251 C 
ATOM     37  H   UNL A   1      43.094  19.703  24.939  1.00  0.00     0.163 HD
ATOM     38  O   UNL A   1      44.902  20.752  23.758  1.00  0.00    -0.269 OA
BRANCH  36  39
ATOM     39  C   UNL A   1      44.869  22.527  25.297  1.00  0.00     0.039 A 
ATOM     40  C   UNL A   1      45.311  22.498  26.630  1.00  0.00     0.014 A 
ATOM     41  C   UNL A   1      44.767  23.746  24.640  1.00  0.00     0.014 A 
ATOM     42  C   UNL A   1      45.381  23.683  27.361  1.00  0.00     0.010 A 
ATOM     43  C   UNL A   1      44.719  24.905  25.384  1.00  0.00     0.010 A 
ATOM     44  C   UNL A   1      44.958  24.865  26.760  1.00  0.00    -0.014 A 
BRANCH  44  45
ATOM     45  C   UNL A   1      44.598  26.075  27.487  1.00  0.00     0.031 A 
ATOM     46  C   UNL A   1      43.226  26.619  27.428  1.00  0.00     0.074 A 
ATOM     47  C   UNL A   1      45.479  26.571  28.384  1.00  0.00     0.049 A 
ATOM     48  N   UNL A   1      42.896  27.802  27.820  1.00  0.00    -0.248 NA
ATOM     49  C   UNL A   1      42.105  25.860  26.889  1.00  0.00     0.031 C 
ATOM     50  C   UNL A   1      45.204  27.495  29.480  1.00  0.00     0.029 A 
ATOM     51  N   UNL A   1      46.876  26.468  28.360  1.00  0.00    -0.354 N 
ATOM     52  C   UNL A   1      41.522  27.870  27.857  1.00  0.00     0.074 A 
ATOM     53  C   UNL A   1      41.080  26.656  27.208  1.00  0.00     0.031 C 
ATOM     54  C   UNL A   1      46.350  28.094  29.836  1.00  0.00     0.029 A 
ATOM     55  C   UNL A   1      47.361  27.693  28.875  1.00  0.00     0.049 A 
ATOM     56  H   UNL A   1      47.410  25.702  28.048  1.00  0.00     0.167 HD
ATOM     57  C   UNL A   1      40.925  28.891  28.540  1.00  0.00     0.037 A 
ATOM     58  C   UNL A   1      48.068  28.549  28.080  1.00  0.00     0.037 A 
ATOM     59  C   UNL A   1      41.918  29.831  29.064  1.00  0.00     0.049 A 
ATOM     60  C   UNL A   1      47.413  29.894  27.849  1.00  0.00     0.074 A 
ATOM     61  C   UNL A   1      42.507  30.027  30.303  1.00  0.00     0.029 A 
ATOM     62  N   UNL A   1      42.655  30.583  28.170  1.00  0.00    -0.354 N 
ATOM     63  N   UNL A   1      46.235  30.225  28.299  1.00  0.00    -0.248 NA
ATOM     64  C   UNL A   1      47.998  30.944  27.012  1.00  0.00     0.031 C 
ATOM     65  C   UNL A   1      43.625  30.894  30.132  1.00  0.00     0.029 A 
ATOM     66  C   UNL A   1      43.708  31.223  28.791  1.00  0.00     0.049 A 
ATOM     67  H   UNL A   1      42.454  30.654  27.208  1.00  0.00     0.167 HD
ATOM     68  C   UNL A   1      45.872  31.437  27.778  1.00  0.00     0.074 A 
ATOM     69  C   UNL A   1      47.015  31.861  26.994  1.00  0.00     0.031 C 
ATOM     70  C   UNL A   1      44.643  31.985  27.982  1.00  0.00     0.037 A 
BRANCH  57  71
ATOM     71  C   UNL A   1      39.464  28.937  28.937  1.00  0.00     0.057 A 
ATOM     72  C   UNL A   1      38.493  29.425  28.038  1.00  0.00     0.134 A 
ATOM     73  C   UNL A   1      38.942  28.558  30.186  1.00  0.00     0.134 A 
ATOM     74  F   UNL A   1      38.790  29.715  26.765  1.00  0.00    -0.206 F 
ATOM     75  C   UNL A   1      37.154  29.637  28.395  1.00  0.00     0.040 A 
ATOM     76  C   UNL A   1      37.619  28.812  30.576  1.00  0.00     0.040 A 
ATOM     77  F   UNL A   1      39.660  27.854  31.067  1.00  0.00    -0.206 F 
ATOM     78  C   UNL A   1      36.720  29.369  29.682  1.00  0.00     0.006 A 
ENDBRANCH  57  71
BRANCH  58  79
ATOM     79  C   UNL A   1      48.914  27.833  27.090  1.00  0.00     0.057 A 
ATOM     80  C   UNL A   1      48.414  27.650  25.789  1.00  0.00     0.134 A 
ATOM     81  C   UNL A   1      50.294  27.704  27.269  1.00  0.00     0.134 A 
ATOM     82  F   UNL A   1      47.097  27.763  25.550  1.00  0.00    -0.206 F 
ATOM     83  C   UNL A   1      49.261  27.467  24.694  1.00  0.00     0.040 A 
ATOM     84  C   UNL A   1      51.151  27.510  26.180  1.00  0.00     0.040 A 
ATOM     85  F   UNL A   1      50.846  27.890  28.478  1.00  0.00    -0.206 F 
ATOM     86  C   UNL A   1      50.639  27.433  24.886  1.00  0.00     0.006 A 
ENDBRANCH  58  79
BRANCH  70  87
ATOM     87  C   UNL A   1      44.228  33.307  27.419  1.00  0.00     0.057 A 
ATOM     88  C   UNL A   1      43.973  34.416  28.235  1.00  0.00     0.134 A 
ATOM     89  C   UNL A   1      43.934  33.463  26.052  1.00  0.00     0.134 A 
ATOM     90  F   UNL A   1      44.193  34.361  29.558  1.00  0.00    -0.206 F 
ATOM     91  C   UNL A   1      43.462  35.613  27.721  1.00  0.00     0.040 A 
ATOM     92  C   UNL A   1      43.381  34.636  25.533  1.00  0.00     0.040 A 
ATOM     93  F   UNL A   1      44.188  32.487  25.167  1.00  0.00    -0.206 F 
ATOM     94  C   UNL A   1      43.147  35.719  26.369  1.00  0.00     0.006 A 
ENDBRANCH  70  87
ENDBRANCH  44  45
ENDBRANCH  36  39
ENDBRANCH  34  35
ENDBRANCH  33  34
ENDBRANCH  32  33
ENDBRANCH   3  32
TORSDOF 16
ENDMDL
MODEL 2
REMARK VINA RESULT:     -13.1      3.152      6.328
REMARK SMILES Cc1ccc(-c2cc(OCC(=O)NCCCNC(=O)c3ccc(-c4c5nc(c(-c6c(F)cccc6F)c6ccc([nH]6)c(-c6c(F)cccc6F)c6nc(c(-c7c(F)cccc7F)c7ccc4[nH]7)C=C6)C=C5)cc3)nc(NCc3ccc4c(c3)OCO4)n2)cc1
REMARK SMILES IDX 11 1 12 2 13 3 10 5 9 6 8 7 6 8 7 9 87 10 75 11 74 12 5 13
REMARK SMILES IDX 1 14 2 15 3 16 89 17 4 18 88 19 76 20 77 22 78 23 79 24
REMARK SMILES IDX 83 25 80 26 82 27 81 28 84 29 86 30 85 31 14 32 15 33 16 34
REMARK SMILES IDX 17 35 18 36 19 38 20 39 21 40 73 41 22 42 72 43 23 44 24 45
REMARK SMILES IDX 25 46 66 47 26 48 71 49 65 50 67 51 27 52 70 53 64 54 63 55
REMARK SMILES IDX 28 57 54 58 37 59 53 60 38 61 41 62 52 63 68 64 39 65 40 66
REMARK SMILES IDX 51 68 69 69 42 70 29 71 30 72 35 73 31 74 32 75 34 76 36 77
REMARK SMILES IDX 33 78 55 79 56 80 61 81 57 82 58 83 60 84 62 85 59 86 43 87
REMARK SMILES IDX 44 88 49 89 45 90 46 91 48 92 50 93 47 94
REMARK H PARENT 13 4 76 21 17 37 67 56 41 67
REMARK Flexibility Score: inf
ROOT
ATOM      1  C   UNL A   1      36.271  23.538  25.147  1.00  0.00     0.258 C 
ATOM      2  O   UNL A   1      35.742  24.472  25.752  1.00  0.00    -0.271 OA
ATOM      3  N   UNL A   1      36.916  22.570  25.864  1.00  0.00    -0.353 N 
ATOM      4  H   UNL A   1      36.945  22.707  26.838  1.00  0.00     0.163 HD
ENDROOT
BRANCH   1   5
ATOM      5  C   UNL A   1      36.220  23.449  23.617  1.00  0.00     0.331 C 
BRANCH   5   6
ATOM      6  O   UNL A   1      34.962  23.758  23.039  1.00  0.00    -0.467 OA
BRANCH   6   7
ATOM      7  C   UNL A   1      33.891  22.987  23.400  1.00  0.00     0.219 A 
ATOM      8  C   UNL A   1      32.728  21.036  23.932  1.00  0.00     0.080 A 
ATOM      9  C   UNL A   1      33.907  21.623  23.526  1.00  0.00     0.097 A 
ATOM     10  N   UNL A   1      31.596  21.738  24.132  1.00  0.00    -0.213 NA
ATOM     11  C   UNL A   1      31.671  23.063  23.979  1.00  0.00     0.226 A 
ATOM     12  N   UNL A   1      32.789  23.716  23.636  1.00  0.00    -0.177 NA
BRANCH   8  13
ATOM     13  C   UNL A   1      32.685  19.603  24.234  1.00  0.00     0.000 A 
ATOM     14  C   UNL A   1      32.848  15.384  25.181  1.00  0.00     0.044 C 
ATOM     15  C   UNL A   1      32.767  16.846  24.860  1.00  0.00    -0.051 A 
ATOM     16  C   UNL A   1      32.669  17.274  23.529  1.00  0.00     0.004 A 
ATOM     17  C   UNL A   1      32.810  17.802  25.877  1.00  0.00     0.004 A 
ATOM     18  C   UNL A   1      32.620  18.639  23.219  1.00  0.00     0.010 A 
ATOM     19  C   UNL A   1      32.770  19.163  25.567  1.00  0.00     0.010 A 
ENDBRANCH   8  13
BRANCH  11  20
ATOM     20  N   UNL A   1      30.579  23.859  24.205  1.00  0.00    -0.350 N 
ATOM     21  H   UNL A   1      29.695  23.562  23.889  1.00  0.00     0.164 HD
BRANCH  20  22
ATOM     22  C   UNL A   1      30.693  25.120  24.891  1.00  0.00     0.152 C 
BRANCH  22  23
ATOM     23  C   UNL A   1      30.300  26.310  24.031  1.00  0.00    -0.025 A 
ATOM     24  C   UNL A   1      31.311  26.971  23.289  1.00  0.00     0.009 A 
ATOM     25  C   UNL A   1      28.973  26.769  23.926  1.00  0.00     0.056 A 
ATOM     26  C   UNL A   1      31.023  28.089  22.498  1.00  0.00     0.051 A 
ATOM     27  C   UNL A   1      28.724  27.887  23.158  1.00  0.00     0.166 A 
ATOM     28  C   UNL A   1      29.721  28.534  22.470  1.00  0.00     0.165 A 
ATOM     29  O   UNL A   1      27.513  28.489  23.008  1.00  0.00    -0.454 OA
ATOM     30  O   UNL A   1      29.263  29.628  21.805  1.00  0.00    -0.454 OA
ATOM     31  C   UNL A   1      27.898  29.669  22.273  1.00  0.00     0.468 C 
ENDBRANCH  22  23
ENDBRANCH  20  22
ENDBRANCH  11  20
ENDBRANCH   6   7
ENDBRANCH   5   6
ENDBRANCH   1   5
BRANCH   3  32
ATOM     32  C   UNL A   1      37.564  21.363  25.378  1.00  0.00     0.117 C 
BRANCH  32  33
ATOM     33  C   UNL A   1      39.054  21.313  25.695  1.00  0.00     0.042 C 
BRANCH  33  34
ATOM     34  C   UNL A   1      39.534  22.471  26.557  1.00  0.00     0.118 C 
BRANCH  34  35
ATOM     35  N   UNL A   1      40.940  22.822  26.381  1.00  0.00    -0.352 N 
ATOM     36  C   UNL A   1      41.564  24.057  26.406  1.00  0.00     0.251 C 
ATOM     37  H   UNL A   1      41.541  22.059  26.218  1.00  0.00     0.163 HD
ATOM     38  O   UNL A   1      42.762  24.125  26.172  1.00  0.00    -0.269 OA
BRANCH  36  39
ATOM     39  C   UNL A   1      40.830  25.276  26.854  1.00  0.00     0.039 A 
ATOM     40  C   UNL A   1      40.928  26.432  26.064  1.00  0.00     0.014 A 
ATOM     41  C   UNL A   1      40.225  25.352  28.102  1.00  0.00     0.014 A 
ATOM     42  C   UNL A   1      40.675  27.680  26.631  1.00  0.00     0.010 A 
ATOM     43  C   UNL A   1      40.087  26.584  28.703  1.00  0.00     0.010 A 
ATOM     44  C   UNL A   1      40.378  27.749  27.989  1.00  0.00    -0.014 A 
BRANCH  44  45
ATOM     45  C   UNL A   1      40.481  28.959  28.794  1.00  0.00     0.031 A 
ATOM     46  C   UNL A   1      39.364  29.923  28.867  1.00  0.00     0.074 A 
ATOM     47  C   UNL A   1      41.528  29.079  29.640  1.00  0.00     0.049 A 
ATOM     48  N   UNL A   1      39.468  31.120  29.335  1.00  0.00    -0.248 NA
ATOM     49  C   UNL A   1      38.026  29.609  28.384  1.00  0.00     0.031 C 
ATOM     50  C   UNL A   1      41.639  29.966  30.794  1.00  0.00     0.029 A 
ATOM     51  N   UNL A   1      42.809  28.529  29.502  1.00  0.00    -0.354 N 
ATOM     52  C   UNL A   1      38.197  31.630  29.482  1.00  0.00     0.074 A 
ATOM     53  C   UNL A   1      37.342  30.673  28.817  1.00  0.00     0.031 C 
ATOM     54  C   UNL A   1      42.937  30.134  31.085  1.00  0.00     0.029 A 
ATOM     55  C   UNL A   1      43.701  29.491  30.032  1.00  0.00     0.049 A 
ATOM     56  H   UNL A   1      43.041  27.653  29.117  1.00  0.00     0.167 HD
ATOM     57  C   UNL A   1      38.012  32.741  30.254  1.00  0.00     0.037 A 
ATOM     58  C   UNL A   1      44.602  30.121  29.222  1.00  0.00     0.037 A 
ATOM     59  C   UNL A   1      39.289  33.269  30.739  1.00  0.00     0.049 A 
ATOM     60  C   UNL A   1      44.415  31.618  29.103  1.00  0.00     0.074 A 
ATOM     61  C   UNL A   1      39.982  33.178  31.936  1.00  0.00     0.029 A 
ATOM     62  N   UNL A   1      40.179  33.798  29.824  1.00  0.00    -0.354 N 
ATOM     63  N   UNL A   1      43.440  32.284  29.657  1.00  0.00    -0.248 NA
ATOM     64  C   UNL A   1      45.263  32.474  28.269  1.00  0.00     0.031 C 
ATOM     65  C   UNL A   1      41.311  33.643  31.716  1.00  0.00     0.029 A 
ATOM     66  C   UNL A   1      41.419  34.016  30.389  1.00  0.00     0.049 A 
ATOM     67  H   UNL A   1      39.955  33.995  28.886  1.00  0.00     0.167 HD
ATOM     68  C   UNL A   1      43.468  33.581  29.220  1.00  0.00     0.074 A 
ATOM     69  C   UNL A   1      44.638  33.661  28.368  1.00  0.00     0.031 C 
ATOM     70  C   UNL A   1      42.502  34.485  29.543  1.00  0.00     0.037 A 
BRANCH  57  71
ATOM     71  C   UNL A   1      36.674  33.234  30.766  1.00  0.00     0.057 A 
ATOM     72  C   UNL A   1      35.732  33.796  29.880  1.00  0.00     0.134 A 
ATOM     73  C   UNL A   1      36.257  33.224  32.108  1.00  0.00     0.134 A 
ATOM     74  F   UNL A   1      35.909  33.775  28.552  1.00  0.00    -0.206 F 
ATOM     75  C   UNL A   1      34.546  34.408  30.308  1.00  0.00     0.040 A 
ATOM     76  C   UNL A   1      35.100  33.878  32.558  1.00  0.00     0.040 A 
ATOM     77  F   UNL A   1      36.902  32.521  33.043  1.00  0.00    -0.206 F 
ATOM     78  C   UNL A   1      34.245  34.488  31.657  1.00  0.00     0.006 A 
ENDBRANCH  57  71
BRANCH  58  79
ATOM     79  C   UNL A   1      45.104  29.237  28.138  1.00  0.00     0.057 A 
ATOM     80  C   UNL A   1      46.106  28.301  28.445  1.00  0.00     0.134 A 
ATOM     81  C   UNL A   1      44.363  29.022  26.972  1.00  0.00     0.134 A 
ATOM     82  F   UNL A   1      46.851  28.450  29.553  1.00  0.00    -0.206 F 
ATOM     83  C   UNL A   1      46.282  27.138  27.694  1.00  0.00     0.040 A 
ATOM     84  C   UNL A   1      44.538  27.866  26.205  1.00  0.00     0.040 A 
ATOM     85  F   UNL A   1      43.374  29.861  26.627  1.00  0.00    -0.206 F 
ATOM     86  C   UNL A   1      45.470  26.902  26.588  1.00  0.00     0.006 A 
ENDBRANCH  58  79
BRANCH  70  87
ATOM     87  C   UNL A   1      42.515  35.904  29.073  1.00  0.00     0.057 A 
ATOM     88  C   UNL A   1      41.895  36.298  27.881  1.00  0.00     0.134 A 
ATOM     89  C   UNL A   1      43.274  36.889  29.732  1.00  0.00     0.134 A 
ATOM     90  F   UNL A   1      41.171  35.426  27.162  1.00  0.00    -0.206 F 
ATOM     91  C   UNL A   1      42.017  37.598  27.377  1.00  0.00     0.040 A 
ATOM     92  C   UNL A   1      43.442  38.176  29.216  1.00  0.00     0.040 A 
ATOM     93  F   UNL A   1      43.869  36.641  30.909  1.00  0.00    -0.206 F 
ATOM     94  C   UNL A   1      42.808  38.535  28.035  1.00  0.00     0.006 A 
ENDBRANCH  70  87
ENDBRANCH  44  45
ENDBRANCH  36  39
ENDBRANCH  34  35
ENDBRANCH  33  34
ENDBRANCH  32  33
ENDBRANCH   3  32
TORSDOF 16
ENDMDL
MODEL 3
REMARK VINA RESULT:     -13.0      5.236     10.327
REMARK SMILES Cc1ccc(-c2cc(OCC(=O)NCCCNC(=O)c3ccc(-c4c5nc(c(-c6c(F)cccc6F)c6ccc([nH]6)c(-c6c(F)cccc6F)c6nc(c(-c7c(F)cccc7F)c7ccc4[nH]7)C=C6)C=C5)cc3)nc(NCc3ccc4c(c3)OCO4)n2)cc1
REMARK SMILES IDX 11 1 12 2 13 3 10 5 9 6 8 7 6 8 7 9 87 10 75 11 74 12 5 13
REMARK SMILES IDX 1 14 2 15 3 16 89 17 4 18 88 19 76 20 77 22 78 23 79 24
REMARK SMILES IDX 83 25 80 26 82 27 81 28 84 29 86 30 85 31 14 32 15 33 16 34
REMARK SMILES IDX 17 35 18 36 19 38 20 39 21 40 73 41 22 42 72 43 23 44 24 45
REMARK SMILES IDX 25 46 66 47 26 48 71 49 65 50 67 51 27 52 70 53 64 54 63 55
REMARK SMILES IDX 28 57 54 58 37 59 53 60 38 61 41 62 52 63 68 64 39 65 40 66
REMARK SMILES IDX 51 68 69 69 42 70 29 71 30 72 35 73 31 74 32 75 34 76 36 77
REMARK SMILES IDX 33 78 55 79 56 80 61 81 57 82 58 83 60 84 62 85 59 86 43 87
REMARK SMILES IDX 44 88 49 89 45 90 46 91 48 92 50 93 47 94
REMARK H PARENT 13 4 76 21 17 37 67 56 41 67
REMARK Flexibility Score: inf
ROOT
ATOM      1  C   UNL A   1      34.483  33.332  27.944  1.00  0.00     0.258 C 
ATOM      2  O   UNL A   1      35.632  33.081  27.577  1.00  0.00    -0.271 OA
ATOM      3  N   UNL A   1      34.174  34.610  28.314  1.00  0.00    -0.353 N 
ATOM      4  H   UNL A   1      34.920  35.253  28.296  1.00  0.00     0.163 HD
ENDROOT
BRANCH   1   5
ATOM      5  C   UNL A   1      33.407  32.241  27.994  1.00  0.00     0.331 C 
BRANCH   5   6
ATOM      6  O   UNL A   1      33.889  30.915  27.862  1.00  0.00    -0.467 OA
BRANCH   6   7
ATOM      7  C   UNL A   1      33.265  30.098  26.959  1.00  0.00     0.219 A 
ATOM      8  C   UNL A   1      31.763  29.506  25.276  1.00  0.00     0.080 A 
ATOM      9  C   UNL A   1      32.233  30.471  26.140  1.00  0.00     0.097 A 
ATOM     10  N   UNL A   1      32.231  28.244  25.270  1.00  0.00    -0.213 NA
ATOM     11  C   UNL A   1      33.234  27.967  26.108  1.00  0.00     0.226 A 
ATOM     12  N   UNL A   1      33.781  28.859  26.942  1.00  0.00    -0.177 NA
BRANCH   8  13
ATOM     13  C   UNL A   1      30.761  29.850  24.263  1.00  0.00     0.000 A 
ATOM     14  C   UNL A   1      28.023  30.948  21.097  1.00  0.00     0.044 C 
ATOM     15  C   UNL A   1      28.954  30.550  22.203  1.00  0.00    -0.051 A 
ATOM     16  C   UNL A   1      29.109  31.371  23.328  1.00  0.00     0.004 A 
ATOM     17  C   UNL A   1      29.697  29.370  22.119  1.00  0.00     0.004 A 
ATOM     18  C   UNL A   1      29.996  31.020  24.352  1.00  0.00     0.010 A 
ATOM     19  C   UNL A   1      30.589  29.026  23.136  1.00  0.00     0.010 A 
ENDBRANCH   8  13
BRANCH  11  20
ATOM     20  N   UNL A   1      33.801  26.719  26.137  1.00  0.00    -0.350 N 
ATOM     21  H   UNL A   1      34.201  26.394  26.976  1.00  0.00     0.164 HD
BRANCH  20  22
ATOM     22  C   UNL A   1      33.825  25.874  24.972  1.00  0.00     0.152 C 
BRANCH  22  23
ATOM     23  C   UNL A   1      33.663  24.398  25.296  1.00  0.00    -0.025 A 
ATOM     24  C   UNL A   1      33.610  24.008  26.658  1.00  0.00     0.009 A 
ATOM     25  C   UNL A   1      33.544  23.408  24.303  1.00  0.00     0.056 A 
ATOM     26  C   UNL A   1      33.488  22.663  27.028  1.00  0.00     0.051 A 
ATOM     27  C   UNL A   1      33.450  22.090  24.697  1.00  0.00     0.166 A 
ATOM     28  C   UNL A   1      33.431  21.726  26.022  1.00  0.00     0.165 A 
ATOM     29  O   UNL A   1      33.392  21.017  23.863  1.00  0.00    -0.454 OA
ATOM     30  O   UNL A   1      33.365  20.378  26.186  1.00  0.00    -0.454 OA
ATOM     31  C   UNL A   1      33.489  19.939  24.816  1.00  0.00     0.468 C 
ENDBRANCH  22  23
ENDBRANCH  20  22
ENDBRANCH  11  20
ENDBRANCH   6   7
ENDBRANCH   5   6
ENDBRANCH   1   5
BRANCH   3  32
ATOM     32  C   UNL A   1      32.890  35.148  28.732  1.00  0.00     0.117 C 
BRANCH  32  33
ATOM     33  C   UNL A   1      33.006  36.186  29.841  1.00  0.00     0.042 C 
BRANCH  33  34
ATOM     34  C   UNL A   1      32.457  35.715  31.179  1.00  0.00     0.118 C 
BRANCH  34  35
ATOM     35  N   UNL A   1      33.239  36.128  32.341  1.00  0.00    -0.352 N 
ATOM     36  C   UNL A   1      34.294  35.500  32.979  1.00  0.00     0.251 C 
ATOM     37  H   UNL A   1      32.974  36.992  32.733  1.00  0.00     0.163 HD
ATOM     38  O   UNL A   1      34.769  36.006  33.985  1.00  0.00    -0.269 OA
BRANCH  36  39
ATOM     39  C   UNL A   1      34.948  34.302  32.377  1.00  0.00     0.039 A 
ATOM     40  C   UNL A   1      35.006  33.128  33.144  1.00  0.00     0.014 A 
ATOM     41  C   UNL A   1      35.655  34.372  31.184  1.00  0.00     0.014 A 
ATOM     42  C   UNL A   1      35.967  32.160  32.855  1.00  0.00     0.010 A 
ATOM     43  C   UNL A   1      36.682  33.482  30.962  1.00  0.00     0.010 A 
ATOM     44  C   UNL A   1      36.883  32.412  31.838  1.00  0.00    -0.014 A 
BRANCH  44  45
ATOM     45  C   UNL A   1      38.152  31.714  31.682  1.00  0.00     0.031 A 
ATOM     46  C   UNL A   1      38.241  30.456  30.913  1.00  0.00     0.074 A 
ATOM     47  C   UNL A   1      39.283  32.346  32.068  1.00  0.00     0.049 A 
ATOM     48  N   UNL A   1      39.251  29.655  30.945  1.00  0.00    -0.248 NA
ATOM     49  C   UNL A   1      37.164  29.986  30.052  1.00  0.00     0.031 C 
ATOM     50  C   UNL A   1      40.652  32.041  31.663  1.00  0.00     0.029 A 
ATOM     51  N   UNL A   1      39.426  33.305  33.079  1.00  0.00    -0.354 N 
ATOM     52  C   UNL A   1      39.098  28.737  29.930  1.00  0.00     0.074 A 
ATOM     53  C   UNL A   1      37.752  28.950  29.447  1.00  0.00     0.031 C 
ATOM     54  C   UNL A   1      41.494  32.551  32.574  1.00  0.00     0.029 A 
ATOM     55  C   UNL A   1      40.687  33.056  33.670  1.00  0.00     0.049 A 
ATOM     56  H   UNL A   1      38.782  34.007  33.327  1.00  0.00     0.167 HD
ATOM     57  C   UNL A   1      40.173  27.989  29.543  1.00  0.00     0.037 A 
ATOM     58  C   UNL A   1      40.775  32.635  34.966  1.00  0.00     0.037 A 
ATOM     59  C   UNL A   1      41.337  28.254  30.392  1.00  0.00     0.049 A 
ATOM     60  C   UNL A   1      41.378  31.259  35.150  1.00  0.00     0.074 A 
ATOM     61  C   UNL A   1      42.476  29.032  30.257  1.00  0.00     0.029 A 
ATOM     62  N   UNL A   1      41.289  27.876  31.720  1.00  0.00    -0.354 N 
ATOM     63  N   UNL A   1      41.734  30.475  34.170  1.00  0.00    -0.248 NA
ATOM     64  C   UNL A   1      41.542  30.618  36.457  1.00  0.00     0.031 C 
ATOM     65  C   UNL A   1      43.099  29.131  31.535  1.00  0.00     0.029 A 
ATOM     66  C   UNL A   1      42.339  28.412  32.438  1.00  0.00     0.049 A 
ATOM     67  H   UNL A   1      40.592  27.297  32.106  1.00  0.00     0.167 HD
ATOM     68  C   UNL A   1      42.083  29.250  34.672  1.00  0.00     0.074 A 
ATOM     69  C   UNL A   1      41.968  29.391  36.110  1.00  0.00     0.031 C 
ATOM     70  C   UNL A   1      42.392  28.192  33.873  1.00  0.00     0.037 A 
BRANCH  57  71
ATOM     71  C   UNL A   1      40.258  27.181  28.265  1.00  0.00     0.057 A 
ATOM     72  C   UNL A   1      39.681  25.897  28.190  1.00  0.00     0.134 A 
ATOM     73  C   UNL A   1      40.915  27.578  27.088  1.00  0.00     0.134 A 
ATOM     74  F   UNL A   1      38.911  25.408  29.172  1.00  0.00    -0.206 F 
ATOM     75  C   UNL A   1      39.855  25.039  27.095  1.00  0.00     0.040 A 
ATOM     76  C   UNL A   1      41.143  26.714  26.006  1.00  0.00     0.040 A 
ATOM     77  F   UNL A   1      41.305  28.841  26.888  1.00  0.00    -0.206 F 
ATOM     78  C   UNL A   1      40.624  25.431  26.013  1.00  0.00     0.006 A 
ENDBRANCH  57  71
BRANCH  58  79
ATOM     79  C   UNL A   1      39.714  33.221  35.825  1.00  0.00     0.057 A 
ATOM     80  C   UNL A   1      38.567  32.454  36.090  1.00  0.00     0.134 A 
ATOM     81  C   UNL A   1      39.980  34.293  36.682  1.00  0.00     0.134 A 
ATOM     82  F   UNL A   1      38.257  31.409  35.305  1.00  0.00    -0.206 F 
ATOM     83  C   UNL A   1      37.786  32.668  37.228  1.00  0.00     0.040 A 
ATOM     84  C   UNL A   1      39.198  34.524  37.819  1.00  0.00     0.040 A 
ATOM     85  F   UNL A   1      41.070  35.055  36.504  1.00  0.00    -0.206 F 
ATOM     86  C   UNL A   1      38.124  33.685  38.116  1.00  0.00     0.006 A 
ENDBRANCH  58  79
BRANCH  70  87
ATOM     87  C   UNL A   1      42.773  26.846  34.402  1.00  0.00     0.057 A 
ATOM     88  C   UNL A   1      41.833  25.975  34.965  1.00  0.00     0.134 A 
ATOM     89  C   UNL A   1      44.120  26.448  34.493  1.00  0.00     0.134 A 
ATOM     90  F   UNL A   1      40.525  26.276  34.956  1.00  0.00    -0.206 F 
ATOM     91  C   UNL A   1      42.209  24.774  35.577  1.00  0.00     0.040 A 
ATOM     92  C   UNL A   1      44.512  25.274  35.140  1.00  0.00     0.040 A 
ATOM     93  F   UNL A   1      45.102  27.177  33.942  1.00  0.00    -0.206 F 
ATOM     94  C   UNL A   1      43.553  24.429  35.682  1.00  0.00     0.006 A 
ENDBRANCH  70  87
ENDBRANCH  44  45
ENDBRANCH  36  39
ENDBRANCH  34  35
ENDBRANCH  33  34
ENDBRANCH  32  33
ENDBRANCH   3  32
TORSDOF 16
ENDMDL
