MODEL 1
REMARK VINA RESULT:     -10.8      0.000      0.000
REMARK SMILES COC[C@@H](C)N(C)c1nc(C(C)C)c(C(=O)NCCCNC(=O)c2ccc(-c3c4nc(c(-c5c(F)cccc5F)c5ccc([nH]5)c(-c5c(F)cccc5F)c5nc(c(-c6c(F)cccc6F)c6ccc3[nH]6)C=C5)C=C4)cc2)s1
REMARK SMILES IDX 18 1 17 2 15 3 16 4 14 6 8 7 9 8 78 9 10 10 6 11 7 12 4 13
REMARK SMILES IDX 5 14 3 15 2 16 1 17 11 18 12 19 13 20 19 21 20 22 21 23
REMARK SMILES IDX 22 24 23 26 24 27 25 28 77 29 26 30 76 31 27 32 28 33 29 34
REMARK SMILES IDX 70 35 30 36 75 37 69 38 71 39 31 40 74 41 68 42 67 43 32 45
REMARK SMILES IDX 58 46 41 47 57 48 42 49 45 50 56 51 72 52 43 53 44 54 55 56
REMARK SMILES IDX 73 57 46 58 33 59 34 60 39 61 35 62 36 63 38 64 40 65 37 66
REMARK SMILES IDX 59 67 60 68 65 69 61 70 62 71 64 72 66 73 63 74 47 75 48 76
REMARK SMILES IDX 53 77 49 78 50 79 52 80 54 81 51 82
REMARK H PARENT 17 5 21 25 71 44 45 55
REMARK Flexibility Score: inf
ROOT
ATOM      1  C   UNL A   1      31.570  30.295  26.133  1.00  0.00     0.118 C 
ENDROOT
BRANCH   1   2
ATOM      2  N   UNL A   1      32.493  30.076  25.054  1.00  0.00    -0.351 N 
ATOM      3  C   UNL A   1      32.807  29.008  24.255  1.00  0.00     0.263 C 
ATOM      4  O   UNL A   1      33.653  29.334  23.406  1.00  0.00    -0.268 OA
ATOM      5  H   UNL A   1      33.020  30.879  24.838  1.00  0.00     0.163 HD
BRANCH   3   6
ATOM      6  C   UNL A   1      32.247  27.653  24.313  1.00  0.00     0.117 A 
ATOM      7  C   UNL A   1      32.234  25.228  24.913  1.00  0.00     0.186 A 
ATOM      8  N   UNL A   1      31.241  25.556  24.142  1.00  0.00    -0.224 NA
ATOM      9  S   UNL A   1      33.259  26.544  25.255  1.00  0.00    -0.091 S 
ATOM     10  C   UNL A   1      31.126  26.917  23.923  1.00  0.00     0.069 A 
BRANCH   7  11
ATOM     11  N   UNL A   1      32.404  23.951  25.354  1.00  0.00    -0.346 N 
ATOM     12  C   UNL A   1      33.528  23.595  26.197  1.00  0.00     0.146 C 
BRANCH  11  13
ATOM     13  C   UNL A   1      31.425  22.910  24.972  1.00  0.00     0.107 C 
ATOM     14  C   UNL A   1      30.550  22.582  26.188  1.00  0.00     0.033 C 
BRANCH  13  15
ATOM     15  C   UNL A   1      32.081  21.662  24.324  1.00  0.00     0.184 C 
BRANCH  15  16
ATOM     16  O   UNL A   1      31.793  20.437  25.013  1.00  0.00    -0.383 OA
ATOM     17  C   UNL A   1      32.958  19.697  25.367  1.00  0.00     0.194 C 
ENDBRANCH  15  16
ENDBRANCH  13  15
ENDBRANCH  11  13
ENDBRANCH   7  11
BRANCH  10  18
ATOM     18  C   UNL A   1      29.762  27.214  23.355  1.00  0.00     0.034 C 
ATOM     19  C   UNL A   1      28.672  26.347  23.982  1.00  0.00     0.014 C 
ATOM     20  C   UNL A   1      29.468  28.699  23.126  1.00  0.00     0.014 C 
ENDBRANCH  10  18
ENDBRANCH   3   6
ENDBRANCH   1   2
BRANCH   1  21
ATOM     21  C   UNL A   1      31.414  31.766  26.483  1.00  0.00     0.042 C 
BRANCH  21  22
ATOM     22  C   UNL A   1      32.653  32.345  27.140  1.00  0.00     0.118 C 
BRANCH  22  23
ATOM     23  N   UNL A   1      32.469  33.748  27.503  1.00  0.00    -0.352 N 
ATOM     24  C   UNL A   1      33.050  34.514  28.485  1.00  0.00     0.251 C 
ATOM     25  H   UNL A   1      31.816  34.230  26.946  1.00  0.00     0.163 HD
ATOM     26  O   UNL A   1      32.562  35.612  28.756  1.00  0.00    -0.269 OA
BRANCH  24  27
ATOM     27  C   UNL A   1      34.229  34.032  29.237  1.00  0.00     0.039 A 
ATOM     28  C   UNL A   1      34.043  33.200  30.347  1.00  0.00     0.014 A 
ATOM     29  C   UNL A   1      35.520  34.413  28.875  1.00  0.00     0.014 A 
ATOM     30  C   UNL A   1      35.150  32.679  31.022  1.00  0.00     0.010 A 
ATOM     31  C   UNL A   1      36.617  33.799  29.464  1.00  0.00     0.010 A 
ATOM     32  C   UNL A   1      36.449  32.928  30.550  1.00  0.00    -0.014 A 
BRANCH  32  33
ATOM     33  C   UNL A   1      37.649  32.305  31.165  1.00  0.00     0.031 A 
ATOM     34  C   UNL A   1      38.388  31.215  30.434  1.00  0.00     0.074 A 
ATOM     35  C   UNL A   1      38.010  32.642  32.420  1.00  0.00     0.049 A 
ATOM     36  N   UNL A   1      39.355  30.441  30.858  1.00  0.00    -0.248 NA
ATOM     37  C   UNL A   1      37.953  30.928  29.058  1.00  0.00     0.031 C 
ATOM     38  C   UNL A   1      37.345  33.645  33.254  1.00  0.00     0.029 A 
ATOM     39  N   UNL A   1      39.014  32.160  33.221  1.00  0.00    -0.354 N 
ATOM     40  C   UNL A   1      39.621  29.563  29.814  1.00  0.00     0.074 A 
ATOM     41  C   UNL A   1      38.677  29.859  28.760  1.00  0.00     0.031 C 
ATOM     42  C   UNL A   1      37.972  33.718  34.439  1.00  0.00     0.029 A 
ATOM     43  C   UNL A   1      39.046  32.732  34.471  1.00  0.00     0.049 A 
ATOM     44  H   UNL A   1      39.652  31.469  32.929  1.00  0.00     0.167 HD
ATOM     45  C   UNL A   1      40.581  28.612  29.732  1.00  0.00     0.037 A 
ATOM     46  C   UNL A   1      39.839  32.478  35.529  1.00  0.00     0.037 A 
ATOM     47  C   UNL A   1      41.543  28.347  30.769  1.00  0.00     0.049 A 
ATOM     48  C   UNL A   1      40.895  31.414  35.413  1.00  0.00     0.074 A 
ATOM     49  C   UNL A   1      42.603  27.459  30.753  1.00  0.00     0.029 A 
ATOM     50  N   UNL A   1      41.559  28.969  32.008  1.00  0.00    -0.354 N 
ATOM     51  N   UNL A   1      41.181  30.639  34.394  1.00  0.00    -0.248 NA
ATOM     52  C   UNL A   1      41.739  31.188  36.594  1.00  0.00     0.031 C 
ATOM     53  C   UNL A   1      43.230  27.506  32.003  1.00  0.00     0.029 A 
ATOM     54  C   UNL A   1      42.593  28.463  32.777  1.00  0.00     0.049 A 
ATOM     55  H   UNL A   1      40.927  29.667  32.298  1.00  0.00     0.167 HD
ATOM     56  C   UNL A   1      42.250  29.853  34.802  1.00  0.00     0.074 A 
ATOM     57  C   UNL A   1      42.575  30.258  36.153  1.00  0.00     0.031 C 
ATOM     58  C   UNL A   1      42.903  28.881  34.120  1.00  0.00     0.037 A 
BRANCH  45  59
ATOM     59  C   UNL A   1      40.642  27.791  28.476  1.00  0.00     0.057 A 
ATOM     60  C   UNL A   1      41.392  28.190  27.361  1.00  0.00     0.134 A 
ATOM     61  C   UNL A   1      39.969  26.564  28.390  1.00  0.00     0.134 A 
ATOM     62  F   UNL A   1      42.051  29.360  27.371  1.00  0.00    -0.206 F 
ATOM     63  C   UNL A   1      41.449  27.417  26.201  1.00  0.00     0.040 A 
ATOM     64  C   UNL A   1      40.043  25.768  27.246  1.00  0.00     0.040 A 
ATOM     65  F   UNL A   1      39.237  26.116  29.420  1.00  0.00    -0.206 F 
ATOM     66  C   UNL A   1      40.780  26.198  26.144  1.00  0.00     0.006 A 
ENDBRANCH  45  59
BRANCH  46  67
ATOM     67  C   UNL A   1      39.670  33.247  36.790  1.00  0.00     0.057 A 
ATOM     68  C   UNL A   1      38.756  32.840  37.768  1.00  0.00     0.134 A 
ATOM     69  C   UNL A   1      40.407  34.410  37.043  1.00  0.00     0.134 A 
ATOM     70  F   UNL A   1      38.007  31.743  37.575  1.00  0.00    -0.206 F 
ATOM     71  C   UNL A   1      38.563  33.571  38.941  1.00  0.00     0.040 A 
ATOM     72  C   UNL A   1      40.245  35.136  38.225  1.00  0.00     0.040 A 
ATOM     73  F   UNL A   1      41.307  34.851  36.151  1.00  0.00    -0.206 F 
ATOM     74  C   UNL A   1      39.313  34.722  39.173  1.00  0.00     0.006 A 
ENDBRANCH  46  67
BRANCH  58  75
ATOM     75  C   UNL A   1      44.051  28.207  34.814  1.00  0.00     0.057 A 
ATOM     76  C   UNL A   1      45.351  28.728  34.768  1.00  0.00     0.134 A 
ATOM     77  C   UNL A   1      43.844  27.048  35.573  1.00  0.00     0.134 A 
ATOM     78  F   UNL A   1      45.617  29.829  34.048  1.00  0.00    -0.206 F 
ATOM     79  C   UNL A   1      46.409  28.107  35.433  1.00  0.00     0.040 A 
ATOM     80  C   UNL A   1      44.889  26.435  36.267  1.00  0.00     0.040 A 
ATOM     81  F   UNL A   1      42.622  26.504  35.666  1.00  0.00    -0.206 F 
ATOM     82  C   UNL A   1      46.176  26.961  36.193  1.00  0.00     0.006 A 
ENDBRANCH  58  75
ENDBRANCH  32  33
ENDBRANCH  24  27
ENDBRANCH  22  23
ENDBRANCH  21  22
ENDBRANCH   1  21
TORSDOF 15
ENDMDL
MODEL 2
REMARK VINA RESULT:     -10.7      4.060      7.758
REMARK SMILES COC[C@@H](C)N(C)c1nc(C(C)C)c(C(=O)NCCCNC(=O)c2ccc(-c3c4nc(c(-c5c(F)cccc5F)c5ccc([nH]5)c(-c5c(F)cccc5F)c5nc(c(-c6c(F)cccc6F)c6ccc3[nH]6)C=C5)C=C4)cc2)s1
REMARK SMILES IDX 18 1 17 2 15 3 16 4 14 6 8 7 9 8 78 9 10 10 6 11 7 12 4 13
REMARK SMILES IDX 5 14 3 15 2 16 1 17 11 18 12 19 13 20 19 21 20 22 21 23
REMARK SMILES IDX 22 24 23 26 24 27 25 28 77 29 26 30 76 31 27 32 28 33 29 34
REMARK SMILES IDX 70 35 30 36 75 37 69 38 71 39 31 40 74 41 68 42 67 43 32 45
REMARK SMILES IDX 58 46 41 47 57 48 42 49 45 50 56 51 72 52 43 53 44 54 55 56
REMARK SMILES IDX 73 57 46 58 33 59 34 60 39 61 35 62 36 63 38 64 40 65 37 66
REMARK SMILES IDX 59 67 60 68 65 69 61 70 62 71 64 72 66 73 63 74 47 75 48 76
REMARK SMILES IDX 53 77 49 78 50 79 52 80 54 81 51 82
REMARK H PARENT 17 5 21 25 71 44 45 55
REMARK Flexibility Score: inf
ROOT
ATOM      1  C   UNL A   1      33.094  28.680  24.650  1.00  0.00     0.118 C 
ENDROOT
BRANCH   1   2
ATOM      2  N   UNL A   1      33.478  27.968  23.463  1.00  0.00    -0.351 N 
ATOM      3  C   UNL A   1      33.481  26.651  23.087  1.00  0.00     0.263 C 
ATOM      4  O   UNL A   1      33.862  26.534  21.911  1.00  0.00    -0.268 OA
ATOM      5  H   UNL A   1      33.816  28.564  22.757  1.00  0.00     0.163 HD
BRANCH   3   6
ATOM      6  C   UNL A   1      33.078  25.491  23.890  1.00  0.00     0.117 A 
ATOM      7  C   UNL A   1      33.407  23.283  25.011  1.00  0.00     0.186 A 
ATOM      8  N   UNL A   1      32.170  23.680  25.047  1.00  0.00    -0.224 NA
ATOM      9  S   UNL A   1      34.421  24.373  24.185  1.00  0.00    -0.091 S 
ATOM     10  C   UNL A   1      31.981  24.968  24.580  1.00  0.00     0.069 A 
BRANCH   7  11
ATOM     11  N   UNL A   1      33.794  22.103  25.569  1.00  0.00    -0.346 N 
ATOM     12  C   UNL A   1      33.547  21.823  26.969  1.00  0.00     0.146 C 
BRANCH  11  13
ATOM     13  C   UNL A   1      34.471  21.086  24.735  1.00  0.00     0.107 C 
ATOM     14  C   UNL A   1      33.568  19.852  24.625  1.00  0.00     0.033 C 
BRANCH  13  15
ATOM     15  C   UNL A   1      35.911  20.762  25.213  1.00  0.00     0.184 C 
BRANCH  15  16
ATOM     16  O   UNL A   1      36.905  21.658  24.697  1.00  0.00    -0.383 OA
ATOM     17  C   UNL A   1      38.154  21.573  25.377  1.00  0.00     0.194 C 
ENDBRANCH  15  16
ENDBRANCH  13  15
ENDBRANCH  11  13
ENDBRANCH   7  11
BRANCH  10  18
ATOM     18  C   UNL A   1      30.622  25.457  25.013  1.00  0.00     0.034 C 
ATOM     19  C   UNL A   1      30.683  26.274  26.302  1.00  0.00     0.014 C 
ATOM     20  C   UNL A   1      29.726  25.957  23.876  1.00  0.00     0.014 C 
ENDBRANCH  10  18
ENDBRANCH   3   6
ENDBRANCH   1   2
BRANCH   1  21
ATOM     21  C   UNL A   1      34.129  28.573  25.759  1.00  0.00     0.042 C 
BRANCH  21  22
ATOM     22  C   UNL A   1      33.523  28.732  27.141  1.00  0.00     0.118 C 
BRANCH  22  23
ATOM     23  N   UNL A   1      33.629  30.106  27.625  1.00  0.00    -0.352 N 
ATOM     24  C   UNL A   1      34.633  30.753  28.304  1.00  0.00     0.251 C 
ATOM     25  H   UNL A   1      32.843  30.667  27.431  1.00  0.00     0.163 HD
ATOM     26  O   UNL A   1      34.400  31.848  28.819  1.00  0.00    -0.269 OA
BRANCH  24  27
ATOM     27  C   UNL A   1      35.975  30.149  28.448  1.00  0.00     0.039 A 
ATOM     28  C   UNL A   1      36.874  30.208  27.377  1.00  0.00     0.014 A 
ATOM     29  C   UNL A   1      36.351  29.500  29.623  1.00  0.00     0.014 A 
ATOM     30  C   UNL A   1      38.170  29.704  27.524  1.00  0.00     0.010 A 
ATOM     31  C   UNL A   1      37.672  29.114  29.813  1.00  0.00     0.010 A 
ATOM     32  C   UNL A   1      38.598  29.205  28.764  1.00  0.00    -0.014 A 
BRANCH  32  33
ATOM     33  C   UNL A   1      39.998  28.765  29.002  1.00  0.00     0.031 A 
ATOM     34  C   UNL A   1      41.007  29.736  29.555  1.00  0.00     0.074 A 
ATOM     35  C   UNL A   1      40.386  27.532  28.621  1.00  0.00     0.049 A 
ATOM     36  N   UNL A   1      42.302  29.600  29.688  1.00  0.00    -0.248 NA
ATOM     37  C   UNL A   1      40.499  31.052  29.977  1.00  0.00     0.031 C 
ATOM     38  C   UNL A   1      39.517  26.515  28.023  1.00  0.00     0.029 A 
ATOM     39  N   UNL A   1      41.618  26.930  28.660  1.00  0.00    -0.354 N 
ATOM     40  C   UNL A   1      42.761  30.816  30.179  1.00  0.00     0.074 A 
ATOM     41  C   UNL A   1      41.618  31.698  30.266  1.00  0.00     0.031 C 
ATOM     42  C   UNL A   1      40.239  25.411  27.772  1.00  0.00     0.029 A 
ATOM     43  C   UNL A   1      41.628  25.658  28.139  1.00  0.00     0.049 A 
ATOM     44  H   UNL A   1      42.421  27.368  29.026  1.00  0.00     0.167 HD
ATOM     45  C   UNL A   1      44.018  31.161  30.547  1.00  0.00     0.037 A 
ATOM     46  C   UNL A   1      42.646  24.794  27.959  1.00  0.00     0.037 A 
ATOM     47  C   UNL A   1      45.145  30.267  30.495  1.00  0.00     0.049 A 
ATOM     48  C   UNL A   1      44.033  25.203  28.372  1.00  0.00     0.074 A 
ATOM     49  C   UNL A   1      46.443  30.493  30.917  1.00  0.00     0.029 A 
ATOM     50  N   UNL A   1      45.107  28.977  29.988  1.00  0.00    -0.354 N 
ATOM     51  N   UNL A   1      44.440  26.332  28.901  1.00  0.00    -0.248 NA
ATOM     52  C   UNL A   1      45.103  24.216  28.165  1.00  0.00     0.031 C 
ATOM     53  C   UNL A   1      47.203  29.358  30.617  1.00  0.00     0.029 A 
ATOM     54  C   UNL A   1      46.365  28.405  30.059  1.00  0.00     0.049 A 
ATOM     55  H   UNL A   1      44.303  28.535  29.630  1.00  0.00     0.167 HD
ATOM     56  C   UNL A   1      45.805  26.183  29.111  1.00  0.00     0.074 A 
ATOM     57  C   UNL A   1      46.153  24.848  28.672  1.00  0.00     0.031 C 
ATOM     58  C   UNL A   1      46.692  27.073  29.619  1.00  0.00     0.037 A 
BRANCH  45  59
ATOM     59  C   UNL A   1      44.239  32.561  31.044  1.00  0.00     0.057 A 
ATOM     60  C   UNL A   1      44.559  33.615  30.176  1.00  0.00     0.134 A 
ATOM     61  C   UNL A   1      44.095  32.869  32.403  1.00  0.00     0.134 A 
ATOM     62  F   UNL A   1      44.724  33.388  28.864  1.00  0.00    -0.206 F 
ATOM     63  C   UNL A   1      44.756  34.915  30.645  1.00  0.00     0.040 A 
ATOM     64  C   UNL A   1      44.260  34.170  32.879  1.00  0.00     0.040 A 
ATOM     65  F   UNL A   1      43.784  31.911  33.289  1.00  0.00    -0.206 F 
ATOM     66  C   UNL A   1      44.598  35.197  32.000  1.00  0.00     0.006 A 
ENDBRANCH  45  59
BRANCH  46  67
ATOM     67  C   UNL A   1      42.393  23.456  27.364  1.00  0.00     0.057 A 
ATOM     68  C   UNL A   1      42.041  22.365  28.166  1.00  0.00     0.134 A 
ATOM     69  C   UNL A   1      42.509  23.231  25.987  1.00  0.00     0.134 A 
ATOM     70  F   UNL A   1      41.932  22.512  29.495  1.00  0.00    -0.206 F 
ATOM     71  C   UNL A   1      41.834  21.095  27.626  1.00  0.00     0.040 A 
ATOM     72  C   UNL A   1      42.277  21.972  25.429  1.00  0.00     0.040 A 
ATOM     73  F   UNL A   1      42.835  24.237  25.161  1.00  0.00    -0.206 F 
ATOM     74  C   UNL A   1      41.948  20.897  26.251  1.00  0.00     0.006 A 
ENDBRANCH  46  67
BRANCH  58  75
ATOM     75  C   UNL A   1      48.118  26.622  29.752  1.00  0.00     0.057 A 
ATOM     76  C   UNL A   1      49.072  26.887  28.762  1.00  0.00     0.134 A 
ATOM     77  C   UNL A   1      48.548  25.952  30.905  1.00  0.00     0.134 A 
ATOM     78  F   UNL A   1      48.720  27.512  27.628  1.00  0.00    -0.206 F 
ATOM     79  C   UNL A   1      50.400  26.482  28.903  1.00  0.00     0.040 A 
ATOM     80  C   UNL A   1      49.880  25.569  31.070  1.00  0.00     0.040 A 
ATOM     81  F   UNL A   1      47.687  25.676  31.895  1.00  0.00    -0.206 F 
ATOM     82  C   UNL A   1      50.809  25.828  30.065  1.00  0.00     0.006 A 
ENDBRANCH  58  75
ENDBRANCH  32  33
ENDBRANCH  24  27
ENDBRANCH  22  23
ENDBRANCH  21  22
ENDBRANCH   1  21
TORSDOF 15
ENDMDL
MODEL 3
REMARK VINA RESULT:     -10.6      5.219     10.484
REMARK SMILES COC[C@@H](C)N(C)c1nc(C(C)C)c(C(=O)NCCCNC(=O)c2ccc(-c3c4nc(c(-c5c(F)cccc5F)c5ccc([nH]5)c(-c5c(F)cccc5F)c5nc(c(-c6c(F)cccc6F)c6ccc3[nH]6)C=C5)C=C4)cc2)s1
REMARK SMILES IDX 18 1 17 2 15 3 16 4 14 6 8 7 9 8 78 9 10 10 6 11 7 12 4 13
REMARK SMILES IDX 5 14 3 15 2 16 1 17 11 18 12 19 13 20 19 21 20 22 21 23
REMARK SMILES IDX 22 24 23 26 24 27 25 28 77 29 26 30 76 31 27 32 28 33 29 34
REMARK SMILES IDX 70 35 30 36 75 37 69 38 71 39 31 40 74 41 68 42 67 43 32 45
REMARK SMILES IDX 58 46 41 47 57 48 42 49 45 50 56 51 72 52 43 53 44 54 55 56
REMARK SMILES IDX 73 57 46 58 33 59 34 60 39 61 35 62 36 63 38 64 40 65 37 66
REMARK SMILES IDX 59 67 60 68 65 69 61 70 62 71 64 72 66 73 63 74 47 75 48 76
REMARK SMILES IDX 53 77 49 78 50 79 52 80 54 81 51 82
REMARK H PARENT 17 5 21 25 71 44 45 55
REMARK Flexibility Score: inf
ROOT
ATOM      1  C   UNL A   1      36.629  20.735  25.096  1.00  0.00     0.118 C 
ENDROOT
BRANCH   1   2
ATOM      2  N   UNL A   1      36.685  21.743  24.073  1.00  0.00    -0.351 N 
ATOM      3  C   UNL A   1      35.819  22.700  23.613  1.00  0.00     0.263 C 
ATOM      4  O   UNL A   1      36.357  23.385  22.728  1.00  0.00    -0.268 OA
ATOM      5  H   UNL A   1      37.544  21.747  23.593  1.00  0.00     0.163 HD
BRANCH   3   6
ATOM      6  C   UNL A   1      34.449  22.959  24.070  1.00  0.00     0.117 A 
ATOM      7  C   UNL A   1      32.592  24.350  24.997  1.00  0.00     0.186 A 
ATOM      8  N   UNL A   1      32.272  23.094  24.896  1.00  0.00    -0.224 NA
ATOM      9  S   UNL A   1      34.190  24.660  24.495  1.00  0.00    -0.091 S 
ATOM     10  C   UNL A   1      33.216  22.325  24.239  1.00  0.00     0.069 A 
BRANCH   7  11
ATOM     11  N   UNL A   1      31.715  25.273  25.478  1.00  0.00    -0.346 N 
ATOM     12  C   UNL A   1      30.482  24.867  26.122  1.00  0.00     0.146 C 
BRANCH  11  13
ATOM     13  C   UNL A   1      32.026  26.714  25.350  1.00  0.00     0.107 C 
ATOM     14  C   UNL A   1      31.467  27.454  26.571  1.00  0.00     0.033 C 
BRANCH  13  15
ATOM     15  C   UNL A   1      31.572  27.319  23.995  1.00  0.00     0.184 C 
BRANCH  15  16
ATOM     16  O   UNL A   1      31.889  28.711  23.852  1.00  0.00    -0.383 OA
ATOM     17  C   UNL A   1      33.248  28.951  23.497  1.00  0.00     0.194 C 
ENDBRANCH  15  16
ENDBRANCH  13  15
ENDBRANCH  11  13
ENDBRANCH   7  11
BRANCH  10  18
ATOM     18  C   UNL A   1      32.595  21.009  23.845  1.00  0.00     0.034 C 
ATOM     19  C   UNL A   1      32.154  20.992  22.383  1.00  0.00     0.014 C 
ATOM     20  C   UNL A   1      33.299  19.772  24.407  1.00  0.00     0.014 C 
ENDBRANCH  10  18
ENDBRANCH   3   6
ENDBRANCH   1   2
BRANCH   1  21
ATOM     21  C   UNL A   1      37.784  19.751  25.014  1.00  0.00     0.042 C 
BRANCH  21  22
ATOM     22  C   UNL A   1      39.016  20.232  25.760  1.00  0.00     0.118 C 
BRANCH  22  23
ATOM     23  N   UNL A   1      40.026  19.183  25.872  1.00  0.00    -0.352 N 
ATOM     24  C   UNL A   1      41.389  19.251  26.036  1.00  0.00     0.251 C 
ATOM     25  H   UNL A   1      39.669  18.267  25.821  1.00  0.00     0.163 HD
ATOM     26  O   UNL A   1      42.065  18.236  25.864  1.00  0.00    -0.269 OA
BRANCH  24  27
ATOM     27  C   UNL A   1      42.056  20.523  26.389  1.00  0.00     0.039 A 
ATOM     28  C   UNL A   1      42.568  21.336  25.371  1.00  0.00     0.014 A 
ATOM     29  C   UNL A   1      42.206  20.914  27.719  1.00  0.00     0.014 A 
ATOM     30  C   UNL A   1      43.136  22.574  25.686  1.00  0.00     0.010 A 
ATOM     31  C   UNL A   1      42.655  22.193  28.022  1.00  0.00     0.010 A 
ATOM     32  C   UNL A   1      43.132  23.038  27.010  1.00  0.00    -0.014 A 
BRANCH  32  33
ATOM     33  C   UNL A   1      43.620  24.393  27.377  1.00  0.00     0.031 A 
ATOM     34  C   UNL A   1      42.642  25.450  27.818  1.00  0.00     0.074 A 
ATOM     35  C   UNL A   1      44.921  24.704  27.211  1.00  0.00     0.049 A 
ATOM     36  N   UNL A   1      42.842  26.727  28.030  1.00  0.00    -0.248 NA
ATOM     37  C   UNL A   1      41.246  25.024  28.006  1.00  0.00     0.031 C 
ATOM     38  C   UNL A   1      45.960  23.785  26.740  1.00  0.00     0.029 A 
ATOM     39  N   UNL A   1      45.589  25.887  27.400  1.00  0.00    -0.354 N 
ATOM     40  C   UNL A   1      41.596  27.256  28.346  1.00  0.00     0.074 A 
ATOM     41  C   UNL A   1      40.638  26.178  28.242  1.00  0.00     0.031 C 
ATOM     42  C   UNL A   1      47.135  24.433  26.697  1.00  0.00     0.029 A 
ATOM     43  C   UNL A   1      46.926  25.823  27.084  1.00  0.00     0.049 A 
ATOM     44  H   UNL A   1      45.153  26.706  27.729  1.00  0.00     0.167 HD
ATOM     45  C   UNL A   1      41.281  28.521  28.713  1.00  0.00     0.037 A 
ATOM     46  C   UNL A   1      47.873  26.781  27.088  1.00  0.00     0.037 A 
ATOM     47  C   UNL A   1      42.244  29.581  28.852  1.00  0.00     0.049 A 
ATOM     48  C   UNL A   1      47.497  28.179  27.496  1.00  0.00     0.074 A 
ATOM     49  C   UNL A   1      42.041  30.876  29.293  1.00  0.00     0.029 A 
ATOM     50  N   UNL A   1      43.593  29.467  28.551  1.00  0.00    -0.354 N 
ATOM     51  N   UNL A   1      46.328  28.648  27.860  1.00  0.00    -0.248 NA
ATOM     52  C   UNL A   1      48.572  29.181  27.494  1.00  0.00     0.031 C 
ATOM     53  C   UNL A   1      43.257  31.562  29.208  1.00  0.00     0.029 A 
ATOM     54  C   UNL A   1      44.229  30.677  28.768  1.00  0.00     0.049 A 
ATOM     55  H   UNL A   1      44.033  28.646  28.231  1.00  0.00     0.167 HD
ATOM     56  C   UNL A   1      46.531  29.991  28.153  1.00  0.00     0.074 A 
ATOM     57  C   UNL A   1      47.939  30.255  27.944  1.00  0.00     0.031 C 
ATOM     58  C   UNL A   1      45.633  30.921  28.556  1.00  0.00     0.037 A 
BRANCH  45  59
ATOM     59  C   UNL A   1      39.838  28.826  28.995  1.00  0.00     0.057 A 
ATOM     60  C   UNL A   1      38.945  29.198  27.981  1.00  0.00     0.134 A 
ATOM     61  C   UNL A   1      39.323  28.710  30.293  1.00  0.00     0.134 A 
ATOM     62  F   UNL A   1      39.375  29.340  26.717  1.00  0.00    -0.206 F 
ATOM     63  C   UNL A   1      37.603  29.473  28.250  1.00  0.00     0.040 A 
ATOM     64  C   UNL A   1      37.977  28.952  30.570  1.00  0.00     0.040 A 
ATOM     65  F   UNL A   1      40.118  28.351  31.312  1.00  0.00    -0.206 F 
ATOM     66  C   UNL A   1      37.114  29.341  29.547  1.00  0.00     0.006 A 
ENDBRANCH  45  59
BRANCH  46  67
ATOM     67  C   UNL A   1      49.268  26.453  26.698  1.00  0.00     0.057 A 
ATOM     68  C   UNL A   1      49.719  26.655  25.389  1.00  0.00     0.134 A 
ATOM     69  C   UNL A   1      50.180  25.919  27.617  1.00  0.00     0.134 A 
ATOM     70  F   UNL A   1      48.888  27.146  24.457  1.00  0.00    -0.206 F 
ATOM     71  C   UNL A   1      51.018  26.320  25.001  1.00  0.00     0.040 A 
ATOM     72  C   UNL A   1      51.490  25.606  27.250  1.00  0.00     0.040 A 
ATOM     73  F   UNL A   1      49.815  25.709  28.891  1.00  0.00    -0.206 F 
ATOM     74  C   UNL A   1      51.909  25.797  25.935  1.00  0.00     0.006 A 
ENDBRANCH  46  67
BRANCH  58  75
ATOM     75  C   UNL A   1      46.150  32.305  28.824  1.00  0.00     0.057 A 
ATOM     76  C   UNL A   1      46.671  32.671  30.072  1.00  0.00     0.134 A 
ATOM     77  C   UNL A   1      46.166  33.269  27.807  1.00  0.00     0.134 A 
ATOM     78  F   UNL A   1      46.671  31.798  31.091  1.00  0.00    -0.206 F 
ATOM     79  C   UNL A   1      47.168  33.954  30.305  1.00  0.00     0.040 A 
ATOM     80  C   UNL A   1      46.689  34.545  28.021  1.00  0.00     0.040 A 
ATOM     81  F   UNL A   1      45.692  32.979  26.586  1.00  0.00    -0.206 F 
ATOM     82  C   UNL A   1      47.186  34.892  29.274  1.00  0.00     0.006 A 
ENDBRANCH  58  75
ENDBRANCH  32  33
ENDBRANCH  24  27
ENDBRANCH  22  23
ENDBRANCH  21  22
ENDBRANCH   1  21
TORSDOF 15
ENDMDL
