MODEL 1
REMARK VINA RESULT:     -12.9      0.000      0.000
REMARK SMILES O=C(NCCCNC(=O)c1ccc(-c2c3nc(c(-c4c(F)cccc4F)c4ccc([nH]4)c(-c4c(F)cccc4F)c4nc(c(-c5c(F)cccc5F)c5ccc2[nH]5)C=C4)C=C3)cc1)C1=Cc2cc(Cl)c(Cl)cc2O[C@@H]1C(F)(F)F
REMARK SMILES IDX 5 1 4 2 3 3 1 4 2 5 64 7 65 8 75 9 66 10 74 11 67 12 73 13
REMARK SMILES IDX 68 14 72 15 69 16 70 17 71 18 76 19 77 20 78 21 79 22 6 23
REMARK SMILES IDX 7 24 8 25 9 27 10 28 11 29 63 30 12 31 62 32 13 33 14 34
REMARK SMILES IDX 15 35 56 36 16 37 61 38 55 39 57 40 17 41 60 42 54 43 53 44
REMARK SMILES IDX 18 46 44 47 27 48 43 49 28 50 31 51 42 52 58 53 29 54 30 55
REMARK SMILES IDX 41 57 59 58 32 59 19 60 20 61 25 62 21 63 22 64 24 65 26 66
REMARK SMILES IDX 23 67 45 68 46 69 51 70 47 71 48 72 50 73 52 74 49 75 33 76
REMARK SMILES IDX 34 77 39 78 35 79 36 80 38 81 40 82 37 83
REMARK H PARENT 3 6 7 26 57 45 31 56
REMARK Flexibility Score: inf
ROOT
ATOM      1  C   UNL A   1      37.098  23.410  24.997  1.00  0.00     0.042 C 
ENDROOT
BRANCH   1   2
ATOM      2  C   UNL A   1      35.635  23.823  25.127  1.00  0.00     0.118 C 
BRANCH   2   3
ATOM      3  N   UNL A   1      34.977  23.264  26.311  1.00  0.00    -0.352 N 
ATOM      4  O   UNL A   1      33.952  21.683  27.574  1.00  0.00    -0.270 OA
ATOM      5  C   UNL A   1      34.277  22.092  26.469  1.00  0.00     0.251 C 
ATOM      6  H   UNL A   1      35.050  23.815  27.123  1.00  0.00     0.163 HD
BRANCH   5   7
ATOM      7  C   UNL A   1      33.965  21.334  25.245  1.00  0.00     0.067 C 
ATOM      8  C   UNL A   1      34.867  20.420  24.872  1.00  0.00     0.025 C 
ATOM      9  C   UNL A   1      32.544  21.336  24.773  1.00  0.00     0.314 C 
ATOM     10  C   UNL A   1      34.271  19.117  24.566  1.00  0.00     0.019 A 
ATOM     11  O   UNL A   1      31.986  20.000  24.676  1.00  0.00    -0.475 OA
ATOM     12  C   UNL A   1      35.103  17.996  24.657  1.00  0.00     0.034 A 
ATOM     13  C   UNL A   1      32.876  18.956  24.620  1.00  0.00     0.129 A 
ATOM     14  C   UNL A   1      34.551  16.741  24.926  1.00  0.00     0.060 A 
ATOM     15  C   UNL A   1      32.325  17.695  24.844  1.00  0.00     0.069 A 
ATOM     16  Cl  UNL A   1      35.651  15.446  25.242  1.00  0.00    -0.083 Cl
ATOM     17  C   UNL A   1      33.163  16.594  25.041  1.00  0.00     0.063 A 
ATOM     18  Cl  UNL A   1      32.432  15.107  25.525  1.00  0.00    -0.083 Cl
BRANCH   9  19
ATOM     19  C   UNL A   1      32.403  22.080  23.436  1.00  0.00     0.429 C 
ATOM     20  F   UNL A   1      32.020  21.235  22.449  1.00  0.00    -0.167 F 
ATOM     21  F   UNL A   1      31.471  23.059  23.497  1.00  0.00    -0.167 F 
ATOM     22  F   UNL A   1      33.566  22.653  23.045  1.00  0.00    -0.167 F 
ENDBRANCH   9  19
ENDBRANCH   5   7
ENDBRANCH   2   3
ENDBRANCH   1   2
BRANCH   1  23
ATOM     23  C   UNL A   1      37.949  23.874  26.175  1.00  0.00     0.118 C 
BRANCH  23  24
ATOM     24  N   UNL A   1      39.385  23.709  25.973  1.00  0.00    -0.352 N 
ATOM     25  C   UNL A   1      40.449  24.407  26.500  1.00  0.00     0.251 C 
ATOM     26  H   UNL A   1      39.634  22.981  25.358  1.00  0.00     0.163 HD
ATOM     27  O   UNL A   1      41.591  24.128  26.140  1.00  0.00    -0.269 OA
BRANCH  25  28
ATOM     28  C   UNL A   1      40.234  25.510  27.465  1.00  0.00     0.039 A 
ATOM     29  C   UNL A   1      39.336  25.323  28.522  1.00  0.00     0.014 A 
ATOM     30  C   UNL A   1      40.917  26.719  27.347  1.00  0.00     0.014 A 
ATOM     31  C   UNL A   1      39.198  26.311  29.503  1.00  0.00     0.010 A 
ATOM     32  C   UNL A   1      40.871  27.646  28.382  1.00  0.00     0.010 A 
ATOM     33  C   UNL A   1      40.005  27.459  29.470  1.00  0.00    -0.014 A 
BRANCH  33  34
ATOM     34  C   UNL A   1      39.956  28.489  30.543  1.00  0.00     0.031 A 
ATOM     35  C   UNL A   1      38.955  29.613  30.462  1.00  0.00     0.074 A 
ATOM     36  C   UNL A   1      40.869  28.470  31.535  1.00  0.00     0.049 A 
ATOM     37  N   UNL A   1      38.835  30.673  31.220  1.00  0.00    -0.248 NA
ATOM     38  C   UNL A   1      37.989  29.563  29.351  1.00  0.00     0.031 C 
ATOM     39  C   UNL A   1      41.939  27.482  31.689  1.00  0.00     0.029 A 
ATOM     40  N   UNL A   1      41.051  29.319  32.599  1.00  0.00    -0.354 N 
ATOM     41  C   UNL A   1      37.814  31.429  30.654  1.00  0.00     0.074 A 
ATOM     42  C   UNL A   1      37.389  30.738  29.457  1.00  0.00     0.031 C 
ATOM     43  C   UNL A   1      42.643  27.761  32.797  1.00  0.00     0.029 A 
ATOM     44  C   UNL A   1      42.103  28.970  33.412  1.00  0.00     0.049 A 
ATOM     45  H   UNL A   1      40.481  30.105  32.764  1.00  0.00     0.167 HD
ATOM     46  C   UNL A   1      37.258  32.577  31.107  1.00  0.00     0.037 A 
ATOM     47  C   UNL A   1      42.579  29.558  34.525  1.00  0.00     0.037 A 
ATOM     48  C   UNL A   1      37.636  33.224  32.334  1.00  0.00     0.049 A 
ATOM     49  C   UNL A   1      41.907  30.801  35.038  1.00  0.00     0.074 A 
ATOM     50  C   UNL A   1      37.074  34.338  32.930  1.00  0.00     0.029 A 
ATOM     51  N   UNL A   1      38.668  32.803  33.159  1.00  0.00    -0.354 N 
ATOM     52  N   UNL A   1      40.895  31.464  34.531  1.00  0.00    -0.248 NA
ATOM     53  C   UNL A   1      42.437  31.376  36.283  1.00  0.00     0.031 C 
ATOM     54  C   UNL A   1      37.787  34.612  34.102  1.00  0.00     0.029 A 
ATOM     55  C   UNL A   1      38.767  33.644  34.255  1.00  0.00     0.049 A 
ATOM     56  H   UNL A   1      39.244  32.023  32.991  1.00  0.00     0.167 HD
ATOM     57  C   UNL A   1      40.652  32.514  35.405  1.00  0.00     0.074 A 
ATOM     58  C   UNL A   1      41.610  32.391  36.484  1.00  0.00     0.031 C 
ATOM     59  C   UNL A   1      39.722  33.497  35.321  1.00  0.00     0.037 A 
BRANCH  46  60
ATOM     60  C   UNL A   1      36.165  33.193  30.282  1.00  0.00     0.057 A 
ATOM     61  C   UNL A   1      34.813  33.062  30.627  1.00  0.00     0.134 A 
ATOM     62  C   UNL A   1      36.469  33.954  29.146  1.00  0.00     0.134 A 
ATOM     63  F   UNL A   1      34.452  32.336  31.695  1.00  0.00    -0.206 F 
ATOM     64  C   UNL A   1      33.802  33.641  29.858  1.00  0.00     0.040 A 
ATOM     65  C   UNL A   1      35.468  34.562  28.384  1.00  0.00     0.040 A 
ATOM     66  F   UNL A   1      37.742  34.125  28.759  1.00  0.00    -0.206 F 
ATOM     67  C   UNL A   1      34.129  34.401  28.736  1.00  0.00     0.006 A 
ENDBRANCH  46  60
BRANCH  47  68
ATOM     68  C   UNL A   1      43.732  28.966  35.250  1.00  0.00     0.057 A 
ATOM     69  C   UNL A   1      45.046  29.329  34.933  1.00  0.00     0.134 A 
ATOM     70  C   UNL A   1      43.553  28.019  36.265  1.00  0.00     0.134 A 
ATOM     71  F   UNL A   1      45.282  30.219  33.957  1.00  0.00    -0.206 F 
ATOM     72  C   UNL A   1      46.142  28.757  35.580  1.00  0.00     0.040 A 
ATOM     73  C   UNL A   1      44.639  27.456  36.939  1.00  0.00     0.040 A 
ATOM     74  F   UNL A   1      42.320  27.634  36.624  1.00  0.00    -0.206 F 
ATOM     75  C   UNL A   1      45.939  27.819  36.591  1.00  0.00     0.006 A 
ENDBRANCH  47  68
BRANCH  59  76
ATOM     76  C   UNL A   1      39.678  34.494  36.441  1.00  0.00     0.057 A 
ATOM     77  C   UNL A   1      38.947  34.257  37.612  1.00  0.00     0.134 A 
ATOM     78  C   UNL A   1      40.406  35.687  36.360  1.00  0.00     0.134 A 
ATOM     79  F   UNL A   1      38.220  33.137  37.744  1.00  0.00    -0.206 F 
ATOM     80  C   UNL A   1      38.923  35.184  38.654  1.00  0.00     0.040 A 
ATOM     81  C   UNL A   1      40.410  36.610  37.407  1.00  0.00     0.040 A 
ATOM     82  F   UNL A   1      41.135  35.970  35.269  1.00  0.00    -0.206 F 
ATOM     83  C   UNL A   1      39.661  36.362  38.555  1.00  0.00     0.006 A 
ENDBRANCH  59  76
ENDBRANCH  33  34
ENDBRANCH  25  28
ENDBRANCH  23  24
ENDBRANCH   1  23
TORSDOF 11
ENDMDL
MODEL 2
REMARK VINA RESULT:     -12.9      4.358      8.525
REMARK SMILES O=C(NCCCNC(=O)c1ccc(-c2c3nc(c(-c4c(F)cccc4F)c4ccc([nH]4)c(-c4c(F)cccc4F)c4nc(c(-c5c(F)cccc5F)c5ccc2[nH]5)C=C4)C=C3)cc1)C1=Cc2cc(Cl)c(Cl)cc2O[C@@H]1C(F)(F)F
REMARK SMILES IDX 5 1 4 2 3 3 1 4 2 5 64 7 65 8 75 9 66 10 74 11 67 12 73 13
REMARK SMILES IDX 68 14 72 15 69 16 70 17 71 18 76 19 77 20 78 21 79 22 6 23
REMARK SMILES IDX 7 24 8 25 9 27 10 28 11 29 63 30 12 31 62 32 13 33 14 34
REMARK SMILES IDX 15 35 56 36 16 37 61 38 55 39 57 40 17 41 60 42 54 43 53 44
REMARK SMILES IDX 18 46 44 47 27 48 43 49 28 50 31 51 42 52 58 53 29 54 30 55
REMARK SMILES IDX 41 57 59 58 32 59 19 60 20 61 25 62 21 63 22 64 24 65 26 66
REMARK SMILES IDX 23 67 45 68 46 69 51 70 47 71 48 72 50 73 52 74 49 75 33 76
REMARK SMILES IDX 34 77 39 78 35 79 36 80 38 81 40 82 37 83
REMARK H PARENT 3 6 7 26 57 45 31 56
REMARK Flexibility Score: inf
ROOT
ATOM      1  C   UNL A   1      32.083  28.035  27.383  1.00  0.00     0.042 C 
ENDROOT
BRANCH   1   2
ATOM      2  C   UNL A   1      31.794  26.990  26.309  1.00  0.00     0.118 C 
BRANCH   2   3
ATOM      3  N   UNL A   1      31.566  25.648  26.852  1.00  0.00    -0.352 N 
ATOM      4  O   UNL A   1      31.993  23.452  27.228  1.00  0.00    -0.270 OA
ATOM      5  C   UNL A   1      32.169  24.451  26.547  1.00  0.00     0.251 C 
ATOM      6  H   UNL A   1      30.873  25.596  27.548  1.00  0.00     0.163 HD
BRANCH   5   7
ATOM      7  C   UNL A   1      33.063  24.437  25.377  1.00  0.00     0.067 C 
ATOM      8  C   UNL A   1      34.328  24.814  25.597  1.00  0.00     0.025 C 
ATOM      9  C   UNL A   1      32.633  23.638  24.185  1.00  0.00     0.314 C 
ATOM     10  C   UNL A   1      35.310  23.882  25.037  1.00  0.00     0.019 A 
ATOM     11  O   UNL A   1      33.598  22.618  23.820  1.00  0.00    -0.475 OA
ATOM     12  C   UNL A   1      36.588  23.882  25.605  1.00  0.00     0.034 A 
ATOM     13  C   UNL A   1      34.876  22.768  24.298  1.00  0.00     0.129 A 
ATOM     14  C   UNL A   1      37.377  22.730  25.543  1.00  0.00     0.060 A 
ATOM     15  C   UNL A   1      35.683  21.636  24.198  1.00  0.00     0.069 A 
ATOM     16  Cl  UNL A   1      38.846  22.729  26.452  1.00  0.00    -0.083 Cl
ATOM     17  C   UNL A   1      36.915  21.600  24.858  1.00  0.00     0.063 A 
ATOM     18  Cl  UNL A   1      37.769  20.099  24.878  1.00  0.00    -0.083 Cl
BRANCH   9  19
ATOM     19  C   UNL A   1      32.328  24.549  22.986  1.00  0.00     0.429 C 
ATOM     20  F   UNL A   1      32.974  24.121  21.876  1.00  0.00    -0.167 F 
ATOM     21  F   UNL A   1      31.008  24.567  22.688  1.00  0.00    -0.167 F 
ATOM     22  F   UNL A   1      32.710  25.829  23.206  1.00  0.00    -0.167 F 
ENDBRANCH   9  19
ENDBRANCH   5   7
ENDBRANCH   2   3
ENDBRANCH   1   2
BRANCH   1  23
ATOM     23  C   UNL A   1      33.454  28.684  27.221  1.00  0.00     0.118 C 
BRANCH  23  24
ATOM     24  N   UNL A   1      33.513  30.071  27.674  1.00  0.00    -0.352 N 
ATOM     25  C   UNL A   1      34.551  30.791  28.222  1.00  0.00     0.251 C 
ATOM     26  H   UNL A   1      32.672  30.574  27.571  1.00  0.00     0.163 HD
ATOM     27  O   UNL A   1      34.355  31.947  28.589  1.00  0.00    -0.269 OA
BRANCH  25  28
ATOM     28  C   UNL A   1      35.887  30.178  28.409  1.00  0.00     0.039 A 
ATOM     29  C   UNL A   1      36.797  30.195  27.346  1.00  0.00     0.014 A 
ATOM     30  C   UNL A   1      36.256  29.601  29.622  1.00  0.00     0.014 A 
ATOM     31  C   UNL A   1      38.098  29.718  27.535  1.00  0.00     0.010 A 
ATOM     32  C   UNL A   1      37.580  29.241  29.846  1.00  0.00     0.010 A 
ATOM     33  C   UNL A   1      38.517  29.286  28.803  1.00  0.00    -0.014 A 
BRANCH  33  34
ATOM     34  C   UNL A   1      39.918  28.860  29.068  1.00  0.00     0.031 A 
ATOM     35  C   UNL A   1      40.885  29.816  29.719  1.00  0.00     0.074 A 
ATOM     36  C   UNL A   1      40.347  27.656  28.639  1.00  0.00     0.049 A 
ATOM     37  N   UNL A   1      42.172  29.687  29.919  1.00  0.00    -0.248 NA
ATOM     38  C   UNL A   1      40.340  31.111  30.161  1.00  0.00     0.031 C 
ATOM     39  C   UNL A   1      39.535  26.666  27.929  1.00  0.00     0.029 A 
ATOM     40  N   UNL A   1      41.583  27.064  28.729  1.00  0.00    -0.354 N 
ATOM     41  C   UNL A   1      42.592  30.892  30.468  1.00  0.00     0.074 A 
ATOM     42  C   UNL A   1      41.438  31.762  30.516  1.00  0.00     0.031 C 
ATOM     43  C   UNL A   1      40.282  25.580  27.676  1.00  0.00     0.029 A 
ATOM     44  C   UNL A   1      41.637  25.809  28.168  1.00  0.00     0.049 A 
ATOM     45  H   UNL A   1      42.358  27.497  29.154  1.00  0.00     0.167 HD
ATOM     46  C   UNL A   1      43.820  31.235  30.924  1.00  0.00     0.037 A 
ATOM     47  C   UNL A   1      42.663  24.944  28.063  1.00  0.00     0.037 A 
ATOM     48  C   UNL A   1      44.948  30.345  30.939  1.00  0.00     0.049 A 
ATOM     49  C   UNL A   1      44.002  25.326  28.628  1.00  0.00     0.074 A 
ATOM     50  C   UNL A   1      46.210  30.561  31.463  1.00  0.00     0.029 A 
ATOM     51  N   UNL A   1      44.944  29.060  30.416  1.00  0.00    -0.354 N 
ATOM     52  N   UNL A   1      44.365  26.444  29.210  1.00  0.00    -0.248 NA
ATOM     53  C   UNL A   1      45.074  24.326  28.527  1.00  0.00     0.031 C 
ATOM     54  C   UNL A   1      46.981  29.417  31.227  1.00  0.00     0.029 A 
ATOM     55  C   UNL A   1      46.187  28.475  30.594  1.00  0.00     0.049 A 
ATOM     56  H   UNL A   1      44.173  28.628  29.983  1.00  0.00     0.167 HD
ATOM     57  C   UNL A   1      45.695  26.271  29.568  1.00  0.00     0.074 A 
ATOM     58  C   UNL A   1      46.070  24.935  29.153  1.00  0.00     0.031 C 
ATOM     59  C   UNL A   1      46.535  27.142  30.181  1.00  0.00     0.037 A 
BRANCH  46  60
ATOM     60  C   UNL A   1      43.999  32.625  31.465  1.00  0.00     0.057 A 
ATOM     61  C   UNL A   1      43.816  32.921  32.822  1.00  0.00     0.134 A 
ATOM     62  C   UNL A   1      44.391  33.674  30.623  1.00  0.00     0.134 A 
ATOM     63  F   UNL A   1      43.427  31.965  33.679  1.00  0.00    -0.206 F 
ATOM     64  C   UNL A   1      43.988  34.214  33.318  1.00  0.00     0.040 A 
ATOM     65  C   UNL A   1      44.595  34.966  31.113  1.00  0.00     0.040 A 
ATOM     66  F   UNL A   1      44.589  33.461  29.313  1.00  0.00    -0.206 F 
ATOM     67  C   UNL A   1      44.387  35.240  32.463  1.00  0.00     0.006 A 
ENDBRANCH  46  60
BRANCH  47  68
ATOM     68  C   UNL A   1      42.460  23.618  27.425  1.00  0.00     0.057 A 
ATOM     69  C   UNL A   1      42.117  22.496  28.188  1.00  0.00     0.134 A 
ATOM     70  C   UNL A   1      42.613  23.435  26.045  1.00  0.00     0.134 A 
ATOM     71  F   UNL A   1      41.974  22.604  29.518  1.00  0.00    -0.206 F 
ATOM     72  C   UNL A   1      41.957  21.236  27.610  1.00  0.00     0.040 A 
ATOM     73  C   UNL A   1      42.431  22.186  25.449  1.00  0.00     0.040 A 
ATOM     74  F   UNL A   1      42.932  24.471  25.256  1.00  0.00    -0.206 F 
ATOM     75  C   UNL A   1      42.110  21.079  26.234  1.00  0.00     0.006 A 
ENDBRANCH  47  68
BRANCH  59  76
ATOM     76  C   UNL A   1      47.927  26.662  30.466  1.00  0.00     0.057 A 
ATOM     77  C   UNL A   1      48.990  26.923  29.594  1.00  0.00     0.134 A 
ATOM     78  C   UNL A   1      48.211  25.962  31.646  1.00  0.00     0.134 A 
ATOM     79  F   UNL A   1      48.780  27.579  28.442  1.00  0.00    -0.206 F 
ATOM     80  C   UNL A   1      50.285  26.484  29.874  1.00  0.00     0.040 A 
ATOM     81  C   UNL A   1      49.505  25.540  31.948  1.00  0.00     0.040 A 
ATOM     82  F   UNL A   1      47.237  25.688  32.528  1.00  0.00    -0.206 F 
ATOM     83  C   UNL A   1      50.546  25.796  31.057  1.00  0.00     0.006 A 
ENDBRANCH  59  76
ENDBRANCH  33  34
ENDBRANCH  25  28
ENDBRANCH  23  24
ENDBRANCH   1  23
TORSDOF 11
ENDMDL
MODEL 3
REMARK VINA RESULT:     -12.9      0.436      6.262
REMARK SMILES O=C(NCCCNC(=O)c1ccc(-c2c3nc(c(-c4c(F)cccc4F)c4ccc([nH]4)c(-c4c(F)cccc4F)c4nc(c(-c5c(F)cccc5F)c5ccc2[nH]5)C=C4)C=C3)cc1)C1=Cc2cc(Cl)c(Cl)cc2O[C@@H]1C(F)(F)F
REMARK SMILES IDX 5 1 4 2 3 3 1 4 2 5 64 7 65 8 75 9 66 10 74 11 67 12 73 13
REMARK SMILES IDX 68 14 72 15 69 16 70 17 71 18 76 19 77 20 78 21 79 22 6 23
REMARK SMILES IDX 7 24 8 25 9 27 10 28 11 29 63 30 12 31 62 32 13 33 14 34
REMARK SMILES IDX 15 35 56 36 16 37 61 38 55 39 57 40 17 41 60 42 54 43 53 44
REMARK SMILES IDX 18 46 44 47 27 48 43 49 28 50 31 51 42 52 58 53 29 54 30 55
REMARK SMILES IDX 41 57 59 58 32 59 19 60 20 61 25 62 21 63 22 64 24 65 26 66
REMARK SMILES IDX 23 67 45 68 46 69 51 70 47 71 48 72 50 73 52 74 49 75 33 76
REMARK SMILES IDX 34 77 39 78 35 79 36 80 38 81 40 82 37 83
REMARK H PARENT 3 6 7 26 57 45 31 56
REMARK Flexibility Score: inf
ROOT
ATOM      1  C   UNL A   1      36.937  23.649  24.912  1.00  0.00     0.042 C 
ENDROOT
BRANCH   1   2
ATOM      2  C   UNL A   1      35.451  23.938  25.102  1.00  0.00     0.118 C 
BRANCH   2   3
ATOM      3  N   UNL A   1      34.890  23.323  26.308  1.00  0.00    -0.352 N 
ATOM      4  O   UNL A   1      34.053  21.657  27.601  1.00  0.00    -0.270 OA
ATOM      5  C   UNL A   1      34.299  22.095  26.487  1.00  0.00     0.251 C 
ATOM      6  H   UNL A   1      34.947  23.877  27.119  1.00  0.00     0.163 HD
BRANCH   5   7
ATOM      7  C   UNL A   1      34.005  21.316  25.272  1.00  0.00     0.067 C 
ATOM      8  C   UNL A   1      34.922  20.409  24.917  1.00  0.00     0.025 C 
ATOM      9  C   UNL A   1      32.587  21.291  24.791  1.00  0.00     0.314 C 
ATOM     10  C   UNL A   1      34.346  19.094  24.627  1.00  0.00     0.019 A 
ATOM     11  O   UNL A   1      32.049  19.946  24.710  1.00  0.00    -0.475 OA
ATOM     12  C   UNL A   1      35.193  17.986  24.739  1.00  0.00     0.034 A 
ATOM     13  C   UNL A   1      32.953  18.913  24.674  1.00  0.00     0.129 A 
ATOM     14  C   UNL A   1      34.657  16.727  25.022  1.00  0.00     0.060 A 
ATOM     15  C   UNL A   1      32.418  17.648  24.912  1.00  0.00     0.069 A 
ATOM     16  Cl  UNL A   1      35.772  15.452  25.363  1.00  0.00    -0.083 Cl
ATOM     17  C   UNL A   1      33.270  16.562  25.130  1.00  0.00     0.063 A 
ATOM     18  Cl  UNL A   1      32.557  15.072  25.631  1.00  0.00    -0.083 Cl
BRANCH   9  19
ATOM     19  C   UNL A   1      32.445  22.014  23.443  1.00  0.00     0.429 C 
ATOM     20  F   UNL A   1      31.588  23.058  23.540  1.00  0.00    -0.167 F 
ATOM     21  F   UNL A   1      33.625  22.514  23.009  1.00  0.00    -0.167 F 
ATOM     22  F   UNL A   1      31.973  21.195  22.473  1.00  0.00    -0.167 F 
ENDBRANCH   9  19
ENDBRANCH   5   7
ENDBRANCH   2   3
ENDBRANCH   1   2
BRANCH   1  23
ATOM     23  C   UNL A   1      37.772  24.022  26.133  1.00  0.00     0.118 C 
BRANCH  23  24
ATOM     24  N   UNL A   1      39.208  23.827  25.954  1.00  0.00    -0.352 N 
ATOM     25  C   UNL A   1      40.277  24.508  26.491  1.00  0.00     0.251 C 
ATOM     26  H   UNL A   1      39.451  23.088  25.350  1.00  0.00     0.163 HD
ATOM     27  O   UNL A   1      41.418  24.204  26.150  1.00  0.00    -0.269 OA
BRANCH  25  28
ATOM     28  C   UNL A   1      40.070  25.624  27.442  1.00  0.00     0.039 A 
ATOM     29  C   UNL A   1      39.281  25.412  28.578  1.00  0.00     0.014 A 
ATOM     30  C   UNL A   1      40.655  26.872  27.233  1.00  0.00     0.014 A 
ATOM     31  C   UNL A   1      39.160  26.419  29.541  1.00  0.00     0.010 A 
ATOM     32  C   UNL A   1      40.634  27.826  28.244  1.00  0.00     0.010 A 
ATOM     33  C   UNL A   1      39.879  27.617  29.408  1.00  0.00    -0.014 A 
BRANCH  33  34
ATOM     34  C   UNL A   1      39.852  28.674  30.455  1.00  0.00     0.031 A 
ATOM     35  C   UNL A   1      40.752  28.564  31.659  1.00  0.00     0.074 A 
ATOM     36  C   UNL A   1      38.955  29.677  30.373  1.00  0.00     0.049 A 
ATOM     37  N   UNL A   1      40.789  29.305  32.738  1.00  0.00    -0.248 NA
ATOM     38  C   UNL A   1      41.705  27.441  31.675  1.00  0.00     0.031 C 
ATOM     39  C   UNL A   1      37.975  29.859  29.300  1.00  0.00     0.029 A 
ATOM     40  N   UNL A   1      38.713  30.731  31.221  1.00  0.00    -0.354 N 
ATOM     41  C   UNL A   1      41.734  28.715  33.569  1.00  0.00     0.074 A 
ATOM     42  C   UNL A   1      42.204  27.523  32.898  1.00  0.00     0.031 C 
ATOM     43  C   UNL A   1      37.263  30.972  29.535  1.00  0.00     0.029 A 
ATOM     44  C   UNL A   1      37.704  31.562  30.795  1.00  0.00     0.049 A 
ATOM     45  H   UNL A   1      39.215  30.878  32.055  1.00  0.00     0.167 HD
ATOM     46  C   UNL A   1      42.195  29.144  34.767  1.00  0.00     0.037 A 
ATOM     47  C   UNL A   1      37.192  32.672  31.358  1.00  0.00     0.037 A 
ATOM     48  C   UNL A   1      41.776  30.366  35.399  1.00  0.00     0.049 A 
ATOM     49  C   UNL A   1      37.760  33.159  32.662  1.00  0.00     0.074 A 
ATOM     50  C   UNL A   1      42.248  30.938  36.566  1.00  0.00     0.029 A 
ATOM     51  N   UNL A   1      40.794  31.210  34.904  1.00  0.00    -0.354 N 
ATOM     52  N   UNL A   1      38.705  32.629  33.401  1.00  0.00    -0.248 NA
ATOM     53  C   UNL A   1      37.196  34.402  33.208  1.00  0.00     0.031 C 
ATOM     54  C   UNL A   1      41.526  32.115  36.797  1.00  0.00     0.029 A 
ATOM     55  C   UNL A   1      40.635  32.295  35.751  1.00  0.00     0.049 A 
ATOM     56  H   UNL A   1      40.285  31.061  34.075  1.00  0.00     0.167 HD
ATOM     57  C   UNL A   1      38.867  33.485  34.482  1.00  0.00     0.074 A 
ATOM     58  C   UNL A   1      37.936  34.578  34.294  1.00  0.00     0.031 C 
ATOM     59  C   UNL A   1      39.709  33.375  35.540  1.00  0.00     0.037 A 
BRANCH  46  60
ATOM     60  C   UNL A   1      43.222  28.296  35.462  1.00  0.00     0.057 A 
ATOM     61  C   UNL A   1      42.862  27.301  36.381  1.00  0.00     0.134 A 
ATOM     62  C   UNL A   1      44.586  28.457  35.186  1.00  0.00     0.134 A 
ATOM     63  F   UNL A   1      41.575  27.105  36.700  1.00  0.00    -0.206 F 
ATOM     64  C   UNL A   1      43.823  26.515  37.020  1.00  0.00     0.040 A 
ATOM     65  C   UNL A   1      45.554  27.656  35.797  1.00  0.00     0.040 A 
ATOM     66  F   UNL A   1      45.002  29.388  34.314  1.00  0.00    -0.206 F 
ATOM     67  C   UNL A   1      45.173  26.686  36.723  1.00  0.00     0.006 A 
ENDBRANCH  46  60
BRANCH  47  68
ATOM     68  C   UNL A   1      36.102  33.421  30.680  1.00  0.00     0.057 A 
ATOM     69  C   UNL A   1      34.789  33.376  31.164  1.00  0.00     0.134 A 
ATOM     70  C   UNL A   1      36.340  34.187  29.533  1.00  0.00     0.134 A 
ATOM     71  F   UNL A   1      34.495  32.644  32.249  1.00  0.00    -0.206 F 
ATOM     72  C   UNL A   1      33.747  34.044  30.519  1.00  0.00     0.040 A 
ATOM     73  C   UNL A   1      35.312  34.881  28.893  1.00  0.00     0.040 A 
ATOM     74  F   UNL A   1      37.577  34.279  29.025  1.00  0.00    -0.206 F 
ATOM     75  C   UNL A   1      34.009  34.804  29.381  1.00  0.00     0.006 A 
ENDBRANCH  47  68
BRANCH  59  76
ATOM     76  C   UNL A   1      39.679  34.480  36.553  1.00  0.00     0.057 A 
ATOM     77  C   UNL A   1      38.916  34.387  37.724  1.00  0.00     0.134 A 
ATOM     78  C   UNL A   1      40.451  35.633  36.371  1.00  0.00     0.134 A 
ATOM     79  F   UNL A   1      38.145  33.312  37.949  1.00  0.00    -0.206 F 
ATOM     80  C   UNL A   1      38.904  35.414  38.667  1.00  0.00     0.040 A 
ATOM     81  C   UNL A   1      40.468  36.656  37.320  1.00  0.00     0.040 A 
ATOM     82  F   UNL A   1      41.212  35.779  35.275  1.00  0.00    -0.206 F 
ATOM     83  C   UNL A   1      39.687  36.550  38.470  1.00  0.00     0.006 A 
ENDBRANCH  59  76
ENDBRANCH  33  34
ENDBRANCH  25  28
ENDBRANCH  23  24
ENDBRANCH   1  23
TORSDOF 11
ENDMDL
