MODEL 1
REMARK VINA RESULT:     -10.5      0.000      0.000
REMARK SMILES O=C(C[NH2+]C[C@@H]1CCCO1)NCCCNC(=O)c1ccc(-c2c3nc(c(-c4c(F)cccc4F)c4ccc([nH]4)c(-c4c(F)cccc4F)c4nc(c(-c5c(F)cccc5F)c5ccc2[nH]5)C=C4)C=C3)cc1
REMARK SMILES IDX 12 1 11 2 1 3 2 4 3 6 4 7 5 10 6 11 7 12 10 13 8 14 9 15
REMARK SMILES IDX 13 16 14 17 15 18 16 19 17 21 18 22 19 23 71 24 20 25 70 26
REMARK SMILES IDX 21 27 22 28 23 29 64 30 24 31 69 32 63 33 65 34 25 35 68 36
REMARK SMILES IDX 62 37 61 38 26 40 52 41 35 42 51 43 36 44 39 45 50 46 66 47
REMARK SMILES IDX 37 48 38 49 49 51 67 52 40 53 27 54 28 55 33 56 29 57 30 58
REMARK SMILES IDX 32 59 34 60 31 61 53 62 54 63 59 64 55 65 56 66 58 67 60 68
REMARK SMILES IDX 57 69 41 70 42 71 47 72 43 73 44 74 46 75 48 76 45 77
REMARK H PARENT 11 5 4 8 4 9 15 20 65 39 39 50
REMARK Flexibility Score: inf
ROOT
ATOM      1  C   UNL A   1      31.458  30.553  26.248  1.00  0.00     0.118 C 
ENDROOT
BRANCH   1   2
ATOM      2  N   UNL A   1      31.583  30.275  24.834  1.00  0.00    -0.351 N 
ATOM      3  O   UNL A   1      31.066  28.041  24.964  1.00  0.00    -0.269 OA
ATOM      4  C   UNL A   1      31.461  29.008  24.320  1.00  0.00     0.275 C 
ATOM      5  H   UNL A   1      31.763  31.022  24.218  1.00  0.00     0.163 HD
BRANCH   4   6
ATOM      6  C   UNL A   1      31.901  28.893  22.865  1.00  0.00     0.361 C 
BRANCH   6   7
ATOM      7  N   UNL A   1      31.035  29.704  22.003  1.00  0.00    -0.336 N 
ATOM      8  H   UNL A   1      31.312  29.562  21.031  1.00  0.00     0.346 HD
ATOM      9  H   UNL A   1      31.141  30.680  22.280  1.00  0.00     0.346 HD
BRANCH   7  10
ATOM     10  C   UNL A   1      29.615  29.344  22.148  1.00  0.00     0.293 C 
BRANCH  10  11
ATOM     11  C   UNL A   1      28.622  30.521  22.263  1.00  0.00     0.173 C 
ATOM     12  C   UNL A   1      28.502  31.405  21.033  1.00  0.00     0.040 C 
ATOM     13  O   UNL A   1      29.029  31.402  23.329  1.00  0.00    -0.372 OA
ATOM     14  C   UNL A   1      28.026  32.707  21.617  1.00  0.00     0.031 C 
ATOM     15  C   UNL A   1      28.778  32.757  22.928  1.00  0.00     0.161 C 
ENDBRANCH  10  11
ENDBRANCH   7  10
ENDBRANCH   6   7
ENDBRANCH   4   6
ENDBRANCH   1   2
BRANCH   1  16
ATOM     16  C   UNL A   1      31.408  32.055  26.510  1.00  0.00     0.042 C 
BRANCH  16  17
ATOM     17  C   UNL A   1      32.645  32.599  27.219  1.00  0.00     0.118 C 
BRANCH  17  18
ATOM     18  N   UNL A   1      32.504  33.994  27.613  1.00  0.00    -0.352 N 
ATOM     19  C   UNL A   1      33.145  34.706  28.598  1.00  0.00     0.251 C 
ATOM     20  H   UNL A   1      31.847  34.508  27.091  1.00  0.00     0.163 HD
ATOM     21  O   UNL A   1      32.759  35.829  28.892  1.00  0.00    -0.269 OA
BRANCH  19  22
ATOM     22  C   UNL A   1      34.285  34.104  29.319  1.00  0.00     0.039 A 
ATOM     23  C   UNL A   1      34.028  33.312  30.441  1.00  0.00     0.014 A 
ATOM     24  C   UNL A   1      35.598  34.316  28.891  1.00  0.00     0.014 A 
ATOM     25  C   UNL A   1      35.085  32.664  31.084  1.00  0.00     0.010 A 
ATOM     26  C   UNL A   1      36.639  33.609  29.486  1.00  0.00     0.010 A 
ATOM     27  C   UNL A   1      36.392  32.770  30.582  1.00  0.00    -0.014 A 
BRANCH  27  28
ATOM     28  C   UNL A   1      37.509  31.986  31.168  1.00  0.00     0.031 A 
ATOM     29  C   UNL A   1      38.009  32.294  32.550  1.00  0.00     0.074 A 
ATOM     30  C   UNL A   1      38.127  31.052  30.419  1.00  0.00     0.049 A 
ATOM     31  N   UNL A   1      39.033  31.790  33.190  1.00  0.00    -0.248 NA
ATOM     32  C   UNL A   1      37.275  33.323  33.305  1.00  0.00     0.031 C 
ATOM     33  C   UNL A   1      37.762  30.687  29.048  1.00  0.00     0.029 A 
ATOM     34  N   UNL A   1      39.204  30.248  30.698  1.00  0.00    -0.354 N 
ATOM     35  C   UNL A   1      39.075  32.446  34.414  1.00  0.00     0.074 A 
ATOM     36  C   UNL A   1      38.005  33.420  34.407  1.00  0.00     0.031 C 
ATOM     37  C   UNL A   1      38.587  29.721  28.614  1.00  0.00     0.029 A 
ATOM     38  C   UNL A   1      39.569  29.433  29.654  1.00  0.00     0.049 A 
ATOM     39  H   UNL A   1      39.670  30.254  31.565  1.00  0.00     0.167 HD
ATOM     40  C   UNL A   1      39.916  32.240  35.455  1.00  0.00     0.037 A 
ATOM     41  C   UNL A   1      40.592  28.564  29.538  1.00  0.00     0.037 A 
ATOM     42  C   UNL A   1      40.971  31.261  35.462  1.00  0.00     0.049 A 
ATOM     43  C   UNL A   1      41.534  28.381  30.696  1.00  0.00     0.074 A 
ATOM     44  C   UNL A   1      41.839  30.937  36.490  1.00  0.00     0.029 A 
ATOM     45  N   UNL A   1      41.307  30.452  34.386  1.00  0.00    -0.354 N 
ATOM     46  N   UNL A   1      41.520  28.959  31.873  1.00  0.00    -0.248 NA
ATOM     47  C   UNL A   1      42.635  27.426  30.510  1.00  0.00     0.031 C 
ATOM     48  C   UNL A   1      42.737  29.975  36.018  1.00  0.00     0.029 A 
ATOM     49  C   UNL A   1      42.391  29.655  34.715  1.00  0.00     0.049 A 
ATOM     50  H   UNL A   1      40.844  30.445  33.517  1.00  0.00     0.167 HD
ATOM     51  C   UNL A   1      42.588  28.419  32.576  1.00  0.00     0.074 A 
ATOM     52  C   UNL A   1      43.221  27.456  31.699  1.00  0.00     0.031 C 
ATOM     53  C   UNL A   1      43.009  28.695  33.834  1.00  0.00     0.037 A 
BRANCH  40  54
ATOM     54  C   UNL A   1      39.732  33.096  36.675  1.00  0.00     0.057 A 
ATOM     55  C   UNL A   1      40.457  34.281  36.866  1.00  0.00     0.134 A 
ATOM     56  C   UNL A   1      38.791  32.753  37.654  1.00  0.00     0.134 A 
ATOM     57  F   UNL A   1      41.382  34.663  35.972  1.00  0.00    -0.206 F 
ATOM     58  C   UNL A   1      40.271  35.077  37.997  1.00  0.00     0.040 A 
ATOM     59  C   UNL A   1      38.575  33.557  38.775  1.00  0.00     0.040 A 
ATOM     60  F   UNL A   1      38.056  31.637  37.532  1.00  0.00    -0.206 F 
ATOM     61  C   UNL A   1      39.322  34.720  38.952  1.00  0.00     0.006 A 
ENDBRANCH  40  54
BRANCH  41  62
ATOM     62  C   UNL A   1      40.778  27.796  28.280  1.00  0.00     0.057 A 
ATOM     63  C   UNL A   1      40.175  26.546  28.101  1.00  0.00     0.134 A 
ATOM     64  C   UNL A   1      41.571  28.284  27.235  1.00  0.00     0.134 A 
ATOM     65  F   UNL A   1      39.419  26.016  29.074  1.00  0.00    -0.206 F 
ATOM     66  C   UNL A   1      40.370  25.799  26.939  1.00  0.00     0.040 A 
ATOM     67  C   UNL A   1      41.752  27.561  26.054  1.00  0.00     0.040 A 
ATOM     68  F   UNL A   1      42.172  29.478  27.340  1.00  0.00    -0.206 F 
ATOM     69  C   UNL A   1      41.157  26.310  25.908  1.00  0.00     0.006 A 
ENDBRANCH  41  62
BRANCH  53  70
ATOM     70  C   UNL A   1      44.188  27.925  34.355  1.00  0.00     0.057 A 
ATOM     71  C   UNL A   1      45.494  28.421  34.267  1.00  0.00     0.134 A 
ATOM     72  C   UNL A   1      44.006  26.692  34.996  1.00  0.00     0.134 A 
ATOM     73  F   UNL A   1      45.739  29.589  33.653  1.00  0.00    -0.206 F 
ATOM     74  C   UNL A   1      46.580  27.711  34.782  1.00  0.00     0.040 A 
ATOM     75  C   UNL A   1      45.080  25.987  35.541  1.00  0.00     0.040 A 
ATOM     76  F   UNL A   1      42.780  26.163  35.121  1.00  0.00    -0.206 F 
ATOM     77  C   UNL A   1      46.372  26.494  35.429  1.00  0.00     0.006 A 
ENDBRANCH  53  70
ENDBRANCH  27  28
ENDBRANCH  19  22
ENDBRANCH  17  18
ENDBRANCH  16  17
ENDBRANCH   1  16
TORSDOF 13
ENDMDL
MODEL 2
REMARK VINA RESULT:     -10.5      6.665     11.478
REMARK SMILES O=C(C[NH2+]C[C@@H]1CCCO1)NCCCNC(=O)c1ccc(-c2c3nc(c(-c4c(F)cccc4F)c4ccc([nH]4)c(-c4c(F)cccc4F)c4nc(c(-c5c(F)cccc5F)c5ccc2[nH]5)C=C4)C=C3)cc1
REMARK SMILES IDX 12 1 11 2 1 3 2 4 3 6 4 7 5 10 6 11 7 12 10 13 8 14 9 15
REMARK SMILES IDX 13 16 14 17 15 18 16 19 17 21 18 22 19 23 71 24 20 25 70 26
REMARK SMILES IDX 21 27 22 28 23 29 64 30 24 31 69 32 63 33 65 34 25 35 68 36
REMARK SMILES IDX 62 37 61 38 26 40 52 41 35 42 51 43 36 44 39 45 50 46 66 47
REMARK SMILES IDX 37 48 38 49 49 51 67 52 40 53 27 54 28 55 33 56 29 57 30 58
REMARK SMILES IDX 32 59 34 60 31 61 53 62 54 63 59 64 55 65 56 66 58 67 60 68
REMARK SMILES IDX 57 69 41 70 42 71 47 72 43 73 44 74 46 75 48 76 45 77
REMARK H PARENT 11 5 4 8 4 9 15 20 65 39 39 50
REMARK Flexibility Score: inf
ROOT
ATOM      1  C   UNL A   1      37.027  20.704  24.643  1.00  0.00     0.118 C 
ENDROOT
BRANCH   1   2
ATOM      2  N   UNL A   1      35.793  20.536  25.380  1.00  0.00    -0.351 N 
ATOM      3  O   UNL A   1      34.641  22.230  24.342  1.00  0.00    -0.269 OA
ATOM      4  C   UNL A   1      34.723  21.382  25.225  1.00  0.00     0.275 C 
ATOM      5  H   UNL A   1      35.719  19.787  26.015  1.00  0.00     0.163 HD
BRANCH   4   6
ATOM      6  C   UNL A   1      33.641  21.201  26.284  1.00  0.00     0.361 C 
BRANCH   6   7
ATOM      7  N   UNL A   1      33.200  19.802  26.330  1.00  0.00    -0.336 N 
ATOM      8  H   UNL A   1      32.546  19.689  27.105  1.00  0.00     0.346 HD
ATOM      9  H   UNL A   1      34.026  19.216  26.452  1.00  0.00     0.346 HD
BRANCH   7  10
ATOM     10  C   UNL A   1      32.533  19.391  25.084  1.00  0.00     0.293 C 
BRANCH  10  11
ATOM     11  C   UNL A   1      32.927  18.005  24.526  1.00  0.00     0.173 C 
ATOM     12  C   UNL A   1      32.523  16.813  25.376  1.00  0.00     0.040 C 
ATOM     13  O   UNL A   1      34.361  17.918  24.401  1.00  0.00    -0.372 OA
ATOM     14  C   UNL A   1      33.523  15.768  24.962  1.00  0.00     0.031 C 
ATOM     15  C   UNL A   1      34.774  16.591  24.763  1.00  0.00     0.161 C 
ENDBRANCH  10  11
ENDBRANCH   7  10
ENDBRANCH   6   7
ENDBRANCH   4   6
ENDBRANCH   1   2
BRANCH   1  16
ATOM     16  C   UNL A   1      38.020  19.595  24.975  1.00  0.00     0.042 C 
BRANCH  16  17
ATOM     17  C   UNL A   1      39.192  20.054  25.838  1.00  0.00     0.118 C 
BRANCH  17  18
ATOM     18  N   UNL A   1      40.242  19.051  25.945  1.00  0.00    -0.352 N 
ATOM     19  C   UNL A   1      41.596  19.202  26.125  1.00  0.00     0.251 C 
ATOM     20  H   UNL A   1      39.935  18.119  25.878  1.00  0.00     0.163 HD
ATOM     21  O   UNL A   1      42.341  18.238  26.011  1.00  0.00    -0.269 OA
BRANCH  19  22
ATOM     22  C   UNL A   1      42.155  20.535  26.431  1.00  0.00     0.039 A 
ATOM     23  C   UNL A   1      42.559  21.354  25.374  1.00  0.00     0.014 A 
ATOM     24  C   UNL A   1      42.277  20.976  27.751  1.00  0.00     0.014 A 
ATOM     25  C   UNL A   1      43.009  22.649  25.638  1.00  0.00     0.010 A 
ATOM     26  C   UNL A   1      42.651  22.292  28.006  1.00  0.00     0.010 A 
ATOM     27  C   UNL A   1      43.012  23.144  26.952  1.00  0.00    -0.014 A 
BRANCH  27  28
ATOM     28  C   UNL A   1      43.359  24.559  27.243  1.00  0.00     0.031 A 
ATOM     29  C   UNL A   1      44.791  25.010  27.215  1.00  0.00     0.074 A 
ATOM     30  C   UNL A   1      42.387  25.416  27.612  1.00  0.00     0.049 A 
ATOM     31  N   UNL A   1      45.297  26.173  27.537  1.00  0.00    -0.248 NA
ATOM     32  C   UNL A   1      45.790  24.015  26.794  1.00  0.00     0.031 C 
ATOM     33  C   UNL A   1      40.963  25.090  27.716  1.00  0.00     0.029 A 
ATOM     34  N   UNL A   1      42.451  26.735  27.987  1.00  0.00    -0.354 N 
ATOM     35  C   UNL A   1      46.670  26.048  27.370  1.00  0.00     0.074 A 
ATOM     36  C   UNL A   1      46.923  24.681  26.967  1.00  0.00     0.031 C 
ATOM     37  C   UNL A   1      40.288  26.182  28.107  1.00  0.00     0.029 A 
ATOM     38  C   UNL A   1      41.233  27.271  28.331  1.00  0.00     0.049 A 
ATOM     39  H   UNL A   1      43.291  27.250  28.006  1.00  0.00     0.167 HD
ATOM     40  C   UNL A   1      47.630  26.991  27.518  1.00  0.00     0.037 A 
ATOM     41  C   UNL A   1      40.915  28.495  28.794  1.00  0.00     0.037 A 
ATOM     42  C   UNL A   1      47.372  28.353  27.906  1.00  0.00     0.049 A 
ATOM     43  C   UNL A   1      42.005  29.513  28.985  1.00  0.00     0.074 A 
ATOM     44  C   UNL A   1      48.271  29.399  28.028  1.00  0.00     0.029 A 
ATOM     45  N   UNL A   1      46.125  28.858  28.244  1.00  0.00    -0.354 N 
ATOM     46  N   UNL A   1      43.291  29.401  28.758  1.00  0.00    -0.248 NA
ATOM     47  C   UNL A   1      41.599  30.828  29.500  1.00  0.00     0.031 C 
ATOM     48  C   UNL A   1      47.577  30.520  28.495  1.00  0.00     0.029 A 
ATOM     49  C   UNL A   1      46.236  30.190  28.606  1.00  0.00     0.049 A 
ATOM     50  H   UNL A   1      45.284  28.345  28.228  1.00  0.00     0.167 HD
ATOM     51  C   UNL A   1      43.843  30.635  29.072  1.00  0.00     0.074 A 
ATOM     52  C   UNL A   1      42.750  31.487  29.493  1.00  0.00     0.031 C 
ATOM     53  C   UNL A   1      45.138  31.029  29.018  1.00  0.00     0.037 A 
BRANCH  40  54
ATOM     54  C   UNL A   1      49.052  26.581  27.264  1.00  0.00     0.057 A 
ATOM     55  C   UNL A   1      49.871  26.073  28.283  1.00  0.00     0.134 A 
ATOM     56  C   UNL A   1      49.599  26.658  25.977  1.00  0.00     0.134 A 
ATOM     57  F   UNL A   1      49.413  25.982  29.541  1.00  0.00    -0.206 F 
ATOM     58  C   UNL A   1      51.188  25.682  28.036  1.00  0.00     0.040 A 
ATOM     59  C   UNL A   1      50.905  26.242  25.712  1.00  0.00     0.040 A 
ATOM     60  F   UNL A   1      48.870  27.126  24.953  1.00  0.00    -0.206 F 
ATOM     61  C   UNL A   1      51.706  25.759  26.745  1.00  0.00     0.006 A 
ENDBRANCH  40  54
BRANCH  41  62
ATOM     62  C   UNL A   1      39.501  28.828  29.106  1.00  0.00     0.057 A 
ATOM     63  C   UNL A   1      38.659  29.383  28.134  1.00  0.00     0.134 A 
ATOM     64  C   UNL A   1      38.961  28.615  30.379  1.00  0.00     0.134 A 
ATOM     65  F   UNL A   1      39.124  29.630  26.900  1.00  0.00    -0.206 F 
ATOM     66  C   UNL A   1      37.340  29.734  28.423  1.00  0.00     0.040 A 
ATOM     67  C   UNL A   1      37.634  28.934  30.675  1.00  0.00     0.040 A 
ATOM     68  F   UNL A   1      39.712  28.080  31.352  1.00  0.00    -0.206 F 
ATOM     69  C   UNL A   1      36.822  29.504  29.697  1.00  0.00     0.006 A 
ENDBRANCH  41  62
BRANCH  53  70
ATOM     70  C   UNL A   1      45.446  32.451  29.391  1.00  0.00     0.057 A 
ATOM     71  C   UNL A   1      45.881  32.803  30.674  1.00  0.00     0.134 A 
ATOM     72  C   UNL A   1      45.351  33.473  28.437  1.00  0.00     0.134 A 
ATOM     73  F   UNL A   1      45.980  31.875  31.638  1.00  0.00    -0.206 F 
ATOM     74  C   UNL A   1      46.194  34.123  31.001  1.00  0.00     0.040 A 
ATOM     75  C   UNL A   1      45.690  34.792  28.743  1.00  0.00     0.040 A 
ATOM     76  F   UNL A   1      44.948  33.203  27.186  1.00  0.00    -0.206 F 
ATOM     77  C   UNL A   1      46.107  35.120  30.030  1.00  0.00     0.006 A 
ENDBRANCH  53  70
ENDBRANCH  27  28
ENDBRANCH  19  22
ENDBRANCH  17  18
ENDBRANCH  16  17
ENDBRANCH   1  16
TORSDOF 13
ENDMDL
MODEL 3
REMARK VINA RESULT:     -10.4      1.069      6.657
REMARK SMILES O=C(C[NH2+]C[C@@H]1CCCO1)NCCCNC(=O)c1ccc(-c2c3nc(c(-c4c(F)cccc4F)c4ccc([nH]4)c(-c4c(F)cccc4F)c4nc(c(-c5c(F)cccc5F)c5ccc2[nH]5)C=C4)C=C3)cc1
REMARK SMILES IDX 12 1 11 2 1 3 2 4 3 6 4 7 5 10 6 11 7 12 10 13 8 14 9 15
REMARK SMILES IDX 13 16 14 17 15 18 16 19 17 21 18 22 19 23 71 24 20 25 70 26
REMARK SMILES IDX 21 27 22 28 23 29 64 30 24 31 69 32 63 33 65 34 25 35 68 36
REMARK SMILES IDX 62 37 61 38 26 40 52 41 35 42 51 43 36 44 39 45 50 46 66 47
REMARK SMILES IDX 37 48 38 49 49 51 67 52 40 53 27 54 28 55 33 56 29 57 30 58
REMARK SMILES IDX 32 59 34 60 31 61 53 62 54 63 59 64 55 65 56 66 58 67 60 68
REMARK SMILES IDX 57 69 41 70 42 71 47 72 43 73 44 74 46 75 48 76 45 77
REMARK H PARENT 11 5 4 8 4 9 15 20 65 39 39 50
REMARK Flexibility Score: inf
ROOT
ATOM      1  C   UNL A   1      31.853  30.502  26.467  1.00  0.00     0.118 C 
ENDROOT
BRANCH   1   2
ATOM      2  N   UNL A   1      31.704  30.140  25.075  1.00  0.00    -0.351 N 
ATOM      3  O   UNL A   1      31.241  27.918  25.436  1.00  0.00    -0.269 OA
ATOM      4  C   UNL A   1      31.495  28.844  24.671  1.00  0.00     0.275 C 
ATOM      5  H   UNL A   1      31.753  30.847  24.392  1.00  0.00     0.163 HD
BRANCH   4   6
ATOM      6  C   UNL A   1      31.645  28.640  23.168  1.00  0.00     0.361 C 
BRANCH   6   7
ATOM      7  N   UNL A   1      30.401  28.109  22.598  1.00  0.00    -0.336 N 
ATOM      8  H   UNL A   1      30.209  27.199  23.017  1.00  0.00     0.346 HD
ATOM      9  H   UNL A   1      30.526  28.033  21.588  1.00  0.00     0.346 HD
BRANCH   7  10
ATOM     10  C   UNL A   1      29.255  28.997  22.848  1.00  0.00     0.293 C 
BRANCH  10  11
ATOM     11  C   UNL A   1      29.324  30.398  22.200  1.00  0.00     0.173 C 
ATOM     12  C   UNL A   1      28.677  31.523  22.990  1.00  0.00     0.040 C 
ATOM     13  O   UNL A   1      28.643  30.383  20.929  1.00  0.00    -0.372 OA
ATOM     14  C   UNL A   1      28.344  32.522  21.916  1.00  0.00     0.031 C 
ATOM     15  C   UNL A   1      27.944  31.626  20.766  1.00  0.00     0.161 C 
ENDBRANCH  10  11
ENDBRANCH   7  10
ENDBRANCH   6   7
ENDBRANCH   4   6
ENDBRANCH   1   2
BRANCH   1  16
ATOM     16  C   UNL A   1      31.604  31.993  26.675  1.00  0.00     0.042 C 
BRANCH  16  17
ATOM     17  C   UNL A   1      32.774  32.729  27.323  1.00  0.00     0.118 C 
BRANCH  17  18
ATOM     18  N   UNL A   1      32.459  34.113  27.650  1.00  0.00    -0.352 N 
ATOM     19  C   UNL A   1      33.004  34.945  28.598  1.00  0.00     0.251 C 
ATOM     20  H   UNL A   1      31.745  34.516  27.107  1.00  0.00     0.163 HD
ATOM     21  O   UNL A   1      32.481  36.025  28.841  1.00  0.00    -0.269 OA
BRANCH  19  22
ATOM     22  C   UNL A   1      34.207  34.524  29.345  1.00  0.00     0.039 A 
ATOM     23  C   UNL A   1      34.057  34.039  30.646  1.00  0.00     0.014 A 
ATOM     24  C   UNL A   1      35.476  34.603  28.765  1.00  0.00     0.014 A 
ATOM     25  C   UNL A   1      35.170  33.555  31.336  1.00  0.00     0.010 A 
ATOM     26  C   UNL A   1      36.571  34.051  29.423  1.00  0.00     0.010 A 
ATOM     27  C   UNL A   1      36.427  33.513  30.711  1.00  0.00    -0.014 A 
BRANCH  27  28
ATOM     28  C   UNL A   1      37.597  32.883  31.373  1.00  0.00     0.031 A 
ATOM     29  C   UNL A   1      38.252  31.674  30.768  1.00  0.00     0.074 A 
ATOM     30  C   UNL A   1      38.017  33.354  32.563  1.00  0.00     0.049 A 
ATOM     31  N   UNL A   1      39.216  30.929  31.247  1.00  0.00    -0.248 NA
ATOM     32  C   UNL A   1      37.739  31.228  29.462  1.00  0.00     0.031 C 
ATOM     33  C   UNL A   1      37.440  34.496  33.275  1.00  0.00     0.029 A 
ATOM     34  N   UNL A   1      39.018  32.919  33.396  1.00  0.00    -0.354 N 
ATOM     35  C   UNL A   1      39.417  29.923  30.311  1.00  0.00     0.074 A 
ATOM     36  C   UNL A   1      38.441  30.122  29.261  1.00  0.00     0.031 C 
ATOM     37  C   UNL A   1      38.107  34.683  34.424  1.00  0.00     0.029 A 
ATOM     38  C   UNL A   1      39.125  33.646  34.558  1.00  0.00     0.049 A 
ATOM     39  H   UNL A   1      39.606  32.158  33.181  1.00  0.00     0.167 HD
ATOM     40  C   UNL A   1      40.343  28.935  30.317  1.00  0.00     0.037 A 
ATOM     41  C   UNL A   1      39.937  33.485  35.619  1.00  0.00     0.037 A 
ATOM     42  C   UNL A   1      41.321  28.749  31.357  1.00  0.00     0.049 A 
ATOM     43  C   UNL A   1      40.932  32.358  35.617  1.00  0.00     0.074 A 
ATOM     44  C   UNL A   1      42.338  27.813  31.426  1.00  0.00     0.029 A 
ATOM     45  N   UNL A   1      41.398  29.508  32.516  1.00  0.00    -0.354 N 
ATOM     46  N   UNL A   1      41.157  31.454  34.694  1.00  0.00    -0.248 NA
ATOM     47  C   UNL A   1      41.786  32.227  36.806  1.00  0.00     0.031 C 
ATOM     48  C   UNL A   1      42.993  27.969  32.651  1.00  0.00     0.029 A 
ATOM     49  C   UNL A   1      42.424  29.040  33.320  1.00  0.00     0.049 A 
ATOM     50  H   UNL A   1      40.810  30.268  32.734  1.00  0.00     0.167 HD
ATOM     51  C   UNL A   1      42.194  30.667  35.176  1.00  0.00     0.074 A 
ATOM     52  C   UNL A   1      42.565  31.208  36.467  1.00  0.00     0.031 C 
ATOM     53  C   UNL A   1      42.787  29.592  34.602  1.00  0.00     0.037 A 
BRANCH  40  54
ATOM     54  C   UNL A   1      40.342  27.975  29.163  1.00  0.00     0.057 A 
ATOM     55  C   UNL A   1      39.558  26.812  29.167  1.00  0.00     0.134 A 
ATOM     56  C   UNL A   1      41.102  28.234  28.016  1.00  0.00     0.134 A 
ATOM     57  F   UNL A   1      38.815  26.497  30.239  1.00  0.00    -0.206 F 
ATOM     58  C   UNL A   1      39.553  25.930  28.085  1.00  0.00     0.040 A 
ATOM     59  C   UNL A   1      41.082  27.375  26.915  1.00  0.00     0.040 A 
ATOM     60  F   UNL A   1      41.868  29.333  27.939  1.00  0.00    -0.206 F 
ATOM     61  C   UNL A   1      40.311  26.215  26.951  1.00  0.00     0.006 A 
ENDBRANCH  40  54
BRANCH  41  62
ATOM     62  C   UNL A   1      39.847  34.416  36.774  1.00  0.00     0.057 A 
ATOM     63  C   UNL A   1      39.052  34.113  37.885  1.00  0.00     0.134 A 
ATOM     64  C   UNL A   1      40.539  35.632  36.790  1.00  0.00     0.134 A 
ATOM     65  F   UNL A   1      38.349  32.970  37.920  1.00  0.00    -0.206 F 
ATOM     66  C   UNL A   1      38.931  34.993  38.961  1.00  0.00     0.040 A 
ATOM     67  C   UNL A   1      40.450  36.511  37.872  1.00  0.00     0.040 A 
ATOM     68  F   UNL A   1      41.324  35.980  35.759  1.00  0.00    -0.206 F 
ATOM     69  C   UNL A   1      39.637  36.196  38.958  1.00  0.00     0.006 A 
ENDBRANCH  41  62
BRANCH  53  70
ATOM     70  C   UNL A   1      43.921  28.947  35.345  1.00  0.00     0.057 A 
ATOM     71  C   UNL A   1      45.250  29.350  35.164  1.00  0.00     0.134 A 
ATOM     72  C   UNL A   1      43.673  27.943  36.291  1.00  0.00     0.134 A 
ATOM     73  F   UNL A   1      45.557  30.296  34.264  1.00  0.00    -0.206 F 
ATOM     74  C   UNL A   1      46.293  28.766  35.884  1.00  0.00     0.040 A 
ATOM     75  C   UNL A   1      44.704  27.373  37.038  1.00  0.00     0.040 A 
ATOM     76  F   UNL A   1      42.422  27.516  36.520  1.00  0.00    -0.206 F 
ATOM     77  C   UNL A   1      46.020  27.780  36.831  1.00  0.00     0.006 A 
ENDBRANCH  53  70
ENDBRANCH  27  28
ENDBRANCH  19  22
ENDBRANCH  17  18
ENDBRANCH  16  17
ENDBRANCH   1  16
TORSDOF 13
ENDMDL
