MODEL 1
REMARK VINA RESULT:     -13.0      0.000      0.000
REMARK SMILES O=C(NCCCNC(=O)c1cccc(N2NC(=O)[C@H]3CC=CC[C@H]3C2=O)c1)c1ccc(-c2c3nc(c(-c4c(F)cccc4F)c4ccc([nH]4)c(-c4c(F)cccc4F)c4nc(c(-c5c(F)cccc5F)c5ccc2[nH]5)C=C4)C=C3)cc1
REMARK SMILES IDX 4 1 3 2 1 3 2 4 28 6 29 7 81 8 30 9 80 10 31 11 32 12 33 13
REMARK SMILES IDX 74 14 34 15 79 16 73 17 75 18 35 19 78 20 72 21 71 22 36 24
REMARK SMILES IDX 62 25 45 26 61 27 46 28 49 29 60 30 76 31 47 32 48 33 59 35
REMARK SMILES IDX 77 36 50 37 37 38 38 39 43 40 39 41 40 42 42 43 44 44 41 45
REMARK SMILES IDX 63 46 64 47 69 48 65 49 66 50 68 51 70 52 67 53 51 54 52 55
REMARK SMILES IDX 57 56 53 57 54 58 56 59 58 60 55 61 5 62 6 63 7 64 8 65 9 67
REMARK SMILES IDX 10 68 11 69 27 70 12 71 14 72 13 73 15 74 16 75 25 76 17 77
REMARK SMILES IDX 24 79 26 80 18 81 19 82 23 83 20 84 22 85 21 86
REMARK H PARENT 3 5 75 23 49 34 7 66 16 78
REMARK Flexibility Score: inf
ROOT
ATOM      1  C   UNL A   1      38.487  20.261  25.452  1.00  0.00     0.118 C 
ENDROOT
BRANCH   1   2
ATOM      2  N   UNL A   1      39.597  19.332  25.610  1.00  0.00    -0.352 N 
ATOM      3  O   UNL A   1      41.730  18.669  25.890  1.00  0.00    -0.269 OA
ATOM      4  C   UNL A   1      40.893  19.561  26.000  1.00  0.00     0.251 C 
ATOM      5  H   UNL A   1      39.385  18.393  25.405  1.00  0.00     0.163 HD
BRANCH   4   6
ATOM      6  C   UNL A   1      41.291  20.882  26.529  1.00  0.00     0.039 A 
ATOM      7  C   UNL A   1      41.742  21.892  25.676  1.00  0.00     0.014 A 
ATOM      8  C   UNL A   1      41.179  21.123  27.901  1.00  0.00     0.014 A 
ATOM      9  C   UNL A   1      42.224  23.084  26.204  1.00  0.00     0.010 A 
ATOM     10  C   UNL A   1      41.571  22.358  28.420  1.00  0.00     0.010 A 
ATOM     11  C   UNL A   1      42.122  23.338  27.579  1.00  0.00    -0.014 A 
BRANCH  11  12
ATOM     12  C   UNL A   1      42.525  24.659  28.117  1.00  0.00     0.031 A 
ATOM     13  C   UNL A   1      41.509  25.735  28.362  1.00  0.00     0.074 A 
ATOM     14  C   UNL A   1      43.831  24.893  28.352  1.00  0.00     0.049 A 
ATOM     15  N   UNL A   1      41.694  26.972  28.749  1.00  0.00    -0.248 NA
ATOM     16  C   UNL A   1      40.101  25.381  28.131  1.00  0.00     0.031 C 
ATOM     17  C   UNL A   1      44.909  23.925  28.143  1.00  0.00     0.029 A 
ATOM     18  N   UNL A   1      44.473  26.017  28.804  1.00  0.00    -0.354 N 
ATOM     19  C   UNL A   1      40.433  27.551  28.783  1.00  0.00     0.074 A 
ATOM     20  C   UNL A   1      39.493  26.538  28.352  1.00  0.00     0.031 C 
ATOM     21  C   UNL A   1      46.078  24.492  28.472  1.00  0.00     0.029 A 
ATOM     22  C   UNL A   1      45.839  25.881  28.846  1.00  0.00     0.049 A 
ATOM     23  H   UNL A   1      44.002  26.838  29.071  1.00  0.00     0.167 HD
ATOM     24  C   UNL A   1      40.094  28.813  29.144  1.00  0.00     0.037 A 
ATOM     25  C   UNL A   1      46.801  26.784  29.111  1.00  0.00     0.037 A 
ATOM     26  C   UNL A   1      41.042  29.812  29.570  1.00  0.00     0.049 A 
ATOM     27  C   UNL A   1      46.408  28.188  29.465  1.00  0.00     0.074 A 
ATOM     28  C   UNL A   1      40.797  31.104  30.002  1.00  0.00     0.029 A 
ATOM     29  N   UNL A   1      42.419  29.637  29.596  1.00  0.00    -0.354 N 
ATOM     30  N   UNL A   1      45.209  28.710  29.542  1.00  0.00    -0.248 NA
ATOM     31  C   UNL A   1      47.496  29.125  29.767  1.00  0.00     0.031 C 
ATOM     32  C   UNL A   1      42.026  31.730  30.227  1.00  0.00     0.029 A 
ATOM     33  C   UNL A   1      43.037  30.808  30.002  1.00  0.00     0.049 A 
ATOM     34  H   UNL A   1      42.886  28.803  29.362  1.00  0.00     0.167 HD
ATOM     35  C   UNL A   1      45.394  30.032  29.925  1.00  0.00     0.074 A 
ATOM     36  C   UNL A   1      46.823  30.227  30.069  1.00  0.00     0.031 C 
ATOM     37  C   UNL A   1      44.462  30.991  30.144  1.00  0.00     0.037 A 
BRANCH  24  38
ATOM     38  C   UNL A   1      38.642  29.193  29.051  1.00  0.00     0.057 A 
ATOM     39  C   UNL A   1      37.780  29.135  30.154  1.00  0.00     0.134 A 
ATOM     40  C   UNL A   1      38.101  29.636  27.836  1.00  0.00     0.134 A 
ATOM     41  F   UNL A   1      38.228  28.713  31.347  1.00  0.00    -0.206 F 
ATOM     42  C   UNL A   1      36.426  29.460  30.043  1.00  0.00     0.040 A 
ATOM     43  C   UNL A   1      36.757  29.995  27.720  1.00  0.00     0.040 A 
ATOM     44  F   UNL A   1      38.870  29.730  26.741  1.00  0.00    -0.206 F 
ATOM     45  C   UNL A   1      35.912  29.896  28.823  1.00  0.00     0.006 A 
ENDBRANCH  24  38
BRANCH  25  46
ATOM     46  C   UNL A   1      48.222  26.369  29.023  1.00  0.00     0.057 A 
ATOM     47  C   UNL A   1      48.872  25.766  30.103  1.00  0.00     0.134 A 
ATOM     48  C   UNL A   1      48.944  26.513  27.831  1.00  0.00     0.134 A 
ATOM     49  F   UNL A   1      48.235  25.611  31.273  1.00  0.00    -0.206 F 
ATOM     50  C   UNL A   1      50.191  25.321  30.004  1.00  0.00     0.040 A 
ATOM     51  C   UNL A   1      50.254  26.049  27.709  1.00  0.00     0.040 A 
ATOM     52  F   UNL A   1      48.371  27.071  26.755  1.00  0.00    -0.206 F 
ATOM     53  C   UNL A   1      50.882  25.453  28.800  1.00  0.00     0.006 A 
ENDBRANCH  25  46
BRANCH  37  54
ATOM     54  C   UNL A   1      44.946  32.335  30.603  1.00  0.00     0.057 A 
ATOM     55  C   UNL A   1      45.190  33.383  29.707  1.00  0.00     0.134 A 
ATOM     56  C   UNL A   1      45.096  32.604  31.970  1.00  0.00     0.134 A 
ATOM     57  F   UNL A   1      45.080  33.186  28.384  1.00  0.00    -0.206 F 
ATOM     58  C   UNL A   1      45.573  34.649  30.154  1.00  0.00     0.040 A 
ATOM     59  C   UNL A   1      45.450  33.872  32.430  1.00  0.00     0.040 A 
ATOM     60  F   UNL A   1      44.872  31.645  32.881  1.00  0.00    -0.206 F 
ATOM     61  C   UNL A   1      45.691  34.899  31.520  1.00  0.00     0.006 A 
ENDBRANCH  37  54
ENDBRANCH  11  12
ENDBRANCH   4   6
ENDBRANCH   1   2
BRANCH   1  62
ATOM     62  C   UNL A   1      37.228  19.589  24.928  1.00  0.00     0.042 C 
BRANCH  62  63
ATOM     63  C   UNL A   1      35.988  20.469  24.979  1.00  0.00     0.118 C 
BRANCH  63  64
ATOM     64  N   UNL A   1      34.770  19.712  25.244  1.00  0.00    -0.352 N 
ATOM     65  C   UNL A   1      33.459  20.106  25.172  1.00  0.00     0.251 C 
ATOM     66  H   UNL A   1      34.911  18.776  25.514  1.00  0.00     0.163 HD
ATOM     67  O   UNL A   1      32.567  19.375  25.593  1.00  0.00    -0.269 OA
BRANCH  65  68
ATOM     68  C   UNL A   1      33.124  21.429  24.616  1.00  0.00     0.041 A 
ATOM     69  C   UNL A   1      32.882  21.534  23.244  1.00  0.00     0.014 A 
ATOM     70  C   UNL A   1      33.028  22.549  25.450  1.00  0.00     0.042 A 
ATOM     71  C   UNL A   1      32.425  22.738  22.722  1.00  0.00     0.003 A 
ATOM     72  C   UNL A   1      32.518  23.741  24.941  1.00  0.00     0.067 A 
ATOM     73  C   UNL A   1      32.200  23.820  23.575  1.00  0.00     0.028 A 
BRANCH  72  74
ATOM     74  N   UNL A   1      32.380  24.886  25.770  1.00  0.00    -0.221 N 
ATOM     75  N   UNL A   1      33.501  25.710  25.916  1.00  0.00    -0.260 N 
ATOM     76  C   UNL A   1      31.121  25.306  26.194  1.00  0.00     0.249 C 
ATOM     77  C   UNL A   1      33.442  27.034  26.245  1.00  0.00     0.243 C 
ATOM     78  H   UNL A   1      34.388  25.310  25.770  1.00  0.00     0.192 HD
ATOM     79  C   UNL A   1      30.928  26.802  26.186  1.00  0.00     0.097 C 
ATOM     80  O   UNL A   1      30.166  24.555  26.393  1.00  0.00    -0.272 OA
ATOM     81  O   UNL A   1      34.466  27.714  26.206  1.00  0.00    -0.273 OA
ATOM     82  C   UNL A   1      32.118  27.549  26.772  1.00  0.00     0.097 C 
ATOM     83  C   UNL A   1      30.619  27.175  24.725  1.00  0.00     0.041 C 
ATOM     84  C   UNL A   1      31.975  29.069  26.582  1.00  0.00     0.041 C 
ATOM     85  C   UNL A   1      30.802  28.622  24.417  1.00  0.00    -0.030 C 
ATOM     86  C   UNL A   1      31.403  29.475  25.254  1.00  0.00    -0.030 C 
ENDBRANCH  72  74
ENDBRANCH  65  68
ENDBRANCH  63  64
ENDBRANCH  62  63
ENDBRANCH   1  62
TORSDOF 11
ENDMDL
MODEL 2
REMARK VINA RESULT:     -12.9      3.736      9.040
REMARK SMILES O=C(NCCCNC(=O)c1cccc(N2NC(=O)[C@H]3CC=CC[C@H]3C2=O)c1)c1ccc(-c2c3nc(c(-c4c(F)cccc4F)c4ccc([nH]4)c(-c4c(F)cccc4F)c4nc(c(-c5c(F)cccc5F)c5ccc2[nH]5)C=C4)C=C3)cc1
REMARK SMILES IDX 4 1 3 2 1 3 2 4 28 6 29 7 81 8 30 9 80 10 31 11 32 12 33 13
REMARK SMILES IDX 74 14 34 15 79 16 73 17 75 18 35 19 78 20 72 21 71 22 36 24
REMARK SMILES IDX 62 25 45 26 61 27 46 28 49 29 60 30 76 31 47 32 48 33 59 35
REMARK SMILES IDX 77 36 50 37 37 38 38 39 43 40 39 41 40 42 42 43 44 44 41 45
REMARK SMILES IDX 63 46 64 47 69 48 65 49 66 50 68 51 70 52 67 53 51 54 52 55
REMARK SMILES IDX 57 56 53 57 54 58 56 59 58 60 55 61 5 62 6 63 7 64 8 65 9 67
REMARK SMILES IDX 10 68 11 69 27 70 12 71 14 72 13 73 15 74 16 75 25 76 17 77
REMARK SMILES IDX 24 79 26 80 18 81 19 82 23 83 20 84 22 85 21 86
REMARK H PARENT 3 5 75 23 49 34 7 66 16 78
REMARK Flexibility Score: inf
ROOT
ATOM      1  C   UNL A   1      32.290  31.988  26.886  1.00  0.00     0.118 C 
ENDROOT
BRANCH   1   2
ATOM      2  N   UNL A   1      32.159  33.390  27.261  1.00  0.00    -0.352 N 
ATOM      3  O   UNL A   1      32.544  35.274  28.430  1.00  0.00    -0.269 OA
ATOM      4  C   UNL A   1      32.931  34.157  28.098  1.00  0.00     0.251 C 
ATOM      5  H   UNL A   1      31.398  33.859  26.850  1.00  0.00     0.163 HD
BRANCH   4   6
ATOM      6  C   UNL A   1      34.212  33.637  28.617  1.00  0.00     0.039 A 
ATOM      7  C   UNL A   1      35.427  34.014  28.041  1.00  0.00     0.014 A 
ATOM      8  C   UNL A   1      34.197  32.781  29.722  1.00  0.00     0.014 A 
ATOM      9  C   UNL A   1      36.611  33.423  28.465  1.00  0.00     0.010 A 
ATOM     10  C   UNL A   1      35.398  32.263  30.212  1.00  0.00     0.010 A 
ATOM     11  C   UNL A   1      36.611  32.558  29.570  1.00  0.00    -0.014 A 
BRANCH  11  12
ATOM     12  C   UNL A   1      37.893  32.028  30.092  1.00  0.00     0.031 A 
ATOM     13  C   UNL A   1      38.497  30.776  29.529  1.00  0.00     0.074 A 
ATOM     14  C   UNL A   1      38.495  32.674  31.109  1.00  0.00     0.049 A 
ATOM     15  N   UNL A   1      39.565  30.127  29.919  1.00  0.00    -0.248 NA
ATOM     16  C   UNL A   1      37.806  30.164  28.385  1.00  0.00     0.031 C 
ATOM     17  C   UNL A   1      37.997  33.896  31.743  1.00  0.00     0.029 A 
ATOM     18  N   UNL A   1      39.647  32.388  31.797  1.00  0.00    -0.354 N 
ATOM     19  C   UNL A   1      39.660  29.019  29.089  1.00  0.00     0.074 A 
ATOM     20  C   UNL A   1      38.527  29.069  28.190  1.00  0.00     0.031 C 
ATOM     21  C   UNL A   1      38.838  34.259  32.720  1.00  0.00     0.029 A 
ATOM     22  C   UNL A   1      39.893  33.260  32.829  1.00  0.00     0.049 A 
ATOM     23  H   UNL A   1      40.236  31.632  31.574  1.00  0.00     0.167 HD
ATOM     24  C   UNL A   1      40.610  28.051  29.079  1.00  0.00     0.037 A 
ATOM     25  C   UNL A   1      40.838  33.237  33.787  1.00  0.00     0.037 A 
ATOM     26  C   UNL A   1      41.733  28.015  29.982  1.00  0.00     0.049 A 
ATOM     27  C   UNL A   1      41.853  32.133  33.786  1.00  0.00     0.074 A 
ATOM     28  C   UNL A   1      42.776  27.106  30.023  1.00  0.00     0.029 A 
ATOM     29  N   UNL A   1      41.948  28.916  31.016  1.00  0.00    -0.354 N 
ATOM     30  N   UNL A   1      41.962  31.118  32.965  1.00  0.00    -0.248 NA
ATOM     31  C   UNL A   1      42.874  32.170  34.840  1.00  0.00     0.031 C 
ATOM     32  C   UNL A   1      43.584  27.418  31.121  1.00  0.00     0.029 A 
ATOM     33  C   UNL A   1      43.085  28.563  31.723  1.00  0.00     0.049 A 
ATOM     34  H   UNL A   1      41.376  29.692  31.217  1.00  0.00     0.167 HD
ATOM     35  C   UNL A   1      43.077  30.406  33.387  1.00  0.00     0.074 A 
ATOM     36  C   UNL A   1      43.612  31.111  34.534  1.00  0.00     0.031 C 
ATOM     37  C   UNL A   1      43.610  29.275  32.864  1.00  0.00     0.037 A 
BRANCH  24  38
ATOM     38  C   UNL A   1      40.447  26.933  28.088  1.00  0.00     0.057 A 
ATOM     39  C   UNL A   1      41.098  26.931  26.846  1.00  0.00     0.134 A 
ATOM     40  C   UNL A   1      39.634  25.832  28.388  1.00  0.00     0.134 A 
ATOM     41  F   UNL A   1      41.887  27.956  26.490  1.00  0.00    -0.206 F 
ATOM     42  C   UNL A   1      40.910  25.899  25.924  1.00  0.00     0.040 A 
ATOM     43  C   UNL A   1      39.464  24.779  27.487  1.00  0.00     0.040 A 
ATOM     44  F   UNL A   1      38.991  25.759  29.563  1.00  0.00    -0.206 F 
ATOM     45  C   UNL A   1      40.094  24.817  26.245  1.00  0.00     0.006 A 
ENDBRANCH  24  38
BRANCH  25  46
ATOM     46  C   UNL A   1      40.832  34.293  34.829  1.00  0.00     0.057 A 
ATOM     47  C   UNL A   1      41.459  35.524  34.620  1.00  0.00     0.134 A 
ATOM     48  C   UNL A   1      40.144  34.112  36.036  1.00  0.00     0.134 A 
ATOM     49  F   UNL A   1      42.142  35.751  33.489  1.00  0.00    -0.206 F 
ATOM     50  C   UNL A   1      41.404  36.541  35.575  1.00  0.00     0.040 A 
ATOM     51  C   UNL A   1      40.058  35.128  36.988  1.00  0.00     0.040 A 
ATOM     52  F   UNL A   1      39.510  32.958  36.289  1.00  0.00    -0.206 F 
ATOM     53  C   UNL A   1      40.693  36.347  36.759  1.00  0.00     0.006 A 
ENDBRANCH  25  46
BRANCH  37  54
ATOM     54  C   UNL A   1      44.862  28.742  33.497  1.00  0.00     0.057 A 
ATOM     55  C   UNL A   1      46.134  29.190  33.122  1.00  0.00     0.134 A 
ATOM     56  C   UNL A   1      44.784  27.821  34.551  1.00  0.00     0.134 A 
ATOM     57  F   UNL A   1      46.279  30.059  32.110  1.00  0.00    -0.206 F 
ATOM     58  C   UNL A   1      47.285  28.737  33.769  1.00  0.00     0.040 A 
ATOM     59  C   UNL A   1      45.925  27.383  35.223  1.00  0.00     0.040 A 
ATOM     60  F   UNL A   1      43.595  27.356  34.962  1.00  0.00    -0.206 F 
ATOM     61  C   UNL A   1      47.181  27.840  34.831  1.00  0.00     0.006 A 
ENDBRANCH  37  54
ENDBRANCH  11  12
ENDBRANCH   4   6
ENDBRANCH   1   2
BRANCH   1  62
ATOM     62  C   UNL A   1      31.131  31.496  26.036  1.00  0.00     0.042 C 
BRANCH  62  63
ATOM     63  C   UNL A   1      31.385  30.161  25.353  1.00  0.00     0.118 C 
BRANCH  63  64
ATOM     64  N   UNL A   1      30.827  30.100  24.008  1.00  0.00    -0.352 N 
ATOM     65  C   UNL A   1      30.640  29.021  23.183  1.00  0.00     0.251 C 
ATOM     66  H   UNL A   1      30.540  30.964  23.635  1.00  0.00     0.163 HD
ATOM     67  O   UNL A   1      30.306  29.183  22.013  1.00  0.00    -0.269 OA
BRANCH  65  68
ATOM     68  C   UNL A   1      30.874  27.660  23.698  1.00  0.00     0.041 A 
ATOM     69  C   UNL A   1      29.817  26.992  24.321  1.00  0.00     0.014 A 
ATOM     70  C   UNL A   1      32.122  27.045  23.543  1.00  0.00     0.042 A 
ATOM     71  C   UNL A   1      29.971  25.659  24.683  1.00  0.00     0.003 A 
ATOM     72  C   UNL A   1      32.262  25.694  23.855  1.00  0.00     0.067 A 
ATOM     73  C   UNL A   1      31.172  25.003  24.409  1.00  0.00     0.028 A 
BRANCH  72  74
ATOM     74  N   UNL A   1      33.508  25.034  23.681  1.00  0.00    -0.221 N 
ATOM     75  N   UNL A   1      34.430  25.120  24.729  1.00  0.00    -0.260 N 
ATOM     76  C   UNL A   1      33.690  24.128  22.638  1.00  0.00     0.249 C 
ATOM     77  C   UNL A   1      35.421  24.207  24.956  1.00  0.00     0.243 C 
ATOM     78  H   UNL A   1      34.360  25.885  25.343  1.00  0.00     0.192 HD
ATOM     79  C   UNL A   1      34.482  22.900  23.010  1.00  0.00     0.097 C 
ATOM     80  O   UNL A   1      33.122  24.198  21.548  1.00  0.00    -0.272 OA
ATOM     81  O   UNL A   1      36.091  24.283  25.984  1.00  0.00    -0.273 OA
ATOM     82  C   UNL A   1      35.717  23.228  23.837  1.00  0.00     0.097 C 
ATOM     83  C   UNL A   1      33.489  21.963  23.720  1.00  0.00     0.041 C 
ATOM     84  C   UNL A   1      36.400  21.950  24.357  1.00  0.00     0.041 C 
ATOM     85  C   UNL A   1      34.138  20.891  24.527  1.00  0.00    -0.030 C 
ATOM     86  C   UNL A   1      35.447  20.880  24.806  1.00  0.00    -0.030 C 
ENDBRANCH  72  74
ENDBRANCH  65  68
ENDBRANCH  63  64
ENDBRANCH  62  63
ENDBRANCH   1  62
TORSDOF 11
ENDMDL
MODEL 3
REMARK VINA RESULT:     -12.8      4.283      9.357
REMARK SMILES O=C(NCCCNC(=O)c1cccc(N2NC(=O)[C@H]3CC=CC[C@H]3C2=O)c1)c1ccc(-c2c3nc(c(-c4c(F)cccc4F)c4ccc([nH]4)c(-c4c(F)cccc4F)c4nc(c(-c5c(F)cccc5F)c5ccc2[nH]5)C=C4)C=C3)cc1
REMARK SMILES IDX 4 1 3 2 1 3 2 4 28 6 29 7 81 8 30 9 80 10 31 11 32 12 33 13
REMARK SMILES IDX 74 14 34 15 79 16 73 17 75 18 35 19 78 20 72 21 71 22 36 24
REMARK SMILES IDX 62 25 45 26 61 27 46 28 49 29 60 30 76 31 47 32 48 33 59 35
REMARK SMILES IDX 77 36 50 37 37 38 38 39 43 40 39 41 40 42 42 43 44 44 41 45
REMARK SMILES IDX 63 46 64 47 69 48 65 49 66 50 68 51 70 52 67 53 51 54 52 55
REMARK SMILES IDX 57 56 53 57 54 58 56 59 58 60 55 61 5 62 6 63 7 64 8 65 9 67
REMARK SMILES IDX 10 68 11 69 27 70 12 71 14 72 13 73 15 74 16 75 25 76 17 77
REMARK SMILES IDX 24 79 26 80 18 81 19 82 23 83 20 84 22 85 21 86
REMARK H PARENT 3 5 75 23 49 34 7 66 16 78
REMARK Flexibility Score: inf
ROOT
ATOM      1  C   UNL A   1      32.702  32.428  26.880  1.00  0.00     0.118 C 
ENDROOT
BRANCH   1   2
ATOM      2  N   UNL A   1      32.535  33.772  27.415  1.00  0.00    -0.352 N 
ATOM      3  O   UNL A   1      32.772  35.479  28.862  1.00  0.00    -0.269 OA
ATOM      4  C   UNL A   1      33.189  34.403  28.443  1.00  0.00     0.251 C 
ATOM      5  H   UNL A   1      31.844  34.313  26.968  1.00  0.00     0.163 HD
BRANCH   4   6
ATOM      6  C   UNL A   1      34.380  33.784  29.060  1.00  0.00     0.039 A 
ATOM      7  C   UNL A   1      35.663  34.264  28.787  1.00  0.00     0.014 A 
ATOM      8  C   UNL A   1      34.205  32.724  29.954  1.00  0.00     0.014 A 
ATOM      9  C   UNL A   1      36.776  33.594  29.282  1.00  0.00     0.010 A 
ATOM     10  C   UNL A   1      35.320  32.113  30.530  1.00  0.00     0.010 A 
ATOM     11  C   UNL A   1      36.615  32.526  30.177  1.00  0.00    -0.014 A 
BRANCH  11  12
ATOM     12  C   UNL A   1      37.807  31.896  30.795  1.00  0.00     0.031 A 
ATOM     13  C   UNL A   1      38.588  30.843  30.068  1.00  0.00     0.074 A 
ATOM     14  C   UNL A   1      38.159  32.263  32.042  1.00  0.00     0.049 A 
ATOM     15  N   UNL A   1      39.603  30.130  30.488  1.00  0.00    -0.248 NA
ATOM     16  C   UNL A   1      38.170  30.540  28.691  1.00  0.00     0.031 C 
ATOM     17  C   UNL A   1      37.469  33.270  32.850  1.00  0.00     0.029 A 
ATOM     18  N   UNL A   1      39.175  31.823  32.853  1.00  0.00    -0.354 N 
ATOM     19  C   UNL A   1      39.927  29.278  29.441  1.00  0.00     0.074 A 
ATOM     20  C   UNL A   1      38.985  29.545  28.375  1.00  0.00     0.031 C 
ATOM     21  C   UNL A   1      38.082  33.378  34.036  1.00  0.00     0.029 A 
ATOM     22  C   UNL A   1      39.162  32.400  34.099  1.00  0.00     0.049 A 
ATOM     23  H   UNL A   1      39.844  31.160  32.570  1.00  0.00     0.167 HD
ATOM     24  C   UNL A   1      40.923  28.360  29.379  1.00  0.00     0.037 A 
ATOM     25  C   UNL A   1      39.905  32.142  35.190  1.00  0.00     0.037 A 
ATOM     26  C   UNL A   1      41.853  28.106  30.451  1.00  0.00     0.049 A 
ATOM     27  C   UNL A   1      40.973  31.090  35.116  1.00  0.00     0.074 A 
ATOM     28  C   UNL A   1      42.926  27.233  30.470  1.00  0.00     0.029 A 
ATOM     29  N   UNL A   1      41.806  28.709  31.700  1.00  0.00    -0.354 N 
ATOM     30  N   UNL A   1      41.303  30.326  34.104  1.00  0.00    -0.248 NA
ATOM     31  C   UNL A   1      41.769  30.866  36.328  1.00  0.00     0.031 C 
ATOM     32  C   UNL A   1      43.488  27.259  31.751  1.00  0.00     0.029 A 
ATOM     33  C   UNL A   1      42.809  28.200  32.509  1.00  0.00     0.049 A 
ATOM     34  H   UNL A   1      41.157  29.397  31.971  1.00  0.00     0.167 HD
ATOM     35  C   UNL A   1      42.362  29.544  34.548  1.00  0.00     0.074 A 
ATOM     36  C   UNL A   1      42.620  29.934  35.919  1.00  0.00     0.031 C 
ATOM     37  C   UNL A   1      43.059  28.597  33.874  1.00  0.00     0.037 A 
BRANCH  24  38
ATOM     38  C   UNL A   1      41.027  27.536  28.126  1.00  0.00     0.057 A 
ATOM     39  C   UNL A   1      41.828  27.919  27.041  1.00  0.00     0.134 A 
ATOM     40  C   UNL A   1      40.320  26.332  28.008  1.00  0.00     0.134 A 
ATOM     41  F   UNL A   1      42.527  29.065  27.082  1.00  0.00    -0.206 F 
ATOM     42  C   UNL A   1      41.887  27.159  25.871  1.00  0.00     0.040 A 
ATOM     43  C   UNL A   1      40.397  25.546  26.856  1.00  0.00     0.040 A 
ATOM     44  F   UNL A   1      39.544  25.896  29.011  1.00  0.00    -0.206 F 
ATOM     45  C   UNL A   1      41.174  25.966  25.778  1.00  0.00     0.006 A 
ENDBRANCH  24  38
BRANCH  25  46
ATOM     46  C   UNL A   1      39.631  32.889  36.442  1.00  0.00     0.057 A 
ATOM     47  C   UNL A   1      40.319  34.064  36.753  1.00  0.00     0.134 A 
ATOM     48  C   UNL A   1      38.628  32.472  37.327  1.00  0.00     0.134 A 
ATOM     49  F   UNL A   1      41.298  34.507  35.949  1.00  0.00    -0.206 F 
ATOM     50  C   UNL A   1      40.022  34.801  37.900  1.00  0.00     0.040 A 
ATOM     51  C   UNL A   1      38.301  33.212  38.463  1.00  0.00     0.040 A 
ATOM     52  F   UNL A   1      37.922  31.360  37.076  1.00  0.00    -0.206 F 
ATOM     53  C   UNL A   1      39.003  34.380  38.754  1.00  0.00     0.006 A 
ENDBRANCH  25  46
BRANCH  37  54
ATOM     54  C   UNL A   1      44.198  27.935  34.591  1.00  0.00     0.057 A 
ATOM     55  C   UNL A   1      45.484  28.489  34.615  1.00  0.00     0.134 A 
ATOM     56  C   UNL A   1      43.984  26.764  35.331  1.00  0.00     0.134 A 
ATOM     57  F   UNL A   1      45.760  29.600  33.914  1.00  0.00    -0.206 F 
ATOM     58  C   UNL A   1      46.518  27.899  35.344  1.00  0.00     0.040 A 
ATOM     59  C   UNL A   1      45.002  26.181  36.086  1.00  0.00     0.040 A 
ATOM     60  F   UNL A   1      42.774  26.186  35.354  1.00  0.00    -0.206 F 
ATOM     61  C   UNL A   1      46.274  26.748  36.092  1.00  0.00     0.006 A 
ENDBRANCH  37  54
ENDBRANCH  11  12
ENDBRANCH   4   6
ENDBRANCH   1   2
BRANCH   1  62
ATOM     62  C   UNL A   1      31.383  31.777  26.499  1.00  0.00     0.042 C 
BRANCH  62  63
ATOM     63  C   UNL A   1      31.499  30.306  26.130  1.00  0.00     0.118 C 
BRANCH  63  64
ATOM     64  N   UNL A   1      32.397  30.076  25.006  1.00  0.00    -0.352 N 
ATOM     65  C   UNL A   1      32.414  29.054  24.092  1.00  0.00     0.251 C 
ATOM     66  H   UNL A   1      33.097  30.757  24.884  1.00  0.00     0.163 HD
ATOM     67  O   UNL A   1      33.352  28.937  23.308  1.00  0.00    -0.269 OA
BRANCH  65  68
ATOM     68  C   UNL A   1      31.315  28.073  24.073  1.00  0.00     0.041 A 
ATOM     69  C   UNL A   1      30.060  28.485  23.618  1.00  0.00     0.014 A 
ATOM     70  C   UNL A   1      31.533  26.751  24.481  1.00  0.00     0.042 A 
ATOM     71  C   UNL A   1      29.050  27.545  23.455  1.00  0.00     0.003 A 
ATOM     72  C   UNL A   1      30.541  25.797  24.268  1.00  0.00     0.067 A 
ATOM     73  C   UNL A   1      29.305  26.201  23.735  1.00  0.00     0.028 A 
BRANCH  72  74
ATOM     74  N   UNL A   1      30.744  24.442  24.643  1.00  0.00    -0.221 N 
ATOM     75  N   UNL A   1      31.232  23.572  23.663  1.00  0.00    -0.260 N 
ATOM     76  C   UNL A   1      30.716  24.067  25.985  1.00  0.00     0.249 C 
ATOM     77  C   UNL A   1      31.920  22.423  23.931  1.00  0.00     0.243 C 
ATOM     78  H   UNL A   1      31.070  23.803  22.720  1.00  0.00     0.192 HD
ATOM     79  C   UNL A   1      31.762  23.053  26.371  1.00  0.00     0.097 C 
ATOM     80  O   UNL A   1      30.035  24.620  26.848  1.00  0.00    -0.272 OA
ATOM     81  O   UNL A   1      32.438  21.798  23.007  1.00  0.00    -0.273 OA
ATOM     82  C   UNL A   1      31.882  21.920  25.360  1.00  0.00     0.097 C 
ATOM     83  C   UNL A   1      33.064  23.850  26.567  1.00  0.00     0.041 C 
ATOM     84  C   UNL A   1      33.077  21.006  25.680  1.00  0.00     0.041 C 
ATOM     85  C   UNL A   1      34.298  23.013  26.544  1.00  0.00    -0.030 C 
ATOM     86  C   UNL A   1      34.303  21.733  26.154  1.00  0.00    -0.030 C 
ENDBRANCH  72  74
ENDBRANCH  65  68
ENDBRANCH  63  64
ENDBRANCH  62  63
ENDBRANCH   1  62
TORSDOF 11
ENDMDL
