MODEL 1
REMARK VINA RESULT:     -10.4      0.000      0.000
REMARK SMILES O=C(C[C@@H](c1c[nH]c2ccccc12)C(F)(F)F)NCCCNC(=O)c1ccc(-c2c3nc(c(-c4c(F)cccc4F)c4ccc([nH]4)c(-c4c(F)cccc4F)c4nc(c(-c5c(F)cccc5F)c5ccc2[nH]5)C=C4)C=C3)cc1
REMARK SMILES IDX 20 1 19 2 18 3 1 4 2 5 3 7 4 8 5 9 6 10 13 11 7 12 8 13
REMARK SMILES IDX 12 14 9 16 11 17 10 18 14 19 15 20 16 21 17 22 21 23 22 24
REMARK SMILES IDX 23 25 24 27 25 28 26 29 78 30 27 31 77 32 28 33 29 34 30 35
REMARK SMILES IDX 71 36 31 37 76 38 70 39 72 40 32 41 75 42 69 43 68 44 33 46
REMARK SMILES IDX 59 47 42 48 58 49 43 50 46 51 57 52 73 53 44 54 45 55 56 57
REMARK SMILES IDX 74 58 47 59 34 60 35 61 40 62 36 63 37 64 39 65 41 66 38 67
REMARK SMILES IDX 60 68 61 69 66 70 62 71 63 72 65 73 67 74 64 75 48 76 49 77
REMARK SMILES IDX 54 78 50 79 51 80 53 81 55 82 52 83
REMARK H PARENT 18 6 7 15 22 26 72 45 46 56
REMARK Flexibility Score: inf
ROOT
ATOM      1  C   UNL A   1      33.750  34.339  28.004  1.00  0.00     0.042 C 
ENDROOT
BRANCH   1   2
ATOM      2  C   UNL A   1      33.290  35.296  29.095  1.00  0.00     0.117 C 
BRANCH   2   3
ATOM      3  N   UNL A   1      34.205  35.333  30.216  1.00  0.00    -0.356 N 
ATOM      4  O   UNL A   1      32.607  35.390  31.865  1.00  0.00    -0.275 OA
ATOM      5  C   UNL A   1      33.783  35.324  31.523  1.00  0.00     0.220 C 
ATOM      6  H   UNL A   1      35.172  35.366  30.033  1.00  0.00     0.163 HD
BRANCH   5   7
ATOM      7  C   UNL A   1      34.903  35.176  32.529  1.00  0.00     0.117 C 
BRANCH   7   8
ATOM      8  C   UNL A   1      35.847  34.031  32.124  1.00  0.00     0.136 C 
BRANCH   8   9
ATOM      9  C   UNL A   1      37.285  34.299  32.541  1.00  0.00    -0.010 A 
ATOM     10  C   UNL A   1      37.685  34.553  33.843  1.00  0.00     0.087 A 
ATOM     11  C   UNL A   1      38.484  34.271  31.747  1.00  0.00     0.003 A 
ATOM     12  N   UNL A   1      39.046  34.666  33.872  1.00  0.00    -0.361 N 
ATOM     13  C   UNL A   1      39.560  34.485  32.612  1.00  0.00     0.046 A 
ATOM     14  C   UNL A   1      38.771  34.066  30.380  1.00  0.00     0.010 A 
ATOM     15  H   UNL A   1      39.580  34.851  34.679  1.00  0.00     0.166 HD
ATOM     16  C   UNL A   1      40.894  34.504  32.184  1.00  0.00     0.026 A 
ATOM     17  C   UNL A   1      40.098  34.102  29.932  1.00  0.00     0.001 A 
ATOM     18  C   UNL A   1      41.143  34.315  30.824  1.00  0.00     0.002 A 
ENDBRANCH   8   9
BRANCH   8  19
ATOM     19  C   UNL A   1      35.282  32.698  32.600  1.00  0.00     0.396 C 
ATOM     20  F   UNL A   1      34.549  32.122  31.615  1.00  0.00    -0.170 F 
ATOM     21  F   UNL A   1      36.252  31.820  32.931  1.00  0.00    -0.170 F 
ATOM     22  F   UNL A   1      34.460  32.834  33.664  1.00  0.00    -0.170 F 
ENDBRANCH   8  19
ENDBRANCH   7   8
ENDBRANCH   5   7
ENDBRANCH   2   3
ENDBRANCH   1   2
BRANCH   1  23
ATOM     23  C   UNL A   1      34.243  32.982  28.499  1.00  0.00     0.118 C 
BRANCH  23  24
ATOM     24  N   UNL A   1      33.707  31.857  27.749  1.00  0.00    -0.352 N 
ATOM     25  C   UNL A   1      34.257  30.620  27.512  1.00  0.00     0.251 C 
ATOM     26  H   UNL A   1      32.818  32.003  27.351  1.00  0.00     0.163 HD
ATOM     27  O   UNL A   1      33.666  29.824  26.784  1.00  0.00    -0.269 OA
BRANCH  25  28
ATOM     28  C   UNL A   1      35.567  30.250  28.097  1.00  0.00     0.039 A 
ATOM     29  C   UNL A   1      35.596  29.695  29.381  1.00  0.00     0.014 A 
ATOM     30  C   UNL A   1      36.762  30.448  27.401  1.00  0.00     0.014 A 
ATOM     31  C   UNL A   1      36.811  29.279  29.935  1.00  0.00     0.010 A 
ATOM     32  C   UNL A   1      37.962  29.962  27.922  1.00  0.00     0.010 A 
ATOM     33  C   UNL A   1      38.001  29.372  29.195  1.00  0.00    -0.014 A 
BRANCH  33  34
ATOM     34  C   UNL A   1      39.286  28.851  29.738  1.00  0.00     0.031 A 
ATOM     35  C   UNL A   1      39.911  29.474  30.959  1.00  0.00     0.074 A 
ATOM     36  C   UNL A   1      39.922  27.845  29.105  1.00  0.00     0.049 A 
ATOM     37  N   UNL A   1      41.041  29.178  31.552  1.00  0.00    -0.248 NA
ATOM     38  C   UNL A   1      39.183  30.589  31.581  1.00  0.00     0.031 C 
ATOM     39  C   UNL A   1      39.453  27.182  27.886  1.00  0.00     0.029 A 
ATOM     40  N   UNL A   1      41.103  27.207  29.395  1.00  0.00    -0.354 N 
ATOM     41  C   UNL A   1      41.162  30.074  32.607  1.00  0.00     0.074 A 
ATOM     42  C   UNL A   1      40.019  30.959  32.540  1.00  0.00     0.031 C 
ATOM     43  C   UNL A   1      40.322  26.215  27.550  1.00  0.00     0.029 A 
ATOM     44  C   UNL A   1      41.429  26.214  28.502  1.00  0.00     0.049 A 
ATOM     45  H   UNL A   1      41.665  27.440  30.170  1.00  0.00     0.167 HD
ATOM     46  C   UNL A   1      42.123  30.140  33.561  1.00  0.00     0.037 A 
ATOM     47  C   UNL A   1      42.499  25.397  28.450  1.00  0.00     0.037 A 
ATOM     48  C   UNL A   1      43.252  29.250  33.640  1.00  0.00     0.049 A 
ATOM     49  C   UNL A   1      43.560  25.502  29.510  1.00  0.00     0.074 A 
ATOM     50  C   UNL A   1      44.247  29.205  34.602  1.00  0.00     0.029 A 
ATOM     51  N   UNL A   1      43.541  28.254  32.721  1.00  0.00    -0.354 N 
ATOM     52  N   UNL A   1      43.622  26.307  30.543  1.00  0.00    -0.248 NA
ATOM     53  C   UNL A   1      44.698  24.578  29.402  1.00  0.00     0.031 C 
ATOM     54  C   UNL A   1      45.166  28.216  34.236  1.00  0.00     0.029 A 
ATOM     55  C   UNL A   1      44.713  27.606  33.078  1.00  0.00     0.049 A 
ATOM     56  H   UNL A   1      42.996  28.039  31.930  1.00  0.00     0.167 HD
ATOM     57  C   UNL A   1      44.785  25.966  31.223  1.00  0.00     0.074 A 
ATOM     58  C   UNL A   1      45.389  24.870  30.494  1.00  0.00     0.031 C 
ATOM     59  C   UNL A   1      45.305  26.511  32.350  1.00  0.00     0.037 A 
BRANCH  46  60
ATOM     60  C   UNL A   1      41.993  31.216  34.603  1.00  0.00     0.057 A 
ATOM     61  C   UNL A   1      41.206  31.045  35.749  1.00  0.00     0.134 A 
ATOM     62  C   UNL A   1      42.695  32.422  34.478  1.00  0.00     0.134 A 
ATOM     63  F   UNL A   1      40.499  29.917  35.927  1.00  0.00    -0.206 F 
ATOM     64  C   UNL A   1      41.099  32.043  36.720  1.00  0.00     0.040 A 
ATOM     65  C   UNL A   1      42.619  33.415  35.456  1.00  0.00     0.040 A 
ATOM     66  F   UNL A   1      43.474  32.650  33.410  1.00  0.00    -0.206 F 
ATOM     67  C   UNL A   1      41.814  33.230  36.577  1.00  0.00     0.006 A 
ENDBRANCH  46  60
BRANCH  47  68
ATOM     68  C   UNL A   1      42.615  24.390  27.364  1.00  0.00     0.057 A 
ATOM     69  C   UNL A   1      42.181  23.073  27.550  1.00  0.00     0.134 A 
ATOM     70  C   UNL A   1      43.178  24.714  26.123  1.00  0.00     0.134 A 
ATOM     71  F   UNL A   1      41.652  22.696  28.724  1.00  0.00    -0.206 F 
ATOM     72  C   UNL A   1      42.322  22.107  26.553  1.00  0.00     0.040 A 
ATOM     73  C   UNL A   1      43.299  23.765  25.106  1.00  0.00     0.040 A 
ATOM     74  F   UNL A   1      43.608  25.960  25.878  1.00  0.00    -0.206 F 
ATOM     75  C   UNL A   1      42.878  22.454  25.323  1.00  0.00     0.006 A 
ENDBRANCH  47  68
BRANCH  59  76
ATOM     76  C   UNL A   1      46.569  25.906  32.889  1.00  0.00     0.057 A 
ATOM     77  C   UNL A   1      46.555  24.836  33.792  1.00  0.00     0.134 A 
ATOM     78  C   UNL A   1      47.820  26.382  32.472  1.00  0.00     0.134 A 
ATOM     79  F   UNL A   1      45.392  24.340  34.241  1.00  0.00    -0.206 F 
ATOM     80  C   UNL A   1      47.738  24.280  34.284  1.00  0.00     0.040 A 
ATOM     81  C   UNL A   1      49.009  25.816  32.933  1.00  0.00     0.040 A 
ATOM     82  F   UNL A   1      47.907  27.398  31.600  1.00  0.00    -0.206 F 
ATOM     83  C   UNL A   1      48.970  24.766  33.849  1.00  0.00     0.006 A 
ENDBRANCH  59  76
ENDBRANCH  33  34
ENDBRANCH  25  28
ENDBRANCH  23  24
ENDBRANCH   1  23
TORSDOF 13
ENDMDL
MODEL 2
REMARK VINA RESULT:     -10.2      3.779     11.013
REMARK SMILES O=C(C[C@@H](c1c[nH]c2ccccc12)C(F)(F)F)NCCCNC(=O)c1ccc(-c2c3nc(c(-c4c(F)cccc4F)c4ccc([nH]4)c(-c4c(F)cccc4F)c4nc(c(-c5c(F)cccc5F)c5ccc2[nH]5)C=C4)C=C3)cc1
REMARK SMILES IDX 20 1 19 2 18 3 1 4 2 5 3 7 4 8 5 9 6 10 13 11 7 12 8 13
REMARK SMILES IDX 12 14 9 16 11 17 10 18 14 19 15 20 16 21 17 22 21 23 22 24
REMARK SMILES IDX 23 25 24 27 25 28 26 29 78 30 27 31 77 32 28 33 29 34 30 35
REMARK SMILES IDX 71 36 31 37 76 38 70 39 72 40 32 41 75 42 69 43 68 44 33 46
REMARK SMILES IDX 59 47 42 48 58 49 43 50 46 51 57 52 73 53 44 54 45 55 56 57
REMARK SMILES IDX 74 58 47 59 34 60 35 61 40 62 36 63 37 64 39 65 41 66 38 67
REMARK SMILES IDX 60 68 61 69 66 70 62 71 63 72 65 73 67 74 64 75 48 76 49 77
REMARK SMILES IDX 54 78 50 79 51 80 53 81 55 82 52 83
REMARK H PARENT 18 6 7 15 22 26 72 45 46 56
REMARK Flexibility Score: inf
ROOT
ATOM      1  C   UNL A   1      41.099  19.941  26.721  1.00  0.00     0.042 C 
ENDROOT
BRANCH   1   2
ATOM      2  C   UNL A   1      42.353  19.360  26.082  1.00  0.00     0.117 C 
BRANCH   2   3
ATOM      3  N   UNL A   1      43.484  20.258  26.176  1.00  0.00    -0.356 N 
ATOM      4  O   UNL A   1      44.607  19.468  24.334  1.00  0.00    -0.275 OA
ATOM      5  C   UNL A   1      44.502  20.272  25.254  1.00  0.00     0.220 C 
ATOM      6  H   UNL A   1      43.526  20.885  26.933  1.00  0.00     0.163 HD
BRANCH   5   7
ATOM      7  C   UNL A   1      45.482  21.410  25.438  1.00  0.00     0.117 C 
BRANCH   7   8
ATOM      8  C   UNL A   1      44.749  22.688  25.881  1.00  0.00     0.136 C 
BRANCH   8   9
ATOM      9  C   UNL A   1      45.585  23.527  26.836  1.00  0.00    -0.010 A 
ATOM     10  C   UNL A   1      46.815  24.079  26.517  1.00  0.00     0.087 A 
ATOM     11  C   UNL A   1      45.274  23.972  28.168  1.00  0.00     0.003 A 
ATOM     12  N   UNL A   1      47.247  24.833  27.570  1.00  0.00    -0.361 N 
ATOM     13  C   UNL A   1      46.322  24.798  28.585  1.00  0.00     0.046 A 
ATOM     14  C   UNL A   1      44.198  23.776  29.060  1.00  0.00     0.010 A 
ATOM     15  H   UNL A   1      48.097  25.330  27.599  1.00  0.00     0.166 HD
ATOM     16  C   UNL A   1      46.347  25.430  29.834  1.00  0.00     0.026 A 
ATOM     17  C   UNL A   1      44.217  24.384  30.322  1.00  0.00     0.001 A 
ATOM     18  C   UNL A   1      45.276  25.202  30.700  1.00  0.00     0.002 A 
ENDBRANCH   8   9
BRANCH   8  19
ATOM     19  C   UNL A   1      44.229  23.439  24.660  1.00  0.00     0.396 C 
ATOM     20  F   UNL A   1      45.084  23.286  23.618  1.00  0.00    -0.170 F 
ATOM     21  F   UNL A   1      43.027  22.980  24.252  1.00  0.00    -0.170 F 
ATOM     22  F   UNL A   1      44.118  24.767  24.877  1.00  0.00    -0.170 F 
ENDBRANCH   8  19
ENDBRANCH   7   8
ENDBRANCH   5   7
ENDBRANCH   2   3
ENDBRANCH   1   2
BRANCH   1  23
ATOM     23  C   UNL A   1      40.795  21.391  26.350  1.00  0.00     0.118 C 
BRANCH  23  24
ATOM     24  N   UNL A   1      39.407  21.621  25.985  1.00  0.00    -0.352 N 
ATOM     25  C   UNL A   1      38.642  22.755  26.116  1.00  0.00     0.251 C 
ATOM     26  H   UNL A   1      38.945  20.849  25.583  1.00  0.00     0.163 HD
ATOM     27  O   UNL A   1      37.452  22.724  25.808  1.00  0.00    -0.269 OA
BRANCH  25  28
ATOM     28  C   UNL A   1      39.230  24.004  26.656  1.00  0.00     0.039 A 
ATOM     29  C   UNL A   1      39.919  24.853  25.783  1.00  0.00     0.014 A 
ATOM     30  C   UNL A   1      39.114  24.345  28.006  1.00  0.00     0.014 A 
ATOM     31  C   UNL A   1      40.431  26.069  26.249  1.00  0.00     0.010 A 
ATOM     32  C   UNL A   1      39.557  25.590  28.452  1.00  0.00     0.010 A 
ATOM     33  C   UNL A   1      40.221  26.467  27.580  1.00  0.00    -0.014 A 
BRANCH  33  34
ATOM     34  C   UNL A   1      40.683  27.797  28.066  1.00  0.00     0.031 A 
ATOM     35  C   UNL A   1      42.150  28.139  28.087  1.00  0.00     0.074 A 
ATOM     36  C   UNL A   1      39.786  28.687  28.536  1.00  0.00     0.049 A 
ATOM     37  N   UNL A   1      42.739  29.230  28.508  1.00  0.00    -0.248 NA
ATOM     38  C   UNL A   1      43.077  27.111  27.591  1.00  0.00     0.031 C 
ATOM     39  C   UNL A   1      38.340  28.468  28.617  1.00  0.00     0.029 A 
ATOM     40  N   UNL A   1      39.958  29.953  29.041  1.00  0.00    -0.354 N 
ATOM     41  C   UNL A   1      44.101  29.016  28.337  1.00  0.00     0.074 A 
ATOM     42  C   UNL A   1      44.254  27.670  27.827  1.00  0.00     0.031 C 
ATOM     43  C   UNL A   1      37.756  29.570  29.114  1.00  0.00     0.029 A 
ATOM     44  C   UNL A   1      38.785  30.558  29.425  1.00  0.00     0.049 A 
ATOM     45  H   UNL A   1      40.839  30.385  29.122  1.00  0.00     0.167 HD
ATOM     46  C   UNL A   1      45.131  29.869  28.561  1.00  0.00     0.037 A 
ATOM     47  C   UNL A   1      38.561  31.769  29.971  1.00  0.00     0.037 A 
ATOM     48  C   UNL A   1      44.980  31.213  29.053  1.00  0.00     0.049 A 
ATOM     49  C   UNL A   1      39.722  32.690  30.225  1.00  0.00     0.074 A 
ATOM     50  C   UNL A   1      45.960  32.170  29.259  1.00  0.00     0.029 A 
ATOM     51  N   UNL A   1      43.775  31.791  29.423  1.00  0.00    -0.354 N 
ATOM     52  N   UNL A   1      40.998  32.500  29.990  1.00  0.00    -0.248 NA
ATOM     53  C   UNL A   1      39.411  34.001  30.815  1.00  0.00     0.031 C 
ATOM     54  C   UNL A   1      45.354  33.308  29.802  1.00  0.00     0.029 A 
ATOM     55  C   UNL A   1      43.989  33.082  29.881  1.00  0.00     0.049 A 
ATOM     56  H   UNL A   1      42.897  31.349  29.370  1.00  0.00     0.167 HD
ATOM     57  C   UNL A   1      41.635  33.674  30.372  1.00  0.00     0.074 A 
ATOM     58  C   UNL A   1      40.604  34.576  30.840  1.00  0.00     0.031 C 
ATOM     59  C   UNL A   1      42.956  33.977  30.338  1.00  0.00     0.037 A 
BRANCH  46  60
ATOM     60  C   UNL A   1      46.519  29.370  28.272  1.00  0.00     0.057 A 
ATOM     61  C   UNL A   1      47.318  28.789  29.266  1.00  0.00     0.134 A 
ATOM     62  C   UNL A   1      47.049  29.435  26.977  1.00  0.00     0.134 A 
ATOM     63  F   UNL A   1      46.875  28.704  30.531  1.00  0.00    -0.206 F 
ATOM     64  C   UNL A   1      48.602  28.316  28.989  1.00  0.00     0.040 A 
ATOM     65  C   UNL A   1      48.320  28.939  26.682  1.00  0.00     0.040 A 
ATOM     66  F   UNL A   1      46.336  29.972  25.976  1.00  0.00    -0.206 F 
ATOM     67  C   UNL A   1      49.103  28.384  27.691  1.00  0.00     0.006 A 
ENDBRANCH  46  60
BRANCH  47  68
ATOM     68  C   UNL A   1      37.176  32.194  30.298  1.00  0.00     0.057 A 
ATOM     69  C   UNL A   1      36.603  31.900  31.541  1.00  0.00     0.134 A 
ATOM     70  C   UNL A   1      36.385  32.886  29.372  1.00  0.00     0.134 A 
ATOM     71  F   UNL A   1      37.303  31.221  32.462  1.00  0.00    -0.206 F 
ATOM     72  C   UNL A   1      35.289  32.257  31.846  1.00  0.00     0.040 A 
ATOM     73  C   UNL A   1      35.078  33.276  29.674  1.00  0.00     0.040 A 
ATOM     74  F   UNL A   1      36.875  33.205  28.165  1.00  0.00    -0.206 F 
ATOM     75  C   UNL A   1      34.524  32.953  30.911  1.00  0.00     0.006 A 
ENDBRANCH  47  68
BRANCH  59  76
ATOM     76  C   UNL A   1      43.360  35.354  30.781  1.00  0.00     0.057 A 
ATOM     77  C   UNL A   1      43.709  35.636  32.108  1.00  0.00     0.134 A 
ATOM     78  C   UNL A   1      43.430  36.406  29.858  1.00  0.00     0.134 A 
ATOM     79  F   UNL A   1      43.652  34.677  33.044  1.00  0.00    -0.206 F 
ATOM     80  C   UNL A   1      44.085  36.921  32.506  1.00  0.00     0.040 A 
ATOM     81  C   UNL A   1      43.833  37.687  30.237  1.00  0.00     0.040 A 
ATOM     82  F   UNL A   1      43.119  36.204  28.568  1.00  0.00    -0.206 F 
ATOM     83  C   UNL A   1      44.154  37.949  31.568  1.00  0.00     0.006 A 
ENDBRANCH  59  76
ENDBRANCH  33  34
ENDBRANCH  25  28
ENDBRANCH  23  24
ENDBRANCH   1  23
TORSDOF 13
ENDMDL
MODEL 3
REMARK VINA RESULT:     -10.2      4.051      7.195
REMARK SMILES O=C(C[C@@H](c1c[nH]c2ccccc12)C(F)(F)F)NCCCNC(=O)c1ccc(-c2c3nc(c(-c4c(F)cccc4F)c4ccc([nH]4)c(-c4c(F)cccc4F)c4nc(c(-c5c(F)cccc5F)c5ccc2[nH]5)C=C4)C=C3)cc1
REMARK SMILES IDX 20 1 19 2 18 3 1 4 2 5 3 7 4 8 5 9 6 10 13 11 7 12 8 13
REMARK SMILES IDX 12 14 9 16 11 17 10 18 14 19 15 20 16 21 17 22 21 23 22 24
REMARK SMILES IDX 23 25 24 27 25 28 26 29 78 30 27 31 77 32 28 33 29 34 30 35
REMARK SMILES IDX 71 36 31 37 76 38 70 39 72 40 32 41 75 42 69 43 68 44 33 46
REMARK SMILES IDX 59 47 42 48 58 49 43 50 46 51 57 52 73 53 44 54 45 55 56 57
REMARK SMILES IDX 74 58 47 59 34 60 35 61 40 62 36 63 37 64 39 65 41 66 38 67
REMARK SMILES IDX 60 68 61 69 66 70 62 71 63 72 65 73 67 74 64 75 48 76 49 77
REMARK SMILES IDX 54 78 50 79 51 80 53 81 55 82 52 83
REMARK H PARENT 18 6 7 15 22 26 72 45 46 56
REMARK Flexibility Score: inf
ROOT
ATOM      1  C   UNL A   1      31.493  32.006  26.811  1.00  0.00     0.042 C 
ENDROOT
BRANCH   1   2
ATOM      2  C   UNL A   1      31.777  30.514  26.702  1.00  0.00     0.117 C 
BRANCH   2   3
ATOM      3  N   UNL A   1      32.114  30.117  25.351  1.00  0.00    -0.356 N 
ATOM      4  O   UNL A   1      33.718  28.573  25.919  1.00  0.00    -0.275 OA
ATOM      5  C   UNL A   1      33.029  29.132  25.072  1.00  0.00     0.220 C 
ATOM      6  H   UNL A   1      31.668  30.573  24.601  1.00  0.00     0.163 HD
BRANCH   5   7
ATOM      7  C   UNL A   1      33.089  28.747  23.609  1.00  0.00     0.117 C 
BRANCH   7   8
ATOM      8  C   UNL A   1      32.424  27.380  23.381  1.00  0.00     0.136 C 
BRANCH   8   9
ATOM      9  C   UNL A   1      30.906  27.476  23.363  1.00  0.00    -0.010 A 
ATOM     10  C   UNL A   1      30.061  26.582  23.999  1.00  0.00     0.087 A 
ATOM     11  C   UNL A   1      30.064  28.491  22.788  1.00  0.00     0.003 A 
ATOM     12  N   UNL A   1      28.772  27.010  23.849  1.00  0.00    -0.361 N 
ATOM     13  C   UNL A   1      28.746  28.178  23.127  1.00  0.00     0.046 A 
ATOM     14  C   UNL A   1      30.287  29.660  22.029  1.00  0.00     0.010 A 
ATOM     15  H   UNL A   1      27.978  26.548  24.205  1.00  0.00     0.166 HD
ATOM     16  C   UNL A   1      27.651  28.966  22.749  1.00  0.00     0.026 A 
ATOM     17  C   UNL A   1      29.202  30.448  21.625  1.00  0.00     0.001 A 
ATOM     18  C   UNL A   1      27.903  30.105  21.984  1.00  0.00     0.002 A 
ENDBRANCH   8   9
BRANCH   8  19
ATOM     19  C   UNL A   1      33.035  26.702  22.160  1.00  0.00     0.396 C 
ATOM     20  F   UNL A   1      33.859  27.561  21.510  1.00  0.00    -0.170 F 
ATOM     21  F   UNL A   1      33.777  25.624  22.491  1.00  0.00    -0.170 F 
ATOM     22  F   UNL A   1      32.103  26.309  21.264  1.00  0.00    -0.170 F 
ENDBRANCH   8  19
ENDBRANCH   7   8
ENDBRANCH   5   7
ENDBRANCH   2   3
ENDBRANCH   1   2
BRANCH   1  23
ATOM     23  C   UNL A   1      32.726  32.889  26.988  1.00  0.00     0.118 C 
BRANCH  23  24
ATOM     24  N   UNL A   1      32.444  34.165  27.625  1.00  0.00    -0.352 N 
ATOM     25  C   UNL A   1      33.066  34.769  28.691  1.00  0.00     0.251 C 
ATOM     26  H   UNL A   1      31.696  34.673  27.235  1.00  0.00     0.163 HD
ATOM     27  O   UNL A   1      32.626  35.831  29.128  1.00  0.00    -0.269 OA
BRANCH  25  28
ATOM     28  C   UNL A   1      34.241  34.138  29.337  1.00  0.00     0.039 A 
ATOM     29  C   UNL A   1      34.025  33.191  30.344  1.00  0.00     0.014 A 
ATOM     30  C   UNL A   1      35.547  34.470  28.968  1.00  0.00     0.014 A 
ATOM     31  C   UNL A   1      35.111  32.532  30.929  1.00  0.00     0.010 A 
ATOM     32  C   UNL A   1      36.624  33.758  29.496  1.00  0.00     0.010 A 
ATOM     33  C   UNL A   1      36.420  32.781  30.484  1.00  0.00    -0.014 A 
BRANCH  33  34
ATOM     34  C   UNL A   1      37.577  32.023  31.036  1.00  0.00     0.031 A 
ATOM     35  C   UNL A   1      38.090  32.309  32.422  1.00  0.00     0.074 A 
ATOM     36  C   UNL A   1      38.202  31.104  30.271  1.00  0.00     0.049 A 
ATOM     37  N   UNL A   1      39.106  31.776  33.055  1.00  0.00    -0.248 NA
ATOM     38  C   UNL A   1      37.384  33.346  33.189  1.00  0.00     0.031 C 
ATOM     39  C   UNL A   1      37.839  30.761  28.895  1.00  0.00     0.029 A 
ATOM     40  N   UNL A   1      39.278  30.295  30.541  1.00  0.00    -0.354 N 
ATOM     41  C   UNL A   1      39.165  32.419  34.286  1.00  0.00     0.074 A 
ATOM     42  C   UNL A   1      38.119  33.418  34.290  1.00  0.00     0.031 C 
ATOM     43  C   UNL A   1      38.660  29.795  28.452  1.00  0.00     0.029 A 
ATOM     44  C   UNL A   1      39.631  29.477  29.494  1.00  0.00     0.049 A 
ATOM     45  H   UNL A   1      39.754  30.302  31.403  1.00  0.00     0.167 HD
ATOM     46  C   UNL A   1      39.998  32.182  35.329  1.00  0.00     0.037 A 
ATOM     47  C   UNL A   1      40.627  28.577  29.381  1.00  0.00     0.037 A 
ATOM     48  C   UNL A   1      41.029  31.177  35.334  1.00  0.00     0.049 A 
ATOM     49  C   UNL A   1      41.548  28.346  30.547  1.00  0.00     0.074 A 
ATOM     50  C   UNL A   1      41.886  30.827  36.364  1.00  0.00     0.029 A 
ATOM     51  N   UNL A   1      41.349  30.365  34.256  1.00  0.00    -0.354 N 
ATOM     52  N   UNL A   1      41.545  28.910  31.730  1.00  0.00    -0.248 NA
ATOM     53  C   UNL A   1      42.610  27.345  30.363  1.00  0.00     0.031 C 
ATOM     54  C   UNL A   1      42.758  29.841  35.894  1.00  0.00     0.029 A 
ATOM     55  C   UNL A   1      42.408  29.534  34.588  1.00  0.00     0.049 A 
ATOM     56  H   UNL A   1      40.894  30.378  33.384  1.00  0.00     0.167 HD
ATOM     57  C   UNL A   1      42.579  28.312  32.441  1.00  0.00     0.074 A 
ATOM     58  C   UNL A   1      43.177  27.330  31.560  1.00  0.00     0.031 C 
ATOM     59  C   UNL A   1      42.994  28.554  33.708  1.00  0.00     0.037 A 
BRANCH  46  60
ATOM     60  C   UNL A   1      39.827  33.029  36.559  1.00  0.00     0.057 A 
ATOM     61  C   UNL A   1      38.900  32.703  37.558  1.00  0.00     0.134 A 
ATOM     62  C   UNL A   1      40.626  34.161  36.766  1.00  0.00     0.134 A 
ATOM     63  F   UNL A   1      38.096  31.637  37.419  1.00  0.00    -0.206 F 
ATOM     64  C   UNL A   1      38.754  33.486  38.704  1.00  0.00     0.040 A 
ATOM     65  C   UNL A   1      40.509  34.935  37.922  1.00  0.00     0.040 A 
ATOM     66  F   UNL A   1      41.539  34.527  35.855  1.00  0.00    -0.206 F 
ATOM     67  C   UNL A   1      39.566  34.603  38.891  1.00  0.00     0.006 A 
ENDBRANCH  46  60
BRANCH  47  68
ATOM     68  C   UNL A   1      40.796  27.808  28.122  1.00  0.00     0.057 A 
ATOM     69  C   UNL A   1      40.203  26.551  27.956  1.00  0.00     0.134 A 
ATOM     70  C   UNL A   1      41.569  28.300  27.062  1.00  0.00     0.134 A 
ATOM     71  F   UNL A   1      39.469  26.017  28.944  1.00  0.00    -0.206 F 
ATOM     72  C   UNL A   1      40.388  25.800  26.795  1.00  0.00     0.040 A 
ATOM     73  C   UNL A   1      41.739  27.573  25.882  1.00  0.00     0.040 A 
ATOM     74  F   UNL A   1      42.159  29.501  27.154  1.00  0.00    -0.206 F 
ATOM     75  C   UNL A   1      41.155  26.314  25.751  1.00  0.00     0.006 A 
ENDBRANCH  47  68
BRANCH  59  76
ATOM     76  C   UNL A   1      44.124  27.717  34.236  1.00  0.00     0.057 A 
ATOM     77  C   UNL A   1      45.456  28.148  34.183  1.00  0.00     0.134 A 
ATOM     78  C   UNL A   1      43.871  26.475  34.834  1.00  0.00     0.134 A 
ATOM     79  F   UNL A   1      45.769  29.322  33.614  1.00  0.00    -0.206 F 
ATOM     80  C   UNL A   1      46.497  27.361  34.680  1.00  0.00     0.040 A 
ATOM     81  C   UNL A   1      44.900  25.694  35.360  1.00  0.00     0.040 A 
ATOM     82  F   UNL A   1      42.617  26.006  34.926  1.00  0.00    -0.206 F 
ATOM     83  C   UNL A   1      46.220  26.133  35.276  1.00  0.00     0.006 A 
ENDBRANCH  59  76
ENDBRANCH  33  34
ENDBRANCH  25  28
ENDBRANCH  23  24
ENDBRANCH   1  23
TORSDOF 13
ENDMDL
