MODEL 1
REMARK VINA RESULT:     -11.7      0.000      0.000
REMARK SMILES O=C(COc1nc(-c2cccnc2)nc2c1CCCC2)NCCCNC(=O)c1ccc(-c2c3nc(c(-c4c(F)cccc4F)c4ccc([nH]4)c(-c4c(F)cccc4F)c4nc(c(-c5c(F)cccc5F)c5ccc2[nH]5)C=C4)C=C3)cc1
REMARK SMILES IDX 22 1 21 2 1 3 2 4 3 6 4 7 5 8 6 9 16 10 7 11 15 12 17 13
REMARK SMILES IDX 14 14 20 15 18 16 19 17 8 18 9 19 13 20 10 21 12 22 11 23
REMARK SMILES IDX 23 24 24 25 25 26 26 27 27 29 28 30 29 31 81 32 30 33 80 34
REMARK SMILES IDX 31 35 32 36 33 37 74 38 34 39 79 40 73 41 75 42 35 43 78 44
REMARK SMILES IDX 72 45 71 46 36 48 62 49 45 50 61 51 46 52 49 53 60 54 76 55
REMARK SMILES IDX 47 56 48 57 59 59 77 60 50 61 37 62 38 63 43 64 39 65 40 66
REMARK SMILES IDX 42 67 44 68 41 69 63 70 64 71 69 72 65 73 66 74 68 75 70 76
REMARK SMILES IDX 67 77 51 78 52 79 57 80 53 81 54 82 56 83 58 84 55 85
REMARK H PARENT 21 5 25 28 75 47 49 58
REMARK Flexibility Score: inf
ROOT
ATOM      1  C   UNL A   1      32.358  27.499  25.419  1.00  0.00     0.117 C 
ENDROOT
BRANCH   1   2
ATOM      2  N   UNL A   1      32.812  26.132  25.539  1.00  0.00    -0.353 N 
ATOM      3  O   UNL A   1      30.950  25.344  26.628  1.00  0.00    -0.271 OA
ATOM      4  C   UNL A   1      32.014  25.132  26.051  1.00  0.00     0.258 C 
ATOM      5  H   UNL A   1      33.724  25.907  25.246  1.00  0.00     0.163 HD
BRANCH   4   6
ATOM      6  C   UNL A   1      32.597  23.715  25.907  1.00  0.00     0.331 C 
BRANCH   6   7
ATOM      7  O   UNL A   1      33.309  23.391  24.714  1.00  0.00    -0.467 OA
BRANCH   7   8
ATOM      8  C   UNL A   1      34.174  22.340  24.930  1.00  0.00     0.220 A 
ATOM      9  N   UNL A   1      33.672  21.114  24.737  1.00  0.00    -0.193 NA
ATOM     10  C   UNL A   1      35.496  22.601  25.224  1.00  0.00     0.036 A 
ATOM     11  C   UNL A   1      34.513  20.090  24.930  1.00  0.00     0.164 A 
ATOM     12  C   UNL A   1      36.294  21.475  25.363  1.00  0.00     0.051 A 
ATOM     13  C   UNL A   1      36.039  23.995  25.326  1.00  0.00     0.043 C 
ATOM     14  N   UNL A   1      35.808  20.218  25.256  1.00  0.00    -0.232 NA
ATOM     15  C   UNL A   1      37.758  21.590  25.696  1.00  0.00     0.057 C 
ATOM     16  C   UNL A   1      37.420  24.052  25.981  1.00  0.00     0.005 C 
ATOM     17  C   UNL A   1      38.332  22.975  25.406  1.00  0.00     0.007 C 
BRANCH  11  18
ATOM     18  C   UNL A   1      33.967  18.749  24.766  1.00  0.00     0.038 A 
ATOM     19  C   UNL A   1      34.615  17.770  24.001  1.00  0.00     0.015 A 
ATOM     20  C   UNL A   1      32.754  18.384  25.341  1.00  0.00     0.123 A 
ATOM     21  C   UNL A   1      34.045  16.508  23.840  1.00  0.00     0.021 A 
ATOM     22  N   UNL A   1      32.166  17.168  25.198  1.00  0.00    -0.264 NA
ATOM     23  C   UNL A   1      32.827  16.261  24.448  1.00  0.00     0.111 A 
ENDBRANCH  11  18
ENDBRANCH   7   8
ENDBRANCH   6   7
ENDBRANCH   4   6
ENDBRANCH   1   2
BRANCH   1  24
ATOM     24  C   UNL A   1      33.430  28.520  25.769  1.00  0.00     0.042 C 
BRANCH  24  25
ATOM     25  C   UNL A   1      33.705  28.644  27.264  1.00  0.00     0.118 C 
BRANCH  25  26
ATOM     26  N   UNL A   1      33.725  30.024  27.733  1.00  0.00    -0.352 N 
ATOM     27  C   UNL A   1      34.716  30.746  28.348  1.00  0.00     0.251 C 
ATOM     28  H   UNL A   1      32.889  30.521  27.584  1.00  0.00     0.163 HD
ATOM     29  O   UNL A   1      34.468  31.865  28.791  1.00  0.00    -0.269 OA
BRANCH  27  30
ATOM     30  C   UNL A   1      36.074  30.182  28.510  1.00  0.00     0.039 A 
ATOM     31  C   UNL A   1      36.964  30.260  27.434  1.00  0.00     0.014 A 
ATOM     32  C   UNL A   1      36.470  29.564  29.699  1.00  0.00     0.014 A 
ATOM     33  C   UNL A   1      38.272  29.791  27.579  1.00  0.00     0.010 A 
ATOM     34  C   UNL A   1      37.794  29.164  29.868  1.00  0.00     0.010 A 
ATOM     35  C   UNL A   1      38.709  29.276  28.810  1.00  0.00    -0.014 A 
BRANCH  35  36
ATOM     36  C   UNL A   1      40.123  28.866  29.005  1.00  0.00     0.031 A 
ATOM     37  C   UNL A   1      41.106  29.800  29.650  1.00  0.00     0.074 A 
ATOM     38  C   UNL A   1      40.530  27.659  28.565  1.00  0.00     0.049 A 
ATOM     39  N   UNL A   1      42.380  29.619  29.891  1.00  0.00    -0.248 NA
ATOM     40  C   UNL A   1      40.599  31.118  30.066  1.00  0.00     0.031 C 
ATOM     41  C   UNL A   1      39.682  26.678  27.885  1.00  0.00     0.029 A 
ATOM     42  N   UNL A   1      41.758  27.050  28.626  1.00  0.00    -0.354 N 
ATOM     43  C   UNL A   1      42.824  30.793  30.482  1.00  0.00     0.074 A 
ATOM     44  C   UNL A   1      41.701  31.704  30.513  1.00  0.00     0.031 C 
ATOM     45  C   UNL A   1      40.404  25.577  27.627  1.00  0.00     0.029 A 
ATOM     46  C   UNL A   1      41.773  25.785  28.090  1.00  0.00     0.049 A 
ATOM     47  H   UNL A   1      42.553  27.479  29.018  1.00  0.00     0.167 HD
ATOM     48  C   UNL A   1      44.049  31.076  30.982  1.00  0.00     0.037 A 
ATOM     49  C   UNL A   1      42.776  24.891  27.987  1.00  0.00     0.037 A 
ATOM     50  C   UNL A   1      45.162  30.164  30.972  1.00  0.00     0.049 A 
ATOM     51  C   UNL A   1      44.135  25.242  28.523  1.00  0.00     0.074 A 
ATOM     52  C   UNL A   1      46.427  30.344  31.504  1.00  0.00     0.029 A 
ATOM     53  N   UNL A   1      45.142  28.901  30.400  1.00  0.00    -0.354 N 
ATOM     54  N   UNL A   1      44.523  26.333  29.135  1.00  0.00    -0.248 NA
ATOM     55  C   UNL A   1      45.197  24.239  28.351  1.00  0.00     0.031 C 
ATOM     56  C   UNL A   1      47.186  29.205  31.219  1.00  0.00     0.029 A 
ATOM     57  C   UNL A   1      46.382  28.301  30.544  1.00  0.00     0.049 A 
ATOM     58  H   UNL A   1      44.364  28.493  29.957  1.00  0.00     0.167 HD
ATOM     59  C   UNL A   1      45.866  26.144  29.438  1.00  0.00     0.074 A 
ATOM     60  C   UNL A   1      46.222  24.825  28.955  1.00  0.00     0.031 C 
ATOM     61  C   UNL A   1      46.723  26.988  30.059  1.00  0.00     0.037 A 
BRANCH  48  62
ATOM     62  C   UNL A   1      44.249  32.425  31.608  1.00  0.00     0.057 A 
ATOM     63  C   UNL A   1      44.050  32.633  32.978  1.00  0.00     0.134 A 
ATOM     64  C   UNL A   1      44.699  33.512  30.847  1.00  0.00     0.134 A 
ATOM     65  F   UNL A   1      43.610  31.634  33.760  1.00  0.00    -0.206 F 
ATOM     66  C   UNL A   1      44.275  33.877  33.569  1.00  0.00     0.040 A 
ATOM     67  C   UNL A   1      44.950  34.755  31.431  1.00  0.00     0.040 A 
ATOM     68  F   UNL A   1      44.916  33.379  29.530  1.00  0.00    -0.206 F 
ATOM     69  C   UNL A   1      44.734  34.940  32.795  1.00  0.00     0.006 A 
ENDBRANCH  48  62
BRANCH  49  70
ATOM     70  C   UNL A   1      42.518  23.561  27.383  1.00  0.00     0.057 A 
ATOM     71  C   UNL A   1      42.639  23.366  26.002  1.00  0.00     0.134 A 
ATOM     72  C   UNL A   1      42.161  22.455  28.163  1.00  0.00     0.134 A 
ATOM     73  F   UNL A   1      42.960  24.391  25.202  1.00  0.00    -0.206 F 
ATOM     74  C   UNL A   1      42.407  22.119  25.418  1.00  0.00     0.040 A 
ATOM     75  C   UNL A   1      41.948  21.199  27.595  1.00  0.00     0.040 A 
ATOM     76  F   UNL A   1      42.034  22.577  29.493  1.00  0.00    -0.206 F 
ATOM     77  C   UNL A   1      42.067  21.029  26.216  1.00  0.00     0.006 A 
ENDBRANCH  49  70
BRANCH  61  78
ATOM     78  C   UNL A   1      48.133  26.521  30.263  1.00  0.00     0.057 A 
ATOM     79  C   UNL A   1      48.502  25.778  31.390  1.00  0.00     0.134 A 
ATOM     80  C   UNL A   1      49.110  26.744  29.284  1.00  0.00     0.134 A 
ATOM     81  F   UNL A   1      47.615  25.540  32.368  1.00  0.00    -0.206 F 
ATOM     82  C   UNL A   1      49.796  25.275  31.538  1.00  0.00     0.040 A 
ATOM     83  C   UNL A   1      50.400  26.227  29.410  1.00  0.00     0.040 A 
ATOM     84  F   UNL A   1      48.817  27.442  28.175  1.00  0.00    -0.206 F 
ATOM     85  C   UNL A   1      50.745  25.490  30.541  1.00  0.00     0.006 A 
ENDBRANCH  61  78
ENDBRANCH  35  36
ENDBRANCH  27  30
ENDBRANCH  25  26
ENDBRANCH  24  25
ENDBRANCH   1  24
TORSDOF 13
ENDMDL
MODEL 2
REMARK VINA RESULT:     -11.7      0.415      6.167
REMARK SMILES O=C(COc1nc(-c2cccnc2)nc2c1CCCC2)NCCCNC(=O)c1ccc(-c2c3nc(c(-c4c(F)cccc4F)c4ccc([nH]4)c(-c4c(F)cccc4F)c4nc(c(-c5c(F)cccc5F)c5ccc2[nH]5)C=C4)C=C3)cc1
REMARK SMILES IDX 22 1 21 2 1 3 2 4 3 6 4 7 5 8 6 9 16 10 7 11 15 12 17 13
REMARK SMILES IDX 14 14 20 15 18 16 19 17 8 18 9 19 13 20 10 21 12 22 11 23
REMARK SMILES IDX 23 24 24 25 25 26 26 27 27 29 28 30 29 31 81 32 30 33 80 34
REMARK SMILES IDX 31 35 32 36 33 37 74 38 34 39 79 40 73 41 75 42 35 43 78 44
REMARK SMILES IDX 72 45 71 46 36 48 62 49 45 50 61 51 46 52 49 53 60 54 76 55
REMARK SMILES IDX 47 56 48 57 59 59 77 60 50 61 37 62 38 63 43 64 39 65 40 66
REMARK SMILES IDX 42 67 44 68 41 69 63 70 64 71 69 72 65 73 66 74 68 75 70 76
REMARK SMILES IDX 67 77 51 78 52 79 57 80 53 81 54 82 56 83 58 84 55 85
REMARK H PARENT 21 5 25 28 75 47 49 58
REMARK Flexibility Score: inf
ROOT
ATOM      1  C   UNL A   1      32.328  27.434  25.438  1.00  0.00     0.117 C 
ENDROOT
BRANCH   1   2
ATOM      2  N   UNL A   1      32.715  26.044  25.363  1.00  0.00    -0.353 N 
ATOM      3  O   UNL A   1      31.171  25.271  26.876  1.00  0.00    -0.271 OA
ATOM      4  C   UNL A   1      32.026  25.050  26.022  1.00  0.00     0.258 C 
ATOM      5  H   UNL A   1      33.500  25.799  24.821  1.00  0.00     0.163 HD
BRANCH   4   6
ATOM      6  C   UNL A   1      32.464  23.621  25.655  1.00  0.00     0.331 C 
BRANCH   6   7
ATOM      7  O   UNL A   1      33.402  23.448  24.594  1.00  0.00    -0.467 OA
BRANCH   7   8
ATOM      8  C   UNL A   1      34.246  22.390  24.853  1.00  0.00     0.220 A 
ATOM      9  N   UNL A   1      33.736  21.168  24.660  1.00  0.00    -0.193 NA
ATOM     10  C   UNL A   1      35.560  22.640  25.189  1.00  0.00     0.036 A 
ATOM     11  C   UNL A   1      34.556  20.137  24.895  1.00  0.00     0.164 A 
ATOM     12  C   UNL A   1      36.339  21.506  25.370  1.00  0.00     0.051 A 
ATOM     13  C   UNL A   1      36.116  24.029  25.291  1.00  0.00     0.043 C 
ATOM     14  N   UNL A   1      35.842  20.253  25.263  1.00  0.00    -0.232 NA
ATOM     15  C   UNL A   1      37.793  21.608  25.751  1.00  0.00     0.057 C 
ATOM     16  C   UNL A   1      37.474  24.078  25.991  1.00  0.00     0.005 C 
ATOM     17  C   UNL A   1      38.392  22.982  25.462  1.00  0.00     0.007 C 
BRANCH  11  18
ATOM     18  C   UNL A   1      34.001  18.800  24.731  1.00  0.00     0.038 A 
ATOM     19  C   UNL A   1      34.609  17.835  23.918  1.00  0.00     0.015 A 
ATOM     20  C   UNL A   1      32.814  18.426  25.354  1.00  0.00     0.123 A 
ATOM     21  C   UNL A   1      34.030  16.577  23.759  1.00  0.00     0.021 A 
ATOM     22  N   UNL A   1      32.216  17.214  25.214  1.00  0.00    -0.264 NA
ATOM     23  C   UNL A   1      32.840  16.321  24.418  1.00  0.00     0.111 A 
ENDBRANCH  11  18
ENDBRANCH   7   8
ENDBRANCH   6   7
ENDBRANCH   4   6
ENDBRANCH   1   2
BRANCH   1  24
ATOM     24  C   UNL A   1      33.487  28.364  25.760  1.00  0.00     0.042 C 
BRANCH  24  25
ATOM     25  C   UNL A   1      33.780  28.500  27.251  1.00  0.00     0.118 C 
BRANCH  25  26
ATOM     26  N   UNL A   1      33.784  29.882  27.714  1.00  0.00    -0.352 N 
ATOM     27  C   UNL A   1      34.772  30.623  28.308  1.00  0.00     0.251 C 
ATOM     28  H   UNL A   1      32.936  30.363  27.578  1.00  0.00     0.163 HD
ATOM     29  O   UNL A   1      34.512  31.740  28.751  1.00  0.00    -0.269 OA
BRANCH  27  30
ATOM     30  C   UNL A   1      36.142  30.084  28.449  1.00  0.00     0.039 A 
ATOM     31  C   UNL A   1      37.002  30.147  27.348  1.00  0.00     0.014 A 
ATOM     32  C   UNL A   1      36.579  29.504  29.642  1.00  0.00     0.014 A 
ATOM     33  C   UNL A   1      38.321  29.702  27.470  1.00  0.00     0.010 A 
ATOM     34  C   UNL A   1      37.914  29.128  29.786  1.00  0.00     0.010 A 
ATOM     35  C   UNL A   1      38.798  29.227  28.702  1.00  0.00    -0.014 A 
BRANCH  35  36
ATOM     36  C   UNL A   1      40.223  28.843  28.869  1.00  0.00     0.031 A 
ATOM     37  C   UNL A   1      40.695  27.473  28.473  1.00  0.00     0.074 A 
ATOM     38  C   UNL A   1      41.087  29.722  29.413  1.00  0.00     0.049 A 
ATOM     39  N   UNL A   1      41.896  26.959  28.557  1.00  0.00    -0.248 NA
ATOM     40  C   UNL A   1      39.686  26.553  27.926  1.00  0.00     0.031 C 
ATOM     41  C   UNL A   1      40.744  31.068  29.876  1.00  0.00     0.029 A 
ATOM     42  N   UNL A   1      42.432  29.618  29.666  1.00  0.00    -0.354 N 
ATOM     43  C   UNL A   1      41.787  25.662  28.077  1.00  0.00     0.074 A 
ATOM     44  C   UNL A   1      40.393  25.444  27.756  1.00  0.00     0.031 C 
ATOM     45  C   UNL A   1      41.854  31.677  30.321  1.00  0.00     0.029 A 
ATOM     46  C   UNL A   1      42.981  30.755  30.208  1.00  0.00     0.049 A 
ATOM     47  H   UNL A   1      42.955  28.805  29.477  1.00  0.00     0.167 HD
ATOM     48  C   UNL A   1      42.764  24.744  27.891  1.00  0.00     0.037 A 
ATOM     49  C   UNL A   1      44.250  31.027  30.568  1.00  0.00     0.037 A 
ATOM     50  C   UNL A   1      44.154  24.966  28.189  1.00  0.00     0.049 A 
ATOM     51  C   UNL A   1      45.311  29.980  30.380  1.00  0.00     0.074 A 
ATOM     52  C   UNL A   1      45.225  24.113  27.984  1.00  0.00     0.029 A 
ATOM     53  N   UNL A   1      44.665  26.123  28.757  1.00  0.00    -0.354 N 
ATOM     54  N   UNL A   1      45.203  28.779  29.866  1.00  0.00    -0.248 NA
ATOM     55  C   UNL A   1      46.670  30.323  30.823  1.00  0.00     0.031 C 
ATOM     56  C   UNL A   1      46.379  24.738  28.465  1.00  0.00     0.029 A 
ATOM     57  C   UNL A   1      46.033  25.996  28.932  1.00  0.00     0.049 A 
ATOM     58  H   UNL A   1      44.135  26.915  29.000  1.00  0.00     0.167 HD
ATOM     59  C   UNL A   1      46.478  28.230  29.908  1.00  0.00     0.074 A 
ATOM     60  C   UNL A   1      47.348  29.235  30.483  1.00  0.00     0.031 C 
ATOM     61  C   UNL A   1      46.888  27.004  29.506  1.00  0.00     0.037 A 
BRANCH  48  62
ATOM     62  C   UNL A   1      42.369  23.416  27.315  1.00  0.00     0.057 A 
ATOM     63  C   UNL A   1      42.421  23.172  25.937  1.00  0.00     0.134 A 
ATOM     64  C   UNL A   1      41.989  22.356  28.147  1.00  0.00     0.134 A 
ATOM     65  F   UNL A   1      42.769  24.151  25.086  1.00  0.00    -0.206 F 
ATOM     66  C   UNL A   1      42.094  21.926  25.403  1.00  0.00     0.040 A 
ATOM     67  C   UNL A   1      41.682  21.097  27.626  1.00  0.00     0.040 A 
ATOM     68  F   UNL A   1      41.925  22.521  29.476  1.00  0.00    -0.206 F 
ATOM     69  C   UNL A   1      41.731  20.881  26.251  1.00  0.00     0.006 A 
ENDBRANCH  48  62
BRANCH  49  70
ATOM     70  C   UNL A   1      44.592  32.365  31.109  1.00  0.00     0.057 A 
ATOM     71  C   UNL A   1      44.962  33.411  30.254  1.00  0.00     0.134 A 
ATOM     72  C   UNL A   1      44.543  32.639  32.481  1.00  0.00     0.134 A 
ATOM     73  F   UNL A   1      45.043  33.204  28.933  1.00  0.00    -0.206 F 
ATOM     74  C   UNL A   1      45.278  34.679  30.745  1.00  0.00     0.040 A 
ATOM     75  C   UNL A   1      44.836  33.908  32.983  1.00  0.00     0.040 A 
ATOM     76  F   UNL A   1      44.191  31.681  33.350  1.00  0.00    -0.206 F 
ATOM     77  C   UNL A   1      45.209  34.931  32.113  1.00  0.00     0.006 A 
ENDBRANCH  49  70
BRANCH  61  78
ATOM     78  C   UNL A   1      48.340  26.670  29.663  1.00  0.00     0.057 A 
ATOM     79  C   UNL A   1      48.815  25.989  30.790  1.00  0.00     0.134 A 
ATOM     80  C   UNL A   1      49.256  26.956  28.643  1.00  0.00     0.134 A 
ATOM     81  F   UNL A   1      47.990  25.696  31.806  1.00  0.00    -0.206 F 
ATOM     82  C   UNL A   1      50.154  25.605  30.898  1.00  0.00     0.040 A 
ATOM     83  C   UNL A   1      50.591  26.558  28.729  1.00  0.00     0.040 A 
ATOM     84  F   UNL A   1      48.861  27.599  27.533  1.00  0.00    -0.206 F 
ATOM     85  C   UNL A   1      51.043  25.881  29.861  1.00  0.00     0.006 A 
ENDBRANCH  61  78
ENDBRANCH  35  36
ENDBRANCH  27  30
ENDBRANCH  25  26
ENDBRANCH  24  25
ENDBRANCH   1  24
TORSDOF 13
ENDMDL
MODEL 3
REMARK VINA RESULT:     -11.7      4.218      6.470
REMARK SMILES O=C(COc1nc(-c2cccnc2)nc2c1CCCC2)NCCCNC(=O)c1ccc(-c2c3nc(c(-c4c(F)cccc4F)c4ccc([nH]4)c(-c4c(F)cccc4F)c4nc(c(-c5c(F)cccc5F)c5ccc2[nH]5)C=C4)C=C3)cc1
REMARK SMILES IDX 22 1 21 2 1 3 2 4 3 6 4 7 5 8 6 9 16 10 7 11 15 12 17 13
REMARK SMILES IDX 14 14 20 15 18 16 19 17 8 18 9 19 13 20 10 21 12 22 11 23
REMARK SMILES IDX 23 24 24 25 25 26 26 27 27 29 28 30 29 31 81 32 30 33 80 34
REMARK SMILES IDX 31 35 32 36 33 37 74 38 34 39 79 40 73 41 75 42 35 43 78 44
REMARK SMILES IDX 72 45 71 46 36 48 62 49 45 50 61 51 46 52 49 53 60 54 76 55
REMARK SMILES IDX 47 56 48 57 59 59 77 60 50 61 37 62 38 63 43 64 39 65 40 66
REMARK SMILES IDX 42 67 44 68 41 69 63 70 64 71 69 72 65 73 66 74 68 75 70 76
REMARK SMILES IDX 67 77 51 78 52 79 57 80 53 81 54 82 56 83 58 84 55 85
REMARK H PARENT 21 5 25 28 75 47 49 58
REMARK Flexibility Score: inf
ROOT
ATOM      1  C   UNL A   1      31.553  30.460  26.325  1.00  0.00     0.117 C 
ENDROOT
BRANCH   1   2
ATOM      2  N   UNL A   1      32.013  30.085  25.007  1.00  0.00    -0.353 N 
ATOM      3  O   UNL A   1      33.901  28.981  25.706  1.00  0.00    -0.271 OA
ATOM      4  C   UNL A   1      33.112  29.277  24.812  1.00  0.00     0.258 C 
ATOM      5  H   UNL A   1      31.525  30.420  24.221  1.00  0.00     0.163 HD
BRANCH   4   6
ATOM      6  C   UNL A   1      33.319  28.825  23.356  1.00  0.00     0.331 C 
BRANCH   6   7
ATOM      7  O   UNL A   1      32.234  28.962  22.440  1.00  0.00    -0.467 OA
BRANCH   7   8
ATOM      8  C   UNL A   1      31.121  28.288  22.895  1.00  0.00     0.220 A 
ATOM      9  N   UNL A   1      31.353  27.167  23.588  1.00  0.00    -0.193 NA
ATOM     10  C   UNL A   1      29.872  28.841  22.706  1.00  0.00     0.036 A 
ATOM     11  C   UNL A   1      30.276  26.517  24.046  1.00  0.00     0.164 A 
ATOM     12  C   UNL A   1      28.825  28.113  23.255  1.00  0.00     0.051 A 
ATOM     13  C   UNL A   1      29.668  30.156  22.015  1.00  0.00     0.043 C 
ATOM     14  N   UNL A   1      29.010  26.935  23.892  1.00  0.00    -0.232 NA
ATOM     15  C   UNL A   1      27.398  28.577  23.126  1.00  0.00     0.057 C 
ATOM     16  C   UNL A   1      28.211  30.407  21.625  1.00  0.00     0.005 C 
ATOM     17  C   UNL A   1      27.278  30.059  22.780  1.00  0.00     0.007 C 
BRANCH  11  18
ATOM     18  C   UNL A   1      30.512  25.272  24.765  1.00  0.00     0.038 A 
ATOM     19  C   UNL A   1      30.939  24.106  24.115  1.00  0.00     0.015 A 
ATOM     20  C   UNL A   1      30.296  25.173  26.136  1.00  0.00     0.123 A 
ATOM     21  C   UNL A   1      31.124  22.925  24.831  1.00  0.00     0.021 A 
ATOM     22  N   UNL A   1      30.456  24.037  26.863  1.00  0.00    -0.264 NA
ATOM     23  C   UNL A   1      30.865  22.940  26.190  1.00  0.00     0.111 A 
ENDBRANCH  11  18
ENDBRANCH   7   8
ENDBRANCH   6   7
ENDBRANCH   4   6
ENDBRANCH   1   2
BRANCH   1  24
ATOM     24  C   UNL A   1      31.402  31.963  26.503  1.00  0.00     0.042 C 
BRANCH  24  25
ATOM     25  C   UNL A   1      32.682  32.668  26.940  1.00  0.00     0.118 C 
BRANCH  25  26
ATOM     26  N   UNL A   1      32.449  34.003  27.479  1.00  0.00    -0.352 N 
ATOM     27  C   UNL A   1      33.056  34.668  28.513  1.00  0.00     0.251 C 
ATOM     28  H   UNL A   1      31.738  34.511  27.025  1.00  0.00     0.163 HD
ATOM     29  O   UNL A   1      32.601  35.745  28.893  1.00  0.00    -0.269 OA
BRANCH  27  30
ATOM     30  C   UNL A   1      34.234  34.092  29.196  1.00  0.00     0.039 A 
ATOM     31  C   UNL A   1      34.024  33.171  30.229  1.00  0.00     0.014 A 
ATOM     32  C   UNL A   1      35.534  34.461  28.846  1.00  0.00     0.014 A 
ATOM     33  C   UNL A   1      35.118  32.565  30.851  1.00  0.00     0.010 A 
ATOM     34  C   UNL A   1      36.623  33.802  29.415  1.00  0.00     0.010 A 
ATOM     35  C   UNL A   1      36.425  32.845  30.420  1.00  0.00    -0.014 A 
BRANCH  35  36
ATOM     36  C   UNL A   1      37.588  32.133  31.007  1.00  0.00     0.031 A 
ATOM     37  C   UNL A   1      38.098  32.500  32.371  1.00  0.00     0.074 A 
ATOM     38  C   UNL A   1      38.209  31.174  30.292  1.00  0.00     0.049 A 
ATOM     39  N   UNL A   1      39.107  31.997  33.037  1.00  0.00    -0.248 NA
ATOM     40  C   UNL A   1      37.396  33.586  33.075  1.00  0.00     0.031 C 
ATOM     41  C   UNL A   1      37.836  30.754  28.940  1.00  0.00     0.029 A 
ATOM     42  N   UNL A   1      39.282  30.377  30.603  1.00  0.00    -0.354 N 
ATOM     43  C   UNL A   1      39.160  32.702  34.232  1.00  0.00     0.074 A 
ATOM     44  C   UNL A   1      38.121  33.707  34.178  1.00  0.00     0.031 C 
ATOM     45  C   UNL A   1      38.641  29.753  28.553  1.00  0.00     0.029 A 
ATOM     46  C   UNL A   1      39.609  29.482  29.612  1.00  0.00     0.049 A 
ATOM     47  H   UNL A   1      39.772  30.441  31.454  1.00  0.00     0.167 HD
ATOM     48  C   UNL A   1      39.981  32.510  35.291  1.00  0.00     0.037 A 
ATOM     49  C   UNL A   1      40.576  28.546  29.565  1.00  0.00     0.037 A 
ATOM     50  C   UNL A   1      41.001  31.498  35.354  1.00  0.00     0.049 A 
ATOM     51  C   UNL A   1      41.495  28.374  30.742  1.00  0.00     0.074 A 
ATOM     52  C   UNL A   1      41.846  31.192  36.407  1.00  0.00     0.029 A 
ATOM     53  N   UNL A   1      41.314  30.626  34.322  1.00  0.00    -0.354 N 
ATOM     54  N   UNL A   1      41.492  29.006  31.889  1.00  0.00    -0.248 NA
ATOM     55  C   UNL A   1      42.551  27.359  30.617  1.00  0.00     0.031 C 
ATOM     56  C   UNL A   1      42.698  30.162  35.999  1.00  0.00     0.029 A 
ATOM     57  C   UNL A   1      42.357  29.799  34.705  1.00  0.00     0.049 A 
ATOM     58  H   UNL A   1      40.863  30.599  33.448  1.00  0.00     0.167 HD
ATOM     59  C   UNL A   1      42.532  28.457  32.629  1.00  0.00     0.074 A 
ATOM     60  C   UNL A   1      43.134  27.428  31.806  1.00  0.00     0.031 C 
ATOM     61  C   UNL A   1      42.947  28.779  33.877  1.00  0.00     0.037 A 
BRANCH  48  62
ATOM     62  C   UNL A   1      39.796  33.401  36.483  1.00  0.00     0.057 A 
ATOM     63  C   UNL A   1      40.499  34.605  36.614  1.00  0.00     0.134 A 
ATOM     64  C   UNL A   1      38.866  33.082  37.481  1.00  0.00     0.134 A 
ATOM     65  F   UNL A   1      41.412  34.962  35.696  1.00  0.00    -0.206 F 
ATOM     66  C   UNL A   1      40.297  35.454  37.702  1.00  0.00     0.040 A 
ATOM     67  C   UNL A   1      38.638  33.936  38.562  1.00  0.00     0.040 A 
ATOM     68  F   UNL A   1      38.154  31.948  37.413  1.00  0.00    -0.206 F 
ATOM     69  C   UNL A   1      39.357  35.124  38.676  1.00  0.00     0.006 A 
ENDBRANCH  48  62
BRANCH  49  70
ATOM     70  C   UNL A   1      40.699  27.674  28.371  1.00  0.00     0.057 A 
ATOM     71  C   UNL A   1      40.038  26.441  28.314  1.00  0.00     0.134 A 
ATOM     72  C   UNL A   1      41.461  28.051  27.259  1.00  0.00     0.134 A 
ATOM     73  F   UNL A   1      39.308  26.018  29.355  1.00  0.00    -0.206 F 
ATOM     74  C   UNL A   1      40.136  25.611  27.195  1.00  0.00     0.040 A 
ATOM     75  C   UNL A   1      41.550  27.241  26.126  1.00  0.00     0.040 A 
ATOM     76  F   UNL A   1      42.114  29.222  27.252  1.00  0.00    -0.206 F 
ATOM     77  C   UNL A   1      40.888  26.014  26.094  1.00  0.00     0.006 A 
ENDBRANCH  49  70
BRANCH  61  78
ATOM     78  C   UNL A   1      44.105  28.014  34.443  1.00  0.00     0.057 A 
ATOM     79  C   UNL A   1      43.923  26.794  35.104  1.00  0.00     0.134 A 
ATOM     80  C   UNL A   1      45.420  28.459  34.252  1.00  0.00     0.134 A 
ATOM     81  F   UNL A   1      42.688  26.320  35.328  1.00  0.00    -0.206 F 
ATOM     82  C   UNL A   1      45.009  26.043  35.559  1.00  0.00     0.040 A 
ATOM     83  C   UNL A   1      46.514  27.706  34.681  1.00  0.00     0.040 A 
ATOM     84  F   UNL A   1      45.662  29.616  33.617  1.00  0.00    -0.206 F 
ATOM     85  C   UNL A   1      46.308  26.494  35.338  1.00  0.00     0.006 A 
ENDBRANCH  61  78
ENDBRANCH  35  36
ENDBRANCH  27  30
ENDBRANCH  25  26
ENDBRANCH  24  25
ENDBRANCH   1  24
TORSDOF 13
ENDMDL
