MODEL 1
REMARK VINA RESULT:     -11.4      0.000      0.000
REMARK SMILES Cc1oc2cc3c(cc2c1C)[C@H](C)[C@@H](CC(=O)N[C@H](CC1=c2ccccc2=NC1)C(=O)NCCCNC(=O)c1ccc(-c2c4nc(c(-c5c(F)cccc5F)c5ccc([nH]5)c(-c5c(F)cccc5F)c5nc(c(-c6c(F)cccc6F)c6ccc2[nH]6)C=C5)C=C4)cc1)C(=O)O3
REMARK SMILES IDX 33 1 32 2 30 3 31 4 19 6 18 7 16 8 17 9 15 11 14 12 1 13
REMARK SMILES IDX 2 14 3 15 10 16 4 17 9 18 11 19 5 20 8 21 6 22 7 23 95 24
REMARK SMILES IDX 12 25 93 26 13 27 94 28 20 29 21 30 22 31 29 32 23 33 27 34
REMARK SMILES IDX 28 35 24 36 26 37 25 38 34 39 35 40 36 41 37 42 38 44 39 45
REMARK SMILES IDX 40 46 92 47 41 48 91 49 42 50 43 51 44 52 85 53 45 54 90 55
REMARK SMILES IDX 84 56 86 57 46 58 89 59 83 60 82 61 47 63 73 64 56 65 72 66
REMARK SMILES IDX 57 67 60 68 71 69 87 70 58 71 59 72 70 74 88 75 61 76 48 77
REMARK SMILES IDX 49 78 54 79 50 80 51 81 53 82 55 83 52 84 74 85 75 86 80 87
REMARK SMILES IDX 76 88 77 89 79 90 81 91 78 92 62 93 63 94 68 95 64 96 65 97
REMARK SMILES IDX 67 98 69 99 66 100
REMARK H PARENT 32 5 18 10 36 43 86 62 60 73
REMARK Flexibility Score: inf
ROOT
ATOM      1  C   UNL A   1      45.836  33.045  26.448  1.00  0.00     0.117 C 
ENDROOT
BRANCH   1   2
ATOM      2  N   UNL A   1      44.649  32.194  26.333  1.00  0.00    -0.354 N 
ATOM      3  C   UNL A   1      44.527  30.853  26.599  1.00  0.00     0.242 C 
ATOM      4  O   UNL A   1      43.450  30.268  26.630  1.00  0.00    -0.273 OA
ATOM      5  H   UNL A   1      43.830  32.644  26.022  1.00  0.00     0.163 HD
BRANCH   3   6
ATOM      6  C   UNL A   1      45.729  30.031  26.772  1.00  0.00     0.175 C 
BRANCH   6   7
ATOM      7  N   UNL A   1      46.050  29.590  25.393  1.00  0.00    -0.344 N 
ATOM      8  C   UNL A   1      46.669  28.449  24.902  1.00  0.00     0.221 C 
ATOM      9  O   UNL A   1      46.770  28.407  23.668  1.00  0.00    -0.275 OA
ATOM     10  H   UNL A   1      45.771  30.226  24.696  1.00  0.00     0.164 HD
BRANCH   8  11
ATOM     11  C   UNL A   1      47.259  27.239  25.726  1.00  0.00     0.116 C 
BRANCH  11  12
ATOM     12  C   UNL A   1      46.435  25.925  25.907  1.00  0.00     0.116 C 
ATOM     13  C   UNL A   1      42.281  18.622  25.886  1.00  0.00     0.088 C 
ATOM     14  C   UNL A   1      42.761  20.017  26.007  1.00  0.00     0.105 A 
ATOM     15  O   UNL A   1      43.989  20.236  25.472  1.00  0.00    -0.461 OA
ATOM     16  C   UNL A   1      42.295  21.173  26.622  1.00  0.00    -0.002 A 
ATOM     17  C   UNL A   1      44.326  21.513  25.768  1.00  0.00     0.138 A 
ATOM     18  C   UNL A   1      43.270  22.198  26.355  1.00  0.00     0.024 A 
ATOM     19  C   UNL A   1      41.101  21.292  27.493  1.00  0.00     0.049 C 
ATOM     20  C   UNL A   1      45.593  22.030  25.614  1.00  0.00     0.095 A 
ATOM     21  C   UNL A   1      43.429  23.595  26.620  1.00  0.00     0.020 A 
ATOM     22  C   UNL A   1      45.742  23.328  26.095  1.00  0.00     0.138 A 
ATOM     23  C   UNL A   1      44.686  24.198  26.420  1.00  0.00    -0.001 A 
ATOM     24  O   UNL A   1      47.056  23.670  26.426  1.00  0.00    -0.426 OA
ATOM     25  C   UNL A   1      45.031  25.717  26.583  1.00  0.00     0.035 C 
ATOM     26  C   UNL A   1      47.231  24.989  26.794  1.00  0.00     0.315 C 
ATOM     27  C   UNL A   1      43.947  26.613  25.997  1.00  0.00     0.014 C 
ATOM     28  O   UNL A   1      47.908  25.333  27.756  1.00  0.00    -0.251 OA
ENDBRANCH  11  12
ENDBRANCH   8  11
ENDBRANCH   6   7
BRANCH   6  29
ATOM     29  C   UNL A   1      45.276  29.023  27.914  1.00  0.00     0.068 C 
BRANCH  29  30
ATOM     30  C   UNL A   1      46.329  28.403  28.893  1.00  0.00    -0.037 C 
ATOM     31  C   UNL A   1      46.368  27.458  29.852  1.00  0.00     0.001 A 
ATOM     32  C   UNL A   1      47.670  29.090  29.017  1.00  0.00     0.174 C 
ATOM     33  C   UNL A   1      45.755  26.232  30.285  1.00  0.00     0.010 A 
ATOM     34  C   UNL A   1      47.061  28.275  30.887  1.00  0.00     0.065 A 
ATOM     35  N   UNL A   1      47.855  29.218  30.473  1.00  0.00    -0.280 NA
ATOM     36  C   UNL A   1      45.556  25.985  31.591  1.00  0.00     0.001 A 
ATOM     37  C   UNL A   1      46.635  28.053  32.292  1.00  0.00     0.028 A 
ATOM     38  C   UNL A   1      45.874  26.986  32.586  1.00  0.00     0.002 A 
ENDBRANCH  29  30
ENDBRANCH   6  29
ENDBRANCH   3   6
ENDBRANCH   1   2
BRANCH   1  39
ATOM     39  C   UNL A   1      45.519  34.507  26.206  1.00  0.00     0.042 C 
BRANCH  39  40
ATOM     40  C   UNL A   1      44.025  34.674  25.930  1.00  0.00     0.118 C 
BRANCH  40  41
ATOM     41  N   UNL A   1      43.541  36.034  25.953  1.00  0.00    -0.352 N 
ATOM     42  C   UNL A   1      42.983  36.736  26.997  1.00  0.00     0.251 C 
ATOM     43  H   UNL A   1      43.621  36.526  25.104  1.00  0.00     0.163 HD
ATOM     44  O   UNL A   1      42.677  37.897  26.889  1.00  0.00    -0.269 OA
BRANCH  42  45
ATOM     45  C   UNL A   1      42.671  35.976  28.221  1.00  0.00     0.039 A 
ATOM     46  C   UNL A   1      43.663  35.670  29.155  1.00  0.00     0.014 A 
ATOM     47  C   UNL A   1      41.377  35.468  28.335  1.00  0.00     0.014 A 
ATOM     48  C   UNL A   1      43.387  34.748  30.153  1.00  0.00     0.010 A 
ATOM     49  C   UNL A   1      41.089  34.581  29.361  1.00  0.00     0.010 A 
ATOM     50  C   UNL A   1      42.103  34.195  30.246  1.00  0.00    -0.014 A 
BRANCH  50  51
ATOM     51  C   UNL A   1      41.863  33.261  31.354  1.00  0.00     0.031 A 
ATOM     52  C   UNL A   1      40.432  33.253  31.793  1.00  0.00     0.074 A 
ATOM     53  C   UNL A   1      42.529  32.091  31.401  1.00  0.00     0.049 A 
ATOM     54  N   UNL A   1      39.489  32.574  31.206  1.00  0.00    -0.248 NA
ATOM     55  C   UNL A   1      39.945  34.261  32.736  1.00  0.00     0.031 C 
ATOM     56  C   UNL A   1      42.801  31.237  30.239  1.00  0.00     0.029 A 
ATOM     57  N   UNL A   1      42.839  31.309  32.488  1.00  0.00    -0.354 N 
ATOM     58  C   UNL A   1      38.287  33.112  31.632  1.00  0.00     0.074 A 
ATOM     59  C   UNL A   1      38.618  34.141  32.594  1.00  0.00     0.031 C 
ATOM     60  C   UNL A   1      43.067  29.991  30.676  1.00  0.00     0.029 A 
ATOM     61  C   UNL A   1      43.102  29.989  32.136  1.00  0.00     0.049 A 
ATOM     62  H   UNL A   1      42.873  31.645  33.413  1.00  0.00     0.167 HD
ATOM     63  C   UNL A   1      37.077  32.718  31.159  1.00  0.00     0.037 A 
ATOM     64  C   UNL A   1      42.835  28.926  32.941  1.00  0.00     0.037 A 
ATOM     65  C   UNL A   1      37.087  31.646  30.213  1.00  0.00     0.049 A 
ATOM     66  C   UNL A   1      41.370  28.717  32.642  1.00  0.00     0.074 A 
ATOM     67  C   UNL A   1      37.029  31.507  28.843  1.00  0.00     0.029 A 
ATOM     68  N   UNL A   1      37.230  30.368  30.697  1.00  0.00    -0.354 N 
ATOM     69  N   UNL A   1      40.868  28.110  31.598  1.00  0.00    -0.248 NA
ATOM     70  C   UNL A   1      40.414  29.558  33.369  1.00  0.00     0.031 C 
ATOM     71  C   UNL A   1      37.580  30.218  28.568  1.00  0.00     0.029 A 
ATOM     72  C   UNL A   1      37.987  29.676  29.786  1.00  0.00     0.049 A 
ATOM     73  H   UNL A   1      36.859  30.015  31.538  1.00  0.00     0.167 HD
ATOM     74  C   UNL A   1      39.632  28.727  31.373  1.00  0.00     0.074 A 
ATOM     75  C   UNL A   1      39.386  29.557  32.532  1.00  0.00     0.031 C 
ATOM     76  C   UNL A   1      38.985  28.703  30.172  1.00  0.00     0.037 A 
BRANCH  63  77
ATOM     77  C   UNL A   1      35.794  33.245  31.652  1.00  0.00     0.057 A 
ATOM     78  C   UNL A   1      35.108  34.181  30.871  1.00  0.00     0.134 A 
ATOM     79  C   UNL A   1      35.314  32.980  32.934  1.00  0.00     0.134 A 
ATOM     80  F   UNL A   1      35.539  34.471  29.632  1.00  0.00    -0.206 F 
ATOM     81  C   UNL A   1      33.995  34.860  31.359  1.00  0.00     0.040 A 
ATOM     82  C   UNL A   1      34.197  33.651  33.435  1.00  0.00     0.040 A 
ATOM     83  F   UNL A   1      35.939  32.099  33.730  1.00  0.00    -0.206 F 
ATOM     84  C   UNL A   1      33.542  34.603  32.652  1.00  0.00     0.006 A 
ENDBRANCH  63  77
BRANCH  64  85
ATOM     85  C   UNL A   1      43.429  29.029  34.311  1.00  0.00     0.057 A 
ATOM     86  C   UNL A   1      42.902  28.200  35.323  1.00  0.00     0.134 A 
ATOM     87  C   UNL A   1      44.497  29.847  34.695  1.00  0.00     0.134 A 
ATOM     88  F   UNL A   1      41.807  27.457  35.090  1.00  0.00    -0.206 F 
ATOM     89  C   UNL A   1      43.485  28.087  36.587  1.00  0.00     0.040 A 
ATOM     90  C   UNL A   1      45.106  29.730  35.951  1.00  0.00     0.040 A 
ATOM     91  F   UNL A   1      45.000  30.771  33.868  1.00  0.00    -0.206 F 
ATOM     92  C   UNL A   1      44.615  28.832  36.893  1.00  0.00     0.006 A 
ENDBRANCH  64  85
BRANCH  76  93
ATOM     93  C   UNL A   1      39.554  27.789  29.145  1.00  0.00     0.057 A 
ATOM     94  C   UNL A   1      39.237  26.428  29.158  1.00  0.00     0.134 A 
ATOM     95  C   UNL A   1      40.369  28.258  28.106  1.00  0.00     0.134 A 
ATOM     96  F   UNL A   1      38.454  25.920  30.123  1.00  0.00    -0.206 F 
ATOM     97  C   UNL A   1      39.695  25.568  28.159  1.00  0.00     0.040 A 
ATOM     98  C   UNL A   1      40.810  27.413  27.088  1.00  0.00     0.040 A 
ATOM     99  F   UNL A   1      40.731  29.550  28.041  1.00  0.00    -0.206 F 
ATOM    100  C   UNL A   1      40.471  26.062  27.112  1.00  0.00     0.006 A 
ENDBRANCH  76  93
ENDBRANCH  50  51
ENDBRANCH  42  45
ENDBRANCH  40  41
ENDBRANCH  39  40
ENDBRANCH   1  39
TORSDOF 15
ENDMDL
MODEL 2
REMARK VINA RESULT:     -11.3      0.908      1.801
REMARK SMILES Cc1oc2cc3c(cc2c1C)[C@H](C)[C@@H](CC(=O)N[C@H](CC1=c2ccccc2=NC1)C(=O)NCCCNC(=O)c1ccc(-c2c4nc(c(-c5c(F)cccc5F)c5ccc([nH]5)c(-c5c(F)cccc5F)c5nc(c(-c6c(F)cccc6F)c6ccc2[nH]6)C=C5)C=C4)cc1)C(=O)O3
REMARK SMILES IDX 33 1 32 2 30 3 31 4 19 6 18 7 16 8 17 9 15 11 14 12 1 13
REMARK SMILES IDX 2 14 3 15 10 16 4 17 9 18 11 19 5 20 8 21 6 22 7 23 95 24
REMARK SMILES IDX 12 25 93 26 13 27 94 28 20 29 21 30 22 31 29 32 23 33 27 34
REMARK SMILES IDX 28 35 24 36 26 37 25 38 34 39 35 40 36 41 37 42 38 44 39 45
REMARK SMILES IDX 40 46 92 47 41 48 91 49 42 50 43 51 44 52 85 53 45 54 90 55
REMARK SMILES IDX 84 56 86 57 46 58 89 59 83 60 82 61 47 63 73 64 56 65 72 66
REMARK SMILES IDX 57 67 60 68 71 69 87 70 58 71 59 72 70 74 88 75 61 76 48 77
REMARK SMILES IDX 49 78 54 79 50 80 51 81 53 82 55 83 52 84 74 85 75 86 80 87
REMARK SMILES IDX 76 88 77 89 79 90 81 91 78 92 62 93 63 94 68 95 64 96 65 97
REMARK SMILES IDX 67 98 69 99 66 100
REMARK H PARENT 32 5 18 10 36 43 86 62 60 73
REMARK Flexibility Score: inf
ROOT
ATOM      1  C   UNL A   1      45.019  32.912  26.706  1.00  0.00     0.117 C 
ENDROOT
BRANCH   1   2
ATOM      2  N   UNL A   1      44.142  31.741  26.625  1.00  0.00    -0.354 N 
ATOM      3  C   UNL A   1      44.459  30.418  26.807  1.00  0.00     0.242 C 
ATOM      4  O   UNL A   1      43.620  29.529  26.881  1.00  0.00    -0.273 OA
ATOM      5  H   UNL A   1      43.200  31.929  26.411  1.00  0.00     0.163 HD
BRANCH   3   6
ATOM      6  C   UNL A   1      45.865  30.002  26.829  1.00  0.00     0.175 C 
BRANCH   6   7
ATOM      7  N   UNL A   1      46.135  29.613  25.424  1.00  0.00    -0.344 N 
ATOM      8  C   UNL A   1      46.715  28.481  24.867  1.00  0.00     0.221 C 
ATOM      9  O   UNL A   1      46.778  28.490  23.629  1.00  0.00    -0.275 OA
ATOM     10  H   UNL A   1      45.849  30.283  24.763  1.00  0.00     0.164 HD
BRANCH   8  11
ATOM     11  C   UNL A   1      47.303  27.226  25.621  1.00  0.00     0.116 C 
BRANCH  11  12
ATOM     12  C   UNL A   1      46.452  25.927  25.783  1.00  0.00     0.116 C 
ATOM     13  C   UNL A   1      42.323  18.609  25.751  1.00  0.00     0.088 C 
ATOM     14  C   UNL A   1      42.783  20.015  25.818  1.00  0.00     0.105 A 
ATOM     15  O   UNL A   1      44.087  20.195  25.485  1.00  0.00    -0.461 OA
ATOM     16  C   UNL A   1      42.224  21.219  26.227  1.00  0.00    -0.002 A 
ATOM     17  C   UNL A   1      44.374  21.498  25.709  1.00  0.00     0.138 A 
ATOM     18  C   UNL A   1      43.236  22.225  26.034  1.00  0.00     0.024 A 
ATOM     19  C   UNL A   1      40.897  21.409  26.862  1.00  0.00     0.049 C 
ATOM     20  C   UNL A   1      45.652  22.012  25.728  1.00  0.00     0.095 A 
ATOM     21  C   UNL A   1      43.355  23.642  26.187  1.00  0.00     0.020 A 
ATOM     22  C   UNL A   1      45.722  23.352  26.099  1.00  0.00     0.138 A 
ATOM     23  C   UNL A   1      44.631  24.238  26.150  1.00  0.00    -0.001 A 
ATOM     24  O   UNL A   1      46.961  23.739  26.618  1.00  0.00    -0.426 OA
ATOM     25  C   UNL A   1      44.952  25.769  26.222  1.00  0.00     0.035 C 
ATOM     26  C   UNL A   1      47.077  25.089  26.881  1.00  0.00     0.315 C 
ATOM     27  C   UNL A   1      43.990  26.592  25.373  1.00  0.00     0.014 C 
ATOM     28  O   UNL A   1      47.578  25.532  27.908  1.00  0.00    -0.251 OA
ENDBRANCH  11  12
ENDBRANCH   8  11
ENDBRANCH   6   7
BRANCH   6  29
ATOM     29  C   UNL A   1      45.880  28.958  28.028  1.00  0.00     0.068 C 
BRANCH  29  30
ATOM     30  C   UNL A   1      46.498  29.345  29.413  1.00  0.00    -0.037 C 
ATOM     31  C   UNL A   1      46.712  30.463  30.135  1.00  0.00     0.001 A 
ATOM     32  C   UNL A   1      47.260  28.282  30.171  1.00  0.00     0.174 C 
ATOM     33  C   UNL A   1      46.218  31.792  30.372  1.00  0.00     0.010 A 
ATOM     34  C   UNL A   1      48.140  30.197  30.465  1.00  0.00     0.065 A 
ATOM     35  N   UNL A   1      48.519  28.956  30.533  1.00  0.00    -0.280 NA
ATOM     36  C   UNL A   1      47.065  32.812  30.590  1.00  0.00     0.001 A 
ATOM     37  C   UNL A   1      49.035  31.382  30.502  1.00  0.00     0.028 A 
ATOM     38  C   UNL A   1      48.496  32.612  30.505  1.00  0.00     0.002 A 
ENDBRANCH  29  30
ENDBRANCH   6  29
ENDBRANCH   3   6
ENDBRANCH   1   2
BRANCH   1  39
ATOM     39  C   UNL A   1      44.817  33.862  25.543  1.00  0.00     0.042 C 
BRANCH  39  40
ATOM     40  C   UNL A   1      43.390  34.408  25.563  1.00  0.00     0.118 C 
BRANCH  40  41
ATOM     41  N   UNL A   1      43.279  35.835  25.752  1.00  0.00    -0.352 N 
ATOM     42  C   UNL A   1      43.086  36.542  26.917  1.00  0.00     0.251 C 
ATOM     43  H   UNL A   1      43.351  36.378  24.933  1.00  0.00     0.163 HD
ATOM     44  O   UNL A   1      43.073  37.747  26.934  1.00  0.00    -0.269 OA
BRANCH  42  45
ATOM     45  C   UNL A   1      42.781  35.759  28.129  1.00  0.00     0.039 A 
ATOM     46  C   UNL A   1      43.795  35.343  28.995  1.00  0.00     0.014 A 
ATOM     47  C   UNL A   1      41.460  35.345  28.296  1.00  0.00     0.014 A 
ATOM     48  C   UNL A   1      43.502  34.406  29.974  1.00  0.00     0.010 A 
ATOM     49  C   UNL A   1      41.160  34.442  29.304  1.00  0.00     0.010 A 
ATOM     50  C   UNL A   1      42.187  33.946  30.118  1.00  0.00    -0.014 A 
BRANCH  50  51
ATOM     51  C   UNL A   1      41.935  32.990  31.204  1.00  0.00     0.031 A 
ATOM     52  C   UNL A   1      40.507  33.004  31.655  1.00  0.00     0.074 A 
ATOM     53  C   UNL A   1      42.574  31.804  31.214  1.00  0.00     0.049 A 
ATOM     54  N   UNL A   1      39.544  32.362  31.061  1.00  0.00    -0.248 NA
ATOM     55  C   UNL A   1      40.052  33.998  32.629  1.00  0.00     0.031 C 
ATOM     56  C   UNL A   1      42.816  30.975  30.029  1.00  0.00     0.029 A 
ATOM     57  N   UNL A   1      42.875  30.987  32.279  1.00  0.00    -0.354 N 
ATOM     58  C   UNL A   1      38.359  32.916  31.511  1.00  0.00     0.074 A 
ATOM     59  C   UNL A   1      38.722  33.912  32.496  1.00  0.00     0.031 C 
ATOM     60  C   UNL A   1      43.057  29.712  30.431  1.00  0.00     0.029 A 
ATOM     61  C   UNL A   1      43.104  29.672  31.890  1.00  0.00     0.049 A 
ATOM     62  H   UNL A   1      42.925  31.299  33.211  1.00  0.00     0.167 HD
ATOM     63  C   UNL A   1      37.136  32.562  31.039  1.00  0.00     0.037 A 
ATOM     64  C   UNL A   1      42.820  28.595  32.670  1.00  0.00     0.037 A 
ATOM     65  C   UNL A   1      37.112  31.515  30.066  1.00  0.00     0.049 A 
ATOM     66  C   UNL A   1      41.348  28.426  32.380  1.00  0.00     0.074 A 
ATOM     67  C   UNL A   1      37.040  31.413  28.694  1.00  0.00     0.029 A 
ATOM     68  N   UNL A   1      37.231  30.222  30.515  1.00  0.00    -0.354 N 
ATOM     69  N   UNL A   1      40.823  27.859  31.325  1.00  0.00    -0.248 NA
ATOM     70  C   UNL A   1      40.418  29.270  33.136  1.00  0.00     0.031 C 
ATOM     71  C   UNL A   1      37.559  30.119  28.380  1.00  0.00     0.029 A 
ATOM     72  C   UNL A   1      37.964  29.536  29.580  1.00  0.00     0.049 A 
ATOM     73  H   UNL A   1      36.859  29.856  31.351  1.00  0.00     0.167 HD
ATOM     74  C   UNL A   1      39.600  28.509  31.127  1.00  0.00     0.074 A 
ATOM     75  C   UNL A   1      39.383  29.315  32.309  1.00  0.00     0.031 C 
ATOM     76  C   UNL A   1      38.942  28.531  29.932  1.00  0.00     0.037 A 
BRANCH  63  77
ATOM     77  C   UNL A   1      35.869  33.105  31.557  1.00  0.00     0.057 A 
ATOM     78  C   UNL A   1      35.183  34.053  30.792  1.00  0.00     0.134 A 
ATOM     79  C   UNL A   1      35.410  32.843  32.848  1.00  0.00     0.134 A 
ATOM     80  F   UNL A   1      35.595  34.341  29.546  1.00  0.00    -0.206 F 
ATOM     81  C   UNL A   1      34.088  34.747  31.303  1.00  0.00     0.040 A 
ATOM     82  C   UNL A   1      34.311  33.528  33.371  1.00  0.00     0.040 A 
ATOM     83  F   UNL A   1      36.036  31.950  33.628  1.00  0.00    -0.206 F 
ATOM     84  C   UNL A   1      33.656  34.492  32.603  1.00  0.00     0.006 A 
ENDBRANCH  63  77
BRANCH  64  85
ATOM     85  C   UNL A   1      43.428  28.648  34.036  1.00  0.00     0.057 A 
ATOM     86  C   UNL A   1      44.751  29.124  34.152  1.00  0.00     0.134 A 
ATOM     87  C   UNL A   1      42.802  28.305  35.239  1.00  0.00     0.134 A 
ATOM     88  F   UNL A   1      45.480  29.377  33.051  1.00  0.00    -0.206 F 
ATOM     89  C   UNL A   1      45.359  29.376  35.384  1.00  0.00     0.040 A 
ATOM     90  C   UNL A   1      43.390  28.572  36.483  1.00  0.00     0.040 A 
ATOM     91  F   UNL A   1      41.599  27.721  35.258  1.00  0.00    -0.206 F 
ATOM     92  C   UNL A   1      44.661  29.130  36.558  1.00  0.00     0.006 A 
ENDBRANCH  64  85
BRANCH  76  93
ATOM     93  C   UNL A   1      39.481  27.631  28.876  1.00  0.00     0.057 A 
ATOM     94  C   UNL A   1      40.264  28.149  27.841  1.00  0.00     0.134 A 
ATOM     95  C   UNL A   1      39.278  26.246  28.909  1.00  0.00     0.134 A 
ATOM     96  F   UNL A   1      40.501  29.468  27.759  1.00  0.00    -0.206 F 
ATOM     97  C   UNL A   1      40.846  27.315  26.886  1.00  0.00     0.040 A 
ATOM     98  C   UNL A   1      39.876  25.400  27.976  1.00  0.00     0.040 A 
ATOM     99  F   UNL A   1      38.520  25.681  29.863  1.00  0.00    -0.206 F 
ATOM    100  C   UNL A   1      40.665  25.935  26.959  1.00  0.00     0.006 A 
ENDBRANCH  76  93
ENDBRANCH  50  51
ENDBRANCH  42  45
ENDBRANCH  40  41
ENDBRANCH  39  40
ENDBRANCH   1  39
TORSDOF 15
ENDMDL
MODEL 3
REMARK VINA RESULT:     -11.0      6.208     11.659
REMARK SMILES Cc1oc2cc3c(cc2c1C)[C@H](C)[C@@H](CC(=O)N[C@H](CC1=c2ccccc2=NC1)C(=O)NCCCNC(=O)c1ccc(-c2c4nc(c(-c5c(F)cccc5F)c5ccc([nH]5)c(-c5c(F)cccc5F)c5nc(c(-c6c(F)cccc6F)c6ccc2[nH]6)C=C5)C=C4)cc1)C(=O)O3
REMARK SMILES IDX 33 1 32 2 30 3 31 4 19 6 18 7 16 8 17 9 15 11 14 12 1 13
REMARK SMILES IDX 2 14 3 15 10 16 4 17 9 18 11 19 5 20 8 21 6 22 7 23 95 24
REMARK SMILES IDX 12 25 93 26 13 27 94 28 20 29 21 30 22 31 29 32 23 33 27 34
REMARK SMILES IDX 28 35 24 36 26 37 25 38 34 39 35 40 36 41 37 42 38 44 39 45
REMARK SMILES IDX 40 46 92 47 41 48 91 49 42 50 43 51 44 52 85 53 45 54 90 55
REMARK SMILES IDX 84 56 86 57 46 58 89 59 83 60 82 61 47 63 73 64 56 65 72 66
REMARK SMILES IDX 57 67 60 68 71 69 87 70 58 71 59 72 70 74 88 75 61 76 48 77
REMARK SMILES IDX 49 78 54 79 50 80 51 81 53 82 55 83 52 84 74 85 75 86 80 87
REMARK SMILES IDX 76 88 77 89 79 90 81 91 78 92 62 93 63 94 68 95 64 96 65 97
REMARK SMILES IDX 67 98 69 99 66 100
REMARK H PARENT 32 5 18 10 36 43 86 62 60 73
REMARK Flexibility Score: inf
ROOT
ATOM      1  C   UNL A   1      34.013  30.147  27.124  1.00  0.00     0.117 C 
ENDROOT
BRANCH   1   2
ATOM      2  N   UNL A   1      32.899  29.513  27.833  1.00  0.00    -0.354 N 
ATOM      3  C   UNL A   1      32.071  28.506  27.404  1.00  0.00     0.242 C 
ATOM      4  O   UNL A   1      31.274  27.932  28.136  1.00  0.00    -0.273 OA
ATOM      5  H   UNL A   1      32.720  29.856  28.739  1.00  0.00     0.163 HD
BRANCH   3   6
ATOM      6  C   UNL A   1      32.050  28.135  25.985  1.00  0.00     0.175 C 
BRANCH   6   7
ATOM      7  N   UNL A   1      33.329  27.410  25.796  1.00  0.00    -0.344 N 
ATOM      8  C   UNL A   1      33.668  26.306  25.025  1.00  0.00     0.221 C 
ATOM      9  O   UNL A   1      34.856  25.965  25.106  1.00  0.00    -0.275 OA
ATOM     10  H   UNL A   1      34.078  27.781  26.314  1.00  0.00     0.164 HD
BRANCH   8  11
ATOM     11  C   UNL A   1      32.723  25.451  24.094  1.00  0.00     0.116 C 
BRANCH  11  12
ATOM     12  C   UNL A   1      32.713  23.893  24.190  1.00  0.00     0.116 C 
ATOM     13  C   UNL A   1      32.820  15.636  25.745  1.00  0.00     0.088 C 
ATOM     14  C   UNL A   1      32.985  17.021  25.247  1.00  0.00     0.105 A 
ATOM     15  O   UNL A   1      32.387  17.968  26.014  1.00  0.00    -0.461 OA
ATOM     16  C   UNL A   1      33.543  17.604  24.116  1.00  0.00    -0.002 A 
ATOM     17  C   UNL A   1      32.529  19.147  25.366  1.00  0.00     0.138 A 
ATOM     18  C   UNL A   1      33.355  19.025  24.256  1.00  0.00     0.024 A 
ATOM     19  C   UNL A   1      34.100  16.897  22.938  1.00  0.00     0.049 C 
ATOM     20  C   UNL A   1      31.846  20.296  25.699  1.00  0.00     0.095 A 
ATOM     21  C   UNL A   1      33.700  20.209  23.531  1.00  0.00     0.020 A 
ATOM     22  C   UNL A   1      32.054  21.358  24.823  1.00  0.00     0.138 A 
ATOM     23  C   UNL A   1      33.082  21.430  23.867  1.00  0.00    -0.001 A 
ATOM     24  O   UNL A   1      31.030  22.308  24.821  1.00  0.00    -0.426 OA
ATOM     25  C   UNL A   1      33.385  22.834  23.242  1.00  0.00     0.035 C 
ATOM     26  C   UNL A   1      31.280  23.421  24.043  1.00  0.00     0.315 C 
ATOM     27  C   UNL A   1      34.879  23.063  23.053  1.00  0.00     0.014 C 
ATOM     28  O   UNL A   1      30.448  23.916  23.292  1.00  0.00    -0.251 OA
ENDBRANCH  11  12
ENDBRANCH   8  11
ENDBRANCH   6   7
BRANCH   6  29
ATOM     29  C   UNL A   1      31.740  29.529  25.286  1.00  0.00     0.068 C 
BRANCH  29  30
ATOM     30  C   UNL A   1      30.955  29.584  23.933  1.00  0.00    -0.037 C 
ATOM     31  C   UNL A   1      29.819  30.130  23.458  1.00  0.00     0.001 A 
ATOM     32  C   UNL A   1      31.400  28.664  22.819  1.00  0.00     0.174 C 
ATOM     33  C   UNL A   1      28.911  31.231  23.631  1.00  0.00     0.010 A 
ATOM     34  C   UNL A   1      29.285  28.903  22.804  1.00  0.00     0.065 A 
ATOM     35  N   UNL A   1      30.146  28.025  22.382  1.00  0.00    -0.280 NA
ATOM     36  C   UNL A   1      27.586  31.058  23.491  1.00  0.00     0.001 A 
ATOM     37  C   UNL A   1      27.813  28.716  22.864  1.00  0.00     0.028 A 
ATOM     38  C   UNL A   1      27.036  29.742  23.247  1.00  0.00     0.002 A 
ENDBRANCH  29  30
ENDBRANCH   6  29
ENDBRANCH   3   6
ENDBRANCH   1   2
BRANCH   1  39
ATOM     39  C   UNL A   1      35.334  29.456  27.397  1.00  0.00     0.042 C 
BRANCH  39  40
ATOM     40  C   UNL A   1      36.151  30.279  28.393  1.00  0.00     0.118 C 
BRANCH  40  41
ATOM     41  N   UNL A   1      36.189  29.757  29.739  1.00  0.00    -0.352 N 
ATOM     42  C   UNL A   1      37.232  29.153  30.404  1.00  0.00     0.251 C 
ATOM     43  H   UNL A   1      35.353  29.845  30.251  1.00  0.00     0.163 HD
ATOM     44  O   UNL A   1      37.140  28.818  31.557  1.00  0.00    -0.269 OA
BRANCH  42  45
ATOM     45  C   UNL A   1      38.432  28.831  29.610  1.00  0.00     0.039 A 
ATOM     46  C   UNL A   1      38.434  27.768  28.702  1.00  0.00     0.014 A 
ATOM     47  C   UNL A   1      39.593  29.546  29.902  1.00  0.00     0.014 A 
ATOM     48  C   UNL A   1      39.641  27.342  28.168  1.00  0.00     0.010 A 
ATOM     49  C   UNL A   1      40.792  29.146  29.331  1.00  0.00     0.010 A 
ATOM     50  C   UNL A   1      40.820  28.024  28.494  1.00  0.00    -0.014 A 
BRANCH  50  51
ATOM     51  C   UNL A   1      42.056  27.551  27.858  1.00  0.00     0.031 A 
ATOM     52  C   UNL A   1      43.047  28.654  27.648  1.00  0.00     0.074 A 
ATOM     53  C   UNL A   1      42.544  26.333  28.164  1.00  0.00     0.049 A 
ATOM     54  N   UNL A   1      43.858  29.094  28.566  1.00  0.00    -0.248 NA
ATOM     55  C   UNL A   1      42.950  29.517  26.470  1.00  0.00     0.031 C 
ATOM     56  C   UNL A   1      42.569  25.757  29.513  1.00  0.00     0.029 A 
ATOM     57  N   UNL A   1      43.347  25.504  27.416  1.00  0.00    -0.354 N 
ATOM     58  C   UNL A   1      44.316  30.326  28.133  1.00  0.00     0.074 A 
ATOM     59  C   UNL A   1      43.743  30.538  26.823  1.00  0.00     0.031 C 
ATOM     60  C   UNL A   1      43.489  24.774  29.542  1.00  0.00     0.029 A 
ATOM     61  C   UNL A   1      44.023  24.574  28.198  1.00  0.00     0.049 A 
ATOM     62  H   UNL A   1      43.433  25.563  26.437  1.00  0.00     0.167 HD
ATOM     63  C   UNL A   1      45.116  31.134  28.876  1.00  0.00     0.037 A 
ATOM     64  C   UNL A   1      45.254  24.084  27.891  1.00  0.00     0.037 A 
ATOM     65  C   UNL A   1      45.532  30.621  30.144  1.00  0.00     0.049 A 
ATOM     66  C   UNL A   1      46.132  25.183  28.438  1.00  0.00     0.074 A 
ATOM     67  C   UNL A   1      45.147  30.747  31.461  1.00  0.00     0.029 A 
ATOM     68  N   UNL A   1      46.562  29.712  30.158  1.00  0.00    -0.354 N 
ATOM     69  N   UNL A   1      46.465  25.363  29.690  1.00  0.00    -0.248 NA
ATOM     70  C   UNL A   1      46.342  26.356  27.584  1.00  0.00     0.031 C 
ATOM     71  C   UNL A   1      45.665  29.592  32.122  1.00  0.00     0.029 A 
ATOM     72  C   UNL A   1      46.288  28.807  31.152  1.00  0.00     0.049 A 
ATOM     73  H   UNL A   1      47.350  29.711  29.567  1.00  0.00     0.167 HD
ATOM     74  C   UNL A   1      46.638  26.744  29.831  1.00  0.00     0.074 A 
ATOM     75  C   UNL A   1      46.614  27.285  28.490  1.00  0.00     0.031 C 
ATOM     76  C   UNL A   1      46.571  27.395  31.029  1.00  0.00     0.037 A 
BRANCH  63  77
ATOM     77  C   UNL A   1      45.654  32.419  28.397  1.00  0.00     0.057 A 
ATOM     78  C   UNL A   1      44.949  33.592  28.687  1.00  0.00     0.134 A 
ATOM     79  C   UNL A   1      46.742  32.502  27.529  1.00  0.00     0.134 A 
ATOM     80  F   UNL A   1      43.891  33.555  29.514  1.00  0.00    -0.206 F 
ATOM     81  C   UNL A   1      45.293  34.810  28.106  1.00  0.00     0.040 A 
ATOM     82  C   UNL A   1      47.101  33.718  26.942  1.00  0.00     0.040 A 
ATOM     83  F   UNL A   1      47.447  31.407  27.209  1.00  0.00    -0.206 F 
ATOM     84  C   UNL A   1      46.367  34.873  27.221  1.00  0.00     0.006 A 
ENDBRANCH  63  77
BRANCH  64  85
ATOM     85  C   UNL A   1      45.358  23.501  26.516  1.00  0.00     0.057 A 
ATOM     86  C   UNL A   1      44.310  22.668  26.071  1.00  0.00     0.134 A 
ATOM     87  C   UNL A   1      46.384  23.727  25.593  1.00  0.00     0.134 A 
ATOM     88  F   UNL A   1      43.332  22.298  26.915  1.00  0.00    -0.206 F 
ATOM     89  C   UNL A   1      44.217  22.209  24.756  1.00  0.00     0.040 A 
ATOM     90  C   UNL A   1      46.295  23.292  24.265  1.00  0.00     0.040 A 
ATOM     91  F   UNL A   1      47.496  24.390  25.934  1.00  0.00    -0.206 F 
ATOM     92  C   UNL A   1      45.199  22.551  23.837  1.00  0.00     0.006 A 
ENDBRANCH  64  85
BRANCH  76  93
ATOM     93  C   UNL A   1      46.521  26.528  32.237  1.00  0.00     0.057 A 
ATOM     94  C   UNL A   1      45.291  26.143  32.778  1.00  0.00     0.134 A 
ATOM     95  C   UNL A   1      47.682  26.025  32.837  1.00  0.00     0.134 A 
ATOM     96  F   UNL A   1      44.142  26.586  32.243  1.00  0.00    -0.206 F 
ATOM     97  C   UNL A   1      45.218  25.267  33.862  1.00  0.00     0.040 A 
ATOM     98  C   UNL A   1      47.621  25.128  33.903  1.00  0.00     0.040 A 
ATOM     99  F   UNL A   1      48.899  26.369  32.384  1.00  0.00    -0.206 F 
ATOM    100  C   UNL A   1      46.385  24.745  34.418  1.00  0.00     0.006 A 
ENDBRANCH  76  93
ENDBRANCH  50  51
ENDBRANCH  42  45
ENDBRANCH  40  41
ENDBRANCH  39  40
ENDBRANCH   1  39
TORSDOF 15
ENDMDL
