MODEL 1
REMARK VINA RESULT:     -11.4      0.000      0.000
REMARK SMILES Cc1cc(C(=O)NC[C@@H]2CC[C@H](C(=O)NCCCNC(=O)c3ccc(-c4c5nc(c(-c6c(F)cccc6F)c6ccc([nH]6)c(-c6c(F)cccc6F)c6nc(c(-c7c(F)cccc7F)c7ccc4[nH]7)C=C6)C=C5)cc3)O2)on1
REMARK SMILES IDX 16 1 15 2 13 3 14 4 12 6 9 7 10 8 76 9 11 10 8 11 7 12 5 13
REMARK SMILES IDX 6 14 4 16 1 17 2 18 3 19 78 20 77 21 17 22 18 23 19 24 20 25
REMARK SMILES IDX 21 27 22 28 23 29 75 30 24 31 74 32 25 33 26 34 27 35 68 36
REMARK SMILES IDX 28 37 73 38 67 39 69 40 29 41 72 42 66 43 65 44 30 46 56 47
REMARK SMILES IDX 39 48 55 49 40 50 43 51 54 52 70 53 41 54 42 55 53 57 71 58
REMARK SMILES IDX 44 59 31 60 32 61 37 62 33 63 34 64 36 65 38 66 35 67 57 68
REMARK SMILES IDX 58 69 63 70 59 71 60 72 62 73 64 74 61 75 45 76 46 77 51 78
REMARK SMILES IDX 47 79 48 80 50 81 52 82 49 83
REMARK H PARENT 15 5 7 15 19 26 69 45 43 56
REMARK Flexibility Score: inf
ROOT
ATOM      1  C   UNL A   1      37.578  21.190  24.649  1.00  0.00     0.117 C 
ENDROOT
BRANCH   1   2
ATOM      2  N   UNL A   1      36.682  21.466  25.747  1.00  0.00    -0.354 N 
ATOM      3  C   UNL A   1      35.319  21.403  25.800  1.00  0.00     0.249 C 
ATOM      4  O   UNL A   1      34.784  21.672  26.880  1.00  0.00    -0.272 OA
ATOM      5  H   UNL A   1      37.121  21.740  26.585  1.00  0.00     0.163 HD
BRANCH   3   6
ATOM      6  C   UNL A   1      34.463  21.069  24.556  1.00  0.00     0.207 C 
ATOM      7  C   UNL A   1      32.360  21.732  23.754  1.00  0.00     0.138 C 
ATOM      8  C   UNL A   1      32.133  20.466  24.565  1.00  0.00     0.037 C 
ATOM      9  O   UNL A   1      33.705  22.161  24.033  1.00  0.00    -0.363 OA
ATOM     10  C   UNL A   1      33.517  19.898  24.774  1.00  0.00     0.045 C 
BRANCH   7  11
ATOM     11  C   UNL A   1      31.399  22.878  24.120  1.00  0.00     0.148 C 
BRANCH  11  12
ATOM     12  N   UNL A   1      30.895  22.771  25.475  1.00  0.00    -0.347 N 
ATOM     13  C   UNL A   1      30.762  23.719  26.462  1.00  0.00     0.289 C 
ATOM     14  O   UNL A   1      30.028  23.413  27.402  1.00  0.00    -0.266 OA
ATOM     15  H   UNL A   1      30.597  21.867  25.731  1.00  0.00     0.164 HD
BRANCH  13  16
ATOM     16  C   UNL A   1      31.452  24.986  26.385  1.00  0.00     0.224 A 
ATOM     17  C   UNL A   1      33.819  27.776  26.109  1.00  0.00     0.070 C 
ATOM     18  C   UNL A   1      32.707  26.810  26.256  1.00  0.00     0.081 A 
ATOM     19  C   UNL A   1      32.756  25.399  26.208  1.00  0.00     0.083 A 
ATOM     20  N   UNL A   1      31.465  27.241  26.482  1.00  0.00    -0.084 NA
ATOM     21  O   UNL A   1      30.685  26.104  26.576  1.00  0.00    -0.351 OA
ENDBRANCH  13  16
ENDBRANCH  11  12
ENDBRANCH   7  11
ENDBRANCH   3   6
ENDBRANCH   1   2
BRANCH   1  22
ATOM     22  C   UNL A   1      38.339  19.885  24.828  1.00  0.00     0.042 C 
BRANCH  22  23
ATOM     23  C   UNL A   1      39.201  19.875  26.083  1.00  0.00     0.118 C 
BRANCH  23  24
ATOM     24  N   UNL A   1      40.440  19.130  25.888  1.00  0.00    -0.352 N 
ATOM     25  C   UNL A   1      41.747  19.541  25.965  1.00  0.00     0.251 C 
ATOM     26  H   UNL A   1      40.318  18.178  25.666  1.00  0.00     0.163 HD
ATOM     27  O   UNL A   1      42.638  18.789  25.579  1.00  0.00    -0.269 OA
BRANCH  25  28
ATOM     28  C   UNL A   1      42.091  20.882  26.484  1.00  0.00     0.039 A 
ATOM     29  C   UNL A   1      42.421  21.894  25.575  1.00  0.00     0.014 A 
ATOM     30  C   UNL A   1      42.122  21.144  27.855  1.00  0.00     0.014 A 
ATOM     31  C   UNL A   1      42.715  23.178  26.037  1.00  0.00     0.010 A 
ATOM     32  C   UNL A   1      42.330  22.442  28.310  1.00  0.00     0.010 A 
ATOM     33  C   UNL A   1      42.637  23.471  27.408  1.00  0.00    -0.014 A 
BRANCH  33  34
ATOM     34  C   UNL A   1      42.885  24.838  27.929  1.00  0.00     0.031 A 
ATOM     35  C   UNL A   1      44.268  25.231  28.373  1.00  0.00     0.074 A 
ATOM     36  C   UNL A   1      41.853  25.690  28.089  1.00  0.00     0.049 A 
ATOM     37  N   UNL A   1      44.663  26.323  28.975  1.00  0.00    -0.248 NA
ATOM     38  C   UNL A   1      45.343  24.251  28.143  1.00  0.00     0.031 C 
ATOM     39  C   UNL A   1      40.457  25.408  27.751  1.00  0.00     0.029 A 
ATOM     40  N   UNL A   1      41.819  26.963  28.599  1.00  0.00    -0.354 N 
ATOM     41  C   UNL A   1      46.017  26.145  29.230  1.00  0.00     0.074 A 
ATOM     42  C   UNL A   1      46.371  24.828  28.748  1.00  0.00     0.031 C 
ATOM     43  C   UNL A   1      39.705  26.480  28.049  1.00  0.00     0.029 A 
ATOM     44  C   UNL A   1      40.559  27.511  28.631  1.00  0.00     0.049 A 
ATOM     45  H   UNL A   1      42.622  27.440  28.913  1.00  0.00     0.167 HD
ATOM     46  C   UNL A   1      46.891  27.008  29.799  1.00  0.00     0.037 A 
ATOM     47  C   UNL A   1      40.139  28.705  29.089  1.00  0.00     0.037 A 
ATOM     48  C   UNL A   1      46.553  28.344  30.212  1.00  0.00     0.049 A 
ATOM     49  C   UNL A   1      41.142  29.665  29.666  1.00  0.00     0.074 A 
ATOM     50  C   UNL A   1      47.390  29.330  30.705  1.00  0.00     0.029 A 
ATOM     51  N   UNL A   1      45.278  28.881  30.172  1.00  0.00    -0.354 N 
ATOM     52  N   UNL A   1      42.432  29.509  29.833  1.00  0.00    -0.248 NA
ATOM     53  C   UNL A   1      40.631  30.968  30.114  1.00  0.00     0.031 C 
ATOM     54  C   UNL A   1      46.614  30.459  30.989  1.00  0.00     0.029 A 
ATOM     55  C   UNL A   1      45.300  30.183  30.643  1.00  0.00     0.049 A 
ATOM     56  H   UNL A   1      44.474  28.409  29.855  1.00  0.00     0.167 HD
ATOM     57  C   UNL A   1      42.892  30.701  30.375  1.00  0.00     0.074 A 
ATOM     58  C   UNL A   1      41.745  31.575  30.501  1.00  0.00     0.031 C 
ATOM     59  C   UNL A   1      44.152  31.042  30.740  1.00  0.00     0.037 A 
BRANCH  46  60
ATOM     60  C   UNL A   1      48.303  26.547  29.994  1.00  0.00     0.057 A 
ATOM     61  C   UNL A   1      48.699  25.840  31.135  1.00  0.00     0.134 A 
ATOM     62  C   UNL A   1      49.266  26.761  28.998  1.00  0.00     0.134 A 
ATOM     63  F   UNL A   1      47.828  25.614  32.130  1.00  0.00    -0.206 F 
ATOM     64  C   UNL A   1      50.005  25.373  31.288  1.00  0.00     0.040 A 
ATOM     65  C   UNL A   1      50.570  26.279  29.128  1.00  0.00     0.040 A 
ATOM     66  F   UNL A   1      48.950  27.428  27.877  1.00  0.00    -0.206 F 
ATOM     67  C   UNL A   1      50.942  25.585  30.277  1.00  0.00     0.006 A 
ENDBRANCH  46  60
BRANCH  47  68
ATOM     68  C   UNL A   1      38.705  29.077  29.006  1.00  0.00     0.057 A 
ATOM     69  C   UNL A   1      38.154  29.556  27.811  1.00  0.00     0.134 A 
ATOM     70  C   UNL A   1      37.860  28.993  30.118  1.00  0.00     0.134 A 
ATOM     71  F   UNL A   1      38.920  29.676  26.716  1.00  0.00    -0.206 F 
ATOM     72  C   UNL A   1      36.821  29.963  27.732  1.00  0.00     0.040 A 
ATOM     73  C   UNL A   1      36.520  29.375  30.048  1.00  0.00     0.040 A 
ATOM     74  F   UNL A   1      38.326  28.533  31.289  1.00  0.00    -0.206 F 
ATOM     75  C   UNL A   1      36.000  29.871  28.853  1.00  0.00     0.006 A 
ENDBRANCH  47  68
BRANCH  59  76
ATOM     76  C   UNL A   1      44.359  32.429  31.268  1.00  0.00     0.057 A 
ATOM     77  C   UNL A   1      44.625  33.508  30.418  1.00  0.00     0.134 A 
ATOM     78  C   UNL A   1      44.250  32.690  32.639  1.00  0.00     0.134 A 
ATOM     79  F   UNL A   1      44.755  33.316  29.097  1.00  0.00    -0.206 F 
ATOM     80  C   UNL A   1      44.794  34.800  30.916  1.00  0.00     0.040 A 
ATOM     81  C   UNL A   1      44.394  33.981  33.147  1.00  0.00     0.040 A 
ATOM     82  F   UNL A   1      43.989  31.698  33.504  1.00  0.00    -0.206 F 
ATOM     83  C   UNL A   1      44.672  35.040  32.284  1.00  0.00     0.006 A 
ENDBRANCH  59  76
ENDBRANCH  33  34
ENDBRANCH  25  28
ENDBRANCH  23  24
ENDBRANCH  22  23
ENDBRANCH   1  22
TORSDOF 13
ENDMDL
MODEL 2
REMARK VINA RESULT:     -11.3      4.288      6.954
REMARK SMILES Cc1cc(C(=O)NC[C@@H]2CC[C@H](C(=O)NCCCNC(=O)c3ccc(-c4c5nc(c(-c6c(F)cccc6F)c6ccc([nH]6)c(-c6c(F)cccc6F)c6nc(c(-c7c(F)cccc7F)c7ccc4[nH]7)C=C6)C=C5)cc3)O2)on1
REMARK SMILES IDX 16 1 15 2 13 3 14 4 12 6 9 7 10 8 76 9 11 10 8 11 7 12 5 13
REMARK SMILES IDX 6 14 4 16 1 17 2 18 3 19 78 20 77 21 17 22 18 23 19 24 20 25
REMARK SMILES IDX 21 27 22 28 23 29 75 30 24 31 74 32 25 33 26 34 27 35 68 36
REMARK SMILES IDX 28 37 73 38 67 39 69 40 29 41 72 42 66 43 65 44 30 46 56 47
REMARK SMILES IDX 39 48 55 49 40 50 43 51 54 52 70 53 41 54 42 55 53 57 71 58
REMARK SMILES IDX 44 59 31 60 32 61 37 62 33 63 34 64 36 65 38 66 35 67 57 68
REMARK SMILES IDX 58 69 63 70 59 71 60 72 62 73 64 74 61 75 45 76 46 77 51 78
REMARK SMILES IDX 47 79 48 80 50 81 52 82 49 83
REMARK H PARENT 15 5 7 15 19 26 69 45 43 56
REMARK Flexibility Score: inf
ROOT
ATOM      1  C   UNL A   1      45.698  21.351  25.135  1.00  0.00     0.117 C 
ENDROOT
BRANCH   1   2
ATOM      2  N   UNL A   1      46.342  22.203  24.163  1.00  0.00    -0.354 N 
ATOM      3  C   UNL A   1      46.786  23.488  24.285  1.00  0.00     0.249 C 
ATOM      4  O   UNL A   1      47.328  23.993  23.297  1.00  0.00    -0.272 OA
ATOM      5  H   UNL A   1      46.482  21.794  23.277  1.00  0.00     0.163 HD
BRANCH   3   6
ATOM      6  C   UNL A   1      46.577  24.311  25.578  1.00  0.00     0.207 C 
ATOM      7  C   UNL A   1      45.759  26.453  26.075  1.00  0.00     0.138 C 
ATOM      8  C   UNL A   1      47.267  26.589  25.930  1.00  0.00     0.037 C 
ATOM      9  O   UNL A   1      45.417  25.146  25.582  1.00  0.00    -0.363 OA
ATOM     10  C   UNL A   1      47.778  25.168  25.947  1.00  0.00     0.045 C 
BRANCH   7  11
ATOM     11  C   UNL A   1      44.967  27.499  25.269  1.00  0.00     0.148 C 
BRANCH  11  12
ATOM     12  N   UNL A   1      43.821  28.010  25.994  1.00  0.00    -0.347 N 
ATOM     13  C   UNL A   1      43.617  29.219  26.616  1.00  0.00     0.289 C 
ATOM     14  O   UNL A   1      42.447  29.491  26.886  1.00  0.00    -0.266 OA
ATOM     15  H   UNL A   1      43.060  27.387  26.048  1.00  0.00     0.164 HD
BRANCH  13  16
ATOM     16  C   UNL A   1      44.720  30.099  26.930  1.00  0.00     0.224 A 
ATOM     17  C   UNL A   1      47.454  32.041  28.418  1.00  0.00     0.070 C 
ATOM     18  C   UNL A   1      46.392  31.377  27.630  1.00  0.00     0.081 A 
ATOM     19  C   UNL A   1      45.480  30.381  28.046  1.00  0.00     0.083 A 
ATOM     20  N   UNL A   1      46.188  31.714  26.355  1.00  0.00    -0.084 NA
ATOM     21  O   UNL A   1      45.137  30.927  25.923  1.00  0.00    -0.351 OA
ENDBRANCH  13  16
ENDBRANCH  11  12
ENDBRANCH   7  11
ENDBRANCH   3   6
ENDBRANCH   1   2
BRANCH   1  22
ATOM     22  C   UNL A   1      44.867  20.251  24.491  1.00  0.00     0.042 C 
BRANCH  22  23
ATOM     23  C   UNL A   1      44.360  19.230  25.500  1.00  0.00     0.118 C 
BRANCH  23  24
ATOM     24  N   UNL A   1      42.935  18.961  25.335  1.00  0.00    -0.352 N 
ATOM     25  C   UNL A   1      41.841  19.654  25.789  1.00  0.00     0.251 C 
ATOM     26  H   UNL A   1      42.726  18.152  24.815  1.00  0.00     0.163 HD
ATOM     27  O   UNL A   1      40.726  19.146  25.695  1.00  0.00    -0.269 OA
BRANCH  25  28
ATOM     28  C   UNL A   1      41.990  20.989  26.406  1.00  0.00     0.039 A 
ATOM     29  C   UNL A   1      41.818  21.116  27.789  1.00  0.00     0.014 A 
ATOM     30  C   UNL A   1      42.269  22.119  25.634  1.00  0.00     0.014 A 
ATOM     31  C   UNL A   1      41.989  22.359  28.401  1.00  0.00     0.010 A 
ATOM     32  C   UNL A   1      42.523  23.338  26.254  1.00  0.00     0.010 A 
ATOM     33  C   UNL A   1      42.379  23.474  27.642  1.00  0.00    -0.014 A 
BRANCH  33  34
ATOM     34  C   UNL A   1      42.626  24.797  28.269  1.00  0.00     0.031 A 
ATOM     35  C   UNL A   1      43.966  25.096  28.884  1.00  0.00     0.074 A 
ATOM     36  C   UNL A   1      41.620  25.688  28.367  1.00  0.00     0.049 A 
ATOM     37  N   UNL A   1      44.338  26.133  29.590  1.00  0.00    -0.248 NA
ATOM     38  C   UNL A   1      45.017  24.078  28.714  1.00  0.00     0.031 C 
ATOM     39  C   UNL A   1      40.259  25.493  27.862  1.00  0.00     0.029 A 
ATOM     40  N   UNL A   1      41.583  26.931  28.946  1.00  0.00    -0.354 N 
ATOM     41  C   UNL A   1      45.646  25.874  29.980  1.00  0.00     0.074 A 
ATOM     42  C   UNL A   1      45.995  24.570  29.462  1.00  0.00     0.031 C 
ATOM     43  C   UNL A   1      39.525  26.583  28.141  1.00  0.00     0.029 A 
ATOM     44  C   UNL A   1      40.352  27.537  28.873  1.00  0.00     0.049 A 
ATOM     45  H   UNL A   1      42.365  27.350  29.373  1.00  0.00     0.167 HD
ATOM     46  C   UNL A   1      46.487  26.661  30.692  1.00  0.00     0.037 A 
ATOM     47  C   UNL A   1      39.935  28.723  29.354  1.00  0.00     0.037 A 
ATOM     48  C   UNL A   1      46.162  27.986  31.146  1.00  0.00     0.049 A 
ATOM     49  C   UNL A   1      40.907  29.600  30.093  1.00  0.00     0.074 A 
ATOM     50  C   UNL A   1      46.980  28.902  31.786  1.00  0.00     0.029 A 
ATOM     51  N   UNL A   1      44.923  28.587  30.999  1.00  0.00    -0.354 N 
ATOM     52  N   UNL A   1      42.163  29.371  30.390  1.00  0.00    -0.248 NA
ATOM     53  C   UNL A   1      40.405  30.899  30.561  1.00  0.00     0.031 C 
ATOM     54  C   UNL A   1      46.225  30.049  32.051  1.00  0.00     0.029 A 
ATOM     55  C   UNL A   1      44.948  29.858  31.548  1.00  0.00     0.049 A 
ATOM     56  H   UNL A   1      44.140  28.173  30.569  1.00  0.00     0.167 HD
ATOM     57  C   UNL A   1      42.609  30.507  31.051  1.00  0.00     0.074 A 
ATOM     58  C   UNL A   1      41.494  31.429  31.103  1.00  0.00     0.031 C 
ATOM     59  C   UNL A   1      43.834  30.766  31.570  1.00  0.00     0.037 A 
BRANCH  46  60
ATOM     60  C   UNL A   1      47.847  26.121  31.012  1.00  0.00     0.057 A 
ATOM     61  C   UNL A   1      48.916  26.233  30.115  1.00  0.00     0.134 A 
ATOM     62  C   UNL A   1      48.105  25.535  32.258  1.00  0.00     0.134 A 
ATOM     63  F   UNL A   1      48.731  26.772  28.901  1.00  0.00    -0.206 F 
ATOM     64  C   UNL A   1      50.192  25.768  30.440  1.00  0.00     0.040 A 
ATOM     65  C   UNL A   1      49.382  25.087  32.604  1.00  0.00     0.040 A 
ATOM     66  F   UNL A   1      47.124  25.402  33.165  1.00  0.00    -0.206 F 
ATOM     67  C   UNL A   1      50.428  25.202  31.692  1.00  0.00     0.006 A 
ENDBRANCH  46  60
BRANCH  47  68
ATOM     68  C   UNL A   1      38.536  29.169  29.137  1.00  0.00     0.057 A 
ATOM     69  C   UNL A   1      38.124  29.666  27.895  1.00  0.00     0.134 A 
ATOM     70  C   UNL A   1      37.589  29.138  30.167  1.00  0.00     0.134 A 
ATOM     71  F   UNL A   1      38.992  29.738  26.875  1.00  0.00    -0.206 F 
ATOM     72  C   UNL A   1      36.827  30.142  27.691  1.00  0.00     0.040 A 
ATOM     73  C   UNL A   1      36.283  29.590  29.972  1.00  0.00     0.040 A 
ATOM     74  F   UNL A   1      37.920  28.665  31.378  1.00  0.00    -0.206 F 
ATOM     75  C   UNL A   1      35.902  30.103  28.733  1.00  0.00     0.006 A 
ENDBRANCH  47  68
BRANCH  59  76
ATOM     76  C   UNL A   1      44.039  32.109  32.201  1.00  0.00     0.057 A 
ATOM     77  C   UNL A   1      44.448  33.219  31.452  1.00  0.00     0.134 A 
ATOM     78  C   UNL A   1      43.786  32.300  33.564  1.00  0.00     0.134 A 
ATOM     79  F   UNL A   1      44.720  33.094  30.145  1.00  0.00    -0.206 F 
ATOM     80  C   UNL A   1      44.615  34.472  32.043  1.00  0.00     0.040 A 
ATOM     81  C   UNL A   1      43.928  33.553  34.162  1.00  0.00     0.040 A 
ATOM     82  F   UNL A   1      43.384  31.277  34.334  1.00  0.00    -0.206 F 
ATOM     83  C   UNL A   1      44.347  34.642  33.400  1.00  0.00     0.006 A 
ENDBRANCH  59  76
ENDBRANCH  33  34
ENDBRANCH  25  28
ENDBRANCH  23  24
ENDBRANCH  22  23
ENDBRANCH   1  22
TORSDOF 13
ENDMDL
MODEL 3
REMARK VINA RESULT:     -11.3      4.140      8.924
REMARK SMILES Cc1cc(C(=O)NC[C@@H]2CC[C@H](C(=O)NCCCNC(=O)c3ccc(-c4c5nc(c(-c6c(F)cccc6F)c6ccc([nH]6)c(-c6c(F)cccc6F)c6nc(c(-c7c(F)cccc7F)c7ccc4[nH]7)C=C6)C=C5)cc3)O2)on1
REMARK SMILES IDX 16 1 15 2 13 3 14 4 12 6 9 7 10 8 76 9 11 10 8 11 7 12 5 13
REMARK SMILES IDX 6 14 4 16 1 17 2 18 3 19 78 20 77 21 17 22 18 23 19 24 20 25
REMARK SMILES IDX 21 27 22 28 23 29 75 30 24 31 74 32 25 33 26 34 27 35 68 36
REMARK SMILES IDX 28 37 73 38 67 39 69 40 29 41 72 42 66 43 65 44 30 46 56 47
REMARK SMILES IDX 39 48 55 49 40 50 43 51 54 52 70 53 41 54 42 55 53 57 71 58
REMARK SMILES IDX 44 59 31 60 32 61 37 62 33 63 34 64 36 65 38 66 35 67 57 68
REMARK SMILES IDX 58 69 63 70 59 71 60 72 62 73 64 74 61 75 45 76 46 77 51 78
REMARK SMILES IDX 47 79 48 80 50 81 52 82 49 83
REMARK H PARENT 15 5 7 15 19 26 69 45 43 56
REMARK Flexibility Score: inf
ROOT
ATOM      1  C   UNL A   1      31.596  29.878  25.496  1.00  0.00     0.117 C 
ENDROOT
BRANCH   1   2
ATOM      2  N   UNL A   1      32.795  29.291  26.047  1.00  0.00    -0.354 N 
ATOM      3  C   UNL A   1      33.313  28.040  25.876  1.00  0.00     0.249 C 
ATOM      4  O   UNL A   1      34.378  27.789  26.449  1.00  0.00    -0.272 OA
ATOM      5  H   UNL A   1      33.318  29.885  26.633  1.00  0.00     0.163 HD
BRANCH   3   6
ATOM      6  C   UNL A   1      32.583  26.952  25.054  1.00  0.00     0.207 C 
ATOM      7  C   UNL A   1      30.758  26.923  23.580  1.00  0.00     0.138 C 
ATOM      8  C   UNL A   1      30.203  26.612  24.961  1.00  0.00     0.037 C 
ATOM      9  O   UNL A   1      32.109  27.379  23.775  1.00  0.00    -0.363 OA
ATOM     10  C   UNL A   1      31.423  26.313  25.800  1.00  0.00     0.045 C 
BRANCH   7  11
ATOM     11  C   UNL A   1      29.977  28.024  22.838  1.00  0.00     0.148 C 
BRANCH  11  12
ATOM     12  N   UNL A   1      28.570  28.039  23.185  1.00  0.00    -0.347 N 
ATOM     13  C   UNL A   1      27.637  29.046  23.108  1.00  0.00     0.289 C 
ATOM     14  O   UNL A   1      26.460  28.691  23.183  1.00  0.00    -0.266 OA
ATOM     15  H   UNL A   1      28.225  27.185  23.534  1.00  0.00     0.164 HD
BRANCH  13  16
ATOM     16  C   UNL A   1      28.031  30.428  22.953  1.00  0.00     0.224 A 
ATOM     17  C   UNL A   1      29.225  33.881  23.288  1.00  0.00     0.070 C 
ATOM     18  C   UNL A   1      28.686  32.547  22.942  1.00  0.00     0.081 A 
ATOM     19  C   UNL A   1      28.588  31.399  23.759  1.00  0.00     0.083 A 
ATOM     20  N   UNL A   1      28.192  32.314  21.724  1.00  0.00    -0.084 NA
ATOM     21  O   UNL A   1      27.771  30.998  21.736  1.00  0.00    -0.351 OA
ENDBRANCH  13  16
ENDBRANCH  11  12
ENDBRANCH   7  11
ENDBRANCH   3   6
ENDBRANCH   1   2
BRANCH   1  22
ATOM     22  C   UNL A   1      31.301  31.256  26.070  1.00  0.00     0.042 C 
BRANCH  22  23
ATOM     23  C   UNL A   1      32.428  31.780  26.948  1.00  0.00     0.118 C 
BRANCH  23  24
ATOM     24  N   UNL A   1      32.210  33.166  27.348  1.00  0.00    -0.352 N 
ATOM     25  C   UNL A   1      32.939  33.978  28.180  1.00  0.00     0.251 C 
ATOM     26  H   UNL A   1      31.410  33.586  26.958  1.00  0.00     0.163 HD
ATOM     27  O   UNL A   1      32.471  35.059  28.528  1.00  0.00    -0.269 OA
BRANCH  25  28
ATOM     28  C   UNL A   1      34.267  33.558  28.678  1.00  0.00     0.039 A 
ATOM     29  C   UNL A   1      34.338  32.792  29.847  1.00  0.00     0.014 A 
ATOM     30  C   UNL A   1      35.441  33.936  28.022  1.00  0.00     0.014 A 
ATOM     31  C   UNL A   1      35.577  32.352  30.317  1.00  0.00     0.010 A 
ATOM     32  C   UNL A   1      36.665  33.427  28.443  1.00  0.00     0.010 A 
ATOM     33  C   UNL A   1      36.748  32.636  29.598  1.00  0.00    -0.014 A 
BRANCH  33  34
ATOM     34  C   UNL A   1      38.075  32.136  30.038  1.00  0.00     0.031 A 
ATOM     35  C   UNL A   1      38.613  30.848  29.479  1.00  0.00     0.074 A 
ATOM     36  C   UNL A   1      38.748  32.789  31.006  1.00  0.00     0.049 A 
ATOM     37  N   UNL A   1      39.681  30.177  29.828  1.00  0.00    -0.248 NA
ATOM     38  C   UNL A   1      37.826  30.207  28.410  1.00  0.00     0.031 C 
ATOM     39  C   UNL A   1      38.305  34.018  31.669  1.00  0.00     0.029 A 
ATOM     40  N   UNL A   1      39.942  32.497  31.614  1.00  0.00    -0.354 N 
ATOM     41  C   UNL A   1      39.672  29.024  29.054  1.00  0.00     0.074 A 
ATOM     42  C   UNL A   1      38.478  29.066  28.239  1.00  0.00     0.031 C 
ATOM     43  C   UNL A   1      39.221  34.381  32.581  1.00  0.00     0.029 A 
ATOM     44  C   UNL A   1      40.296  33.395  32.593  1.00  0.00     0.049 A 
ATOM     45  H   UNL A   1      40.493  31.717  31.373  1.00  0.00     0.167 HD
ATOM     46  C   UNL A   1      40.588  28.027  29.013  1.00  0.00     0.037 A 
ATOM     47  C   UNL A   1      41.363  33.412  33.414  1.00  0.00     0.037 A 
ATOM     48  C   UNL A   1      41.810  28.021  29.772  1.00  0.00     0.049 A 
ATOM     49  C   UNL A   1      42.391  32.320  33.307  1.00  0.00     0.074 A 
ATOM     50  C   UNL A   1      42.848  27.107  29.723  1.00  0.00     0.029 A 
ATOM     51  N   UNL A   1      42.160  28.980  30.707  1.00  0.00    -0.354 N 
ATOM     52  N   UNL A   1      42.405  31.274  32.518  1.00  0.00    -0.248 NA
ATOM     53  C   UNL A   1      43.552  32.413  34.203  1.00  0.00     0.031 C 
ATOM     54  C   UNL A   1      43.817  27.500  30.653  1.00  0.00     0.029 A 
ATOM     55  C   UNL A   1      43.394  28.674  31.255  1.00  0.00     0.049 A 
ATOM     56  H   UNL A   1      41.613  29.763  30.948  1.00  0.00     0.167 HD
ATOM     57  C   UNL A   1      43.586  30.602  32.799  1.00  0.00     0.074 A 
ATOM     58  C   UNL A   1      44.269  31.364  33.824  1.00  0.00     0.031 C 
ATOM     59  C   UNL A   1      44.064  29.456  32.258  1.00  0.00     0.037 A 
BRANCH  46  60
ATOM     60  C   UNL A   1      40.316  26.865  28.107  1.00  0.00     0.057 A 
ATOM     61  C   UNL A   1      40.884  26.774  26.831  1.00  0.00     0.134 A 
ATOM     62  C   UNL A   1      39.523  25.794  28.541  1.00  0.00     0.134 A 
ATOM     63  F   UNL A   1      41.642  27.771  26.352  1.00  0.00    -0.206 F 
ATOM     64  C   UNL A   1      40.663  25.666  26.011  1.00  0.00     0.040 A 
ATOM     65  C   UNL A   1      39.313  24.670  27.740  1.00  0.00     0.040 A 
ATOM     66  F   UNL A   1      38.953  25.818  29.756  1.00  0.00    -0.206 F 
ATOM     67  C   UNL A   1      39.882  24.606  26.470  1.00  0.00     0.006 A 
ENDBRANCH  46  60
BRANCH  47  68
ATOM     68  C   UNL A   1      41.532  34.509  34.399  1.00  0.00     0.057 A 
ATOM     69  C   UNL A   1      41.011  34.400  35.693  1.00  0.00     0.134 A 
ATOM     70  C   UNL A   1      42.188  35.700  34.065  1.00  0.00     0.134 A 
ATOM     71  F   UNL A   1      40.355  33.291  36.065  1.00  0.00    -0.206 F 
ATOM     72  C   UNL A   1      41.113  35.445  36.613  1.00  0.00     0.040 A 
ATOM     73  C   UNL A   1      42.317  36.744  34.981  1.00  0.00     0.040 A 
ATOM     74  F   UNL A   1      42.717  35.862  32.843  1.00  0.00    -0.206 F 
ATOM     75  C   UNL A   1      41.769  36.622  36.257  1.00  0.00     0.006 A 
ENDBRANCH  47  68
BRANCH  59  76
ATOM     76  C   UNL A   1      45.403  28.981  32.735  1.00  0.00     0.057 A 
ATOM     77  C   UNL A   1      46.592  29.404  32.131  1.00  0.00     0.134 A 
ATOM     78  C   UNL A   1      45.501  28.122  33.836  1.00  0.00     0.134 A 
ATOM     79  F   UNL A   1      46.561  30.216  31.064  1.00  0.00    -0.206 F 
ATOM     80  C   UNL A   1      47.835  28.975  32.597  1.00  0.00     0.040 A 
ATOM     81  C   UNL A   1      46.739  27.704  34.325  1.00  0.00     0.040 A 
ATOM     82  F   UNL A   1      44.397  27.687  34.462  1.00  0.00    -0.206 F 
ATOM     83  C   UNL A   1      47.910  28.128  33.701  1.00  0.00     0.006 A 
ENDBRANCH  59  76
ENDBRANCH  33  34
ENDBRANCH  25  28
ENDBRANCH  23  24
ENDBRANCH  22  23
ENDBRANCH   1  22
TORSDOF 13
ENDMDL
