MODEL 1
REMARK VINA RESULT:     -11.7      0.000      0.000
REMARK SMILES C[N@H+]1CCO[C@@H](C[N@H+]2CCCC[C@@H]2CCC(=O)NCCCNC(=O)c2ccc(-c3c4nc(c(-c5c(F)cccc5F)c5ccc([nH]5)c(-c5c(F)cccc5F)c5nc(c(-c6c(F)cccc6F)c6ccc3[nH]6)C=C5)C=C4)cc2)C1
REMARK SMILES IDX 19 1 18 2 16 3 17 4 15 6 14 7 13 8 8 9 9 10 10 12 12 13
REMARK SMILES IDX 11 14 7 15 6 16 1 17 2 18 3 19 79 20 4 22 5 23 20 24 21 25
REMARK SMILES IDX 22 26 23 27 24 29 25 30 26 31 78 32 27 33 77 34 28 35 29 36
REMARK SMILES IDX 30 37 71 38 31 39 76 40 70 41 72 42 32 43 75 44 69 45 68 46
REMARK SMILES IDX 33 48 59 49 42 50 58 51 43 52 46 53 57 54 73 55 44 56 45 57
REMARK SMILES IDX 56 59 74 60 47 61 34 62 35 63 40 64 36 65 37 66 39 67 41 68
REMARK SMILES IDX 38 69 60 70 61 71 66 72 62 73 63 74 65 75 67 76 64 77 48 78
REMARK SMILES IDX 49 79 54 80 50 81 51 82 53 83 55 84 52 85
REMARK H PARENT 18 5 8 11 2 21 22 28 72 47 46 58
REMARK Flexibility Score: inf
ROOT
ATOM      1  C   UNL A   1      31.266  26.871  25.809  1.00  0.00     0.117 C 
ENDROOT
BRANCH   1   2
ATOM      2  N   UNL A   1      31.208  25.721  26.695  1.00  0.00    -0.356 N 
ATOM      3  C   UNL A   1      31.419  24.400  26.429  1.00  0.00     0.220 C 
ATOM      4  O   UNL A   1      31.167  23.587  27.320  1.00  0.00    -0.275 OA
ATOM      5  H   UNL A   1      30.982  25.927  27.630  1.00  0.00     0.163 HD
BRANCH   3   6
ATOM      6  C   UNL A   1      31.990  23.948  25.094  1.00  0.00     0.106 C 
BRANCH   6   7
ATOM      7  C   UNL A   1      33.506  23.703  25.150  1.00  0.00     0.075 C 
BRANCH   7   8
ATOM      8  C   UNL A   1      33.987  22.587  24.179  1.00  0.00     0.184 C 
ATOM      9  N   UNL A   1      34.320  21.366  24.934  1.00  0.00    -0.330 N 
ATOM     10  C   UNL A   1      35.547  21.480  25.708  1.00  0.00     0.262 C 
ATOM     11  H   UNL A   1      33.619  21.294  25.672  1.00  0.00     0.348 HD
ATOM     12  C   UNL A   1      36.757  21.868  24.859  1.00  0.00     0.062 C 
ATOM     13  C   UNL A   1      35.166  23.033  23.295  1.00  0.00     0.065 C 
ATOM     14  C   UNL A   1      36.484  23.137  24.059  1.00  0.00     0.012 C 
BRANCH   9  15
ATOM     15  C   UNL A   1      34.034  20.095  24.251  1.00  0.00     0.300 C 
BRANCH  15  16
ATOM     16  C   UNL A   1      32.633  19.447  24.086  1.00  0.00     0.228 C 
ATOM     17  C   UNL A   1      34.372  16.783  23.302  1.00  0.00     0.332 C 
ATOM     18  N   UNL A   1      32.939  16.947  23.492  1.00  0.00    -0.333 N 
ATOM     19  C   UNL A   1      32.506  16.655  24.866  1.00  0.00     0.290 C 
ATOM     20  C   UNL A   1      32.428  18.271  23.098  1.00  0.00     0.300 C 
ATOM     21  H   UNL A   1      32.534  16.256  22.861  1.00  0.00     0.348 HD
ATOM     22  C   UNL A   1      32.747  17.812  25.842  1.00  0.00     0.222 C 
ATOM     23  O   UNL A   1      32.153  19.040  25.399  1.00  0.00    -0.361 OA
ENDBRANCH  15  16
ENDBRANCH   9  15
ENDBRANCH   7   8
ENDBRANCH   6   7
ENDBRANCH   3   6
ENDBRANCH   1   2
BRANCH   1  24
ATOM     24  C   UNL A   1      31.811  28.092  26.541  1.00  0.00     0.042 C 
BRANCH  24  25
ATOM     25  C   UNL A   1      32.610  29.067  25.685  1.00  0.00     0.118 C 
BRANCH  25  26
ATOM     26  N   UNL A   1      32.324  30.449  26.019  1.00  0.00    -0.352 N 
ATOM     27  C   UNL A   1      32.938  31.330  26.874  1.00  0.00     0.251 C 
ATOM     28  H   UNL A   1      31.547  30.825  25.545  1.00  0.00     0.163 HD
ATOM     29  O   UNL A   1      32.356  32.387  27.119  1.00  0.00    -0.269 OA
BRANCH  27  30
ATOM     30  C   UNL A   1      34.259  31.075  27.515  1.00  0.00     0.039 A 
ATOM     31  C   UNL A   1      34.497  29.787  28.014  1.00  0.00     0.014 A 
ATOM     32  C   UNL A   1      35.216  32.065  27.747  1.00  0.00     0.014 A 
ATOM     33  C   UNL A   1      35.677  29.491  28.710  1.00  0.00     0.010 A 
ATOM     34  C   UNL A   1      36.428  31.751  28.382  1.00  0.00     0.010 A 
ATOM     35  C   UNL A   1      36.674  30.463  28.886  1.00  0.00    -0.014 A 
BRANCH  35  36
ATOM     36  C   UNL A   1      37.940  30.124  29.608  1.00  0.00     0.031 A 
ATOM     37  C   UNL A   1      38.187  30.606  31.019  1.00  0.00     0.074 A 
ATOM     38  C   UNL A   1      38.886  29.371  29.009  1.00  0.00     0.049 A 
ATOM     39  N   UNL A   1      39.198  30.350  31.815  1.00  0.00    -0.248 NA
ATOM     40  C   UNL A   1      37.186  31.509  31.604  1.00  0.00     0.031 C 
ATOM     41  C   UNL A   1      38.835  28.876  27.632  1.00  0.00     0.029 A 
ATOM     42  N   UNL A   1      40.078  28.879  29.489  1.00  0.00    -0.354 N 
ATOM     43  C   UNL A   1      38.958  31.065  32.982  1.00  0.00     0.074 A 
ATOM     44  C   UNL A   1      37.738  31.813  32.770  1.00  0.00     0.031 C 
ATOM     45  C   UNL A   1      39.920  28.123  27.392  1.00  0.00     0.029 A 
ATOM     46  C   UNL A   1      40.751  28.084  28.592  1.00  0.00     0.049 A 
ATOM     47  H   UNL A   1      40.418  29.078  30.391  1.00  0.00     0.167 HD
ATOM     48  C   UNL A   1      39.660  31.077  34.142  1.00  0.00     0.037 A 
ATOM     49  C   UNL A   1      41.892  27.379  28.720  1.00  0.00     0.037 A 
ATOM     50  C   UNL A   1      40.850  30.307  34.394  1.00  0.00     0.049 A 
ATOM     51  C   UNL A   1      42.631  27.373  30.030  1.00  0.00     0.074 A 
ATOM     52  C   UNL A   1      41.584  30.211  35.565  1.00  0.00     0.029 A 
ATOM     53  N   UNL A   1      41.478  29.494  33.465  1.00  0.00    -0.354 N 
ATOM     54  N   UNL A   1      42.338  27.988  31.148  1.00  0.00    -0.248 NA
ATOM     55  C   UNL A   1      43.853  26.556  30.095  1.00  0.00     0.031 C 
ATOM     56  C   UNL A   1      42.671  29.360  35.337  1.00  0.00     0.029 A 
ATOM     57  C   UNL A   1      42.595  28.902  34.033  1.00  0.00     0.049 A 
ATOM     58  H   UNL A   1      41.176  29.358  32.538  1.00  0.00     0.167 HD
ATOM     59  C   UNL A   1      43.320  27.611  32.055  1.00  0.00     0.074 A 
ATOM     60  C   UNL A   1      44.210  26.703  31.364  1.00  0.00     0.031 C 
ATOM     61  C   UNL A   1      43.471  27.990  33.347  1.00  0.00     0.037 A 
BRANCH  48  62
ATOM     62  C   UNL A   1      39.139  31.939  35.253  1.00  0.00     0.057 A 
ATOM     63  C   UNL A   1      39.427  33.309  35.312  1.00  0.00     0.134 A 
ATOM     64  C   UNL A   1      38.308  31.409  36.248  1.00  0.00     0.134 A 
ATOM     65  F   UNL A   1      40.227  33.875  34.395  1.00  0.00    -0.206 F 
ATOM     66  C   UNL A   1      38.926  34.117  36.335  1.00  0.00     0.040 A 
ATOM     67  C   UNL A   1      37.782  32.212  37.261  1.00  0.00     0.040 A 
ATOM     68  F   UNL A   1      37.986  30.106  36.243  1.00  0.00    -0.206 F 
ATOM     69  C   UNL A   1      38.095  33.569  37.310  1.00  0.00     0.006 A 
ENDBRANCH  48  62
BRANCH  49  70
ATOM     70  C   UNL A   1      42.392  26.560  27.588  1.00  0.00     0.057 A 
ATOM     71  C   UNL A   1      43.218  27.120  26.607  1.00  0.00     0.134 A 
ATOM     72  C   UNL A   1      42.029  25.217  27.441  1.00  0.00     0.134 A 
ATOM     73  F   UNL A   1      43.579  28.410  26.684  1.00  0.00    -0.206 F 
ATOM     74  C   UNL A   1      43.650  26.381  25.505  1.00  0.00     0.040 A 
ATOM     75  C   UNL A   1      42.470  24.460  26.355  1.00  0.00     0.040 A 
ATOM     76  F   UNL A   1      41.240  24.626  28.349  1.00  0.00    -0.206 F 
ATOM     77  C   UNL A   1      43.275  25.044  25.379  1.00  0.00     0.006 A 
ENDBRANCH  49  70
BRANCH  61  78
ATOM     78  C   UNL A   1      44.621  27.398  34.107  1.00  0.00     0.057 A 
ATOM     79  C   UNL A   1      45.872  28.027  34.160  1.00  0.00     0.134 A 
ATOM     80  C   UNL A   1      44.472  26.192  34.803  1.00  0.00     0.134 A 
ATOM     81  F   UNL A   1      46.082  29.178  33.504  1.00  0.00    -0.206 F 
ATOM     82  C   UNL A   1      46.940  27.464  34.859  1.00  0.00     0.040 A 
ATOM     83  C   UNL A   1      45.528  25.631  35.523  1.00  0.00     0.040 A 
ATOM     84  F   UNL A   1      43.299  25.541  34.797  1.00  0.00    -0.206 F 
ATOM     85  C   UNL A   1      46.769  26.264  35.547  1.00  0.00     0.006 A 
ENDBRANCH  61  78
ENDBRANCH  35  36
ENDBRANCH  27  30
ENDBRANCH  25  26
ENDBRANCH  24  25
ENDBRANCH   1  24
TORSDOF 14
ENDMDL
MODEL 2
REMARK VINA RESULT:     -11.7      1.729      2.300
REMARK SMILES C[N@H+]1CCO[C@@H](C[N@H+]2CCCC[C@@H]2CCC(=O)NCCCNC(=O)c2ccc(-c3c4nc(c(-c5c(F)cccc5F)c5ccc([nH]5)c(-c5c(F)cccc5F)c5nc(c(-c6c(F)cccc6F)c6ccc3[nH]6)C=C5)C=C4)cc2)C1
REMARK SMILES IDX 19 1 18 2 16 3 17 4 15 6 14 7 13 8 8 9 9 10 10 12 12 13
REMARK SMILES IDX 11 14 7 15 6 16 1 17 2 18 3 19 79 20 4 22 5 23 20 24 21 25
REMARK SMILES IDX 22 26 23 27 24 29 25 30 26 31 78 32 27 33 77 34 28 35 29 36
REMARK SMILES IDX 30 37 71 38 31 39 76 40 70 41 72 42 32 43 75 44 69 45 68 46
REMARK SMILES IDX 33 48 59 49 42 50 58 51 43 52 46 53 57 54 73 55 44 56 45 57
REMARK SMILES IDX 56 59 74 60 47 61 34 62 35 63 40 64 36 65 37 66 39 67 41 68
REMARK SMILES IDX 38 69 60 70 61 71 66 72 62 73 63 74 65 75 67 76 64 77 48 78
REMARK SMILES IDX 49 79 54 80 50 81 51 82 53 83 55 84 52 85
REMARK H PARENT 18 5 8 11 2 21 22 28 72 47 46 58
REMARK Flexibility Score: inf
ROOT
ATOM      1  C   UNL A   1      31.605  27.147  25.673  1.00  0.00     0.117 C 
ENDROOT
BRANCH   1   2
ATOM      2  N   UNL A   1      31.448  26.033  26.592  1.00  0.00    -0.356 N 
ATOM      3  C   UNL A   1      31.603  24.695  26.379  1.00  0.00     0.220 C 
ATOM      4  O   UNL A   1      31.268  23.927  27.283  1.00  0.00    -0.275 OA
ATOM      5  H   UNL A   1      31.190  26.282  27.508  1.00  0.00     0.163 HD
BRANCH   3   6
ATOM      6  C   UNL A   1      32.210  24.169  25.088  1.00  0.00     0.106 C 
BRANCH   6   7
ATOM      7  C   UNL A   1      33.628  23.611  25.285  1.00  0.00     0.075 C 
BRANCH   7   8
ATOM      8  C   UNL A   1      33.971  22.440  24.319  1.00  0.00     0.184 C 
ATOM      9  N   UNL A   1      34.501  21.295  25.078  1.00  0.00    -0.330 N 
ATOM     10  C   UNL A   1      35.847  21.512  25.590  1.00  0.00     0.262 C 
ATOM     11  H   UNL A   1      33.959  21.255  25.941  1.00  0.00     0.348 HD
ATOM     12  C   UNL A   1      36.852  21.875  24.497  1.00  0.00     0.062 C 
ATOM     13  C   UNL A   1      34.936  22.858  23.195  1.00  0.00     0.065 C 
ATOM     14  C   UNL A   1      36.368  23.067  23.679  1.00  0.00     0.012 C 
BRANCH   9  15
ATOM     15  C   UNL A   1      34.154  19.965  24.554  1.00  0.00     0.300 C 
BRANCH  15  16
ATOM     16  C   UNL A   1      32.717  19.418  24.342  1.00  0.00     0.228 C 
ATOM     17  C   UNL A   1      34.292  16.761  23.252  1.00  0.00     0.332 C 
ATOM     18  N   UNL A   1      32.872  16.983  23.480  1.00  0.00    -0.333 N 
ATOM     19  C   UNL A   1      32.435  16.570  24.821  1.00  0.00     0.290 C 
ATOM     20  C   UNL A   1      32.436  18.369  23.237  1.00  0.00     0.300 C 
ATOM     21  H   UNL A   1      32.423  16.388  22.785  1.00  0.00     0.348 HD
ATOM     22  C   UNL A   1      32.752  17.600  25.912  1.00  0.00     0.222 C 
ATOM     23  O   UNL A   1      32.226  18.900  25.611  1.00  0.00    -0.361 OA
ENDBRANCH  15  16
ENDBRANCH   9  15
ENDBRANCH   7   8
ENDBRANCH   6   7
ENDBRANCH   3   6
ENDBRANCH   1   2
BRANCH   1  24
ATOM     24  C   UNL A   1      32.904  27.898  25.949  1.00  0.00     0.042 C 
BRANCH  24  25
ATOM     25  C   UNL A   1      33.070  28.417  27.372  1.00  0.00     0.118 C 
BRANCH  25  26
ATOM     26  N   UNL A   1      33.208  29.861  27.414  1.00  0.00    -0.352 N 
ATOM     27  C   UNL A   1      34.222  30.671  27.863  1.00  0.00     0.251 C 
ATOM     28  H   UNL A   1      32.433  30.349  27.054  1.00  0.00     0.163 HD
ATOM     29  O   UNL A   1      33.985  31.874  27.968  1.00  0.00    -0.269 OA
BRANCH  27  30
ATOM     30  C   UNL A   1      35.579  30.172  28.225  1.00  0.00     0.039 A 
ATOM     31  C   UNL A   1      35.760  29.674  29.522  1.00  0.00     0.014 A 
ATOM     32  C   UNL A   1      36.695  30.279  27.392  1.00  0.00     0.014 A 
ATOM     33  C   UNL A   1      37.025  29.271  29.970  1.00  0.00     0.010 A 
ATOM     34  C   UNL A   1      37.948  29.809  27.816  1.00  0.00     0.010 A 
ATOM     35  C   UNL A   1      38.138  29.310  29.115  1.00  0.00    -0.014 A 
BRANCH  35  36
ATOM     36  C   UNL A   1      39.477  28.851  29.599  1.00  0.00     0.031 A 
ATOM     37  C   UNL A   1      40.118  29.465  30.822  1.00  0.00     0.074 A 
ATOM     38  C   UNL A   1      40.136  27.868  28.950  1.00  0.00     0.049 A 
ATOM     39  N   UNL A   1      41.242  29.141  31.417  1.00  0.00    -0.248 NA
ATOM     40  C   UNL A   1      39.424  30.601  31.444  1.00  0.00     0.031 C 
ATOM     41  C   UNL A   1      39.690  27.210  27.720  1.00  0.00     0.029 A 
ATOM     42  N   UNL A   1      41.326  27.240  29.243  1.00  0.00    -0.354 N 
ATOM     43  C   UNL A   1      41.390  30.036  32.469  1.00  0.00     0.074 A 
ATOM     44  C   UNL A   1      40.274  30.955  32.397  1.00  0.00     0.031 C 
ATOM     45  C   UNL A   1      40.568  26.251  27.387  1.00  0.00     0.029 A 
ATOM     46  C   UNL A   1      41.645  26.225  28.372  1.00  0.00     0.049 A 
ATOM     47  H   UNL A   1      41.894  27.494  30.005  1.00  0.00     0.167 HD
ATOM     48  C   UNL A   1      42.342  30.077  33.434  1.00  0.00     0.037 A 
ATOM     49  C   UNL A   1      42.671  25.352  28.373  1.00  0.00     0.037 A 
ATOM     50  C   UNL A   1      43.435  29.148  33.555  1.00  0.00     0.049 A 
ATOM     51  C   UNL A   1      43.691  25.390  29.478  1.00  0.00     0.074 A 
ATOM     52  C   UNL A   1      44.404  29.080  34.543  1.00  0.00     0.029 A 
ATOM     53  N   UNL A   1      43.701  28.121  32.667  1.00  0.00    -0.354 N 
ATOM     54  N   UNL A   1      43.763  26.190  30.511  1.00  0.00    -0.248 NA
ATOM     55  C   UNL A   1      44.765  24.384  29.421  1.00  0.00     0.031 C 
ATOM     56  C   UNL A   1      45.273  28.027  34.238  1.00  0.00     0.029 A 
ATOM     57  C   UNL A   1      44.825  27.420  33.077  1.00  0.00     0.049 A 
ATOM     58  H   UNL A   1      43.172  27.918  31.862  1.00  0.00     0.167 HD
ATOM     59  C   UNL A   1      44.868  25.769  31.240  1.00  0.00     0.074 A 
ATOM     60  C   UNL A   1      45.429  24.633  30.540  1.00  0.00     0.031 C 
ATOM     61  C   UNL A   1      45.374  26.284  32.386  1.00  0.00     0.037 A 
BRANCH  48  62
ATOM     62  C   UNL A   1      42.228  31.159  34.468  1.00  0.00     0.057 A 
ATOM     63  C   UNL A   1      42.838  32.408  34.289  1.00  0.00     0.134 A 
ATOM     64  C   UNL A   1      41.468  30.970  35.628  1.00  0.00     0.134 A 
ATOM     65  F   UNL A   1      43.589  32.648  33.203  1.00  0.00    -0.206 F 
ATOM     66  C   UNL A   1      42.716  33.422  35.240  1.00  0.00     0.040 A 
ATOM     67  C   UNL A   1      41.320  31.985  36.575  1.00  0.00     0.040 A 
ATOM     68  F   UNL A   1      40.851  29.800  35.855  1.00  0.00    -0.206 F 
ATOM     69  C   UNL A   1      41.949  33.214  36.385  1.00  0.00     0.006 A 
ENDBRANCH  48  62
BRANCH  49  70
ATOM     70  C   UNL A   1      42.767  24.314  27.317  1.00  0.00     0.057 A 
ATOM     71  C   UNL A   1      43.361  24.598  26.083  1.00  0.00     0.134 A 
ATOM     72  C   UNL A   1      42.236  23.032  27.502  1.00  0.00     0.134 A 
ATOM     73  F   UNL A   1      43.865  25.817  25.841  1.00  0.00    -0.206 F 
ATOM     74  C   UNL A   1      43.407  23.652  25.058  1.00  0.00     0.040 A 
ATOM     75  C   UNL A   1      42.292  22.070  26.494  1.00  0.00     0.040 A 
ATOM     76  F   UNL A   1      41.654  22.702  28.664  1.00  0.00    -0.206 F 
ATOM     77  C   UNL A   1      42.872  22.381  25.264  1.00  0.00     0.006 A 
ENDBRANCH  49  70
BRANCH  61  78
ATOM     78  C   UNL A   1      46.574  25.603  32.974  1.00  0.00     0.057 A 
ATOM     79  C   UNL A   1      47.879  25.987  32.638  1.00  0.00     0.134 A 
ATOM     80  C   UNL A   1      46.424  24.561  33.898  1.00  0.00     0.134 A 
ATOM     81  F   UNL A   1      48.090  26.970  31.750  1.00  0.00    -0.206 F 
ATOM     82  C   UNL A   1      48.991  25.341  33.179  1.00  0.00     0.040 A 
ATOM     83  C   UNL A   1      47.529  23.922  34.462  1.00  0.00     0.040 A 
ATOM     84  F   UNL A   1      45.202  24.148  34.267  1.00  0.00    -0.206 F 
ATOM     85  C   UNL A   1      48.818  24.308  34.098  1.00  0.00     0.006 A 
ENDBRANCH  61  78
ENDBRANCH  35  36
ENDBRANCH  27  30
ENDBRANCH  25  26
ENDBRANCH  24  25
ENDBRANCH   1  24
TORSDOF 14
ENDMDL
MODEL 3
REMARK VINA RESULT:     -11.6      3.436      6.919
REMARK SMILES C[N@H+]1CCO[C@@H](C[N@H+]2CCCC[C@@H]2CCC(=O)NCCCNC(=O)c2ccc(-c3c4nc(c(-c5c(F)cccc5F)c5ccc([nH]5)c(-c5c(F)cccc5F)c5nc(c(-c6c(F)cccc6F)c6ccc3[nH]6)C=C5)C=C4)cc2)C1
REMARK SMILES IDX 19 1 18 2 16 3 17 4 15 6 14 7 13 8 8 9 9 10 10 12 12 13
REMARK SMILES IDX 11 14 7 15 6 16 1 17 2 18 3 19 79 20 4 22 5 23 20 24 21 25
REMARK SMILES IDX 22 26 23 27 24 29 25 30 26 31 78 32 27 33 77 34 28 35 29 36
REMARK SMILES IDX 30 37 71 38 31 39 76 40 70 41 72 42 32 43 75 44 69 45 68 46
REMARK SMILES IDX 33 48 59 49 42 50 58 51 43 52 46 53 57 54 73 55 44 56 45 57
REMARK SMILES IDX 56 59 74 60 47 61 34 62 35 63 40 64 36 65 37 66 39 67 41 68
REMARK SMILES IDX 38 69 60 70 61 71 66 72 62 73 63 74 65 75 67 76 64 77 48 78
REMARK SMILES IDX 49 79 54 80 50 81 51 82 53 83 55 84 52 85
REMARK H PARENT 18 5 8 11 2 21 22 28 72 47 46 58
REMARK Flexibility Score: inf
ROOT
ATOM      1  C   UNL A   1      32.487  27.762  25.119  1.00  0.00     0.117 C 
ENDROOT
BRANCH   1   2
ATOM      2  N   UNL A   1      31.965  26.790  26.064  1.00  0.00    -0.356 N 
ATOM      3  C   UNL A   1      31.947  25.427  25.997  1.00  0.00     0.220 C 
ATOM      4  O   UNL A   1      31.311  24.818  26.860  1.00  0.00    -0.275 OA
ATOM      5  H   UNL A   1      31.562  27.173  26.876  1.00  0.00     0.163 HD
BRANCH   3   6
ATOM      6  C   UNL A   1      32.722  24.682  24.922  1.00  0.00     0.106 C 
BRANCH   6   7
ATOM      7  C   UNL A   1      33.634  23.589  25.499  1.00  0.00     0.075 C 
BRANCH   7   8
ATOM      8  C   UNL A   1      33.970  22.463  24.480  1.00  0.00     0.184 C 
ATOM      9  N   UNL A   1      34.488  21.278  25.185  1.00  0.00    -0.330 N 
ATOM     10  C   UNL A   1      35.834  21.459  25.711  1.00  0.00     0.262 C 
ATOM     11  H   UNL A   1      33.942  21.202  26.043  1.00  0.00     0.348 HD
ATOM     12  C   UNL A   1      36.846  21.865  24.640  1.00  0.00     0.062 C 
ATOM     13  C   UNL A   1      34.943  22.925  23.380  1.00  0.00     0.065 C 
ATOM     14  C   UNL A   1      36.376  23.099  23.878  1.00  0.00     0.012 C 
BRANCH   9  15
ATOM     15  C   UNL A   1      34.131  19.978  24.596  1.00  0.00     0.300 C 
BRANCH  15  16
ATOM     16  C   UNL A   1      32.691  19.434  24.400  1.00  0.00     0.228 C 
ATOM     17  C   UNL A   1      34.244  16.856  23.105  1.00  0.00     0.332 C 
ATOM     18  N   UNL A   1      32.831  17.054  23.393  1.00  0.00    -0.333 N 
ATOM     19  C   UNL A   1      32.442  16.561  24.721  1.00  0.00     0.290 C 
ATOM     20  C   UNL A   1      32.379  18.449  23.245  1.00  0.00     0.300 C 
ATOM     21  H   UNL A   1      32.363  16.497  22.679  1.00  0.00     0.348 HD
ATOM     22  C   UNL A   1      32.788  17.528  25.859  1.00  0.00     0.222 C 
ATOM     23  O   UNL A   1      32.246  18.839  25.652  1.00  0.00    -0.361 OA
ENDBRANCH  15  16
ENDBRANCH   9  15
ENDBRANCH   7   8
ENDBRANCH   6   7
ENDBRANCH   3   6
ENDBRANCH   1   2
BRANCH   1  24
ATOM     24  C   UNL A   1      33.644  28.544  25.732  1.00  0.00     0.042 C 
BRANCH  24  25
ATOM     25  C   UNL A   1      33.689  28.564  27.255  1.00  0.00     0.118 C 
BRANCH  25  26
ATOM     26  N   UNL A   1      33.754  29.915  27.781  1.00  0.00    -0.352 N 
ATOM     27  C   UNL A   1      34.761  30.604  28.410  1.00  0.00     0.251 C 
ATOM     28  H   UNL A   1      32.924  30.431  27.666  1.00  0.00     0.163 HD
ATOM     29  O   UNL A   1      34.472  31.677  28.939  1.00  0.00    -0.269 OA
BRANCH  27  30
ATOM     30  C   UNL A   1      36.170  30.124  28.485  1.00  0.00     0.039 A 
ATOM     31  C   UNL A   1      36.636  29.679  29.728  1.00  0.00     0.014 A 
ATOM     32  C   UNL A   1      37.074  30.200  27.423  1.00  0.00     0.014 A 
ATOM     33  C   UNL A   1      37.974  29.297  29.901  1.00  0.00     0.010 A 
ATOM     34  C   UNL A   1      38.395  29.751  27.579  1.00  0.00     0.010 A 
ATOM     35  C   UNL A   1      38.871  29.305  28.822  1.00  0.00    -0.014 A 
BRANCH  35  36
ATOM     36  C   UNL A   1      40.289  28.869  29.017  1.00  0.00     0.031 A 
ATOM     37  C   UNL A   1      40.741  27.483  28.617  1.00  0.00     0.074 A 
ATOM     38  C   UNL A   1      41.196  29.713  29.550  1.00  0.00     0.049 A 
ATOM     39  N   UNL A   1      41.945  26.963  28.654  1.00  0.00    -0.248 NA
ATOM     40  C   UNL A   1      39.709  26.553  28.137  1.00  0.00     0.031 C 
ATOM     41  C   UNL A   1      40.916  31.063  30.045  1.00  0.00     0.029 A 
ATOM     42  N   UNL A   1      42.549  29.565  29.756  1.00  0.00    -0.354 N 
ATOM     43  C   UNL A   1      41.811  25.652  28.214  1.00  0.00     0.074 A 
ATOM     44  C   UNL A   1      40.400  25.435  27.973  1.00  0.00     0.031 C 
ATOM     45  C   UNL A   1      42.061  31.629  30.459  1.00  0.00     0.029 A 
ATOM     46  C   UNL A   1      43.158  30.686  30.268  1.00  0.00     0.049 A 
ATOM     47  H   UNL A   1      43.035  28.733  29.555  1.00  0.00     0.167 HD
ATOM     48  C   UNL A   1      42.768  24.718  27.992  1.00  0.00     0.037 A 
ATOM     49  C   UNL A   1      44.454  30.944  30.531  1.00  0.00     0.037 A 
ATOM     50  C   UNL A   1      44.180  24.923  28.180  1.00  0.00     0.049 A 
ATOM     51  C   UNL A   1      45.503  29.907  30.236  1.00  0.00     0.074 A 
ATOM     52  C   UNL A   1      45.222  24.049  27.914  1.00  0.00     0.029 A 
ATOM     53  N   UNL A   1      44.752  26.084  28.673  1.00  0.00    -0.354 N 
ATOM     54  N   UNL A   1      45.362  28.705  29.739  1.00  0.00    -0.248 NA
ATOM     55  C   UNL A   1      46.898  30.278  30.527  1.00  0.00     0.031 C 
ATOM     56  C   UNL A   1      46.424  24.672  28.271  1.00  0.00     0.029 A 
ATOM     57  C   UNL A   1      46.130  25.945  28.728  1.00  0.00     0.049 A 
ATOM     58  H   UNL A   1      44.253  26.888  28.945  1.00  0.00     0.167 HD
ATOM     59  C   UNL A   1      46.646  28.187  29.630  1.00  0.00     0.074 A 
ATOM     60  C   UNL A   1      47.556  29.210  30.098  1.00  0.00     0.031 C 
ATOM     61  C   UNL A   1      47.034  26.968  29.184  1.00  0.00     0.037 A 
BRANCH  48  62
ATOM     62  C   UNL A   1      42.319  23.378  27.488  1.00  0.00     0.057 A 
ATOM     63  C   UNL A   1      41.939  22.355  28.367  1.00  0.00     0.134 A 
ATOM     64  C   UNL A   1      42.222  23.120  26.115  1.00  0.00     0.134 A 
ATOM     65  F   UNL A   1      42.020  22.536  29.695  1.00  0.00    -0.206 F 
ATOM     66  C   UNL A   1      41.502  21.115  27.899  1.00  0.00     0.040 A 
ATOM     67  C   UNL A   1      41.764  21.893  25.635  1.00  0.00     0.040 A 
ATOM     68  F   UNL A   1      42.561  24.061  25.220  1.00  0.00    -0.206 F 
ATOM     69  C   UNL A   1      41.407  20.884  26.528  1.00  0.00     0.006 A 
ENDBRANCH  48  62
BRANCH  49  70
ATOM     70  C   UNL A   1      44.857  32.272  31.057  1.00  0.00     0.057 A 
ATOM     71  C   UNL A   1      44.915  32.509  32.435  1.00  0.00     0.134 A 
ATOM     72  C   UNL A   1      45.156  33.337  30.201  1.00  0.00     0.134 A 
ATOM     73  F   UNL A   1      44.615  31.532  33.302  1.00  0.00    -0.206 F 
ATOM     74  C   UNL A   1      45.235  33.768  32.946  1.00  0.00     0.040 A 
ATOM     75  C   UNL A   1      45.497  34.595  30.699  1.00  0.00     0.040 A 
ATOM     76  F   UNL A   1      45.118  33.169  28.872  1.00  0.00    -0.206 F 
ATOM     77  C   UNL A   1      45.529  34.815  32.075  1.00  0.00     0.006 A 
ENDBRANCH  49  70
BRANCH  61  78
ATOM     78  C   UNL A   1      48.507  26.685  29.150  1.00  0.00     0.057 A 
ATOM     79  C   UNL A   1      49.163  26.061  30.219  1.00  0.00     0.134 A 
ATOM     80  C   UNL A   1      49.274  27.029  28.030  1.00  0.00     0.134 A 
ATOM     81  F   UNL A   1      48.486  25.719  31.325  1.00  0.00    -0.206 F 
ATOM     82  C   UNL A   1      50.536  25.812  30.185  1.00  0.00     0.040 A 
ATOM     83  C   UNL A   1      50.644  26.765  27.976  1.00  0.00     0.040 A 
ATOM     84  F   UNL A   1      48.707  27.624  26.970  1.00  0.00    -0.206 F 
ATOM     85  C   UNL A   1      51.280  26.161  29.059  1.00  0.00     0.006 A 
ENDBRANCH  61  78
ENDBRANCH  35  36
ENDBRANCH  27  30
ENDBRANCH  25  26
ENDBRANCH  24  25
ENDBRANCH   1  24
TORSDOF 14
ENDMDL
