MODEL 1
REMARK VINA RESULT:     -11.7      0.000      0.000
REMARK SMILES O=C(NCCCNC(=O)c1ccc(NC(=O)[C@@H]2COCCO2)cc1O)c1ccc(-c2c3nc(c(-c4c(F)cccc4F)c4ccc([nH]4)c(-c4c(F)cccc4F)c4nc(c(-c5c(F)cccc5F)c5ccc2[nH]5)C=C4)C=C3)cc1
REMARK SMILES IDX 5 1 4 2 3 3 1 4 2 5 26 7 27 8 79 9 28 10 78 11 29 12 30 13
REMARK SMILES IDX 31 14 72 15 32 16 77 17 71 18 73 19 33 20 76 21 70 22 69 23
REMARK SMILES IDX 34 25 60 26 43 27 59 28 44 29 47 30 58 31 74 32 45 33 46 34
REMARK SMILES IDX 57 36 75 37 48 38 35 39 36 40 41 41 37 42 38 43 40 44 42 45
REMARK SMILES IDX 39 46 61 47 62 48 67 49 63 50 64 51 66 52 68 53 65 54 49 55
REMARK SMILES IDX 50 56 55 57 51 58 52 59 54 60 56 61 53 62 6 63 7 64 8 65
REMARK SMILES IDX 9 67 10 68 11 69 24 70 12 71 23 72 13 73 25 74 14 76 15 77
REMARK SMILES IDX 16 79 17 80 18 81 22 82 19 83 21 84 20 85
REMARK H PARENT 3 6 73 24 47 35 7 66 25 75 14 78
REMARK Flexibility Score: inf
ROOT
ATOM      1  C   UNL A   1      38.337  19.527  24.875  1.00  0.00     0.042 C 
ENDROOT
BRANCH   1   2
ATOM      2  C   UNL A   1      39.327  19.873  25.978  1.00  0.00     0.118 C 
BRANCH   2   3
ATOM      3  N   UNL A   1      40.572  19.124  25.862  1.00  0.00    -0.352 N 
ATOM      4  O   UNL A   1      42.788  18.804  25.620  1.00  0.00    -0.269 OA
ATOM      5  C   UNL A   1      41.873  19.541  25.978  1.00  0.00     0.251 C 
ATOM      6  H   UNL A   1      40.462  18.165  25.671  1.00  0.00     0.163 HD
BRANCH   5   7
ATOM      7  C   UNL A   1      42.176  20.881  26.521  1.00  0.00     0.039 A 
ATOM      8  C   UNL A   1      42.174  21.104  27.899  1.00  0.00     0.014 A 
ATOM      9  C   UNL A   1      42.497  21.920  25.643  1.00  0.00     0.014 A 
ATOM     10  C   UNL A   1      42.333  22.392  28.390  1.00  0.00     0.010 A 
ATOM     11  C   UNL A   1      42.765  23.195  26.146  1.00  0.00     0.010 A 
ATOM     12  C   UNL A   1      42.657  23.446  27.523  1.00  0.00    -0.014 A 
BRANCH  12  13
ATOM     13  C   UNL A   1      42.953  24.781  28.096  1.00  0.00     0.031 A 
ATOM     14  C   UNL A   1      44.358  25.195  28.424  1.00  0.00     0.074 A 
ATOM     15  C   UNL A   1      41.929  25.637  28.281  1.00  0.00     0.049 A 
ATOM     16  N   UNL A   1      44.786  26.331  28.914  1.00  0.00    -0.248 NA
ATOM     17  C   UNL A   1      45.422  24.209  28.177  1.00  0.00     0.031 C 
ATOM     18  C   UNL A   1      40.522  25.338  28.002  1.00  0.00     0.029 A 
ATOM     19  N   UNL A   1      41.911  26.934  28.721  1.00  0.00    -0.354 N 
ATOM     20  C   UNL A   1      46.161  26.193  29.051  1.00  0.00     0.074 A 
ATOM     21  C   UNL A   1      46.495  24.853  28.616  1.00  0.00     0.031 C 
ATOM     22  C   UNL A   1      39.786  26.436  28.220  1.00  0.00     0.029 A 
ATOM     23  C   UNL A   1      40.656  27.493  28.721  1.00  0.00     0.049 A 
ATOM     24  H   UNL A   1      42.718  27.419  29.009  1.00  0.00     0.167 HD
ATOM     25  C   UNL A   1      47.059  27.104  29.495  1.00  0.00     0.037 A 
ATOM     26  C   UNL A   1      40.245  28.716  29.100  1.00  0.00     0.037 A 
ATOM     27  C   UNL A   1      46.718  28.441  29.914  1.00  0.00     0.049 A 
ATOM     28  C   UNL A   1      41.259  29.693  29.614  1.00  0.00     0.074 A 
ATOM     29  C   UNL A   1      47.558  29.447  30.359  1.00  0.00     0.029 A 
ATOM     30  N   UNL A   1      45.430  28.956  29.940  1.00  0.00    -0.354 N 
ATOM     31  N   UNL A   1      42.557  29.553  29.726  1.00  0.00    -0.248 NA
ATOM     32  C   UNL A   1      40.751  30.995  30.064  1.00  0.00     0.031 C 
ATOM     33  C   UNL A   1      46.776  30.557  30.690  1.00  0.00     0.029 A 
ATOM     34  C   UNL A   1      45.452  30.259  30.412  1.00  0.00     0.049 A 
ATOM     35  H   UNL A   1      44.621  28.469  29.665  1.00  0.00     0.167 HD
ATOM     36  C   UNL A   1      43.024  30.750  30.248  1.00  0.00     0.074 A 
ATOM     37  C   UNL A   1      41.871  31.613  30.409  1.00  0.00     0.031 C 
ATOM     38  C   UNL A   1      44.293  31.101  30.568  1.00  0.00     0.037 A 
BRANCH  25  39
ATOM     39  C   UNL A   1      48.499  26.686  29.567  1.00  0.00     0.057 A 
ATOM     40  C   UNL A   1      49.397  26.944  28.523  1.00  0.00     0.134 A 
ATOM     41  C   UNL A   1      49.003  26.059  30.713  1.00  0.00     0.134 A 
ATOM     42  F   UNL A   1      48.976  27.529  27.392  1.00  0.00    -0.206 F 
ATOM     43  C   UNL A   1      50.742  26.580  28.613  1.00  0.00     0.040 A 
ATOM     44  C   UNL A   1      50.350  25.711  30.823  1.00  0.00     0.040 A 
ATOM     45  F   UNL A   1      48.198  25.788  31.751  1.00  0.00    -0.206 F 
ATOM     46  C   UNL A   1      51.224  25.967  29.768  1.00  0.00     0.006 A 
ENDBRANCH  25  39
BRANCH  26  47
ATOM     47  C   UNL A   1      38.809  29.072  29.009  1.00  0.00     0.057 A 
ATOM     48  C   UNL A   1      37.971  28.978  30.125  1.00  0.00     0.134 A 
ATOM     49  C   UNL A   1      38.247  29.534  27.813  1.00  0.00     0.134 A 
ATOM     50  F   UNL A   1      38.449  28.528  31.294  1.00  0.00    -0.206 F 
ATOM     51  C   UNL A   1      36.620  29.323  30.052  1.00  0.00     0.040 A 
ATOM     52  C   UNL A   1      36.905  29.907  27.733  1.00  0.00     0.040 A 
ATOM     53  F   UNL A   1      39.002  29.655  26.712  1.00  0.00    -0.206 F 
ATOM     54  C   UNL A   1      36.086  29.796  28.855  1.00  0.00     0.006 A 
ENDBRANCH  26  47
BRANCH  38  55
ATOM     55  C   UNL A   1      44.495  32.487  31.101  1.00  0.00     0.057 A 
ATOM     56  C   UNL A   1      44.476  32.757  32.475  1.00  0.00     0.134 A 
ATOM     57  C   UNL A   1      44.733  33.558  30.232  1.00  0.00     0.134 A 
ATOM     58  F   UNL A   1      44.236  31.774  33.358  1.00  0.00    -0.206 F 
ATOM     59  C   UNL A   1      44.661  34.050  32.965  1.00  0.00     0.040 A 
ATOM     60  C   UNL A   1      44.945  34.851  30.711  1.00  0.00     0.040 A 
ATOM     61  F   UNL A   1      44.770  33.364  28.905  1.00  0.00    -0.206 F 
ATOM     62  C   UNL A   1      44.902  35.100  32.081  1.00  0.00     0.006 A 
ENDBRANCH  38  55
ENDBRANCH  12  13
ENDBRANCH   5   7
ENDBRANCH   2   3
ENDBRANCH   1   2
BRANCH   1  63
ATOM     63  C   UNL A   1      37.057  20.347  24.937  1.00  0.00     0.118 C 
BRANCH  63  64
ATOM     64  N   UNL A   1      37.133  21.514  24.079  1.00  0.00    -0.352 N 
ATOM     65  C   UNL A   1      36.172  22.465  23.867  1.00  0.00     0.255 C 
ATOM     66  H   UNL A   1      37.978  21.639  23.591  1.00  0.00     0.163 HD
ATOM     67  O   UNL A   1      36.308  23.318  22.997  1.00  0.00    -0.269 OA
BRANCH  65  68
ATOM     68  C   UNL A   1      34.927  22.400  24.645  1.00  0.00     0.081 A 
ATOM     69  C   UNL A   1      33.798  21.906  24.001  1.00  0.00     0.020 A 
ATOM     70  C   UNL A   1      34.857  22.796  25.982  1.00  0.00     0.130 A 
ATOM     71  C   UNL A   1      32.590  21.845  24.692  1.00  0.00     0.027 A 
ATOM     72  C   UNL A   1      33.632  22.763  26.652  1.00  0.00     0.073 A 
ATOM     73  C   UNL A   1      32.471  22.346  25.985  1.00  0.00     0.044 A 
BRANCH  70  74
ATOM     74  O   UNL A   1      35.985  23.205  26.634  1.00  0.00    -0.507 OA
ATOM     75  H   UNL A   1      36.291  24.085  26.535  1.00  0.00     0.293 HD
ENDBRANCH  70  74
BRANCH  73  76
ATOM     76  N   UNL A   1      31.259  22.458  26.688  1.00  0.00    -0.324 N 
ATOM     77  C   UNL A   1      30.344  23.460  26.846  1.00  0.00     0.255 C 
ATOM     78  H   UNL A   1      31.017  21.636  27.171  1.00  0.00     0.170 HD
ATOM     79  O   UNL A   1      29.329  23.171  27.497  1.00  0.00    -0.272 OA
BRANCH  77  80
ATOM     80  C   UNL A   1      30.491  24.886  26.282  1.00  0.00     0.233 C 
ATOM     81  C   UNL A   1      30.521  24.785  24.749  1.00  0.00     0.202 C 
ATOM     82  O   UNL A   1      31.572  25.645  26.824  1.00  0.00    -0.364 OA
ATOM     83  O   UNL A   1      30.723  26.060  24.125  1.00  0.00    -0.376 OA
ATOM     84  C   UNL A   1      31.748  26.897  26.152  1.00  0.00     0.189 C 
ATOM     85  C   UNL A   1      31.894  26.697  24.646  1.00  0.00     0.188 C 
ENDBRANCH  77  80
ENDBRANCH  73  76
ENDBRANCH  65  68
ENDBRANCH  63  64
ENDBRANCH   1  63
TORSDOF 13
ENDMDL
MODEL 2
REMARK VINA RESULT:     -11.6      4.266      9.213
REMARK SMILES O=C(NCCCNC(=O)c1ccc(NC(=O)[C@@H]2COCCO2)cc1O)c1ccc(-c2c3nc(c(-c4c(F)cccc4F)c4ccc([nH]4)c(-c4c(F)cccc4F)c4nc(c(-c5c(F)cccc5F)c5ccc2[nH]5)C=C4)C=C3)cc1
REMARK SMILES IDX 5 1 4 2 3 3 1 4 2 5 26 7 27 8 79 9 28 10 78 11 29 12 30 13
REMARK SMILES IDX 31 14 72 15 32 16 77 17 71 18 73 19 33 20 76 21 70 22 69 23
REMARK SMILES IDX 34 25 60 26 43 27 59 28 44 29 47 30 58 31 74 32 45 33 46 34
REMARK SMILES IDX 57 36 75 37 48 38 35 39 36 40 41 41 37 42 38 43 40 44 42 45
REMARK SMILES IDX 39 46 61 47 62 48 67 49 63 50 64 51 66 52 68 53 65 54 49 55
REMARK SMILES IDX 50 56 55 57 51 58 52 59 54 60 56 61 53 62 6 63 7 64 8 65
REMARK SMILES IDX 9 67 10 68 11 69 24 70 12 71 23 72 13 73 25 74 14 76 15 77
REMARK SMILES IDX 16 79 17 80 18 81 22 82 19 83 21 84 20 85
REMARK H PARENT 3 6 73 24 47 35 7 66 25 75 14 78
REMARK Flexibility Score: inf
ROOT
ATOM      1  C   UNL A   1      31.341  31.958  26.511  1.00  0.00     0.042 C 
ENDROOT
BRANCH   1   2
ATOM      2  C   UNL A   1      32.683  32.547  26.923  1.00  0.00     0.118 C 
BRANCH   2   3
ATOM      3  N   UNL A   1      32.548  33.870  27.520  1.00  0.00    -0.352 N 
ATOM      4  O   UNL A   1      32.786  35.480  29.077  1.00  0.00    -0.269 OA
ATOM      5  C   UNL A   1      33.203  34.435  28.584  1.00  0.00     0.251 C 
ATOM      6  H   UNL A   1      31.880  34.452  27.091  1.00  0.00     0.163 HD
BRANCH   5   7
ATOM      7  C   UNL A   1      34.402  33.782  29.147  1.00  0.00     0.039 A 
ATOM      8  C   UNL A   1      34.278  32.682  29.996  1.00  0.00     0.014 A 
ATOM      9  C   UNL A   1      35.669  34.257  28.795  1.00  0.00     0.014 A 
ATOM     10  C   UNL A   1      35.403  32.160  30.619  1.00  0.00     0.010 A 
ATOM     11  C   UNL A   1      36.809  33.660  29.338  1.00  0.00     0.010 A 
ATOM     12  C   UNL A   1      36.682  32.624  30.276  1.00  0.00    -0.014 A 
BRANCH  12  13
ATOM     13  C   UNL A   1      37.868  31.952  30.860  1.00  0.00     0.031 A 
ATOM     14  C   UNL A   1      38.338  32.266  32.250  1.00  0.00     0.074 A 
ATOM     15  C   UNL A   1      38.498  31.016  30.122  1.00  0.00     0.049 A 
ATOM     16  N   UNL A   1      39.345  31.755  32.911  1.00  0.00    -0.248 NA
ATOM     17  C   UNL A   1      37.586  33.288  32.996  1.00  0.00     0.031 C 
ATOM     18  C   UNL A   1      38.130  30.633  28.756  1.00  0.00     0.029 A 
ATOM     19  N   UNL A   1      39.557  30.200  30.421  1.00  0.00    -0.354 N 
ATOM     20  C   UNL A   1      39.362  32.403  34.140  1.00  0.00     0.074 A 
ATOM     21  C   UNL A   1      38.278  33.363  34.125  1.00  0.00     0.031 C 
ATOM     22  C   UNL A   1      38.910  29.620  28.357  1.00  0.00     0.029 A 
ATOM     23  C   UNL A   1      39.876  29.328  29.408  1.00  0.00     0.049 A 
ATOM     24  H   UNL A   1      40.041  30.235  31.277  1.00  0.00     0.167 HD
ATOM     25  C   UNL A   1      40.202  32.207  35.184  1.00  0.00     0.037 A 
ATOM     26  C   UNL A   1      40.852  28.407  29.326  1.00  0.00     0.037 A 
ATOM     27  C   UNL A   1      41.271  31.239  35.194  1.00  0.00     0.049 A 
ATOM     28  C   UNL A   1      41.785  28.234  30.486  1.00  0.00     0.074 A 
ATOM     29  C   UNL A   1      42.163  30.950  36.211  1.00  0.00     0.029 A 
ATOM     30  N   UNL A   1      41.590  30.404  34.133  1.00  0.00    -0.354 N 
ATOM     31  N   UNL A   1      41.780  28.844  31.646  1.00  0.00    -0.248 NA
ATOM     32  C   UNL A   1      42.865  27.253  30.324  1.00  0.00     0.031 C 
ATOM     33  C   UNL A   1      43.047  29.967  35.754  1.00  0.00     0.029 A 
ATOM     34  C   UNL A   1      42.679  29.613  34.466  1.00  0.00     0.049 A 
ATOM     35  H   UNL A   1      41.115  30.377  33.272  1.00  0.00     0.167 HD
ATOM     36  C   UNL A   1      42.846  28.314  32.357  1.00  0.00     0.074 A 
ATOM     37  C   UNL A   1      43.462  27.316  31.505  1.00  0.00     0.031 C 
ATOM     38  C   UNL A   1      43.279  28.628  33.603  1.00  0.00     0.037 A 
BRANCH  25  39
ATOM     39  C   UNL A   1      40.014  33.066  36.400  1.00  0.00     0.057 A 
ATOM     40  C   UNL A   1      39.087  32.741  37.399  1.00  0.00     0.134 A 
ATOM     41  C   UNL A   1      40.802  34.207  36.597  1.00  0.00     0.134 A 
ATOM     42  F   UNL A   1      38.292  31.669  37.266  1.00  0.00    -0.206 F 
ATOM     43  C   UNL A   1      38.942  33.529  38.543  1.00  0.00     0.040 A 
ATOM     44  C   UNL A   1      40.681  34.990  37.746  1.00  0.00     0.040 A 
ATOM     45  F   UNL A   1      41.713  34.572  35.681  1.00  0.00    -0.206 F 
ATOM     46  C   UNL A   1      39.745  34.653  38.722  1.00  0.00     0.006 A 
ENDBRANCH  25  39
BRANCH  26  47
ATOM     47  C   UNL A   1      40.991  27.589  28.097  1.00  0.00     0.057 A 
ATOM     48  C   UNL A   1      40.332  26.362  27.968  1.00  0.00     0.134 A 
ATOM     49  C   UNL A   1      41.766  28.024  27.016  1.00  0.00     0.134 A 
ATOM     50  F   UNL A   1      39.587  25.886  28.976  1.00  0.00    -0.206 F 
ATOM     51  C   UNL A   1      40.448  25.591  26.810  1.00  0.00     0.040 A 
ATOM     52  C   UNL A   1      41.870  27.277  25.842  1.00  0.00     0.040 A 
ATOM     53  F   UNL A   1      42.414  29.197  27.076  1.00  0.00    -0.206 F 
ATOM     54  C   UNL A   1      41.212  26.052  25.740  1.00  0.00     0.006 A 
ENDBRANCH  26  47
BRANCH  38  55
ATOM     55  C   UNL A   1      44.460  27.863  34.119  1.00  0.00     0.057 A 
ATOM     56  C   UNL A   1      45.768  28.339  33.968  1.00  0.00     0.134 A 
ATOM     57  C   UNL A   1      44.284  26.649  34.794  1.00  0.00     0.134 A 
ATOM     58  F   UNL A   1      46.002  29.488  33.316  1.00  0.00    -0.206 F 
ATOM     59  C   UNL A   1      46.864  27.620  34.449  1.00  0.00     0.040 A 
ATOM     60  C   UNL A   1      45.369  25.934  35.301  1.00  0.00     0.040 A 
ATOM     61  F   UNL A   1      43.055  26.143  34.977  1.00  0.00    -0.206 F 
ATOM     62  C   UNL A   1      46.664  26.417  35.122  1.00  0.00     0.006 A 
ENDBRANCH  38  55
ENDBRANCH  12  13
ENDBRANCH   5   7
ENDBRANCH   2   3
ENDBRANCH   1   2
BRANCH   1  63
ATOM     63  C   UNL A   1      31.411  30.473  26.190  1.00  0.00     0.118 C 
BRANCH  63  64
ATOM     64  N   UNL A   1      32.026  30.238  24.897  1.00  0.00    -0.352 N 
ATOM     65  C   UNL A   1      32.202  29.043  24.255  1.00  0.00     0.255 C 
ATOM     66  H   UNL A   1      32.357  31.035  24.423  1.00  0.00     0.163 HD
ATOM     67  O   UNL A   1      32.876  28.967  23.233  1.00  0.00    -0.269 OA
BRANCH  65  68
ATOM     68  C   UNL A   1      31.637  27.826  24.854  1.00  0.00     0.081 A 
ATOM     69  C   UNL A   1      30.460  27.331  24.302  1.00  0.00     0.020 A 
ATOM     70  C   UNL A   1      32.245  27.164  25.922  1.00  0.00     0.130 A 
ATOM     71  C   UNL A   1      29.877  26.190  24.850  1.00  0.00     0.027 A 
ATOM     72  C   UNL A   1      31.631  26.043  26.484  1.00  0.00     0.073 A 
ATOM     73  C   UNL A   1      30.401  25.587  25.989  1.00  0.00     0.044 A 
BRANCH  70  74
ATOM     74  O   UNL A   1      33.442  27.607  26.409  1.00  0.00    -0.507 OA
ATOM     75  H   UNL A   1      33.555  28.512  26.623  1.00  0.00     0.293 HD
ENDBRANCH  70  74
BRANCH  73  76
ATOM     76  N   UNL A   1      29.788  24.531  26.685  1.00  0.00    -0.324 N 
ATOM     77  C   UNL A   1      30.038  23.192  26.789  1.00  0.00     0.255 C 
ATOM     78  H   UNL A   1      29.009  24.819  27.213  1.00  0.00     0.170 HD
ATOM     79  O   UNL A   1      29.312  22.562  27.573  1.00  0.00    -0.272 OA
BRANCH  77  80
ATOM     80  C   UNL A   1      31.136  22.438  26.015  1.00  0.00     0.233 C 
ATOM     81  C   UNL A   1      32.446  22.571  26.807  1.00  0.00     0.202 C 
ATOM     82  O   UNL A   1      31.263  22.794  24.639  1.00  0.00    -0.364 OA
ATOM     83  O   UNL A   1      33.552  21.955  26.133  1.00  0.00    -0.376 OA
ATOM     84  C   UNL A   1      32.394  22.174  24.018  1.00  0.00     0.189 C 
ATOM     85  C   UNL A   1      33.674  22.460  24.799  1.00  0.00     0.188 C 
ENDBRANCH  77  80
ENDBRANCH  73  76
ENDBRANCH  65  68
ENDBRANCH  63  64
ENDBRANCH   1  63
TORSDOF 13
ENDMDL
MODEL 3
REMARK VINA RESULT:     -11.6      1.127      1.732
REMARK SMILES O=C(NCCCNC(=O)c1ccc(NC(=O)[C@@H]2COCCO2)cc1O)c1ccc(-c2c3nc(c(-c4c(F)cccc4F)c4ccc([nH]4)c(-c4c(F)cccc4F)c4nc(c(-c5c(F)cccc5F)c5ccc2[nH]5)C=C4)C=C3)cc1
REMARK SMILES IDX 5 1 4 2 3 3 1 4 2 5 26 7 27 8 79 9 28 10 78 11 29 12 30 13
REMARK SMILES IDX 31 14 72 15 32 16 77 17 71 18 73 19 33 20 76 21 70 22 69 23
REMARK SMILES IDX 34 25 60 26 43 27 59 28 44 29 47 30 58 31 74 32 45 33 46 34
REMARK SMILES IDX 57 36 75 37 48 38 35 39 36 40 41 41 37 42 38 43 40 44 42 45
REMARK SMILES IDX 39 46 61 47 62 48 67 49 63 50 64 51 66 52 68 53 65 54 49 55
REMARK SMILES IDX 50 56 55 57 51 58 52 59 54 60 56 61 53 62 6 63 7 64 8 65
REMARK SMILES IDX 9 67 10 68 11 69 24 70 12 71 23 72 13 73 25 74 14 76 15 77
REMARK SMILES IDX 16 79 17 80 18 81 22 82 19 83 21 84 20 85
REMARK H PARENT 3 6 73 24 47 35 7 66 25 75 14 78
REMARK Flexibility Score: inf
ROOT
ATOM      1  C   UNL A   1      37.807  19.398  25.006  1.00  0.00     0.042 C 
ENDROOT
BRANCH   1   2
ATOM      2  C   UNL A   1      38.956  20.056  25.757  1.00  0.00     0.118 C 
BRANCH   2   3
ATOM      3  N   UNL A   1      40.147  19.216  25.797  1.00  0.00    -0.352 N 
ATOM      4  O   UNL A   1      42.346  18.730  25.812  1.00  0.00    -0.269 OA
ATOM      5  C   UNL A   1      41.455  19.541  26.049  1.00  0.00     0.251 C 
ATOM      6  H   UNL A   1      39.987  18.262  25.615  1.00  0.00     0.163 HD
BRANCH   5   7
ATOM      7  C   UNL A   1      41.795  20.871  26.594  1.00  0.00     0.039 A 
ATOM      8  C   UNL A   1      41.787  21.096  27.972  1.00  0.00     0.014 A 
ATOM      9  C   UNL A   1      42.160  21.897  25.719  1.00  0.00     0.014 A 
ATOM     10  C   UNL A   1      41.983  22.378  28.463  1.00  0.00     0.010 A 
ATOM     11  C   UNL A   1      42.464  23.164  26.223  1.00  0.00     0.010 A 
ATOM     12  C   UNL A   1      42.351  23.420  27.599  1.00  0.00    -0.014 A 
BRANCH  12  13
ATOM     13  C   UNL A   1      42.684  24.745  28.174  1.00  0.00     0.031 A 
ATOM     14  C   UNL A   1      44.098  25.116  28.511  1.00  0.00     0.074 A 
ATOM     15  C   UNL A   1      41.685  25.632  28.353  1.00  0.00     0.049 A 
ATOM     16  N   UNL A   1      44.559  26.238  29.003  1.00  0.00    -0.248 NA
ATOM     17  C   UNL A   1      45.133  24.097  28.270  1.00  0.00     0.031 C 
ATOM     18  C   UNL A   1      40.271  25.377  28.064  1.00  0.00     0.029 A 
ATOM     19  N   UNL A   1      41.705  26.930  28.793  1.00  0.00    -0.354 N 
ATOM     20  C   UNL A   1      45.928  26.057  29.150  1.00  0.00     0.074 A 
ATOM     21  C   UNL A   1      46.223  24.707  28.716  1.00  0.00     0.031 C 
ATOM     22  C   UNL A   1      39.569  26.498  28.278  1.00  0.00     0.029 A 
ATOM     23  C   UNL A   1      40.468  27.527  28.784  1.00  0.00     0.049 A 
ATOM     24  H   UNL A   1      42.525  27.389  29.086  1.00  0.00     0.167 HD
ATOM     25  C   UNL A   1      46.851  26.941  29.599  1.00  0.00     0.037 A 
ATOM     26  C   UNL A   1      40.093  28.762  29.161  1.00  0.00     0.037 A 
ATOM     27  C   UNL A   1      46.548  28.287  30.016  1.00  0.00     0.049 A 
ATOM     28  C   UNL A   1      41.133  29.707  29.682  1.00  0.00     0.074 A 
ATOM     29  C   UNL A   1      47.417  29.267  30.466  1.00  0.00     0.029 A 
ATOM     30  N   UNL A   1      45.277  28.842  30.034  1.00  0.00    -0.354 N 
ATOM     31  N   UNL A   1      42.426  29.527  29.802  1.00  0.00    -0.248 NA
ATOM     32  C   UNL A   1      40.662  31.024  30.129  1.00  0.00     0.031 C 
ATOM     33  C   UNL A   1      46.667  30.401  30.793  1.00  0.00     0.029 A 
ATOM     34  C   UNL A   1      45.336  30.144  30.506  1.00  0.00     0.049 A 
ATOM     35  H   UNL A   1      44.455  28.380  29.753  1.00  0.00     0.167 HD
ATOM     36  C   UNL A   1      42.926  30.709  30.326  1.00  0.00     0.074 A 
ATOM     37  C   UNL A   1      41.799  31.607  30.481  1.00  0.00     0.031 C 
ATOM     38  C   UNL A   1      44.203  31.021  30.655  1.00  0.00     0.037 A 
BRANCH  25  39
ATOM     39  C   UNL A   1      48.276  26.478  29.680  1.00  0.00     0.057 A 
ATOM     40  C   UNL A   1      49.188  26.705  28.641  1.00  0.00     0.134 A 
ATOM     41  C   UNL A   1      48.755  25.839  30.831  1.00  0.00     0.134 A 
ATOM     42  F   UNL A   1      48.791  27.299  27.506  1.00  0.00    -0.206 F 
ATOM     43  C   UNL A   1      50.521  26.299  28.739  1.00  0.00     0.040 A 
ATOM     44  C   UNL A   1      50.090  25.449  30.949  1.00  0.00     0.040 A 
ATOM     45  F   UNL A   1      47.936  25.596  31.865  1.00  0.00    -0.206 F 
ATOM     46  C   UNL A   1      50.976  25.675  29.898  1.00  0.00     0.006 A 
ENDBRANCH  25  39
BRANCH  26  47
ATOM     47  C   UNL A   1      38.669  29.162  29.061  1.00  0.00     0.057 A 
ATOM     48  C   UNL A   1      37.825  29.110  30.175  1.00  0.00     0.134 A 
ATOM     49  C   UNL A   1      38.125  29.628  27.858  1.00  0.00     0.134 A 
ATOM     50  F   UNL A   1      38.285  28.660  31.351  1.00  0.00    -0.206 F 
ATOM     51  C   UNL A   1      36.486  29.496  30.094  1.00  0.00     0.040 A 
ATOM     52  C   UNL A   1      36.795  30.041  27.768  1.00  0.00     0.040 A 
ATOM     53  F   UNL A   1      38.887  29.710  26.758  1.00  0.00    -0.206 F 
ATOM     54  C   UNL A   1      35.970  29.971  28.889  1.00  0.00     0.006 A 
ENDBRANCH  26  47
BRANCH  38  55
ATOM     55  C   UNL A   1      44.444  32.400  31.190  1.00  0.00     0.057 A 
ATOM     56  C   UNL A   1      44.399  32.676  32.561  1.00  0.00     0.134 A 
ATOM     57  C   UNL A   1      44.746  33.458  30.324  1.00  0.00     0.134 A 
ATOM     58  F   UNL A   1      44.098  31.706  33.440  1.00  0.00    -0.206 F 
ATOM     59  C   UNL A   1      44.622  33.963  33.053  1.00  0.00     0.040 A 
ATOM     60  C   UNL A   1      44.995  34.744  30.805  1.00  0.00     0.040 A 
ATOM     61  F   UNL A   1      44.811  33.258  28.999  1.00  0.00    -0.206 F 
ATOM     62  C   UNL A   1      44.926  34.999  32.173  1.00  0.00     0.006 A 
ENDBRANCH  38  55
ENDBRANCH  12  13
ENDBRANCH   5   7
ENDBRANCH   2   3
ENDBRANCH   1   2
BRANCH   1  63
ATOM     63  C   UNL A   1      36.676  20.360  24.678  1.00  0.00     0.118 C 
BRANCH  63  64
ATOM     64  N   UNL A   1      35.384  19.798  25.025  1.00  0.00    -0.352 N 
ATOM     65  C   UNL A   1      34.206  20.463  25.231  1.00  0.00     0.255 C 
ATOM     66  H   UNL A   1      35.350  18.819  25.123  1.00  0.00     0.163 HD
ATOM     67  O   UNL A   1      33.221  19.881  25.671  1.00  0.00    -0.269 OA
BRANCH  65  68
ATOM     68  C   UNL A   1      34.160  21.913  24.996  1.00  0.00     0.081 A 
ATOM     69  C   UNL A   1      33.614  22.346  23.793  1.00  0.00     0.020 A 
ATOM     70  C   UNL A   1      34.622  22.839  25.933  1.00  0.00     0.130 A 
ATOM     71  C   UNL A   1      33.568  23.711  23.517  1.00  0.00     0.027 A 
ATOM     72  C   UNL A   1      34.603  24.202  25.629  1.00  0.00     0.073 A 
ATOM     73  C   UNL A   1      34.132  24.643  24.383  1.00  0.00     0.044 A 
BRANCH  70  74
ATOM     74  O   UNL A   1      35.084  22.413  27.146  1.00  0.00    -0.507 OA
ATOM     75  H   UNL A   1      34.509  22.390  27.885  1.00  0.00     0.293 HD
ENDBRANCH  70  74
BRANCH  73  76
ATOM     76  N   UNL A   1      34.259  26.014  24.105  1.00  0.00    -0.324 N 
ATOM     77  C   UNL A   1      33.425  27.089  24.235  1.00  0.00     0.255 C 
ATOM     78  H   UNL A   1      35.140  26.253  23.737  1.00  0.00     0.170 HD
ATOM     79  O   UNL A   1      33.912  28.193  23.949  1.00  0.00    -0.272 OA
BRANCH  77  80
ATOM     80  C   UNL A   1      31.959  27.016  24.702  1.00  0.00     0.233 C 
ATOM     81  C   UNL A   1      31.959  26.690  26.204  1.00  0.00     0.202 C 
ATOM     82  O   UNL A   1      31.118  26.156  23.932  1.00  0.00    -0.364 OA
ATOM     83  O   UNL A   1      30.632  26.534  26.725  1.00  0.00    -0.376 OA
ATOM     84  C   UNL A   1      29.814  26.014  24.506  1.00  0.00     0.189 C 
ATOM     85  C   UNL A   1      29.901  25.567  25.963  1.00  0.00     0.188 C 
ENDBRANCH  77  80
ENDBRANCH  73  76
ENDBRANCH  65  68
ENDBRANCH  63  64
ENDBRANCH   1  63
TORSDOF 13
ENDMDL
