MODEL 1
REMARK VINA RESULT:     -12.7      0.000      0.000
REMARK SMILES O=C(NCCCNC(=O)c1cc(Br)ccc1N1CC2(CCCCC2)C1)c1ccc(-c2c3nc(c(-c4c(F)cccc4F)c4ccc([nH]4)c(-c4c(F)cccc4F)c4nc(c(-c5c(F)cccc5F)c5ccc2[nH]5)C=C4)C=C3)cc1
REMARK SMILES IDX 4 1 3 2 1 3 2 4 26 6 27 7 79 8 28 9 78 10 29 11 30 12 31 13
REMARK SMILES IDX 72 14 32 15 77 16 71 17 73 18 33 19 76 20 70 21 69 22 34 24
REMARK SMILES IDX 60 25 43 26 59 27 44 28 47 29 58 30 74 31 45 32 46 33 57 35
REMARK SMILES IDX 75 36 48 37 35 38 36 39 41 40 37 41 38 42 40 43 42 44 39 45
REMARK SMILES IDX 61 46 62 47 67 48 63 49 64 50 66 51 68 52 65 53 49 54 50 55
REMARK SMILES IDX 55 56 51 57 52 58 54 59 56 60 53 61 5 62 6 63 7 64 8 65 9 67
REMARK SMILES IDX 10 68 11 69 16 70 12 71 15 72 13 73 14 74 17 75 18 76 25 77
REMARK SMILES IDX 19 78 20 79 24 80 21 81 23 82 22 83
REMARK H PARENT 3 5 73 23 47 34 7 66
REMARK Flexibility Score: inf
ROOT
ATOM      1  C   UNL A   1      37.986  24.123  26.262  1.00  0.00     0.118 C 
ENDROOT
BRANCH   1   2
ATOM      2  N   UNL A   1      39.399  23.828  26.076  1.00  0.00    -0.352 N 
ATOM      3  O   UNL A   1      41.623  24.088  26.090  1.00  0.00    -0.269 OA
ATOM      4  C   UNL A   1      40.535  24.444  26.535  1.00  0.00     0.251 C 
ATOM      5  H   UNL A   1      39.573  23.038  25.514  1.00  0.00     0.163 HD
BRANCH   4   6
ATOM      6  C   UNL A   1      40.488  25.536  27.536  1.00  0.00     0.039 A 
ATOM      7  C   UNL A   1      41.265  26.690  27.417  1.00  0.00     0.014 A 
ATOM      8  C   UNL A   1      39.560  25.435  28.583  1.00  0.00     0.014 A 
ATOM      9  C   UNL A   1      41.207  27.677  28.403  1.00  0.00     0.010 A 
ATOM     10  C   UNL A   1      39.456  26.453  29.536  1.00  0.00     0.010 A 
ATOM     11  C   UNL A   1      40.304  27.568  29.472  1.00  0.00    -0.014 A 
BRANCH  11  12
ATOM     12  C   UNL A   1      40.243  28.637  30.498  1.00  0.00     0.031 A 
ATOM     13  C   UNL A   1      39.212  29.726  30.415  1.00  0.00     0.074 A 
ATOM     14  C   UNL A   1      41.106  28.612  31.533  1.00  0.00     0.049 A 
ATOM     15  N   UNL A   1      38.988  30.716  31.244  1.00  0.00    -0.248 NA
ATOM     16  C   UNL A   1      38.318  29.710  29.246  1.00  0.00     0.031 C 
ATOM     17  C   UNL A   1      42.170  27.625  31.722  1.00  0.00     0.029 A 
ATOM     18  N   UNL A   1      41.207  29.429  32.630  1.00  0.00    -0.354 N 
ATOM     19  C   UNL A   1      37.952  31.451  30.688  1.00  0.00     0.074 A 
ATOM     20  C   UNL A   1      37.590  30.800  29.446  1.00  0.00     0.031 C 
ATOM     21  C   UNL A   1      42.785  27.863  32.891  1.00  0.00     0.029 A 
ATOM     22  C   UNL A   1      42.177  29.034  33.518  1.00  0.00     0.049 A 
ATOM     23  H   UNL A   1      40.640  30.221  32.768  1.00  0.00     0.167 HD
ATOM     24  C   UNL A   1      37.348  32.565  31.169  1.00  0.00     0.037 A 
ATOM     25  C   UNL A   1      42.532  29.550  34.709  1.00  0.00     0.037 A 
ATOM     26  C   UNL A   1      37.672  33.200  32.418  1.00  0.00     0.049 A 
ATOM     27  C   UNL A   1      41.822  30.758  35.239  1.00  0.00     0.074 A 
ATOM     28  C   UNL A   1      37.087  34.312  33.000  1.00  0.00     0.029 A 
ATOM     29  N   UNL A   1      38.666  32.772  33.283  1.00  0.00    -0.354 N 
ATOM     30  N   UNL A   1      40.834  31.432  34.707  1.00  0.00    -0.248 NA
ATOM     31  C   UNL A   1      42.284  31.282  36.533  1.00  0.00     0.031 C 
ATOM     32  C   UNL A   1      37.735  34.564  34.215  1.00  0.00     0.029 A 
ATOM     33  C   UNL A   1      38.714  33.601  34.392  1.00  0.00     0.049 A 
ATOM     34  H   UNL A   1      39.251  31.995  33.133  1.00  0.00     0.167 HD
ATOM     35  C   UNL A   1      40.556  32.461  35.595  1.00  0.00     0.074 A 
ATOM     36  C   UNL A   1      41.468  32.312  36.710  1.00  0.00     0.031 C 
ATOM     37  C   UNL A   1      39.631  33.443  35.490  1.00  0.00     0.037 A 
BRANCH  24  38
ATOM     38  C   UNL A   1      36.272  33.174  30.329  1.00  0.00     0.057 A 
ATOM     39  C   UNL A   1      36.574  33.971  29.219  1.00  0.00     0.134 A 
ATOM     40  C   UNL A   1      34.923  32.936  30.614  1.00  0.00     0.134 A 
ATOM     41  F   UNL A   1      37.849  34.244  28.906  1.00  0.00    -0.206 F 
ATOM     42  C   UNL A   1      35.568  34.520  28.424  1.00  0.00     0.040 A 
ATOM     43  C   UNL A   1      33.908  33.472  29.821  1.00  0.00     0.040 A 
ATOM     44  F   UNL A   1      34.572  32.182  31.666  1.00  0.00    -0.206 F 
ATOM     45  C   UNL A   1      34.229  34.266  28.723  1.00  0.00     0.006 A 
ENDBRANCH  24  38
BRANCH  25  46
ATOM     46  C   UNL A   1      43.604  28.899  35.492  1.00  0.00     0.057 A 
ATOM     47  C   UNL A   1      44.939  29.284  35.335  1.00  0.00     0.134 A 
ATOM     48  C   UNL A   1      43.318  27.901  36.429  1.00  0.00     0.134 A 
ATOM     49  F   UNL A   1      45.270  30.226  34.440  1.00  0.00    -0.206 F 
ATOM     50  C   UNL A   1      45.958  28.695  36.084  1.00  0.00     0.040 A 
ATOM     51  C   UNL A   1      44.325  27.312  37.192  1.00  0.00     0.040 A 
ATOM     52  F   UNL A   1      42.054  27.497  36.621  1.00  0.00    -0.206 F 
ATOM     53  C   UNL A   1      45.651  27.708  37.020  1.00  0.00     0.006 A 
ENDBRANCH  25  46
BRANCH  37  54
ATOM     54  C   UNL A   1      39.569  34.436  36.606  1.00  0.00     0.057 A 
ATOM     55  C   UNL A   1      38.852  34.164  37.777  1.00  0.00     0.134 A 
ATOM     56  C   UNL A   1      40.246  35.657  36.522  1.00  0.00     0.134 A 
ATOM     57  F   UNL A   1      38.174  33.014  37.907  1.00  0.00    -0.206 F 
ATOM     58  C   UNL A   1      38.803  35.081  38.826  1.00  0.00     0.040 A 
ATOM     59  C   UNL A   1      40.212  36.578  37.569  1.00  0.00     0.040 A 
ATOM     60  F   UNL A   1      40.948  35.972  35.423  1.00  0.00    -0.206 F 
ATOM     61  C   UNL A   1      39.488  36.291  38.725  1.00  0.00     0.006 A 
ENDBRANCH  37  54
ENDBRANCH  11  12
ENDBRANCH   4   6
ENDBRANCH   1   2
BRANCH   1  62
ATOM     62  C   UNL A   1      37.092  23.473  25.208  1.00  0.00     0.042 C 
BRANCH  62  63
ATOM     63  C   UNL A   1      36.764  22.005  25.458  1.00  0.00     0.118 C 
BRANCH  63  64
ATOM     64  N   UNL A   1      35.803  21.813  26.532  1.00  0.00    -0.352 N 
ATOM     65  C   UNL A   1      34.441  21.647  26.497  1.00  0.00     0.253 C 
ATOM     66  H   UNL A   1      36.194  21.802  27.435  1.00  0.00     0.163 HD
ATOM     67  O   UNL A   1      33.830  21.520  27.556  1.00  0.00    -0.269 OA
BRANCH  65  68
ATOM     68  C   UNL A   1      33.725  21.546  25.208  1.00  0.00     0.064 A 
ATOM     69  C   UNL A   1      33.512  20.243  24.719  1.00  0.00     0.031 A 
ATOM     70  C   UNL A   1      33.098  22.653  24.601  1.00  0.00     0.050 A 
ATOM     71  C   UNL A   1      32.733  20.038  23.587  1.00  0.00     0.018 A 
ATOM     72  C   UNL A   1      32.294  22.400  23.470  1.00  0.00     0.028 A 
ATOM     73  Br  UNL A   1      32.482  18.288  22.922  1.00  0.00    -0.051 Br
ATOM     74  C   UNL A   1      32.124  21.113  22.955  1.00  0.00     0.018 A 
BRANCH  70  75
ATOM     75  N   UNL A   1      33.194  23.982  25.041  1.00  0.00    -0.370 N 
ATOM     76  C   UNL A   1      32.452  24.797  25.939  1.00  0.00     0.125 C 
ATOM     77  C   UNL A   1      33.946  25.053  24.470  1.00  0.00     0.125 C 
ATOM     78  C   UNL A   1      33.015  26.041  25.206  1.00  0.00     0.005 C 
ATOM     79  C   UNL A   1      33.782  27.063  26.049  1.00  0.00     0.011 C 
ATOM     80  C   UNL A   1      32.000  26.731  24.280  1.00  0.00     0.011 C 
ATOM     81  C   UNL A   1      32.814  27.925  26.856  1.00  0.00     0.001 C 
ATOM     82  C   UNL A   1      31.031  27.578  25.104  1.00  0.00     0.001 C 
ATOM     83  C   UNL A   1      31.777  28.600  25.960  1.00  0.00     0.000 C 
ENDBRANCH  70  75
ENDBRANCH  65  68
ENDBRANCH  63  64
ENDBRANCH  62  63
ENDBRANCH   1  62
TORSDOF 11
ENDMDL
MODEL 2
REMARK VINA RESULT:     -12.7      5.789     10.394
REMARK SMILES O=C(NCCCNC(=O)c1cc(Br)ccc1N1CC2(CCCCC2)C1)c1ccc(-c2c3nc(c(-c4c(F)cccc4F)c4ccc([nH]4)c(-c4c(F)cccc4F)c4nc(c(-c5c(F)cccc5F)c5ccc2[nH]5)C=C4)C=C3)cc1
REMARK SMILES IDX 4 1 3 2 1 3 2 4 26 6 27 7 79 8 28 9 78 10 29 11 30 12 31 13
REMARK SMILES IDX 72 14 32 15 77 16 71 17 73 18 33 19 76 20 70 21 69 22 34 24
REMARK SMILES IDX 60 25 43 26 59 27 44 28 47 29 58 30 74 31 45 32 46 33 57 35
REMARK SMILES IDX 75 36 48 37 35 38 36 39 41 40 37 41 38 42 40 43 42 44 39 45
REMARK SMILES IDX 61 46 62 47 67 48 63 49 64 50 66 51 68 52 65 53 49 54 50 55
REMARK SMILES IDX 55 56 51 57 52 58 54 59 56 60 53 61 5 62 6 63 7 64 8 65 9 67
REMARK SMILES IDX 10 68 11 69 16 70 12 71 15 72 13 73 14 74 17 75 18 76 25 77
REMARK SMILES IDX 19 78 20 79 24 80 21 81 23 82 22 83
REMARK H PARENT 3 5 73 23 47 34 7 66
REMARK Flexibility Score: inf
ROOT
ATOM      1  C   UNL A   1      34.800  28.965  27.404  1.00  0.00     0.118 C 
ENDROOT
BRANCH   1   2
ATOM      2  N   UNL A   1      34.892  29.894  28.521  1.00  0.00    -0.352 N 
ATOM      3  O   UNL A   1      35.706  30.946  30.322  1.00  0.00    -0.269 OA
ATOM      4  C   UNL A   1      35.937  30.254  29.334  1.00  0.00     0.251 C 
ATOM      5  H   UNL A   1      34.045  30.349  28.734  1.00  0.00     0.163 HD
BRANCH   4   6
ATOM      6  C   UNL A   1      37.328  29.821  29.065  1.00  0.00     0.039 A 
ATOM      7  C   UNL A   1      37.908  29.920  27.799  1.00  0.00     0.014 A 
ATOM      8  C   UNL A   1      38.106  29.384  30.146  1.00  0.00     0.014 A 
ATOM      9  C   UNL A   1      39.213  29.469  27.589  1.00  0.00     0.010 A 
ATOM     10  C   UNL A   1      39.434  28.992  29.949  1.00  0.00     0.010 A 
ATOM     11  C   UNL A   1      39.988  29.000  28.661  1.00  0.00    -0.014 A 
BRANCH  11  12
ATOM     12  C   UNL A   1      41.379  28.545  28.422  1.00  0.00     0.031 A 
ATOM     13  C   UNL A   1      41.669  27.119  28.047  1.00  0.00     0.074 A 
ATOM     14  C   UNL A   1      42.391  29.430  28.513  1.00  0.00     0.049 A 
ATOM     15  N   UNL A   1      42.818  26.558  27.763  1.00  0.00    -0.248 NA
ATOM     16  C   UNL A   1      40.522  26.199  27.991  1.00  0.00     0.031 C 
ATOM     17  C   UNL A   1      42.250  30.838  28.889  1.00  0.00     0.029 A 
ATOM     18  N   UNL A   1      43.733  29.280  28.273  1.00  0.00    -0.354 N 
ATOM     19  C   UNL A   1      42.539  25.221  27.521  1.00  0.00     0.074 A 
ATOM     20  C   UNL A   1      41.113  25.048  27.697  1.00  0.00     0.031 C 
ATOM     21  C   UNL A   1      43.450  31.435  28.807  1.00  0.00     0.029 A 
ATOM     22  C   UNL A   1      44.445  30.446  28.399  1.00  0.00     0.049 A 
ATOM     23  H   UNL A   1      44.145  28.419  28.032  1.00  0.00     0.167 HD
ATOM     24  C   UNL A   1      43.392  24.226  27.176  1.00  0.00     0.037 A 
ATOM     25  C   UNL A   1      45.752  30.696  28.200  1.00  0.00     0.037 A 
ATOM     26  C   UNL A   1      44.804  24.391  26.962  1.00  0.00     0.049 A 
ATOM     27  C   UNL A   1      46.668  29.587  27.780  1.00  0.00     0.074 A 
ATOM     28  C   UNL A   1      45.737  23.443  26.577  1.00  0.00     0.029 A 
ATOM     29  N   UNL A   1      45.486  25.588  27.108  1.00  0.00    -0.354 N 
ATOM     30  N   UNL A   1      46.384  28.332  27.540  1.00  0.00    -0.248 NA
ATOM     31  C   UNL A   1      48.087  29.930  27.609  1.00  0.00     0.031 C 
ATOM     32  C   UNL A   1      46.989  24.066  26.499  1.00  0.00     0.029 A 
ATOM     33  C   UNL A   1      46.830  25.402  26.825  1.00  0.00     0.049 A 
ATOM     34  H   UNL A   1      45.078  26.443  27.374  1.00  0.00     0.167 HD
ATOM     35  C   UNL A   1      47.586  27.732  27.195  1.00  0.00     0.074 A 
ATOM     36  C   UNL A   1      48.600  28.765  27.238  1.00  0.00     0.031 C 
ATOM     37  C   UNL A   1      47.827  26.438  26.879  1.00  0.00     0.037 A 
BRANCH  24  38
ATOM     38  C   UNL A   1      42.812  22.857  27.015  1.00  0.00     0.057 A 
ATOM     39  C   UNL A   1      42.622  22.288  25.751  1.00  0.00     0.134 A 
ATOM     40  C   UNL A   1      42.470  22.090  28.134  1.00  0.00     0.134 A 
ATOM     41  F   UNL A   1      42.918  22.982  24.642  1.00  0.00    -0.206 F 
ATOM     42  C   UNL A   1      42.100  21.002  25.604  1.00  0.00     0.040 A 
ATOM     43  C   UNL A   1      41.957  20.800  28.001  1.00  0.00     0.040 A 
ATOM     44  F   UNL A   1      42.628  22.584  29.371  1.00  0.00    -0.206 F 
ATOM     45  C   UNL A   1      41.770  20.253  26.734  1.00  0.00     0.006 A 
ENDBRANCH  24  38
BRANCH  25  46
ATOM     46  C   UNL A   1      46.263  32.073  28.375  1.00  0.00     0.057 A 
ATOM     47  C   UNL A   1      46.222  32.991  27.320  1.00  0.00     0.134 A 
ATOM     48  C   UNL A   1      46.780  32.508  29.599  1.00  0.00     0.134 A 
ATOM     49  F   UNL A   1      45.750  32.621  26.121  1.00  0.00    -0.206 F 
ATOM     50  C   UNL A   1      46.680  34.299  27.477  1.00  0.00     0.040 A 
ATOM     51  C   UNL A   1      47.231  33.816  29.773  1.00  0.00     0.040 A 
ATOM     52  F   UNL A   1      46.840  31.669  30.643  1.00  0.00    -0.206 F 
ATOM     53  C   UNL A   1      47.182  34.716  28.710  1.00  0.00     0.006 A 
ENDBRANCH  25  46
BRANCH  37  54
ATOM     54  C   UNL A   1      49.241  26.071  26.562  1.00  0.00     0.057 A 
ATOM     55  C   UNL A   1      49.776  26.282  25.287  1.00  0.00     0.134 A 
ATOM     56  C   UNL A   1      50.078  25.525  27.541  1.00  0.00     0.134 A 
ATOM     57  F   UNL A   1      49.014  26.791  24.306  1.00  0.00    -0.206 F 
ATOM     58  C   UNL A   1      51.099  25.954  24.992  1.00  0.00     0.040 A 
ATOM     59  C   UNL A   1      51.406  25.202  27.260  1.00  0.00     0.040 A 
ATOM     60  F   UNL A   1      49.619  25.299  28.781  1.00  0.00    -0.206 F 
ATOM     61  C   UNL A   1      51.919  25.415  25.982  1.00  0.00     0.006 A 
ENDBRANCH  37  54
ENDBRANCH  11  12
ENDBRANCH   4   6
ENDBRANCH   1   2
BRANCH   1  62
ATOM     62  C   UNL A   1      33.371  28.764  26.904  1.00  0.00     0.042 C 
BRANCH  62  63
ATOM     63  C   UNL A   1      32.862  29.846  25.957  1.00  0.00     0.118 C 
BRANCH  63  64
ATOM     64  N   UNL A   1      33.345  29.681  24.596  1.00  0.00    -0.352 N 
ATOM     65  C   UNL A   1      32.839  28.955  23.547  1.00  0.00     0.253 C 
ATOM     66  H   UNL A   1      34.173  30.173  24.392  1.00  0.00     0.163 HD
ATOM     67  O   UNL A   1      33.444  28.954  22.477  1.00  0.00    -0.269 OA
BRANCH  65  68
ATOM     68  C   UNL A   1      31.550  28.243  23.673  1.00  0.00     0.064 A 
ATOM     69  C   UNL A   1      30.405  28.965  23.285  1.00  0.00     0.031 A 
ATOM     70  C   UNL A   1      31.470  26.864  23.953  1.00  0.00     0.050 A 
ATOM     71  C   UNL A   1      29.165  28.339  23.239  1.00  0.00     0.018 A 
ATOM     72  C   UNL A   1      30.198  26.260  23.870  1.00  0.00     0.028 A 
ATOM     73  Br  UNL A   1      27.631  29.327  22.749  1.00  0.00    -0.051 Br
ATOM     74  C   UNL A   1      29.054  26.987  23.534  1.00  0.00     0.018 A 
BRANCH  70  75
ATOM     75  N   UNL A   1      32.555  26.039  24.290  1.00  0.00    -0.370 N 
ATOM     76  C   UNL A   1      33.502  25.278  23.552  1.00  0.00     0.125 C 
ATOM     77  C   UNL A   1      32.874  25.469  25.559  1.00  0.00     0.125 C 
ATOM     78  C   UNL A   1      33.731  24.417  24.821  1.00  0.00     0.005 C 
ATOM     79  C   UNL A   1      35.161  24.333  25.361  1.00  0.00     0.011 C 
ATOM     80  C   UNL A   1      33.075  23.028  24.759  1.00  0.00     0.011 C 
ATOM     81  C   UNL A   1      35.998  23.379  24.512  1.00  0.00     0.001 C 
ATOM     82  C   UNL A   1      33.918  22.090  23.895  1.00  0.00     0.001 C 
ATOM     83  C   UNL A   1      35.352  21.998  24.411  1.00  0.00     0.000 C 
ENDBRANCH  70  75
ENDBRANCH  65  68
ENDBRANCH  63  64
ENDBRANCH  62  63
ENDBRANCH   1  62
TORSDOF 11
ENDMDL
MODEL 3
REMARK VINA RESULT:     -12.6      4.042      8.004
REMARK SMILES O=C(NCCCNC(=O)c1cc(Br)ccc1N1CC2(CCCCC2)C1)c1ccc(-c2c3nc(c(-c4c(F)cccc4F)c4ccc([nH]4)c(-c4c(F)cccc4F)c4nc(c(-c5c(F)cccc5F)c5ccc2[nH]5)C=C4)C=C3)cc1
REMARK SMILES IDX 4 1 3 2 1 3 2 4 26 6 27 7 79 8 28 9 78 10 29 11 30 12 31 13
REMARK SMILES IDX 72 14 32 15 77 16 71 17 73 18 33 19 76 20 70 21 69 22 34 24
REMARK SMILES IDX 60 25 43 26 59 27 44 28 47 29 58 30 74 31 45 32 46 33 57 35
REMARK SMILES IDX 75 36 48 37 35 38 36 39 41 40 37 41 38 42 40 43 42 44 39 45
REMARK SMILES IDX 61 46 62 47 67 48 63 49 64 50 66 51 68 52 65 53 49 54 50 55
REMARK SMILES IDX 55 56 51 57 52 58 54 59 56 60 53 61 5 62 6 63 7 64 8 65 9 67
REMARK SMILES IDX 10 68 11 69 16 70 12 71 15 72 13 73 14 74 17 75 18 76 25 77
REMARK SMILES IDX 19 78 20 79 24 80 21 81 23 82 22 83
REMARK H PARENT 3 5 73 23 47 34 7 66
REMARK Flexibility Score: inf
ROOT
ATOM      1  C   UNL A   1      38.369  19.929  25.877  1.00  0.00     0.118 C 
ENDROOT
BRANCH   1   2
ATOM      2  N   UNL A   1      39.626  19.206  25.750  1.00  0.00    -0.352 N 
ATOM      3  O   UNL A   1      41.828  18.820  25.616  1.00  0.00    -0.269 OA
ATOM      4  C   UNL A   1      40.928  19.583  25.960  1.00  0.00     0.251 C 
ATOM      5  H   UNL A   1      39.523  18.272  25.458  1.00  0.00     0.163 HD
BRANCH   4   6
ATOM      6  C   UNL A   1      41.281  20.886  26.572  1.00  0.00     0.039 A 
ATOM      7  C   UNL A   1      41.266  21.089  27.953  1.00  0.00     0.014 A 
ATOM      8  C   UNL A   1      41.732  21.912  25.730  1.00  0.00     0.014 A 
ATOM      9  C   UNL A   1      41.577  22.344  28.479  1.00  0.00     0.010 A 
ATOM     10  C   UNL A   1      42.105  23.151  26.261  1.00  0.00     0.010 A 
ATOM     11  C   UNL A   1      41.998  23.387  27.639  1.00  0.00    -0.014 A 
BRANCH  11  12
ATOM     12  C   UNL A   1      42.344  24.708  28.220  1.00  0.00     0.031 A 
ATOM     13  C   UNL A   1      43.768  25.053  28.551  1.00  0.00     0.074 A 
ATOM     14  C   UNL A   1      41.371  25.617  28.423  1.00  0.00     0.049 A 
ATOM     15  N   UNL A   1      44.256  26.173  29.026  1.00  0.00    -0.248 NA
ATOM     16  C   UNL A   1      44.777  24.006  28.329  1.00  0.00     0.031 C 
ATOM     17  C   UNL A   1      39.946  25.402  28.166  1.00  0.00     0.029 A 
ATOM     18  N   UNL A   1      41.439  26.911  28.873  1.00  0.00    -0.354 N 
ATOM     19  C   UNL A   1      45.618  25.958  29.183  1.00  0.00     0.074 A 
ATOM     20  C   UNL A   1      45.883  24.599  28.760  1.00  0.00     0.031 C 
ATOM     21  C   UNL A   1      39.280  26.541  28.415  1.00  0.00     0.029 A 
ATOM     22  C   UNL A   1      40.226  27.555  28.873  1.00  0.00     0.049 A 
ATOM     23  H   UNL A   1      42.276  27.338  29.166  1.00  0.00     0.167 HD
ATOM     24  C   UNL A   1      46.565  26.815  29.633  1.00  0.00     0.037 A 
ATOM     25  C   UNL A   1      39.911  28.821  29.197  1.00  0.00     0.037 A 
ATOM     26  C   UNL A   1      46.321  28.179  30.021  1.00  0.00     0.049 A 
ATOM     27  C   UNL A   1      40.984  29.763  29.653  1.00  0.00     0.074 A 
ATOM     28  C   UNL A   1      47.230  29.128  30.456  1.00  0.00     0.029 A 
ATOM     29  N   UNL A   1      45.078  28.788  30.014  1.00  0.00    -0.354 N 
ATOM     30  N   UNL A   1      42.269  29.548  29.781  1.00  0.00    -0.248 NA
ATOM     31  C   UNL A   1      40.559  31.123  30.017  1.00  0.00     0.031 C 
ATOM     32  C   UNL A   1      46.532  30.313  30.722  1.00  0.00     0.029 A 
ATOM     33  C   UNL A   1      45.193  30.101  30.441  1.00  0.00     0.049 A 
ATOM     34  H   UNL A   1      44.236  28.353  29.745  1.00  0.00     0.167 HD
ATOM     35  C   UNL A   1      42.808  30.739  30.244  1.00  0.00     0.074 A 
ATOM     36  C   UNL A   1      41.714  31.681  30.356  1.00  0.00     0.031 C 
ATOM     37  C   UNL A   1      44.094  31.022  30.553  1.00  0.00     0.037 A 
BRANCH  24  38
ATOM     38  C   UNL A   1      47.963  26.294  29.735  1.00  0.00     0.057 A 
ATOM     39  C   UNL A   1      48.463  25.776  30.934  1.00  0.00     0.134 A 
ATOM     40  C   UNL A   1      48.804  26.282  28.617  1.00  0.00     0.134 A 
ATOM     41  F   UNL A   1      47.707  25.774  32.042  1.00  0.00    -0.206 F 
ATOM     42  C   UNL A   1      49.761  25.270  31.021  1.00  0.00     0.040 A 
ATOM     43  C   UNL A   1      50.100  25.770  28.688  1.00  0.00     0.040 A 
ATOM     44  F   UNL A   1      48.379  26.768  27.441  1.00  0.00    -0.206 F 
ATOM     45  C   UNL A   1      50.582  25.263  29.893  1.00  0.00     0.006 A 
ENDBRANCH  24  38
BRANCH  25  46
ATOM     46  C   UNL A   1      38.510  29.276  29.073  1.00  0.00     0.057 A 
ATOM     47  C   UNL A   1      38.003  29.705  27.842  1.00  0.00     0.134 A 
ATOM     48  C   UNL A   1      37.642  29.270  30.169  1.00  0.00     0.134 A 
ATOM     49  F   UNL A   1      38.796  29.744  26.761  1.00  0.00    -0.206 F 
ATOM     50  C   UNL A   1      36.677  30.115  27.705  1.00  0.00     0.040 A 
ATOM     51  C   UNL A   1      36.311  29.666  30.044  1.00  0.00     0.040 A 
ATOM     52  F   UNL A   1      38.077  28.866  31.372  1.00  0.00    -0.206 F 
ATOM     53  C   UNL A   1      35.825  30.091  28.809  1.00  0.00     0.006 A 
ENDBRANCH  25  46
BRANCH  37  54
ATOM     54  C   UNL A   1      44.383  32.403  31.049  1.00  0.00     0.057 A 
ATOM     55  C   UNL A   1      44.366  32.699  32.417  1.00  0.00     0.134 A 
ATOM     56  C   UNL A   1      44.701  33.435  30.161  1.00  0.00     0.134 A 
ATOM     57  F   UNL A   1      44.055  31.751  33.314  1.00  0.00    -0.206 F 
ATOM     58  C   UNL A   1      44.649  33.982  32.885  1.00  0.00     0.040 A 
ATOM     59  C   UNL A   1      44.995  34.720  30.617  1.00  0.00     0.040 A 
ATOM     60  F   UNL A   1      44.731  33.210  28.838  1.00  0.00    -0.206 F 
ATOM     61  C   UNL A   1      44.968  34.996  31.983  1.00  0.00     0.006 A 
ENDBRANCH  37  54
ENDBRANCH  11  12
ENDBRANCH   4   6
ENDBRANCH   1   2
BRANCH   1  62
ATOM     62  C   UNL A   1      38.027  20.764  24.644  1.00  0.00     0.042 C 
BRANCH  62  63
ATOM     63  C   UNL A   1      37.121  21.961  24.909  1.00  0.00     0.118 C 
BRANCH  63  64
ATOM     64  N   UNL A   1      36.347  21.828  26.132  1.00  0.00    -0.352 N 
ATOM     65  C   UNL A   1      35.003  21.624  26.325  1.00  0.00     0.253 C 
ATOM     66  H   UNL A   1      36.874  21.894  26.960  1.00  0.00     0.163 HD
ATOM     67  O   UNL A   1      34.570  21.562  27.473  1.00  0.00    -0.269 OA
BRANCH  65  68
ATOM     68  C   UNL A   1      34.099  21.409  25.176  1.00  0.00     0.064 A 
ATOM     69  C   UNL A   1      33.888  20.068  24.799  1.00  0.00     0.031 A 
ATOM     70  C   UNL A   1      33.321  22.443  24.619  1.00  0.00     0.050 A 
ATOM     71  C   UNL A   1      32.952  19.755  23.820  1.00  0.00     0.018 A 
ATOM     72  C   UNL A   1      32.364  22.081  23.648  1.00  0.00     0.028 A 
ATOM     73  Br  UNL A   1      32.701  17.957  23.300  1.00  0.00    -0.051 Br
ATOM     74  C   UNL A   1      32.189  20.758  23.238  1.00  0.00     0.018 A 
BRANCH  70  75
ATOM     75  N   UNL A   1      33.408  23.801  24.965  1.00  0.00    -0.370 N 
ATOM     76  C   UNL A   1      33.088  24.563  26.122  1.00  0.00     0.125 C 
ATOM     77  C   UNL A   1      33.596  24.924  24.105  1.00  0.00     0.125 C 
ATOM     78  C   UNL A   1      33.007  25.819  25.218  1.00  0.00     0.005 C 
ATOM     79  C   UNL A   1      33.917  26.998  25.574  1.00  0.00     0.011 C 
ATOM     80  C   UNL A   1      31.572  26.289  24.930  1.00  0.00     0.011 C 
ATOM     81  C   UNL A   1      33.352  27.768  26.765  1.00  0.00     0.001 C 
ATOM     82  C   UNL A   1      31.017  27.045  26.136  1.00  0.00     0.001 C 
ATOM     83  C   UNL A   1      31.915  28.221  26.515  1.00  0.00     0.000 C 
ENDBRANCH  70  75
ENDBRANCH  65  68
ENDBRANCH  63  64
ENDBRANCH  62  63
ENDBRANCH   1  62
TORSDOF 11
ENDMDL
