MODEL 1
REMARK VINA RESULT:     -11.0      0.000      0.000
REMARK SMILES CC[C@@H](C)[C@@H](C(=O)NCCCNC(=O)c1ccc(-c2c3nc(c(-c4c(F)cccc4F)c4ccc([nH]4)c(-c4c(F)cccc4F)c4nc(c(-c5c(F)cccc5F)c5ccc2[nH]5)C=C4)C=C3)cc1)S(=O)(=O)c1ccc(OC)cc1
REMARK SMILES IDX 9 1 8 2 6 3 7 4 5 6 3 7 4 8 2 9 1 10 69 11 70 12 71 13 72 14
REMARK SMILES IDX 73 15 79 16 74 17 78 18 75 19 76 20 77 21 10 22 11 23 12 24
REMARK SMILES IDX 13 25 14 27 15 28 16 29 68 30 17 31 67 32 18 33 19 34 20 35
REMARK SMILES IDX 61 36 21 37 66 38 60 39 62 40 22 41 65 42 59 43 58 44 23 46
REMARK SMILES IDX 49 47 32 48 48 49 33 50 36 51 47 52 63 53 34 54 35 55 46 57
REMARK SMILES IDX 64 58 37 59 24 60 25 61 30 62 26 63 27 64 29 65 31 66 28 67
REMARK SMILES IDX 50 68 51 69 56 70 52 71 53 72 55 73 57 74 54 75 38 76 39 77
REMARK SMILES IDX 44 78 40 79 41 80 43 81 45 82 42 83
REMARK H PARENT 8 5 12 26 62 45 36 56
REMARK Flexibility Score: inf
ROOT
ATOM      1  C   UNL A   1      37.281  20.931  24.662  1.00  0.00     0.117 C 
ENDROOT
BRANCH   1   2
ATOM      2  N   UNL A   1      36.176  20.830  25.606  1.00  0.00    -0.355 N 
ATOM      3  C   UNL A   1      34.893  21.294  25.577  1.00  0.00     0.239 C 
ATOM      4  O   UNL A   1      34.380  21.454  26.687  1.00  0.00    -0.274 OA
ATOM      5  H   UNL A   1      36.398  20.330  26.424  1.00  0.00     0.163 HD
BRANCH   3   6
ATOM      6  C   UNL A   1      34.134  21.591  24.279  1.00  0.00     0.205 C 
BRANCH   6   7
ATOM      7  C   UNL A   1      33.794  23.101  24.052  1.00  0.00     0.014 C 
ATOM      8  C   UNL A   1      33.576  23.479  22.581  1.00  0.00     0.009 C 
BRANCH   7   9
ATOM      9  C   UNL A   1      34.861  24.049  24.618  1.00  0.00     0.002 C 
ATOM     10  C   UNL A   1      34.308  25.294  25.300  1.00  0.00     0.004 C 
ENDBRANCH   7   9
ENDBRANCH   6   7
BRANCH   6  11
ATOM     11  S   UNL A   1      32.700  20.458  24.296  1.00  0.00     0.190 S 
ATOM     12  O   UNL A   1      31.791  20.840  25.367  1.00  0.00    -0.223 OA
ATOM     13  O   UNL A   1      32.171  20.435  22.944  1.00  0.00    -0.223 OA
BRANCH  11  14
ATOM     14  C   UNL A   1      33.208  18.779  24.681  1.00  0.00     0.068 A 
ATOM     15  C   UNL A   1      32.366  17.983  25.464  1.00  0.00     0.024 A 
ATOM     16  C   UNL A   1      34.397  18.234  24.200  1.00  0.00     0.024 A 
ATOM     17  C   UNL A   1      32.692  16.640  25.697  1.00  0.00     0.048 A 
ATOM     18  C   UNL A   1      34.690  16.878  24.385  1.00  0.00     0.048 A 
ATOM     19  C   UNL A   1      33.831  16.070  25.123  1.00  0.00     0.118 A 
BRANCH  19  20
ATOM     20  O   UNL A   1      34.019  14.738  25.372  1.00  0.00    -0.497 OA
ATOM     21  C   UNL A   1      32.862  13.996  25.750  1.00  0.00     0.278 C 
ENDBRANCH  19  20
ENDBRANCH  11  14
ENDBRANCH   6  11
ENDBRANCH   3   6
ENDBRANCH   1   2
BRANCH   1  22
ATOM     22  C   UNL A   1      38.262  19.761  24.861  1.00  0.00     0.042 C 
BRANCH  22  23
ATOM     23  C   UNL A   1      39.081  19.825  26.144  1.00  0.00     0.118 C 
BRANCH  23  24
ATOM     24  N   UNL A   1      40.270  18.999  26.077  1.00  0.00    -0.352 N 
ATOM     25  C   UNL A   1      41.599  19.349  26.059  1.00  0.00     0.251 C 
ATOM     26  H   UNL A   1      40.097  18.031  26.036  1.00  0.00     0.163 HD
ATOM     27  O   UNL A   1      42.430  18.494  25.764  1.00  0.00    -0.269 OA
BRANCH  25  28
ATOM     28  C   UNL A   1      42.056  20.730  26.368  1.00  0.00     0.039 A 
ATOM     29  C   UNL A   1      42.238  21.084  27.710  1.00  0.00     0.014 A 
ATOM     30  C   UNL A   1      42.232  21.702  25.380  1.00  0.00     0.014 A 
ATOM     31  C   UNL A   1      42.631  22.384  28.052  1.00  0.00     0.010 A 
ATOM     32  C   UNL A   1      42.713  22.971  25.713  1.00  0.00     0.010 A 
ATOM     33  C   UNL A   1      42.898  23.335  27.055  1.00  0.00    -0.014 A 
BRANCH  33  34
ATOM     34  C   UNL A   1      43.328  24.718  27.403  1.00  0.00     0.031 A 
ATOM     35  C   UNL A   1      44.783  25.108  27.310  1.00  0.00     0.074 A 
ATOM     36  C   UNL A   1      42.424  25.618  27.838  1.00  0.00     0.049 A 
ATOM     37  N   UNL A   1      45.359  26.240  27.628  1.00  0.00    -0.248 NA
ATOM     38  C   UNL A   1      45.715  24.081  26.816  1.00  0.00     0.031 C 
ATOM     39  C   UNL A   1      40.992  25.367  28.008  1.00  0.00     0.029 A 
ATOM     40  N   UNL A   1      42.576  26.929  28.223  1.00  0.00    -0.354 N 
ATOM     41  C   UNL A   1      46.716  26.056  27.385  1.00  0.00     0.074 A 
ATOM     42  C   UNL A   1      46.886  24.689  26.947  1.00  0.00     0.031 C 
ATOM     43  C   UNL A   1      40.395  26.490  28.439  1.00  0.00     0.029 A 
ATOM     44  C   UNL A   1      41.404  27.530  28.614  1.00  0.00     0.049 A 
ATOM     45  H   UNL A   1      43.444  27.393  28.218  1.00  0.00     0.167 HD
ATOM     46  C   UNL A   1      47.728  26.952  27.491  1.00  0.00     0.037 A 
ATOM     47  C   UNL A   1      41.168  28.775  29.071  1.00  0.00     0.037 A 
ATOM     48  C   UNL A   1      47.560  28.323  27.895  1.00  0.00     0.049 A 
ATOM     49  C   UNL A   1      42.313  29.745  29.193  1.00  0.00     0.074 A 
ATOM     50  C   UNL A   1      48.518  29.319  27.986  1.00  0.00     0.029 A 
ATOM     51  N   UNL A   1      46.354  28.894  28.270  1.00  0.00    -0.354 N 
ATOM     52  N   UNL A   1      43.580  29.570  28.906  1.00  0.00    -0.248 NA
ATOM     53  C   UNL A   1      41.992  31.089  29.695  1.00  0.00     0.031 C 
ATOM     54  C   UNL A   1      47.899  30.481  28.456  1.00  0.00     0.029 A 
ATOM     55  C   UNL A   1      46.547  30.223  28.612  1.00  0.00     0.049 A 
ATOM     56  H   UNL A   1      45.489  28.424  28.292  1.00  0.00     0.167 HD
ATOM     57  C   UNL A   1      44.199  30.786  29.165  1.00  0.00     0.074 A 
ATOM     58  C   UNL A   1      43.167  31.696  29.614  1.00  0.00     0.031 C 
ATOM     59  C   UNL A   1      45.508  31.120  29.042  1.00  0.00     0.037 A 
BRANCH  46  60
ATOM     60  C   UNL A   1      49.113  26.483  27.148  1.00  0.00     0.057 A 
ATOM     61  C   UNL A   1      49.618  26.569  25.844  1.00  0.00     0.134 A 
ATOM     62  C   UNL A   1      49.970  25.991  28.140  1.00  0.00     0.134 A 
ATOM     63  F   UNL A   1      48.845  27.021  24.843  1.00  0.00    -0.206 F 
ATOM     64  C   UNL A   1      50.917  26.163  25.535  1.00  0.00     0.040 A 
ATOM     65  C   UNL A   1      51.281  25.608  27.849  1.00  0.00     0.040 A 
ATOM     66  F   UNL A   1      49.554  25.889  29.412  1.00  0.00    -0.206 F 
ATOM     67  C   UNL A   1      51.756  25.689  26.542  1.00  0.00     0.006 A 
ENDBRANCH  46  60
BRANCH  47  68
ATOM     68  C   UNL A   1      39.790  29.192  29.439  1.00  0.00     0.057 A 
ATOM     69  C   UNL A   1      39.357  29.162  30.771  1.00  0.00     0.134 A 
ATOM     70  C   UNL A   1      38.863  29.593  28.470  1.00  0.00     0.134 A 
ATOM     71  F   UNL A   1      40.192  28.766  31.742  1.00  0.00    -0.206 F 
ATOM     72  C   UNL A   1      38.046  29.489  31.121  1.00  0.00     0.040 A 
ATOM     73  C   UNL A   1      37.557  29.950  28.809  1.00  0.00     0.040 A 
ATOM     74  F   UNL A   1      39.216  29.650  27.177  1.00  0.00    -0.206 F 
ATOM     75  C   UNL A   1      37.143  29.887  30.139  1.00  0.00     0.006 A 
ENDBRANCH  47  68
BRANCH  59  76
ATOM     76  C   UNL A   1      45.888  32.537  29.357  1.00  0.00     0.057 A 
ATOM     77  C   UNL A   1      45.851  33.546  28.386  1.00  0.00     0.134 A 
ATOM     78  C   UNL A   1      46.259  32.902  30.657  1.00  0.00     0.134 A 
ATOM     79  F   UNL A   1      45.517  33.260  27.119  1.00  0.00    -0.206 F 
ATOM     80  C   UNL A   1      46.195  34.864  28.693  1.00  0.00     0.040 A 
ATOM     81  C   UNL A   1      46.578  34.221  30.982  1.00  0.00     0.040 A 
ATOM     82  F   UNL A   1      46.306  31.985  31.635  1.00  0.00    -0.206 F 
ATOM     83  C   UNL A   1      46.552  35.205  29.996  1.00  0.00     0.006 A 
ENDBRANCH  59  76
ENDBRANCH  33  34
ENDBRANCH  25  28
ENDBRANCH  23  24
ENDBRANCH  22  23
ENDBRANCH   1  22
TORSDOF 15
ENDMDL
MODEL 2
REMARK VINA RESULT:     -11.0      5.644     10.583
REMARK SMILES CC[C@@H](C)[C@@H](C(=O)NCCCNC(=O)c1ccc(-c2c3nc(c(-c4c(F)cccc4F)c4ccc([nH]4)c(-c4c(F)cccc4F)c4nc(c(-c5c(F)cccc5F)c5ccc2[nH]5)C=C4)C=C3)cc1)S(=O)(=O)c1ccc(OC)cc1
REMARK SMILES IDX 9 1 8 2 6 3 7 4 5 6 3 7 4 8 2 9 1 10 69 11 70 12 71 13 72 14
REMARK SMILES IDX 73 15 79 16 74 17 78 18 75 19 76 20 77 21 10 22 11 23 12 24
REMARK SMILES IDX 13 25 14 27 15 28 16 29 68 30 17 31 67 32 18 33 19 34 20 35
REMARK SMILES IDX 61 36 21 37 66 38 60 39 62 40 22 41 65 42 59 43 58 44 23 46
REMARK SMILES IDX 49 47 32 48 48 49 33 50 36 51 47 52 63 53 34 54 35 55 46 57
REMARK SMILES IDX 64 58 37 59 24 60 25 61 30 62 26 63 27 64 29 65 31 66 28 67
REMARK SMILES IDX 50 68 51 69 56 70 52 71 53 72 55 73 57 74 54 75 38 76 39 77
REMARK SMILES IDX 44 78 40 79 41 80 43 81 45 82 42 83
REMARK H PARENT 8 5 12 26 62 45 36 56
REMARK Flexibility Score: inf
ROOT
ATOM      1  C   UNL A   1      31.530  30.530  26.525  1.00  0.00     0.117 C 
ENDROOT
BRANCH   1   2
ATOM      2  N   UNL A   1      31.902  30.281  25.139  1.00  0.00    -0.355 N 
ATOM      3  C   UNL A   1      31.894  29.152  24.371  1.00  0.00     0.239 C 
ATOM      4  O   UNL A   1      32.689  29.169  23.429  1.00  0.00    -0.274 OA
ATOM      5  H   UNL A   1      32.219  31.082  24.664  1.00  0.00     0.163 HD
BRANCH   3   6
ATOM      6  C   UNL A   1      30.975  27.956  24.640  1.00  0.00     0.205 C 
BRANCH   6   7
ATOM      7  C   UNL A   1      31.721  26.611  24.928  1.00  0.00     0.014 C 
ATOM      8  C   UNL A   1      30.904  25.607  25.752  1.00  0.00     0.009 C 
BRANCH   7   9
ATOM      9  C   UNL A   1      33.064  26.811  25.646  1.00  0.00     0.002 C 
ATOM     10  C   UNL A   1      33.977  25.591  25.635  1.00  0.00     0.004 C 
ENDBRANCH   7   9
ENDBRANCH   6   7
BRANCH   6  11
ATOM     11  S   UNL A   1      29.812  27.922  23.231  1.00  0.00     0.190 S 
ATOM     12  O   UNL A   1      30.505  27.451  22.041  1.00  0.00    -0.223 OA
ATOM     13  O   UNL A   1      28.648  27.173  23.669  1.00  0.00    -0.223 OA
BRANCH  11  14
ATOM     14  C   UNL A   1      29.240  29.575  22.825  1.00  0.00     0.068 A 
ATOM     15  C   UNL A   1      29.542  30.103  21.565  1.00  0.00     0.024 A 
ATOM     16  C   UNL A   1      28.481  30.337  23.712  1.00  0.00     0.024 A 
ATOM     17  C   UNL A   1      29.026  31.350  21.188  1.00  0.00     0.048 A 
ATOM     18  C   UNL A   1      27.919  31.555  23.310  1.00  0.00     0.048 A 
ATOM     19  C   UNL A   1      28.177  32.060  22.040  1.00  0.00     0.118 A 
BRANCH  19  20
ATOM     20  O   UNL A   1      27.688  33.239  21.545  1.00  0.00    -0.497 OA
ATOM     21  C   UNL A   1      27.499  33.300  20.133  1.00  0.00     0.278 C 
ENDBRANCH  19  20
ENDBRANCH  11  14
ENDBRANCH   6  11
ENDBRANCH   3   6
ENDBRANCH   1   2
BRANCH   1  22
ATOM     22  C   UNL A   1      31.292  32.035  26.752  1.00  0.00     0.042 C 
BRANCH  22  23
ATOM     23  C   UNL A   1      32.558  32.879  26.812  1.00  0.00     0.118 C 
BRANCH  23  24
ATOM     24  N   UNL A   1      32.389  34.062  27.632  1.00  0.00    -0.352 N 
ATOM     25  C   UNL A   1      33.089  34.489  28.735  1.00  0.00     0.251 C 
ATOM     26  H   UNL A   1      31.654  34.655  27.354  1.00  0.00     0.163 HD
ATOM     27  O   UNL A   1      32.623  35.404  29.411  1.00  0.00    -0.269 OA
BRANCH  25  28
ATOM     28  C   UNL A   1      34.376  33.868  29.144  1.00  0.00     0.039 A 
ATOM     29  C   UNL A   1      35.510  34.115  28.360  1.00  0.00     0.014 A 
ATOM     30  C   UNL A   1      34.477  32.990  30.226  1.00  0.00     0.014 A 
ATOM     31  C   UNL A   1      36.736  33.521  28.683  1.00  0.00     0.010 A 
ATOM     32  C   UNL A   1      35.719  32.471  30.602  1.00  0.00     0.010 A 
ATOM     33  C   UNL A   1      36.860  32.712  29.823  1.00  0.00    -0.014 A 
BRANCH  33  34
ATOM     34  C   UNL A   1      38.161  32.084  30.187  1.00  0.00     0.031 A 
ATOM     35  C   UNL A   1      39.106  32.783  31.132  1.00  0.00     0.074 A 
ATOM     36  C   UNL A   1      38.516  30.903  29.642  1.00  0.00     0.049 A 
ATOM     37  N   UNL A   1      40.305  32.427  31.519  1.00  0.00    -0.248 NA
ATOM     38  C   UNL A   1      38.651  34.063  31.700  1.00  0.00     0.031 C 
ATOM     39  C   UNL A   1      37.715  30.134  28.688  1.00  0.00     0.029 A 
ATOM     40  N   UNL A   1      39.649  30.142  29.810  1.00  0.00    -0.354 N 
ATOM     41  C   UNL A   1      40.750  33.441  32.361  1.00  0.00     0.074 A 
ATOM     42  C   UNL A   1      39.716  34.452  32.385  1.00  0.00     0.031 C 
ATOM     43  C   UNL A   1      38.368  29.003  28.374  1.00  0.00     0.029 A 
ATOM     44  C   UNL A   1      39.651  28.983  29.072  1.00  0.00     0.049 A 
ATOM     45  H   UNL A   1      40.389  30.403  30.404  1.00  0.00     0.167 HD
ATOM     46  C   UNL A   1      41.901  33.513  33.071  1.00  0.00     0.037 A 
ATOM     47  C   UNL A   1      40.582  28.016  28.960  1.00  0.00     0.037 A 
ATOM     48  C   UNL A   1      42.918  32.495  33.076  1.00  0.00     0.049 A 
ATOM     49  C   UNL A   1      41.859  28.129  29.749  1.00  0.00     0.074 A 
ATOM     50  C   UNL A   1      44.098  32.457  33.800  1.00  0.00     0.029 A 
ATOM     51  N   UNL A   1      42.874  31.331  32.323  1.00  0.00    -0.354 N 
ATOM     52  N   UNL A   1      42.237  29.069  30.582  1.00  0.00    -0.248 NA
ATOM     53  C   UNL A   1      42.836  27.043  29.587  1.00  0.00     0.031 C 
ATOM     54  C   UNL A   1      44.787  31.290  33.455  1.00  0.00     0.029 A 
ATOM     55  C   UNL A   1      44.014  30.578  32.552  1.00  0.00     0.049 A 
ATOM     56  H   UNL A   1      42.142  31.079  31.715  1.00  0.00     0.167 HD
ATOM     57  C   UNL A   1      43.479  28.672  31.064  1.00  0.00     0.074 A 
ATOM     58  C   UNL A   1      43.781  27.398  30.445  1.00  0.00     0.031 C 
ATOM     59  C   UNL A   1      44.295  29.306  31.941  1.00  0.00     0.037 A 
BRANCH  46  60
ATOM     60  C   UNL A   1      42.121  34.732  33.921  1.00  0.00     0.057 A 
ATOM     61  C   UNL A   1      41.769  34.757  35.277  1.00  0.00     0.134 A 
ATOM     62  C   UNL A   1      42.740  35.872  33.394  1.00  0.00     0.134 A 
ATOM     63  F   UNL A   1      41.162  33.702  35.842  1.00  0.00    -0.206 F 
ATOM     64  C   UNL A   1      42.006  35.880  36.072  1.00  0.00     0.040 A 
ATOM     65  C   UNL A   1      43.007  36.991  34.186  1.00  0.00     0.040 A 
ATOM     66  F   UNL A   1      43.111  35.913  32.105  1.00  0.00    -0.206 F 
ATOM     67  C   UNL A   1      42.634  36.998  35.528  1.00  0.00     0.006 A 
ENDBRANCH  46  60
BRANCH  47  68
ATOM     68  C   UNL A   1      40.347  26.844  28.078  1.00  0.00     0.057 A 
ATOM     69  C   UNL A   1      39.551  25.771  28.498  1.00  0.00     0.134 A 
ATOM     70  C   UNL A   1      40.939  26.751  26.812  1.00  0.00     0.134 A 
ATOM     71  F   UNL A   1      38.975  25.792  29.708  1.00  0.00    -0.206 F 
ATOM     72  C   UNL A   1      39.375  24.636  27.704  1.00  0.00     0.040 A 
ATOM     73  C   UNL A   1      40.748  25.635  25.996  1.00  0.00     0.040 A 
ATOM     74  F   UNL A   1      41.707  27.747  26.348  1.00  0.00    -0.206 F 
ATOM     75  C   UNL A   1      39.973  24.567  26.447  1.00  0.00     0.006 A 
ENDBRANCH  47  68
BRANCH  59  76
ATOM     76  C   UNL A   1      45.573  28.613  32.315  1.00  0.00     0.057 A 
ATOM     77  C   UNL A   1      46.769  28.840  31.622  1.00  0.00     0.134 A 
ATOM     78  C   UNL A   1      45.613  27.736  33.406  1.00  0.00     0.134 A 
ATOM     79  F   UNL A   1      46.795  29.658  30.560  1.00  0.00    -0.206 F 
ATOM     80  C   UNL A   1      47.954  28.201  31.987  1.00  0.00     0.040 A 
ATOM     81  C   UNL A   1      46.798  27.112  33.798  1.00  0.00     0.040 A 
ATOM     82  F   UNL A   1      44.505  27.482  34.118  1.00  0.00    -0.206 F 
ATOM     83  C   UNL A   1      47.972  27.339  33.083  1.00  0.00     0.006 A 
ENDBRANCH  59  76
ENDBRANCH  33  34
ENDBRANCH  25  28
ENDBRANCH  23  24
ENDBRANCH  22  23
ENDBRANCH   1  22
TORSDOF 15
ENDMDL
MODEL 3
REMARK VINA RESULT:     -10.9      2.225      7.325
REMARK SMILES CC[C@@H](C)[C@@H](C(=O)NCCCNC(=O)c1ccc(-c2c3nc(c(-c4c(F)cccc4F)c4ccc([nH]4)c(-c4c(F)cccc4F)c4nc(c(-c5c(F)cccc5F)c5ccc2[nH]5)C=C4)C=C3)cc1)S(=O)(=O)c1ccc(OC)cc1
REMARK SMILES IDX 9 1 8 2 6 3 7 4 5 6 3 7 4 8 2 9 1 10 69 11 70 12 71 13 72 14
REMARK SMILES IDX 73 15 79 16 74 17 78 18 75 19 76 20 77 21 10 22 11 23 12 24
REMARK SMILES IDX 13 25 14 27 15 28 16 29 68 30 17 31 67 32 18 33 19 34 20 35
REMARK SMILES IDX 61 36 21 37 66 38 60 39 62 40 22 41 65 42 59 43 58 44 23 46
REMARK SMILES IDX 49 47 32 48 48 49 33 50 36 51 47 52 63 53 34 54 35 55 46 57
REMARK SMILES IDX 64 58 37 59 24 60 25 61 30 62 26 63 27 64 29 65 31 66 28 67
REMARK SMILES IDX 50 68 51 69 56 70 52 71 53 72 55 73 57 74 54 75 38 76 39 77
REMARK SMILES IDX 44 78 40 79 41 80 43 81 45 82 42 83
REMARK H PARENT 8 5 12 26 62 45 36 56
REMARK Flexibility Score: inf
ROOT
ATOM      1  C   UNL A   1      35.920  20.450  24.684  1.00  0.00     0.117 C 
ENDROOT
BRANCH   1   2
ATOM      2  N   UNL A   1      35.021  20.501  25.829  1.00  0.00    -0.355 N 
ATOM      3  C   UNL A   1      34.232  21.491  26.339  1.00  0.00     0.239 C 
ATOM      4  O   UNL A   1      33.978  21.377  27.540  1.00  0.00    -0.274 OA
ATOM      5  H   UNL A   1      34.973  19.657  26.332  1.00  0.00     0.163 HD
BRANCH   3   6
ATOM      6  C   UNL A   1      33.693  22.654  25.499  1.00  0.00     0.205 C 
BRANCH   6   7
ATOM      7  C   UNL A   1      34.666  23.872  25.367  1.00  0.00     0.014 C 
ATOM      8  C   UNL A   1      35.182  24.109  23.942  1.00  0.00     0.009 C 
BRANCH   7   9
ATOM      9  C   UNL A   1      35.890  23.764  26.288  1.00  0.00     0.002 C 
ATOM     10  C   UNL A   1      37.229  23.716  25.562  1.00  0.00     0.004 C 
ENDBRANCH   7   9
ENDBRANCH   6   7
BRANCH   6  11
ATOM     11  S   UNL A   1      32.053  23.034  26.210  1.00  0.00     0.190 S 
ATOM     12  O   UNL A   1      31.113  21.981  25.854  1.00  0.00    -0.223 OA
ATOM     13  O   UNL A   1      32.262  23.296  27.623  1.00  0.00    -0.223 OA
BRANCH  11  14
ATOM     14  C   UNL A   1      31.373  24.537  25.501  1.00  0.00     0.068 A 
ATOM     15  C   UNL A   1      31.498  25.735  26.213  1.00  0.00     0.024 A 
ATOM     16  C   UNL A   1      30.753  24.556  24.253  1.00  0.00     0.024 A 
ATOM     17  C   UNL A   1      31.063  26.937  25.640  1.00  0.00     0.048 A 
ATOM     18  C   UNL A   1      30.374  25.766  23.659  1.00  0.00     0.048 A 
ATOM     19  C   UNL A   1      30.541  26.965  24.345  1.00  0.00     0.118 A 
BRANCH  19  20
ATOM     20  O   UNL A   1      30.202  28.201  23.866  1.00  0.00    -0.497 OA
ATOM     21  C   UNL A   1      30.903  29.309  24.426  1.00  0.00     0.278 C 
ENDBRANCH  19  20
ENDBRANCH  11  14
ENDBRANCH   6  11
ENDBRANCH   3   6
ENDBRANCH   1   2
BRANCH   1  22
ATOM     22  C   UNL A   1      37.108  19.516  24.980  1.00  0.00     0.042 C 
BRANCH  22  23
ATOM     23  C   UNL A   1      38.390  20.225  25.398  1.00  0.00     0.118 C 
BRANCH  23  24
ATOM     24  N   UNL A   1      39.475  19.296  25.641  1.00  0.00    -0.352 N 
ATOM     25  C   UNL A   1      40.771  19.524  26.039  1.00  0.00     0.251 C 
ATOM     26  H   UNL A   1      39.248  18.349  25.498  1.00  0.00     0.163 HD
ATOM     27  O   UNL A   1      41.583  18.606  25.957  1.00  0.00    -0.269 OA
BRANCH  25  28
ATOM     28  C   UNL A   1      41.221  20.848  26.545  1.00  0.00     0.039 A 
ATOM     29  C   UNL A   1      41.220  21.064  27.929  1.00  0.00     0.014 A 
ATOM     30  C   UNL A   1      41.564  21.901  25.694  1.00  0.00     0.014 A 
ATOM     31  C   UNL A   1      41.598  22.307  28.451  1.00  0.00     0.010 A 
ATOM     32  C   UNL A   1      42.030  23.110  26.218  1.00  0.00     0.010 A 
ATOM     33  C   UNL A   1      42.032  23.336  27.602  1.00  0.00    -0.014 A 
BRANCH  33  34
ATOM     34  C   UNL A   1      42.450  24.659  28.143  1.00  0.00     0.031 A 
ATOM     35  C   UNL A   1      41.431  25.752  28.354  1.00  0.00     0.074 A 
ATOM     36  C   UNL A   1      43.749  24.899  28.414  1.00  0.00     0.049 A 
ATOM     37  N   UNL A   1      41.609  26.985  28.756  1.00  0.00    -0.248 NA
ATOM     38  C   UNL A   1      40.029  25.419  28.051  1.00  0.00     0.031 C 
ATOM     39  C   UNL A   1      44.844  23.946  28.225  1.00  0.00     0.029 A 
ATOM     40  N   UNL A   1      44.371  26.024  28.901  1.00  0.00    -0.354 N 
ATOM     41  C   UNL A   1      40.350  27.575  28.741  1.00  0.00     0.074 A 
ATOM     42  C   UNL A   1      39.425  26.584  28.238  1.00  0.00     0.031 C 
ATOM     43  C   UNL A   1      45.997  24.516  28.614  1.00  0.00     0.029 A 
ATOM     44  C   UNL A   1      45.731  25.886  29.042  1.00  0.00     0.049 A 
ATOM     45  H   UNL A   1      43.887  26.850  29.129  1.00  0.00     0.167 HD
ATOM     46  C   UNL A   1      39.990  28.821  29.135  1.00  0.00     0.037 A 
ATOM     47  C   UNL A   1      46.663  26.765  29.460  1.00  0.00     0.037 A 
ATOM     48  C   UNL A   1      40.901  29.800  29.666  1.00  0.00     0.049 A 
ATOM     49  C   UNL A   1      46.237  28.147  29.878  1.00  0.00     0.074 A 
ATOM     50  C   UNL A   1      40.622  31.073  30.137  1.00  0.00     0.029 A 
ATOM     51  N   UNL A   1      42.268  29.614  29.803  1.00  0.00    -0.354 N 
ATOM     52  N   UNL A   1      45.034  28.669  29.908  1.00  0.00    -0.248 NA
ATOM     53  C   UNL A   1      47.298  29.061  30.325  1.00  0.00     0.031 C 
ATOM     54  C   UNL A   1      41.825  31.672  30.520  1.00  0.00     0.029 A 
ATOM     55  C   UNL A   1      42.848  30.756  30.333  1.00  0.00     0.049 A 
ATOM     56  H   UNL A   1      42.754  28.794  29.559  1.00  0.00     0.167 HD
ATOM     57  C   UNL A   1      45.191  29.957  30.405  1.00  0.00     0.074 A 
ATOM     58  C   UNL A   1      46.602  30.131  30.679  1.00  0.00     0.031 C 
ATOM     59  C   UNL A   1      44.251  30.910  30.615  1.00  0.00     0.037 A 
BRANCH  46  60
ATOM     60  C   UNL A   1      38.540  29.196  29.022  1.00  0.00     0.057 A 
ATOM     61  C   UNL A   1      37.681  29.153  30.127  1.00  0.00     0.134 A 
ATOM     62  C   UNL A   1      38.010  29.655  27.810  1.00  0.00     0.134 A 
ATOM     63  F   UNL A   1      38.121  28.712  31.316  1.00  0.00    -0.206 F 
ATOM     64  C   UNL A   1      36.341  29.535  30.027  1.00  0.00     0.040 A 
ATOM     65  C   UNL A   1      36.679  30.065  27.703  1.00  0.00     0.040 A 
ATOM     66  F   UNL A   1      38.779  29.729  26.713  1.00  0.00    -0.206 F 
ATOM     67  C   UNL A   1      35.840  30.000  28.813  1.00  0.00     0.006 A 
ENDBRANCH  46  60
BRANCH  47  68
ATOM     68  C   UNL A   1      48.094  26.372  29.520  1.00  0.00     0.057 A 
ATOM     69  C   UNL A   1      48.939  26.546  28.416  1.00  0.00     0.134 A 
ATOM     70  C   UNL A   1      48.643  25.781  30.664  1.00  0.00     0.134 A 
ATOM     71  F   UNL A   1      48.466  27.087  27.284  1.00  0.00    -0.206 F 
ATOM     72  C   UNL A   1      50.268  26.121  28.439  1.00  0.00     0.040 A 
ATOM     73  C   UNL A   1      49.979  25.378  30.710  1.00  0.00     0.040 A 
ATOM     74  F   UNL A   1      47.890  25.592  31.758  1.00  0.00    -0.206 F 
ATOM     75  C   UNL A   1      50.792  25.538  29.590  1.00  0.00     0.006 A 
ENDBRANCH  47  68
BRANCH  59  76
ATOM     76  C   UNL A   1      44.710  32.210  31.207  1.00  0.00     0.057 A 
ATOM     77  C   UNL A   1      45.096  33.293  30.407  1.00  0.00     0.134 A 
ATOM     78  C   UNL A   1      44.730  32.392  32.596  1.00  0.00     0.134 A 
ATOM     79  F   UNL A   1      45.113  33.180  29.071  1.00  0.00    -0.206 F 
ATOM     80  C   UNL A   1      45.509  34.502  30.968  1.00  0.00     0.040 A 
ATOM     81  C   UNL A   1      45.114  33.605  33.168  1.00  0.00     0.040 A 
ATOM     82  F   UNL A   1      44.363  31.398  33.419  1.00  0.00    -0.206 F 
ATOM     83  C   UNL A   1      45.512  34.663  32.353  1.00  0.00     0.006 A 
ENDBRANCH  59  76
ENDBRANCH  33  34
ENDBRANCH  25  28
ENDBRANCH  23  24
ENDBRANCH  22  23
ENDBRANCH   1  22
TORSDOF 15
ENDMDL
