MODEL 1
REMARK VINA RESULT:     -12.2      0.000      0.000
REMARK SMILES CCCc1cc2c(cc1Cl)C=C(C(=O)NCCCNC(=O)c1ccc(-c3c4nc(c(-c5c(F)cccc5F)c5ccc([nH]5)c(-c5c(F)cccc5F)c5nc(c(-c6c(F)cccc6F)c6ccc3[nH]6)C=C5)C=C4)cc1)[C@@H](C(F)(F)F)O2
REMARK SMILES IDX 17 1 16 2 15 3 13 4 14 5 12 7 4 8 5 9 9 10 6 11 8 12 10 13
REMARK SMILES IDX 7 14 81 15 11 16 76 17 3 18 2 19 1 20 77 21 78 22 79 23
REMARK SMILES IDX 80 24 18 25 19 26 20 27 21 29 22 30 23 31 75 32 24 33 74 34
REMARK SMILES IDX 25 35 26 36 27 37 68 38 28 39 73 40 67 41 69 42 29 43 72 44
REMARK SMILES IDX 66 45 65 46 30 48 56 49 39 50 55 51 40 52 43 53 54 54 70 55
REMARK SMILES IDX 41 56 42 57 53 59 71 60 44 61 31 62 32 63 37 64 33 65 34 66
REMARK SMILES IDX 36 67 38 68 35 69 57 70 58 71 63 72 59 73 60 74 62 75 64 76
REMARK SMILES IDX 61 77 45 78 46 79 51 80 47 81 48 82 50 83 52 84 49 85
REMARK H PARENT 15 6 19 28 69 47 43 58
REMARK Flexibility Score: inf
ROOT
ATOM      1  C   UNL A   1      37.956  19.640  24.973  1.00  0.00     0.042 C 
ENDROOT
BRANCH   1   2
ATOM      2  C   UNL A   1      36.947  20.747  24.721  1.00  0.00     0.118 C 
BRANCH   2   3
ATOM      3  N   UNL A   1      35.889  20.758  25.718  1.00  0.00    -0.352 N 
ATOM      4  C   UNL A   1      34.787  21.494  25.983  1.00  0.00     0.251 C 
ATOM      5  O   UNL A   1      34.152  21.144  26.984  1.00  0.00    -0.270 OA
ATOM      6  H   UNL A   1      36.007  20.036  26.376  1.00  0.00     0.163 HD
BRANCH   4   7
ATOM      7  C   UNL A   1      34.319  22.663  25.180  1.00  0.00     0.067 C 
ATOM      8  C   UNL A   1      33.224  27.385  23.710  1.00  0.00    -0.026 A 
ATOM      9  C   UNL A   1      33.202  26.123  23.090  1.00  0.00     0.052 A 
ATOM     10  C   UNL A   1      33.648  27.455  25.046  1.00  0.00     0.045 A 
ATOM     11  C   UNL A   1      33.587  24.974  23.782  1.00  0.00     0.128 A 
ATOM     12  C   UNL A   1      33.983  26.292  25.752  1.00  0.00     0.032 A 
ATOM     13  Cl  UNL A   1      33.861  28.955  25.874  1.00  0.00    -0.084 Cl
ATOM     14  C   UNL A   1      33.957  25.048  25.119  1.00  0.00     0.019 A 
ATOM     15  O   UNL A   1      33.630  23.823  23.056  1.00  0.00    -0.475 OA
ATOM     16  C   UNL A   1      34.368  23.844  25.820  1.00  0.00     0.025 C 
ATOM     17  C   UNL A   1      33.814  22.570  23.766  1.00  0.00     0.314 C 
BRANCH   8  18
ATOM     18  C   UNL A   1      32.819  28.589  22.888  1.00  0.00     0.037 C 
BRANCH  18  19
ATOM     19  C   UNL A   1      31.306  28.772  22.721  1.00  0.00     0.001 C 
ATOM     20  C   UNL A   1      30.628  29.443  23.905  1.00  0.00     0.004 C 
ENDBRANCH  18  19
ENDBRANCH   8  18
BRANCH  17  21
ATOM     21  C   UNL A   1      32.503  21.772  23.631  1.00  0.00     0.429 C 
ATOM     22  F   UNL A   1      32.776  20.448  23.507  1.00  0.00    -0.167 F 
ATOM     23  F   UNL A   1      31.691  21.892  24.705  1.00  0.00    -0.167 F 
ATOM     24  F   UNL A   1      31.782  22.142  22.549  1.00  0.00    -0.167 F 
ENDBRANCH  17  21
ENDBRANCH   4   7
ENDBRANCH   2   3
ENDBRANCH   1   2
BRANCH   1  25
ATOM     25  C   UNL A   1      39.153  20.118  25.781  1.00  0.00     0.118 C 
BRANCH  25  26
ATOM     26  N   UNL A   1      40.179  19.086  25.917  1.00  0.00    -0.352 N 
ATOM     27  C   UNL A   1      41.540  19.191  26.076  1.00  0.00     0.251 C 
ATOM     28  H   UNL A   1      39.838  18.162  25.889  1.00  0.00     0.163 HD
ATOM     29  O   UNL A   1      42.251  18.202  25.924  1.00  0.00    -0.269 OA
BRANCH  27  30
ATOM     30  C   UNL A   1      42.146  20.493  26.415  1.00  0.00     0.039 A 
ATOM     31  C   UNL A   1      42.306  20.862  27.749  1.00  0.00     0.014 A 
ATOM     32  C   UNL A   1      42.561  21.355  25.396  1.00  0.00     0.014 A 
ATOM     33  C   UNL A   1      42.666  22.163  28.061  1.00  0.00     0.010 A 
ATOM     34  C   UNL A   1      43.051  22.625  25.719  1.00  0.00     0.010 A 
ATOM     35  C   UNL A   1      43.056  23.059  27.054  1.00  0.00    -0.014 A 
BRANCH  35  36
ATOM     36  C   UNL A   1      43.465  24.433  27.441  1.00  0.00     0.031 A 
ATOM     37  C   UNL A   1      44.899  24.877  27.318  1.00  0.00     0.074 A 
ATOM     38  C   UNL A   1      42.516  25.310  27.825  1.00  0.00     0.049 A 
ATOM     39  N   UNL A   1      45.426  26.045  27.591  1.00  0.00    -0.248 NA
ATOM     40  C   UNL A   1      45.869  23.884  26.831  1.00  0.00     0.031 C 
ATOM     41  C   UNL A   1      41.090  24.999  27.971  1.00  0.00     0.029 A 
ATOM     42  N   UNL A   1      42.594  26.644  28.125  1.00  0.00    -0.354 N 
ATOM     43  C   UNL A   1      46.783  25.923  27.321  1.00  0.00     0.074 A 
ATOM     44  C   UNL A   1      47.008  24.558  26.899  1.00  0.00     0.031 C 
ATOM     45  C   UNL A   1      40.422  26.121  28.272  1.00  0.00     0.029 A 
ATOM     46  C   UNL A   1      41.378  27.211  28.421  1.00  0.00     0.049 A 
ATOM     47  H   UNL A   1      43.439  27.148  28.131  1.00  0.00     0.167 HD
ATOM     48  C   UNL A   1      47.751  26.869  27.400  1.00  0.00     0.037 A 
ATOM     49  C   UNL A   1      41.066  28.464  28.796  1.00  0.00     0.037 A 
ATOM     50  C   UNL A   1      47.521  28.230  27.813  1.00  0.00     0.049 A 
ATOM     51  C   UNL A   1      42.169  29.472  28.931  1.00  0.00     0.074 A 
ATOM     52  C   UNL A   1      48.436  29.261  27.943  1.00  0.00     0.029 A 
ATOM     53  N   UNL A   1      46.282  28.751  28.156  1.00  0.00    -0.354 N 
ATOM     54  N   UNL A   1      43.449  29.337  28.683  1.00  0.00    -0.248 NA
ATOM     55  C   UNL A   1      41.784  30.807  29.408  1.00  0.00     0.031 C 
ATOM     56  C   UNL A   1      47.756  30.396  28.398  1.00  0.00     0.029 A 
ATOM     57  C   UNL A   1      46.411  30.085  28.510  1.00  0.00     0.049 A 
ATOM     58  H   UNL A   1      45.436  28.248  28.151  1.00  0.00     0.167 HD
ATOM     59  C   UNL A   1      44.021  30.569  28.965  1.00  0.00     0.074 A 
ATOM     60  C   UNL A   1      42.942  31.448  29.368  1.00  0.00     0.031 C 
ATOM     61  C   UNL A   1      45.324  30.939  28.909  1.00  0.00     0.037 A 
BRANCH  48  62
ATOM     62  C   UNL A   1      49.152  26.460  27.042  1.00  0.00     0.057 A 
ATOM     63  C   UNL A   1      50.028  25.971  28.019  1.00  0.00     0.134 A 
ATOM     64  C   UNL A   1      49.644  26.584  25.737  1.00  0.00     0.134 A 
ATOM     65  F   UNL A   1      49.624  25.830  29.290  1.00  0.00    -0.206 F 
ATOM     66  C   UNL A   1      51.345  25.624  27.711  1.00  0.00     0.040 A 
ATOM     67  C   UNL A   1      50.953  26.218  25.411  1.00  0.00     0.040 A 
ATOM     68  F   UNL A   1      48.852  27.031  24.750  1.00  0.00    -0.206 F 
ATOM     69  C   UNL A   1      51.809  25.742  26.402  1.00  0.00     0.006 A 
ENDBRANCH  48  62
BRANCH  49  70
ATOM     70  C   UNL A   1      39.662  28.825  29.116  1.00  0.00     0.057 A 
ATOM     71  C   UNL A   1      38.788  29.287  28.124  1.00  0.00     0.134 A 
ATOM     72  C   UNL A   1      39.150  28.684  30.410  1.00  0.00     0.134 A 
ATOM     73  F   UNL A   1      39.219  29.450  26.864  1.00  0.00    -0.206 F 
ATOM     74  C   UNL A   1      37.459  29.599  28.405  1.00  0.00     0.040 A 
ATOM     75  C   UNL A   1      37.813  28.961  30.700  1.00  0.00     0.040 A 
ATOM     76  F   UNL A   1      39.932  28.230  31.401  1.00  0.00    -0.206 F 
ATOM     77  C   UNL A   1      36.964  29.424  29.695  1.00  0.00     0.006 A 
ENDBRANCH  49  70
BRANCH  61  78
ATOM     78  C   UNL A   1      45.632  32.362  29.270  1.00  0.00     0.057 A 
ATOM     79  C   UNL A   1      45.988  32.706  30.579  1.00  0.00     0.134 A 
ATOM     80  C   UNL A   1      45.587  33.391  28.319  1.00  0.00     0.134 A 
ATOM     81  F   UNL A   1      46.045  31.769  31.538  1.00  0.00    -0.206 F 
ATOM     82  C   UNL A   1      46.297  34.021  30.929  1.00  0.00     0.040 A 
ATOM     83  C   UNL A   1      45.920  34.704  28.651  1.00  0.00     0.040 A 
ATOM     84  F   UNL A   1      45.270  33.123  27.042  1.00  0.00    -0.206 F 
ATOM     85  C   UNL A   1      46.273  35.022  29.961  1.00  0.00     0.006 A 
ENDBRANCH  61  78
ENDBRANCH  35  36
ENDBRANCH  27  30
ENDBRANCH  25  26
ENDBRANCH   1  25
TORSDOF 13
ENDMDL
MODEL 2
REMARK VINA RESULT:     -12.1      5.085      9.944
REMARK SMILES CCCc1cc2c(cc1Cl)C=C(C(=O)NCCCNC(=O)c1ccc(-c3c4nc(c(-c5c(F)cccc5F)c5ccc([nH]5)c(-c5c(F)cccc5F)c5nc(c(-c6c(F)cccc6F)c6ccc3[nH]6)C=C5)C=C4)cc1)[C@@H](C(F)(F)F)O2
REMARK SMILES IDX 17 1 16 2 15 3 13 4 14 5 12 7 4 8 5 9 9 10 6 11 8 12 10 13
REMARK SMILES IDX 7 14 81 15 11 16 76 17 3 18 2 19 1 20 77 21 78 22 79 23
REMARK SMILES IDX 80 24 18 25 19 26 20 27 21 29 22 30 23 31 75 32 24 33 74 34
REMARK SMILES IDX 25 35 26 36 27 37 68 38 28 39 73 40 67 41 69 42 29 43 72 44
REMARK SMILES IDX 66 45 65 46 30 48 56 49 39 50 55 51 40 52 43 53 54 54 70 55
REMARK SMILES IDX 41 56 42 57 53 59 71 60 44 61 31 62 32 63 37 64 33 65 34 66
REMARK SMILES IDX 36 67 38 68 35 69 57 70 58 71 63 72 59 73 60 74 62 75 64 76
REMARK SMILES IDX 61 77 45 78 46 79 51 80 47 81 48 82 50 83 52 84 49 85
REMARK H PARENT 15 6 19 28 69 47 43 58
REMARK Flexibility Score: inf
ROOT
ATOM      1  C   UNL A   1      31.418  31.896  26.455  1.00  0.00     0.042 C 
ENDROOT
BRANCH   1   2
ATOM      2  C   UNL A   1      31.531  30.398  26.232  1.00  0.00     0.118 C 
BRANCH   2   3
ATOM      3  N   UNL A   1      32.073  30.082  24.920  1.00  0.00    -0.352 N 
ATOM      4  C   UNL A   1      32.494  28.978  24.263  1.00  0.00     0.251 C 
ATOM      5  O   UNL A   1      32.906  29.178  23.116  1.00  0.00    -0.270 OA
ATOM      6  H   UNL A   1      32.157  30.888  24.361  1.00  0.00     0.163 HD
BRANCH   4   7
ATOM      7  C   UNL A   1      32.499  27.594  24.822  1.00  0.00     0.067 C 
ATOM      8  C   UNL A   1      34.027  23.038  26.425  1.00  0.00    -0.026 A 
ATOM      9  C   UNL A   1      32.814  23.748  26.465  1.00  0.00     0.052 A 
ATOM     10  C   UNL A   1      35.136  23.663  25.833  1.00  0.00     0.045 A 
ATOM     11  C   UNL A   1      32.714  25.033  25.931  1.00  0.00     0.128 A 
ATOM     12  C   UNL A   1      35.016  24.931  25.250  1.00  0.00     0.032 A 
ATOM     13  Cl  UNL A   1      36.713  22.961  25.849  1.00  0.00    -0.084 Cl
ATOM     14  C   UNL A   1      33.804  25.622  25.302  1.00  0.00     0.019 A 
ATOM     15  O   UNL A   1      31.525  25.670  26.120  1.00  0.00    -0.475 OA
ATOM     16  C   UNL A   1      33.685  26.966  24.763  1.00  0.00     0.025 C 
ATOM     17  C   UNL A   1      31.291  26.912  25.405  1.00  0.00     0.314 C 
BRANCH   8  18
ATOM     18  C   UNL A   1      34.067  21.661  27.050  1.00  0.00     0.037 C 
BRANCH  18  19
ATOM     19  C   UNL A   1      33.454  20.549  26.191  1.00  0.00     0.001 C 
ATOM     20  C   UNL A   1      34.262  20.208  24.948  1.00  0.00     0.004 C 
ENDBRANCH  18  19
ENDBRANCH   8  18
BRANCH  17  21
ATOM     21  C   UNL A   1      30.177  26.644  24.376  1.00  0.00     0.429 C 
ATOM     22  F   UNL A   1      29.189  25.904  24.943  1.00  0.00    -0.167 F 
ATOM     23  F   UNL A   1      29.589  27.772  23.918  1.00  0.00    -0.167 F 
ATOM     24  F   UNL A   1      30.623  25.966  23.296  1.00  0.00    -0.167 F 
ENDBRANCH  17  21
ENDBRANCH   4   7
ENDBRANCH   2   3
ENDBRANCH   1   2
BRANCH   1  25
ATOM     25  C   UNL A   1      32.572  32.448  27.279  1.00  0.00     0.118 C 
BRANCH  25  26
ATOM     26  N   UNL A   1      32.411  33.871  27.575  1.00  0.00    -0.352 N 
ATOM     27  C   UNL A   1      33.059  34.676  28.481  1.00  0.00     0.251 C 
ATOM     28  H   UNL A   1      31.725  34.328  27.036  1.00  0.00     0.163 HD
ATOM     29  O   UNL A   1      32.606  35.786  28.745  1.00  0.00    -0.269 OA
BRANCH  27  30
ATOM     30  C   UNL A   1      34.288  34.201  29.146  1.00  0.00     0.039 A 
ATOM     31  C   UNL A   1      35.536  34.521  28.617  1.00  0.00     0.014 A 
ATOM     32  C   UNL A   1      34.197  33.431  30.309  1.00  0.00     0.014 A 
ATOM     33  C   UNL A   1      36.670  33.897  29.109  1.00  0.00     0.010 A 
ATOM     34  C   UNL A   1      35.360  32.907  30.884  1.00  0.00     0.010 A 
ATOM     35  C   UNL A   1      36.602  33.091  30.256  1.00  0.00    -0.014 A 
BRANCH  35  36
ATOM     36  C   UNL A   1      37.850  32.468  30.766  1.00  0.00     0.031 A 
ATOM     37  C   UNL A   1      38.511  32.975  32.020  1.00  0.00     0.074 A 
ATOM     38  C   UNL A   1      38.338  31.382  30.135  1.00  0.00     0.049 A 
ATOM     39  N   UNL A   1      39.591  32.536  32.618  1.00  0.00    -0.248 NA
ATOM     40  C   UNL A   1      37.884  34.125  32.692  1.00  0.00     0.031 C 
ATOM     41  C   UNL A   1      37.778  30.791  28.915  1.00  0.00     0.029 A 
ATOM     42  N   UNL A   1      39.389  30.560  30.445  1.00  0.00    -0.354 N 
ATOM     43  C   UNL A   1      39.778  33.359  33.721  1.00  0.00     0.074 A 
ATOM     44  C   UNL A   1      38.723  34.348  33.693  1.00  0.00     0.031 C 
ATOM     45  C   UNL A   1      38.450  29.670  28.618  1.00  0.00     0.029 A 
ATOM     46  C   UNL A   1      39.537  29.507  29.574  1.00  0.00     0.049 A 
ATOM     47  H   UNL A   1      39.982  30.708  31.217  1.00  0.00     0.167 HD
ATOM     48  C   UNL A   1      40.733  33.285  34.680  1.00  0.00     0.037 A 
ATOM     49  C   UNL A   1      40.462  28.532  29.531  1.00  0.00     0.037 A 
ATOM     50  C   UNL A   1      41.777  32.293  34.710  1.00  0.00     0.049 A 
ATOM     51  C   UNL A   1      41.539  28.513  30.575  1.00  0.00     0.074 A 
ATOM     52  C   UNL A   1      42.802  32.142  35.628  1.00  0.00     0.029 A 
ATOM     53  N   UNL A   1      41.925  31.276  33.778  1.00  0.00    -0.354 N 
ATOM     54  N   UNL A   1      41.708  29.306  31.605  1.00  0.00    -0.248 NA
ATOM     55  C   UNL A   1      42.562  27.467  30.444  1.00  0.00     0.031 C 
ATOM     56  C   UNL A   1      43.589  31.055  35.233  1.00  0.00     0.029 A 
ATOM     57  C   UNL A   1      43.030  30.502  34.092  1.00  0.00     0.049 A 
ATOM     58  H   UNL A   1      41.332  31.127  33.005  1.00  0.00     0.167 HD
ATOM     59  C   UNL A   1      42.849  28.851  32.250  1.00  0.00     0.074 A 
ATOM     60  C   UNL A   1      43.310  27.691  31.514  1.00  0.00     0.031 C 
ATOM     61  C   UNL A   1      43.470  29.353  33.345  1.00  0.00     0.037 A 
BRANCH  48  62
ATOM     62  C   UNL A   1      40.697  34.314  35.775  1.00  0.00     0.057 A 
ATOM     63  C   UNL A   1      39.960  34.091  36.945  1.00  0.00     0.134 A 
ATOM     64  C   UNL A   1      41.363  35.540  35.656  1.00  0.00     0.134 A 
ATOM     65  F   UNL A   1      39.294  32.941  37.123  1.00  0.00    -0.206 F 
ATOM     66  C   UNL A   1      39.883  35.053  37.955  1.00  0.00     0.040 A 
ATOM     67  C   UNL A   1      41.314  36.501  36.670  1.00  0.00     0.040 A 
ATOM     68  F   UNL A   1      42.101  35.811  34.568  1.00  0.00    -0.206 F 
ATOM     69  C   UNL A   1      40.567  36.260  37.820  1.00  0.00     0.006 A 
ENDBRANCH  48  62
BRANCH  49  70
ATOM     70  C   UNL A   1      40.439  27.524  28.442  1.00  0.00     0.057 A 
ATOM     71  C   UNL A   1      39.689  26.347  28.559  1.00  0.00     0.134 A 
ATOM     72  C   UNL A   1      41.138  27.726  27.247  1.00  0.00     0.134 A 
ATOM     73  F   UNL A   1      39.002  26.090  29.682  1.00  0.00    -0.206 F 
ATOM     74  C   UNL A   1      39.635  25.407  27.530  1.00  0.00     0.040 A 
ATOM     75  C   UNL A   1      41.067  26.811  26.196  1.00  0.00     0.040 A 
ATOM     76  F   UNL A   1      41.861  28.842  27.068  1.00  0.00    -0.206 F 
ATOM     77  C   UNL A   1      40.316  25.645  26.338  1.00  0.00     0.006 A 
ENDBRANCH  49  70
BRANCH  61  78
ATOM     78  C   UNL A   1      44.695  28.626  33.814  1.00  0.00     0.057 A 
ATOM     79  C   UNL A   1      44.590  27.553  34.707  1.00  0.00     0.134 A 
ATOM     80  C   UNL A   1      45.977  28.979  33.371  1.00  0.00     0.134 A 
ATOM     81  F   UNL A   1      43.393  27.168  35.172  1.00  0.00    -0.206 F 
ATOM     82  C   UNL A   1      45.717  26.853  35.139  1.00  0.00     0.040 A 
ATOM     83  C   UNL A   1      47.108  28.269  33.774  1.00  0.00     0.040 A 
ATOM     84  F   UNL A   1      46.142  29.986  32.499  1.00  0.00    -0.206 F 
ATOM     85  C   UNL A   1      46.979  27.203  34.664  1.00  0.00     0.006 A 
ENDBRANCH  61  78
ENDBRANCH  35  36
ENDBRANCH  27  30
ENDBRANCH  25  26
ENDBRANCH   1  25
TORSDOF 13
ENDMDL
MODEL 3
REMARK VINA RESULT:     -12.0      4.337      9.472
REMARK SMILES CCCc1cc2c(cc1Cl)C=C(C(=O)NCCCNC(=O)c1ccc(-c3c4nc(c(-c5c(F)cccc5F)c5ccc([nH]5)c(-c5c(F)cccc5F)c5nc(c(-c6c(F)cccc6F)c6ccc3[nH]6)C=C5)C=C4)cc1)[C@@H](C(F)(F)F)O2
REMARK SMILES IDX 17 1 16 2 15 3 13 4 14 5 12 7 4 8 5 9 9 10 6 11 8 12 10 13
REMARK SMILES IDX 7 14 81 15 11 16 76 17 3 18 2 19 1 20 77 21 78 22 79 23
REMARK SMILES IDX 80 24 18 25 19 26 20 27 21 29 22 30 23 31 75 32 24 33 74 34
REMARK SMILES IDX 25 35 26 36 27 37 68 38 28 39 73 40 67 41 69 42 29 43 72 44
REMARK SMILES IDX 66 45 65 46 30 48 56 49 39 50 55 51 40 52 43 53 54 54 70 55
REMARK SMILES IDX 41 56 42 57 53 59 71 60 44 61 31 62 32 63 37 64 33 65 34 66
REMARK SMILES IDX 36 67 38 68 35 69 57 70 58 71 63 72 59 73 60 74 62 75 64 76
REMARK SMILES IDX 61 77 45 78 46 79 51 80 47 81 48 82 50 83 52 84 49 85
REMARK H PARENT 15 6 19 28 69 47 43 58
REMARK Flexibility Score: inf
ROOT
ATOM      1  C   UNL A   1      44.608  20.561  24.733  1.00  0.00     0.042 C 
ENDROOT
BRANCH   1   2
ATOM      2  C   UNL A   1      45.270  21.754  25.400  1.00  0.00     0.118 C 
BRANCH   2   3
ATOM      3  N   UNL A   1      46.229  22.406  24.523  1.00  0.00    -0.352 N 
ATOM      4  C   UNL A   1      46.715  23.654  24.341  1.00  0.00     0.251 C 
ATOM      5  O   UNL A   1      47.546  23.765  23.433  1.00  0.00    -0.270 OA
ATOM      6  H   UNL A   1      46.633  21.767  23.892  1.00  0.00     0.163 HD
BRANCH   4   7
ATOM      7  C   UNL A   1      46.314  24.856  25.131  1.00  0.00     0.067 C 
ATOM      8  C   UNL A   1      43.621  28.680  27.075  1.00  0.00    -0.026 A 
ATOM      9  C   UNL A   1      44.894  28.137  27.323  1.00  0.00     0.052 A 
ATOM     10  C   UNL A   1      42.831  28.080  26.081  1.00  0.00     0.045 A 
ATOM     11  C   UNL A   1      45.360  27.037  26.603  1.00  0.00     0.128 A 
ATOM     12  C   UNL A   1      43.325  27.009  25.325  1.00  0.00     0.032 A 
ATOM     13  Cl  UNL A   1      41.199  28.556  25.781  1.00  0.00    -0.084 Cl
ATOM     14  C   UNL A   1      44.591  26.482  25.587  1.00  0.00     0.019 A 
ATOM     15  O   UNL A   1      46.559  26.527  26.997  1.00  0.00    -0.475 OA
ATOM     16  C   UNL A   1      45.086  25.328  24.856  1.00  0.00     0.025 C 
ATOM     17  C   UNL A   1      47.190  25.526  26.154  1.00  0.00     0.314 C 
BRANCH   8  18
ATOM     18  C   UNL A   1      43.172  29.855  27.915  1.00  0.00     0.037 C 
BRANCH  18  19
ATOM     19  C   UNL A   1      44.202  30.984  28.041  1.00  0.00     0.001 C 
ATOM     20  C   UNL A   1      44.402  31.787  26.764  1.00  0.00     0.004 C 
ENDBRANCH  18  19
ENDBRANCH   8  18
BRANCH  17  21
ATOM     21  C   UNL A   1      48.458  26.165  25.558  1.00  0.00     0.429 C 
ATOM     22  F   UNL A   1      48.865  27.202  26.335  1.00  0.00    -0.167 F 
ATOM     23  F   UNL A   1      49.505  25.312  25.488  1.00  0.00    -0.167 F 
ATOM     24  F   UNL A   1      48.258  26.647  24.311  1.00  0.00    -0.167 F 
ENDBRANCH  17  21
ENDBRANCH   4   7
ENDBRANCH   2   3
ENDBRANCH   1   2
BRANCH   1  25
ATOM     25  C   UNL A   1      44.004  19.594  25.740  1.00  0.00     0.118 C 
BRANCH  25  26
ATOM     26  N   UNL A   1      42.599  19.305  25.459  1.00  0.00    -0.352 N 
ATOM     27  C   UNL A   1      41.452  19.919  25.902  1.00  0.00     0.251 C 
ATOM     28  H   UNL A   1      42.449  18.544  24.852  1.00  0.00     0.163 HD
ATOM     29  O   UNL A   1      40.365  19.371  25.745  1.00  0.00    -0.269 OA
BRANCH  27  30
ATOM     30  C   UNL A   1      41.529  21.228  26.579  1.00  0.00     0.039 A 
ATOM     31  C   UNL A   1      41.740  22.387  25.835  1.00  0.00     0.014 A 
ATOM     32  C   UNL A   1      41.388  21.304  27.968  1.00  0.00     0.014 A 
ATOM     33  C   UNL A   1      42.031  23.575  26.485  1.00  0.00     0.010 A 
ATOM     34  C   UNL A   1      41.551  22.534  28.614  1.00  0.00     0.010 A 
ATOM     35  C   UNL A   1      41.929  23.670  27.882  1.00  0.00    -0.014 A 
BRANCH  35  36
ATOM     36  C   UNL A   1      42.219  24.974  28.531  1.00  0.00     0.031 A 
ATOM     37  C   UNL A   1      41.152  26.028  28.662  1.00  0.00     0.074 A 
ATOM     38  C   UNL A   1      43.434  25.169  29.082  1.00  0.00     0.049 A 
ATOM     39  N   UNL A   1      41.227  27.212  29.217  1.00  0.00    -0.248 NA
ATOM     40  C   UNL A   1      39.831  25.719  28.092  1.00  0.00     0.031 C 
ATOM     41  C   UNL A   1      44.547  24.216  29.030  1.00  0.00     0.029 A 
ATOM     42  N   UNL A   1      43.927  26.210  29.823  1.00  0.00    -0.354 N 
ATOM     43  C   UNL A   1      39.974  27.789  29.055  1.00  0.00     0.074 A 
ATOM     44  C   UNL A   1      39.167  26.844  28.315  1.00  0.00     0.031 C 
ATOM     45  C   UNL A   1      45.568  24.688  29.760  1.00  0.00     0.029 A 
ATOM     46  C   UNL A   1      45.214  26.009  30.262  1.00  0.00     0.049 A 
ATOM     47  H   UNL A   1      43.412  27.024  30.021  1.00  0.00     0.167 HD
ATOM     48  C   UNL A   1      39.531  28.991  29.497  1.00  0.00     0.037 A 
ATOM     49  C   UNL A   1      46.032  26.809  30.968  1.00  0.00     0.037 A 
ATOM     50  C   UNL A   1      40.336  29.927  30.241  1.00  0.00     0.049 A 
ATOM     51  C   UNL A   1      45.530  28.159  31.393  1.00  0.00     0.074 A 
ATOM     52  C   UNL A   1      39.987  31.178  30.720  1.00  0.00     0.029 A 
ATOM     53  N   UNL A   1      41.653  29.709  30.618  1.00  0.00    -0.354 N 
ATOM     54  N   UNL A   1      44.346  28.694  31.220  1.00  0.00    -0.248 NA
ATOM     55  C   UNL A   1      46.484  29.020  32.103  1.00  0.00     0.031 C 
ATOM     56  C   UNL A   1      41.104  31.730  31.358  1.00  0.00     0.029 A 
ATOM     57  C   UNL A   1      42.135  30.806  31.314  1.00  0.00     0.049 A 
ATOM     58  H   UNL A   1      42.170  28.894  30.420  1.00  0.00     0.167 HD
ATOM     59  C   UNL A   1      44.409  29.949  31.807  1.00  0.00     0.074 A 
ATOM     60  C   UNL A   1      45.738  30.080  32.371  1.00  0.00     0.031 C 
ATOM     61  C   UNL A   1      43.460  30.914  31.865  1.00  0.00     0.037 A 
BRANCH  48  62
ATOM     62  C   UNL A   1      38.112  29.368  29.180  1.00  0.00     0.057 A 
ATOM     63  C   UNL A   1      37.756  29.812  27.899  1.00  0.00     0.134 A 
ATOM     64  C   UNL A   1      37.103  29.326  30.151  1.00  0.00     0.134 A 
ATOM     65  F   UNL A   1      38.673  29.881  26.923  1.00  0.00    -0.206 F 
ATOM     66  C   UNL A   1      36.450  30.203  27.598  1.00  0.00     0.040 A 
ATOM     67  C   UNL A   1      35.788  29.693  29.856  1.00  0.00     0.040 A 
ATOM     68  F   UNL A   1      37.373  28.895  31.393  1.00  0.00    -0.206 F 
ATOM     69  C   UNL A   1      35.461  30.139  28.577  1.00  0.00     0.006 A 
ENDBRANCH  48  62
BRANCH  49  70
ATOM     70  C   UNL A   1      47.418  26.381  31.277  1.00  0.00     0.057 A 
ATOM     71  C   UNL A   1      47.714  25.672  32.448  1.00  0.00     0.134 A 
ATOM     72  C   UNL A   1      48.475  26.638  30.396  1.00  0.00     0.134 A 
ATOM     73  F   UNL A   1      46.747  25.399  33.337  1.00  0.00    -0.206 F 
ATOM     74  C   UNL A   1      49.008  25.237  32.735  1.00  0.00     0.040 A 
ATOM     75  C   UNL A   1      49.768  26.181  30.654  1.00  0.00     0.040 A 
ATOM     76  F   UNL A   1      48.253  27.298  29.250  1.00  0.00    -0.206 F 
ATOM     77  C   UNL A   1      50.037  25.480  31.829  1.00  0.00     0.006 A 
ENDBRANCH  49  70
BRANCH  61  78
ATOM     78  C   UNL A   1      43.830  32.177  32.586  1.00  0.00     0.057 A 
ATOM     79  C   UNL A   1      43.624  32.298  33.965  1.00  0.00     0.134 A 
ATOM     80  C   UNL A   1      44.402  33.267  31.916  1.00  0.00     0.134 A 
ATOM     81  F   UNL A   1      43.076  31.293  34.663  1.00  0.00    -0.206 F 
ATOM     82  C   UNL A   1      43.979  33.457  34.655  1.00  0.00     0.040 A 
ATOM     83  C   UNL A   1      44.787  34.420  32.600  1.00  0.00     0.040 A 
ATOM     84  F   UNL A   1      44.643  33.205  30.598  1.00  0.00    -0.206 F 
ATOM     85  C   UNL A   1      44.573  34.518  33.974  1.00  0.00     0.006 A 
ENDBRANCH  61  78
ENDBRANCH  35  36
ENDBRANCH  27  30
ENDBRANCH  25  26
ENDBRANCH   1  25
TORSDOF 13
ENDMDL
