MODEL 1
REMARK VINA RESULT:     -11.7      0.000      0.000
REMARK SMILES COC(=O)[C@H]1Sc2nnc(CCC(=O)NCCCNC(=O)c3ccc(-c4c5nc(c(-c6c(F)cccc6F)c6ccc([nH]6)c(-c6c(F)cccc6F)c6nc(c(-c7c(F)cccc7F)c7ccc4[nH]7)C=C6)C=C5)cc3)c(=O)n2N=C1C
REMARK SMILES IDX 16 1 15 2 13 3 14 4 12 6 11 7 10 8 5 9 6 10 80 11 7 12 79 13
REMARK SMILES IDX 81 14 8 15 78 16 9 17 76 18 77 19 3 20 4 21 2 22 1 23 17 24
REMARK SMILES IDX 18 25 19 26 20 27 21 29 22 30 23 31 75 32 24 33 74 34 25 35
REMARK SMILES IDX 26 36 27 37 68 38 28 39 73 40 67 41 69 42 29 43 72 44 66 45
REMARK SMILES IDX 65 46 30 48 56 49 39 50 55 51 40 52 43 53 54 54 70 55 41 56
REMARK SMILES IDX 42 57 53 59 71 60 44 61 31 62 32 63 37 64 33 65 34 66 36 67
REMARK SMILES IDX 38 68 35 69 57 70 58 71 63 72 59 73 60 74 62 75 64 76 61 77
REMARK SMILES IDX 45 78 46 79 51 80 47 81 48 82 50 83 52 84 49 85
REMARK H PARENT 15 5 19 28 69 47 43 58
REMARK Flexibility Score: inf
ROOT
ATOM      1  C   UNL A   1      31.439  30.522  25.675  1.00  0.00     0.117 C 
ENDROOT
BRANCH   1   2
ATOM      2  N   UNL A   1      32.596  29.873  25.067  1.00  0.00    -0.356 N 
ATOM      3  C   UNL A   1      32.730  28.775  24.264  1.00  0.00     0.220 C 
ATOM      4  O   UNL A   1      33.876  28.461  23.932  1.00  0.00    -0.275 OA
ATOM      5  H   UNL A   1      33.451  30.315  25.275  1.00  0.00     0.163 HD
BRANCH   3   6
ATOM      6  C   UNL A   1      31.539  27.977  23.738  1.00  0.00     0.106 C 
BRANCH   6   7
ATOM      7  C   UNL A   1      31.792  27.323  22.374  1.00  0.00     0.074 C 
BRANCH   7   8
ATOM      8  C   UNL A   1      31.684  25.821  22.470  1.00  0.00     0.131 A 
ATOM      9  C   UNL A   1      33.990  21.795  24.239  1.00  0.00     0.210 C 
ATOM     10  S   UNL A   1      32.341  21.549  23.423  1.00  0.00    -0.063 SA
ATOM     11  C   UNL A   1      34.752  22.865  23.448  1.00  0.00     0.061 C 
ATOM     12  C   UNL A   1      32.017  23.240  23.091  1.00  0.00     0.214 A 
ATOM     13  N   UNL A   1      34.304  23.623  22.508  1.00  0.00    -0.171 NA
ATOM     14  C   UNL A   1      36.200  23.200  23.610  1.00  0.00     0.065 C 
ATOM     15  N   UNL A   1      30.902  23.815  23.410  1.00  0.00    -0.123 NA
ATOM     16  N   UNL A   1      33.004  23.875  22.403  1.00  0.00    -0.169 N 
ATOM     17  N   UNL A   1      30.808  25.230  23.228  1.00  0.00    -0.147 NA
ATOM     18  C   UNL A   1      32.743  25.051  21.752  1.00  0.00     0.296 A 
ATOM     19  O   UNL A   1      33.334  25.533  20.809  1.00  0.00    -0.265 OA
BRANCH   9  20
ATOM     20  C   UNL A   1      33.640  21.916  25.731  1.00  0.00     0.325 C 
ATOM     21  O   UNL A   1      33.656  21.003  26.546  1.00  0.00    -0.250 OA
BRANCH  20  22
ATOM     22  O   UNL A   1      33.482  23.222  26.108  1.00  0.00    -0.468 OA
ATOM     23  C   UNL A   1      32.272  23.545  26.823  1.00  0.00     0.282 C 
ENDBRANCH  20  22
ENDBRANCH   9  20
ENDBRANCH   7   8
ENDBRANCH   6   7
ENDBRANCH   3   6
ENDBRANCH   1   2
BRANCH   1  24
ATOM     24  C   UNL A   1      31.809  31.458  26.845  1.00  0.00     0.042 C 
BRANCH  24  25
ATOM     25  C   UNL A   1      31.818  33.022  26.738  1.00  0.00     0.118 C 
BRANCH  25  26
ATOM     26  N   UNL A   1      32.749  33.687  27.759  1.00  0.00    -0.352 N 
ATOM     27  C   UNL A   1      34.105  34.077  27.738  1.00  0.00     0.251 C 
ATOM     28  H   UNL A   1      32.304  33.885  28.615  1.00  0.00     0.163 HD
ATOM     29  O   UNL A   1      34.352  35.274  27.576  1.00  0.00    -0.269 OA
BRANCH  27  30
ATOM     30  C   UNL A   1      35.222  33.237  28.363  1.00  0.00     0.039 A 
ATOM     31  C   UNL A   1      34.973  31.928  28.823  1.00  0.00     0.014 A 
ATOM     32  C   UNL A   1      36.501  33.717  28.613  1.00  0.00     0.014 A 
ATOM     33  C   UNL A   1      36.004  31.072  29.309  1.00  0.00     0.010 A 
ATOM     34  C   UNL A   1      37.555  32.848  28.999  1.00  0.00     0.010 A 
ATOM     35  C   UNL A   1      37.331  31.508  29.362  1.00  0.00    -0.014 A 
BRANCH  35  36
ATOM     36  C   UNL A   1      38.448  30.716  29.997  1.00  0.00     0.031 A 
ATOM     37  C   UNL A   1      38.785  31.010  31.447  1.00  0.00     0.074 A 
ATOM     38  C   UNL A   1      39.228  29.829  29.336  1.00  0.00     0.049 A 
ATOM     39  N   UNL A   1      39.747  30.543  32.205  1.00  0.00    -0.248 NA
ATOM     40  C   UNL A   1      37.937  32.010  32.117  1.00  0.00     0.031 C 
ATOM     41  C   UNL A   1      39.101  29.460  27.927  1.00  0.00     0.029 A 
ATOM     42  N   UNL A   1      40.319  29.093  29.764  1.00  0.00    -0.354 N 
ATOM     43  C   UNL A   1      39.622  31.204  33.423  1.00  0.00     0.074 A 
ATOM     44  C   UNL A   1      38.555  32.165  33.274  1.00  0.00     0.031 C 
ATOM     45  C   UNL A   1      40.078  28.588  27.605  1.00  0.00     0.029 A 
ATOM     46  C   UNL A   1      40.907  28.323  28.783  1.00  0.00     0.049 A 
ATOM     47  H   UNL A   1      40.648  29.117  30.692  1.00  0.00     0.167 HD
ATOM     48  C   UNL A   1      40.292  31.011  34.585  1.00  0.00     0.037 A 
ATOM     49  C   UNL A   1      41.977  27.495  28.824  1.00  0.00     0.037 A 
ATOM     50  C   UNL A   1      41.344  30.048  34.764  1.00  0.00     0.049 A 
ATOM     51  C   UNL A   1      42.717  27.277  30.124  1.00  0.00     0.074 A 
ATOM     52  C   UNL A   1      42.035  29.729  35.920  1.00  0.00     0.029 A 
ATOM     53  N   UNL A   1      41.857  29.249  33.754  1.00  0.00    -0.354 N 
ATOM     54  N   UNL A   1      42.509  27.832  31.294  1.00  0.00    -0.248 NA
ATOM     55  C   UNL A   1      43.823  26.303  30.118  1.00  0.00     0.031 C 
ATOM     56  C   UNL A   1      42.993  28.762  35.602  1.00  0.00     0.029 A 
ATOM     57  C   UNL A   1      42.867  28.448  34.259  1.00  0.00     0.049 A 
ATOM     58  H   UNL A   1      41.549  29.252  32.820  1.00  0.00     0.167 HD
ATOM     59  C   UNL A   1      43.428  27.253  32.164  1.00  0.00     0.074 A 
ATOM     60  C   UNL A   1      44.194  26.298  31.392  1.00  0.00     0.031 C 
ATOM     61  C   UNL A   1      43.613  27.488  33.486  1.00  0.00     0.037 A 
BRANCH  48  62
ATOM     62  C   UNL A   1      39.875  31.841  35.766  1.00  0.00     0.057 A 
ATOM     63  C   UNL A   1      40.581  32.997  36.134  1.00  0.00     0.134 A 
ATOM     64  C   UNL A   1      38.753  31.502  36.533  1.00  0.00     0.134 A 
ATOM     65  F   UNL A   1      41.675  33.370  35.451  1.00  0.00    -0.206 F 
ATOM     66  C   UNL A   1      40.210  33.763  37.239  1.00  0.00     0.040 A 
ATOM     67  C   UNL A   1      38.352  32.280  37.622  1.00  0.00     0.040 A 
ATOM     68  F   UNL A   1      38.027  30.415  36.236  1.00  0.00    -0.206 F 
ATOM     69  C   UNL A   1      39.087  33.409  37.982  1.00  0.00     0.006 A 
ENDBRANCH  48  62
BRANCH  49  70
ATOM     70  C   UNL A   1      42.382  26.733  27.607  1.00  0.00     0.057 A 
ATOM     71  C   UNL A   1      43.273  27.288  26.677  1.00  0.00     0.134 A 
ATOM     72  C   UNL A   1      41.900  25.447  27.337  1.00  0.00     0.134 A 
ATOM     73  F   UNL A   1      43.741  28.532  26.855  1.00  0.00    -0.206 F 
ATOM     74  C   UNL A   1      43.673  26.594  25.532  1.00  0.00     0.040 A 
ATOM     75  C   UNL A   1      42.307  24.732  26.205  1.00  0.00     0.040 A 
ATOM     76  F   UNL A   1      41.033  24.859  28.174  1.00  0.00    -0.206 F 
ATOM     77  C   UNL A   1      43.197  25.307  25.298  1.00  0.00     0.006 A 
ENDBRANCH  49  70
BRANCH  61  78
ATOM     78  C   UNL A   1      44.660  26.690  34.209  1.00  0.00     0.057 A 
ATOM     79  C   UNL A   1      45.959  27.174  34.393  1.00  0.00     0.134 A 
ATOM     80  C   UNL A   1      44.332  25.467  34.810  1.00  0.00     0.134 A 
ATOM     81  F   UNL A   1      46.337  28.337  33.840  1.00  0.00    -0.206 F 
ATOM     82  C   UNL A   1      46.901  26.466  35.143  1.00  0.00     0.040 A 
ATOM     83  C   UNL A   1      45.257  24.762  35.581  1.00  0.00     0.040 A 
ATOM     84  F   UNL A   1      43.099  24.956  34.685  1.00  0.00    -0.206 F 
ATOM     85  C   UNL A   1      46.546  25.262  35.749  1.00  0.00     0.006 A 
ENDBRANCH  61  78
ENDBRANCH  35  36
ENDBRANCH  27  30
ENDBRANCH  25  26
ENDBRANCH  24  25
ENDBRANCH   1  24
TORSDOF 14
ENDMDL
MODEL 2
REMARK VINA RESULT:     -11.6      2.621      8.148
REMARK SMILES COC(=O)[C@H]1Sc2nnc(CCC(=O)NCCCNC(=O)c3ccc(-c4c5nc(c(-c6c(F)cccc6F)c6ccc([nH]6)c(-c6c(F)cccc6F)c6nc(c(-c7c(F)cccc7F)c7ccc4[nH]7)C=C6)C=C5)cc3)c(=O)n2N=C1C
REMARK SMILES IDX 16 1 15 2 13 3 14 4 12 6 11 7 10 8 5 9 6 10 80 11 7 12 79 13
REMARK SMILES IDX 81 14 8 15 78 16 9 17 76 18 77 19 3 20 4 21 2 22 1 23 17 24
REMARK SMILES IDX 18 25 19 26 20 27 21 29 22 30 23 31 75 32 24 33 74 34 25 35
REMARK SMILES IDX 26 36 27 37 68 38 28 39 73 40 67 41 69 42 29 43 72 44 66 45
REMARK SMILES IDX 65 46 30 48 56 49 39 50 55 51 40 52 43 53 54 54 70 55 41 56
REMARK SMILES IDX 42 57 53 59 71 60 44 61 31 62 32 63 37 64 33 65 34 66 36 67
REMARK SMILES IDX 38 68 35 69 57 70 58 71 63 72 59 73 60 74 62 75 64 76 61 77
REMARK SMILES IDX 45 78 46 79 51 80 47 81 48 82 50 83 52 84 49 85
REMARK H PARENT 15 5 19 28 69 47 43 58
REMARK Flexibility Score: inf
ROOT
ATOM      1  C   UNL A   1      40.914  20.310  26.360  1.00  0.00     0.117 C 
ENDROOT
BRANCH   1   2
ATOM      2  N   UNL A   1      40.222  21.575  26.590  1.00  0.00    -0.356 N 
ATOM      3  C   UNL A   1      39.057  22.098  26.101  1.00  0.00     0.220 C 
ATOM      4  O   UNL A   1      38.752  23.232  26.480  1.00  0.00    -0.275 OA
ATOM      5  H   UNL A   1      40.685  22.169  27.223  1.00  0.00     0.163 HD
BRANCH   3   6
ATOM      6  C   UNL A   1      38.123  21.328  25.171  1.00  0.00     0.106 C 
BRANCH   6   7
ATOM      7  C   UNL A   1      36.647  21.402  25.584  1.00  0.00     0.074 C 
BRANCH   7   8
ATOM      8  C   UNL A   1      35.807  21.979  24.471  1.00  0.00     0.131 A 
ATOM      9  C   UNL A   1      32.053  25.101  23.564  1.00  0.00     0.210 C 
ATOM     10  S   UNL A   1      32.890  24.318  22.103  1.00  0.00    -0.063 SA
ATOM     11  C   UNL A   1      31.961  24.047  24.674  1.00  0.00     0.061 C 
ATOM     12  C   UNL A   1      34.103  23.432  23.006  1.00  0.00     0.214 A 
ATOM     13  N   UNL A   1      32.518  22.886  24.712  1.00  0.00    -0.171 NA
ATOM     14  C   UNL A   1      31.155  24.172  25.927  1.00  0.00     0.065 C 
ATOM     15  N   UNL A   1      35.364  23.480  22.719  1.00  0.00    -0.123 NA
ATOM     16  N   UNL A   1      33.599  22.631  23.984  1.00  0.00    -0.169 N 
ATOM     17  N   UNL A   1      36.275  22.838  23.615  1.00  0.00    -0.147 NA
ATOM     18  C   UNL A   1      34.359  21.616  24.502  1.00  0.00     0.296 A 
ATOM     19  O   UNL A   1      33.981  20.602  25.050  1.00  0.00    -0.265 OA
BRANCH   9  20
ATOM     20  C   UNL A   1      32.778  26.448  23.716  1.00  0.00     0.325 C 
ATOM     21  O   UNL A   1      33.787  26.646  24.379  1.00  0.00    -0.250 OA
BRANCH  20  22
ATOM     22  O   UNL A   1      32.273  27.392  22.863  1.00  0.00    -0.468 OA
ATOM     23  C   UNL A   1      32.862  28.706  22.935  1.00  0.00     0.282 C 
ENDBRANCH  20  22
ENDBRANCH   9  20
ENDBRANCH   7   8
ENDBRANCH   6   7
ENDBRANCH   3   6
ENDBRANCH   1   2
BRANCH   1  24
ATOM     24  C   UNL A   1      42.445  20.415  26.523  1.00  0.00     0.042 C 
BRANCH  24  25
ATOM     25  C   UNL A   1      43.412  20.887  25.383  1.00  0.00     0.118 C 
BRANCH  25  26
ATOM     26  N   UNL A   1      43.177  22.343  24.964  1.00  0.00    -0.352 N 
ATOM     27  C   UNL A   1      43.840  23.559  25.237  1.00  0.00     0.251 C 
ATOM     28  H   UNL A   1      42.395  22.453  24.376  1.00  0.00     0.163 HD
ATOM     29  O   UNL A   1      44.577  24.016  24.361  1.00  0.00    -0.269 OA
BRANCH  27  30
ATOM     30  C   UNL A   1      43.352  24.553  26.293  1.00  0.00     0.039 A 
ATOM     31  C   UNL A   1      43.880  25.858  26.359  1.00  0.00     0.014 A 
ATOM     32  C   UNL A   1      42.454  24.228  27.303  1.00  0.00     0.014 A 
ATOM     33  C   UNL A   1      43.377  26.850  27.252  1.00  0.00     0.010 A 
ATOM     34  C   UNL A   1      41.874  25.228  28.127  1.00  0.00     0.010 A 
ATOM     35  C   UNL A   1      42.326  26.560  28.126  1.00  0.00    -0.014 A 
BRANCH  35  36
ATOM     36  C   UNL A   1      41.841  27.507  29.197  1.00  0.00     0.031 A 
ATOM     37  C   UNL A   1      42.521  27.447  30.552  1.00  0.00     0.074 A 
ATOM     38  C   UNL A   1      40.783  28.340  29.058  1.00  0.00     0.049 A 
ATOM     39  N   UNL A   1      42.246  28.081  31.666  1.00  0.00    -0.248 NA
ATOM     40  C   UNL A   1      43.641  26.500  30.671  1.00  0.00     0.031 C 
ATOM     41  C   UNL A   1      39.966  28.493  27.856  1.00  0.00     0.029 A 
ATOM     42  N   UNL A   1      40.188  29.200  29.964  1.00  0.00    -0.354 N 
ATOM     43  C   UNL A   1      43.149  27.595  32.608  1.00  0.00     0.074 A 
ATOM     44  C   UNL A   1      43.912  26.553  31.963  1.00  0.00     0.031 C 
ATOM     45  C   UNL A   1      38.973  29.373  28.102  1.00  0.00     0.029 A 
ATOM     46  C   UNL A   1      39.078  29.859  29.479  1.00  0.00     0.049 A 
ATOM     47  H   UNL A   1      40.529  29.331  30.878  1.00  0.00     0.167 HD
ATOM     48  C   UNL A   1      43.367  27.996  33.883  1.00  0.00     0.037 A 
ATOM     49  C   UNL A   1      38.248  30.753  30.065  1.00  0.00     0.037 A 
ATOM     50  C   UNL A   1      42.634  29.043  34.541  1.00  0.00     0.049 A 
ATOM     51  C   UNL A   1      38.501  31.204  31.485  1.00  0.00     0.074 A 
ATOM     52  C   UNL A   1      42.829  29.569  35.806  1.00  0.00     0.029 A 
ATOM     53  N   UNL A   1      41.562  29.721  33.983  1.00  0.00    -0.354 N 
ATOM     54  N   UNL A   1      39.431  30.810  32.322  1.00  0.00    -0.248 NA
ATOM     55  C   UNL A   1      37.607  32.238  32.037  1.00  0.00     0.031 C 
ATOM     56  C   UNL A   1      41.850  30.542  36.028  1.00  0.00     0.029 A 
ATOM     57  C   UNL A   1      41.076  30.652  34.885  1.00  0.00     0.049 A 
ATOM     58  H   UNL A   1      41.202  29.564  33.081  1.00  0.00     0.167 HD
ATOM     59  C   UNL A   1      39.257  31.568  33.477  1.00  0.00     0.074 A 
ATOM     60  C   UNL A   1      38.136  32.451  33.235  1.00  0.00     0.031 C 
ATOM     61  C   UNL A   1      39.969  31.538  34.630  1.00  0.00     0.037 A 
BRANCH  48  62
ATOM     62  C   UNL A   1      44.477  27.319  34.638  1.00  0.00     0.057 A 
ATOM     63  C   UNL A   1      45.778  27.844  34.653  1.00  0.00     0.134 A 
ATOM     64  C   UNL A   1      44.249  26.147  35.371  1.00  0.00     0.134 A 
ATOM     65  F   UNL A   1      46.069  28.957  33.960  1.00  0.00    -0.206 F 
ATOM     66  C   UNL A   1      46.817  27.213  35.337  1.00  0.00     0.040 A 
ATOM     67  C   UNL A   1      45.273  25.524  36.087  1.00  0.00     0.040 A 
ATOM     68  F   UNL A   1      43.029  25.593  35.407  1.00  0.00    -0.206 F 
ATOM     69  C   UNL A   1      46.563  26.053  36.063  1.00  0.00     0.006 A 
ENDBRANCH  48  62
BRANCH  49  70
ATOM     70  C   UNL A   1      37.128  31.358  29.287  1.00  0.00     0.057 A 
ATOM     71  C   UNL A   1      35.952  30.634  29.043  1.00  0.00     0.134 A 
ATOM     72  C   UNL A   1      37.195  32.657  28.770  1.00  0.00     0.134 A 
ATOM     73  F   UNL A   1      35.838  29.371  29.477  1.00  0.00    -0.206 F 
ATOM     74  C   UNL A   1      34.885  31.178  28.322  1.00  0.00     0.040 A 
ATOM     75  C   UNL A   1      36.127  33.222  28.063  1.00  0.00     0.040 A 
ATOM     76  F   UNL A   1      38.295  33.402  28.950  1.00  0.00    -0.206 F 
ATOM     77  C   UNL A   1      34.968  32.481  27.838  1.00  0.00     0.006 A 
ENDBRANCH  49  70
BRANCH  61  78
ATOM     78  C   UNL A   1      39.594  32.499  35.721  1.00  0.00     0.057 A 
ATOM     79  C   UNL A   1      40.146  33.782  35.795  1.00  0.00     0.134 A 
ATOM     80  C   UNL A   1      38.597  32.167  36.648  1.00  0.00     0.134 A 
ATOM     81  F   UNL A   1      41.108  34.160  34.938  1.00  0.00    -0.206 F 
ATOM     82  C   UNL A   1      39.727  34.701  36.759  1.00  0.00     0.040 A 
ATOM     83  C   UNL A   1      38.153  33.085  37.601  1.00  0.00     0.040 A 
ATOM     84  F   UNL A   1      38.017  30.959  36.621  1.00  0.00    -0.206 F 
ATOM     85  C   UNL A   1      38.719  34.356  37.659  1.00  0.00     0.006 A 
ENDBRANCH  61  78
ENDBRANCH  35  36
ENDBRANCH  27  30
ENDBRANCH  25  26
ENDBRANCH  24  25
ENDBRANCH   1  24
TORSDOF 14
ENDMDL
MODEL 3
REMARK VINA RESULT:     -11.5      4.199      7.655
REMARK SMILES COC(=O)[C@H]1Sc2nnc(CCC(=O)NCCCNC(=O)c3ccc(-c4c5nc(c(-c6c(F)cccc6F)c6ccc([nH]6)c(-c6c(F)cccc6F)c6nc(c(-c7c(F)cccc7F)c7ccc4[nH]7)C=C6)C=C5)cc3)c(=O)n2N=C1C
REMARK SMILES IDX 16 1 15 2 13 3 14 4 12 6 11 7 10 8 5 9 6 10 80 11 7 12 79 13
REMARK SMILES IDX 81 14 8 15 78 16 9 17 76 18 77 19 3 20 4 21 2 22 1 23 17 24
REMARK SMILES IDX 18 25 19 26 20 27 21 29 22 30 23 31 75 32 24 33 74 34 25 35
REMARK SMILES IDX 26 36 27 37 68 38 28 39 73 40 67 41 69 42 29 43 72 44 66 45
REMARK SMILES IDX 65 46 30 48 56 49 39 50 55 51 40 52 43 53 54 54 70 55 41 56
REMARK SMILES IDX 42 57 53 59 71 60 44 61 31 62 32 63 37 64 33 65 34 66 36 67
REMARK SMILES IDX 38 68 35 69 57 70 58 71 63 72 59 73 60 74 62 75 64 76 61 77
REMARK SMILES IDX 45 78 46 79 51 80 47 81 48 82 50 83 52 84 49 85
REMARK H PARENT 15 5 19 28 69 47 43 58
REMARK Flexibility Score: inf
ROOT
ATOM      1  C   UNL A   1      33.560  29.062  26.332  1.00  0.00     0.117 C 
ENDROOT
BRANCH   1   2
ATOM      2  N   UNL A   1      33.956  29.062  24.927  1.00  0.00    -0.356 N 
ATOM      3  C   UNL A   1      33.385  28.538  23.801  1.00  0.00     0.220 C 
ATOM      4  O   UNL A   1      33.998  28.690  22.741  1.00  0.00    -0.275 OA
ATOM      5  H   UNL A   1      34.802  29.535  24.756  1.00  0.00     0.163 HD
BRANCH   3   6
ATOM      6  C   UNL A   1      32.029  27.836  23.803  1.00  0.00     0.106 C 
BRANCH   6   7
ATOM      7  C   UNL A   1      31.642  27.243  22.442  1.00  0.00     0.074 C 
BRANCH   7   8
ATOM      8  C   UNL A   1      31.602  25.736  22.505  1.00  0.00     0.131 A 
ATOM      9  C   UNL A   1      34.037  21.785  24.272  1.00  0.00     0.210 C 
ATOM     10  S   UNL A   1      32.429  21.480  23.395  1.00  0.00    -0.063 SA
ATOM     11  C   UNL A   1      34.772  22.907  23.528  1.00  0.00     0.061 C 
ATOM     12  C   UNL A   1      32.036  23.160  23.086  1.00  0.00     0.214 A 
ATOM     13  N   UNL A   1      34.321  23.663  22.588  1.00  0.00    -0.171 NA
ATOM     14  C   UNL A   1      36.197  23.305  23.745  1.00  0.00     0.065 C 
ATOM     15  N   UNL A   1      30.885  23.676  23.378  1.00  0.00    -0.123 NA
ATOM     16  N   UNL A   1      33.014  23.856  22.445  1.00  0.00    -0.169 N 
ATOM     17  N   UNL A   1      30.731  25.089  23.221  1.00  0.00    -0.147 NA
ATOM     18  C   UNL A   1      32.719  25.032  21.808  1.00  0.00     0.296 A 
ATOM     19  O   UNL A   1      33.318  25.561  20.895  1.00  0.00    -0.265 OA
BRANCH   9  20
ATOM     20  C   UNL A   1      33.632  21.858  25.753  1.00  0.00     0.325 C 
ATOM     21  O   UNL A   1      33.523  20.905  26.512  1.00  0.00    -0.250 OA
BRANCH  20  22
ATOM     22  O   UNL A   1      33.584  23.151  26.200  1.00  0.00    -0.468 OA
ATOM     23  C   UNL A   1      32.327  23.599  26.743  1.00  0.00     0.282 C 
ENDBRANCH  20  22
ENDBRANCH   9  20
ENDBRANCH   7   8
ENDBRANCH   6   7
ENDBRANCH   3   6
ENDBRANCH   1   2
BRANCH   1  24
ATOM     24  C   UNL A   1      33.297  30.476  26.892  1.00  0.00     0.042 C 
BRANCH  24  25
ATOM     25  C   UNL A   1      34.298  31.242  27.824  1.00  0.00     0.118 C 
BRANCH  25  26
ATOM     26  N   UNL A   1      35.054  30.315  28.782  1.00  0.00    -0.352 N 
ATOM     27  C   UNL A   1      36.122  30.503  29.686  1.00  0.00     0.251 C 
ATOM     28  H   UNL A   1      34.723  29.388  28.764  1.00  0.00     0.163 HD
ATOM     29  O   UNL A   1      35.847  30.589  30.884  1.00  0.00    -0.269 OA
BRANCH  27  30
ATOM     30  C   UNL A   1      37.569  30.131  29.352  1.00  0.00     0.039 A 
ATOM     31  C   UNL A   1      38.531  29.976  30.371  1.00  0.00     0.014 A 
ATOM     32  C   UNL A   1      38.059  30.022  28.057  1.00  0.00     0.014 A 
ATOM     33  C   UNL A   1      39.858  29.523  30.116  1.00  0.00     0.010 A 
ATOM     34  C   UNL A   1      39.343  29.476  27.795  1.00  0.00     0.010 A 
ATOM     35  C   UNL A   1      40.275  29.220  28.817  1.00  0.00    -0.014 A 
BRANCH  35  36
ATOM     36  C   UNL A   1      41.699  28.879  28.451  1.00  0.00     0.031 A 
ATOM     37  C   UNL A   1      42.012  27.434  28.106  1.00  0.00     0.074 A 
ATOM     38  C   UNL A   1      42.731  29.753  28.499  1.00  0.00     0.049 A 
ATOM     39  N   UNL A   1      43.158  26.855  27.844  1.00  0.00    -0.248 NA
ATOM     40  C   UNL A   1      40.867  26.509  28.105  1.00  0.00     0.031 C 
ATOM     41  C   UNL A   1      42.642  31.165  28.868  1.00  0.00     0.029 A 
ATOM     42  N   UNL A   1      44.082  29.568  28.264  1.00  0.00    -0.354 N 
ATOM     43  C   UNL A   1      42.866  25.506  27.664  1.00  0.00     0.074 A 
ATOM     44  C   UNL A   1      41.458  25.339  27.937  1.00  0.00     0.031 C 
ATOM     45  C   UNL A   1      43.876  31.709  28.851  1.00  0.00     0.029 A 
ATOM     46  C   UNL A   1      44.855  30.691  28.465  1.00  0.00     0.049 A 
ATOM     47  H   UNL A   1      44.460  28.705  27.977  1.00  0.00     0.167 HD
ATOM     48  C   UNL A   1      43.672  24.493  27.264  1.00  0.00     0.037 A 
ATOM     49  C   UNL A   1      46.189  30.887  28.345  1.00  0.00     0.037 A 
ATOM     50  C   UNL A   1      45.071  24.638  26.968  1.00  0.00     0.049 A 
ATOM     51  C   UNL A   1      47.082  29.755  27.891  1.00  0.00     0.074 A 
ATOM     52  C   UNL A   1      45.954  23.687  26.489  1.00  0.00     0.029 A 
ATOM     53  N   UNL A   1      45.789  25.812  27.127  1.00  0.00    -0.354 N 
ATOM     54  N   UNL A   1      46.765  28.513  27.619  1.00  0.00    -0.248 NA
ATOM     55  C   UNL A   1      48.514  30.056  27.704  1.00  0.00     0.031 C 
ATOM     56  C   UNL A   1      47.218  24.276  26.392  1.00  0.00     0.029 A 
ATOM     57  C   UNL A   1      47.110  25.605  26.768  1.00  0.00     0.049 A 
ATOM     58  H   UNL A   1      45.416  26.664  27.447  1.00  0.00     0.167 HD
ATOM     59  C   UNL A   1      47.941  27.897  27.198  1.00  0.00     0.074 A 
ATOM     60  C   UNL A   1      48.981  28.902  27.245  1.00  0.00     0.031 C 
ATOM     61  C   UNL A   1      48.136  26.616  26.802  1.00  0.00     0.037 A 
BRANCH  48  62
ATOM     62  C   UNL A   1      43.041  23.140  27.088  1.00  0.00     0.057 A 
ATOM     63  C   UNL A   1      42.751  22.320  28.189  1.00  0.00     0.134 A 
ATOM     64  C   UNL A   1      42.700  22.656  25.819  1.00  0.00     0.134 A 
ATOM     65  F   UNL A   1      43.065  22.716  29.432  1.00  0.00    -0.206 F 
ATOM     66  C   UNL A   1      42.180  21.057  28.033  1.00  0.00     0.040 A 
ATOM     67  C   UNL A   1      42.098  21.408  25.652  1.00  0.00     0.040 A 
ATOM     68  F   UNL A   1      42.941  23.390  24.722  1.00  0.00    -0.206 F 
ATOM     69  C   UNL A   1      41.845  20.601  26.761  1.00  0.00     0.006 A 
ENDBRANCH  48  62
BRANCH  49  70
ATOM     70  C   UNL A   1      46.773  32.239  28.583  1.00  0.00     0.057 A 
ATOM     71  C   UNL A   1      46.858  33.176  27.543  1.00  0.00     0.134 A 
ATOM     72  C   UNL A   1      47.258  32.632  29.836  1.00  0.00     0.134 A 
ATOM     73  F   UNL A   1      46.448  32.850  26.310  1.00  0.00    -0.206 F 
ATOM     74  C   UNL A   1      47.395  34.451  27.741  1.00  0.00     0.040 A 
ATOM     75  C   UNL A   1      47.780  33.913  30.053  1.00  0.00     0.040 A 
ATOM     76  F   UNL A   1      47.223  31.783  30.873  1.00  0.00    -0.206 F 
ATOM     77  C   UNL A   1      47.849  34.826  29.002  1.00  0.00     0.006 A 
ENDBRANCH  49  70
BRANCH  61  78
ATOM     78  C   UNL A   1      49.511  26.213  26.355  1.00  0.00     0.057 A 
ATOM     79  C   UNL A   1      49.996  26.532  25.083  1.00  0.00     0.134 A 
ATOM     80  C   UNL A   1      50.392  25.583  27.245  1.00  0.00     0.134 A 
ATOM     81  F   UNL A   1      49.202  27.133  24.183  1.00  0.00    -0.206 F 
ATOM     82  C   UNL A   1      51.307  26.233  24.706  1.00  0.00     0.040 A 
ATOM     83  C   UNL A   1      51.711  25.300  26.889  1.00  0.00     0.040 A 
ATOM     84  F   UNL A   1      49.994  25.263  28.486  1.00  0.00    -0.206 F 
ATOM     85  C   UNL A   1      52.171  25.624  25.616  1.00  0.00     0.006 A 
ENDBRANCH  61  78
ENDBRANCH  35  36
ENDBRANCH  27  30
ENDBRANCH  25  26
ENDBRANCH  24  25
ENDBRANCH   1  24
TORSDOF 14
ENDMDL
