MODEL 1
REMARK VINA RESULT:     -11.8      0.000      0.000
REMARK SMILES CC(C)(C)OC(=O)N1C[C@H](Cc2ccccc2)[C@H](C(=O)NCCCNC(=O)c2ccc(-c3c4nc(c(-c5c(F)cccc5F)c5ccc([nH]5)c(-c5c(F)cccc5F)c5nc(c(-c6c(F)cccc6F)c6ccc3[nH]6)C=C5)C=C4)cc2)C1
REMARK SMILES IDX 22 1 21 2 19 3 20 4 18 6 8 7 9 8 82 9 10 10 6 11 7 12 5 13
REMARK SMILES IDX 2 14 1 15 3 16 4 17 11 18 12 19 13 20 17 21 14 22 16 23
REMARK SMILES IDX 15 24 23 25 24 26 25 27 26 28 27 30 28 31 29 32 81 33 30 34
REMARK SMILES IDX 80 35 31 36 32 37 33 38 74 39 34 40 79 41 73 42 75 43 35 44
REMARK SMILES IDX 78 45 72 46 71 47 36 49 62 50 45 51 61 52 46 53 49 54 60 55
REMARK SMILES IDX 76 56 47 57 48 58 59 60 77 61 50 62 37 63 38 64 43 65 39 66
REMARK SMILES IDX 40 67 42 68 44 69 41 70 63 71 64 72 69 73 65 74 66 75 68 76
REMARK SMILES IDX 70 77 67 78 51 79 52 80 57 81 53 82 54 83 56 84 58 85 55 86
REMARK H PARENT 21 5 25 29 75 48 49 59
REMARK Flexibility Score: inf
ROOT
ATOM      1  C   UNL A   1      36.236  20.254  24.677  1.00  0.00     0.117 C 
ENDROOT
BRANCH   1   2
ATOM      2  N   UNL A   1      35.648  20.677  25.946  1.00  0.00    -0.356 N 
ATOM      3  C   UNL A   1      34.754  21.632  26.309  1.00  0.00     0.225 C 
ATOM      4  O   UNL A   1      34.513  21.705  27.520  1.00  0.00    -0.275 OA
ATOM      5  H   UNL A   1      35.975  20.150  26.711  1.00  0.00     0.163 HD
BRANCH   3   6
ATOM      6  C   UNL A   1      34.068  22.620  25.365  1.00  0.00     0.103 C 
ATOM      7  N   UNL A   1      32.238  24.050  25.679  1.00  0.00    -0.307 N 
ATOM      8  C   UNL A   1      31.947  23.343  24.450  1.00  0.00     0.128 C 
ATOM      9  C   UNL A   1      33.633  23.925  26.028  1.00  0.00     0.137 C 
ATOM     10  C   UNL A   1      32.863  22.120  24.505  1.00  0.00     0.027 C 
BRANCH   7  11
ATOM     11  C   UNL A   1      31.352  24.728  26.477  1.00  0.00     0.410 C 
ATOM     12  O   UNL A   1      30.176  24.423  26.568  1.00  0.00    -0.224 OA
BRANCH  11  13
ATOM     13  O   UNL A   1      31.934  25.807  27.054  1.00  0.00    -0.444 OA
BRANCH  13  14
ATOM     14  C   UNL A   1      31.874  27.129  26.459  1.00  0.00     0.106 C 
ATOM     15  C   UNL A   1      33.315  27.423  26.013  1.00  0.00     0.056 C 
ATOM     16  C   UNL A   1      31.460  28.119  27.546  1.00  0.00     0.056 C 
ATOM     17  C   UNL A   1      30.969  27.239  25.223  1.00  0.00     0.056 C 
ENDBRANCH  13  14
ENDBRANCH  11  13
ENDBRANCH   7  11
BRANCH  10  18
ATOM     18  C   UNL A   1      32.129  20.929  25.110  1.00  0.00     0.041 C 
BRANCH  18  19
ATOM     19  C   UNL A   1      32.380  19.553  24.548  1.00  0.00    -0.048 A 
ATOM     20  C   UNL A   1      32.830  18.534  25.405  1.00  0.00     0.004 A 
ATOM     21  C   UNL A   1      32.291  19.298  23.177  1.00  0.00     0.004 A 
ATOM     22  C   UNL A   1      33.201  17.291  24.900  1.00  0.00     0.000 A 
ATOM     23  C   UNL A   1      32.665  18.050  22.673  1.00  0.00     0.000 A 
ATOM     24  C   UNL A   1      33.124  17.050  23.532  1.00  0.00     0.000 A 
ENDBRANCH  18  19
ENDBRANCH  10  18
ENDBRANCH   3   6
ENDBRANCH   1   2
BRANCH   1  25
ATOM     25  C   UNL A   1      37.501  19.409  24.866  1.00  0.00     0.042 C 
BRANCH  25  26
ATOM     26  C   UNL A   1      38.676  20.136  25.497  1.00  0.00     0.118 C 
BRANCH  26  27
ATOM     27  N   UNL A   1      39.795  19.250  25.749  1.00  0.00    -0.352 N 
ATOM     28  C   UNL A   1      41.090  19.527  26.115  1.00  0.00     0.251 C 
ATOM     29  H   UNL A   1      39.594  18.292  25.641  1.00  0.00     0.163 HD
ATOM     30  O   UNL A   1      41.927  18.631  26.035  1.00  0.00    -0.269 OA
BRANCH  28  31
ATOM     31  C   UNL A   1      41.509  20.872  26.588  1.00  0.00     0.039 A 
ATOM     32  C   UNL A   1      41.461  21.131  27.964  1.00  0.00     0.014 A 
ATOM     33  C   UNL A   1      41.860  21.905  25.715  1.00  0.00     0.014 A 
ATOM     34  C   UNL A   1      41.791  22.398  28.455  1.00  0.00     0.010 A 
ATOM     35  C   UNL A   1      42.285  23.140  26.212  1.00  0.00     0.010 A 
ATOM     36  C   UNL A   1      42.228  23.411  27.586  1.00  0.00    -0.014 A 
BRANCH  36  37
ATOM     37  C   UNL A   1      42.591  24.755  28.110  1.00  0.00     0.031 A 
ATOM     38  C   UNL A   1      44.033  25.139  28.317  1.00  0.00     0.074 A 
ATOM     39  C   UNL A   1      41.619  25.637  28.412  1.00  0.00     0.049 A 
ATOM     40  N   UNL A   1      44.537  26.282  28.715  1.00  0.00    -0.248 NA
ATOM     41  C   UNL A   1      45.040  24.098  28.068  1.00  0.00     0.031 C 
ATOM     42  C   UNL A   1      40.182  25.377  28.313  1.00  0.00     0.029 A 
ATOM     43  N   UNL A   1      41.692  26.936  28.850  1.00  0.00    -0.354 N 
ATOM     44  C   UNL A   1      45.913  26.092  28.770  1.00  0.00     0.074 A 
ATOM     45  C   UNL A   1      46.158  24.708  28.429  1.00  0.00     0.031 C 
ATOM     46  C   UNL A   1      39.510  26.496  28.626  1.00  0.00     0.029 A 
ATOM     47  C   UNL A   1      40.465  27.542  28.977  1.00  0.00     0.049 A 
ATOM     48  H   UNL A   1      42.541  27.390  29.054  1.00  0.00     0.167 HD
ATOM     49  C   UNL A   1      46.888  26.992  29.047  1.00  0.00     0.037 A 
ATOM     50  C   UNL A   1      40.146  28.804  29.319  1.00  0.00     0.037 A 
ATOM     51  C   UNL A   1      46.648  28.374  29.374  1.00  0.00     0.049 A 
ATOM     52  C   UNL A   1      41.241  29.786  29.621  1.00  0.00     0.074 A 
ATOM     53  C   UNL A   1      47.569  29.378  29.621  1.00  0.00     0.029 A 
ATOM     54  N   UNL A   1      45.391  28.946  29.503  1.00  0.00    -0.354 N 
ATOM     55  N   UNL A   1      42.541  29.611  29.598  1.00  0.00    -0.248 NA
ATOM     56  C   UNL A   1      40.822  31.147  29.986  1.00  0.00     0.031 C 
ATOM     57  C   UNL A   1      46.868  30.547  29.941  1.00  0.00     0.029 A 
ATOM     58  C   UNL A   1      45.511  30.284  29.847  1.00  0.00     0.049 A 
ATOM     59  H   UNL A   1      44.539  28.472  29.369  1.00  0.00     0.167 HD
ATOM     60  C   UNL A   1      43.096  30.842  29.924  1.00  0.00     0.074 A 
ATOM     61  C   UNL A   1      41.990  31.759  30.118  1.00  0.00     0.031 C 
ATOM     62  C   UNL A   1      44.402  31.182  30.051  1.00  0.00     0.037 A 
BRANCH  49  63
ATOM     63  C   UNL A   1      48.308  26.496  29.008  1.00  0.00     0.057 A 
ATOM     64  C   UNL A   1      48.945  25.986  30.148  1.00  0.00     0.134 A 
ATOM     65  C   UNL A   1      49.047  26.529  27.819  1.00  0.00     0.134 A 
ATOM     66  F   UNL A   1      48.299  25.937  31.323  1.00  0.00    -0.206 F 
ATOM     67  C   UNL A   1      50.277  25.570  30.118  1.00  0.00     0.040 A 
ATOM     68  C   UNL A   1      50.371  26.086  27.770  1.00  0.00     0.040 A 
ATOM     69  F   UNL A   1      48.499  26.996  26.687  1.00  0.00    -0.206 F 
ATOM     70  C   UNL A   1      50.993  25.615  28.924  1.00  0.00     0.006 A 
ENDBRANCH  49  63
BRANCH  50  71
ATOM     71  C   UNL A   1      38.723  29.225  29.332  1.00  0.00     0.057 A 
ATOM     72  C   UNL A   1      37.973  29.176  30.513  1.00  0.00     0.134 A 
ATOM     73  C   UNL A   1      38.084  29.697  28.180  1.00  0.00     0.134 A 
ATOM     74  F   UNL A   1      38.526  28.717  31.645  1.00  0.00    -0.206 F 
ATOM     75  C   UNL A   1      36.635  29.571  30.546  1.00  0.00     0.040 A 
ATOM     76  C   UNL A   1      36.753  30.116  28.204  1.00  0.00     0.040 A 
ATOM     77  F   UNL A   1      38.751  29.773  27.019  1.00  0.00    -0.206 F 
ATOM     78  C   UNL A   1      36.023  30.050  29.389  1.00  0.00     0.006 A 
ENDBRANCH  50  71
BRANCH  62  79
ATOM     79  C   UNL A   1      44.699  32.613  30.399  1.00  0.00     0.057 A 
ATOM     80  C   UNL A   1      44.842  33.036  31.728  1.00  0.00     0.134 A 
ATOM     81  C   UNL A   1      44.842  33.578  29.395  1.00  0.00     0.134 A 
ATOM     82  F   UNL A   1      44.702  32.164  32.737  1.00  0.00    -0.206 F 
ATOM     83  C   UNL A   1      45.080  34.374  32.045  1.00  0.00     0.040 A 
ATOM     84  C   UNL A   1      45.109  34.914  29.698  1.00  0.00     0.040 A 
ATOM     85  F   UNL A   1      44.727  33.239  28.101  1.00  0.00    -0.206 F 
ATOM     86  C   UNL A   1      45.217  35.317  31.028  1.00  0.00     0.006 A 
ENDBRANCH  62  79
ENDBRANCH  36  37
ENDBRANCH  28  31
ENDBRANCH  26  27
ENDBRANCH  25  26
ENDBRANCH   1  25
TORSDOF 15
ENDMDL
MODEL 2
REMARK VINA RESULT:     -11.8      0.545      1.825
REMARK SMILES CC(C)(C)OC(=O)N1C[C@H](Cc2ccccc2)[C@H](C(=O)NCCCNC(=O)c2ccc(-c3c4nc(c(-c5c(F)cccc5F)c5ccc([nH]5)c(-c5c(F)cccc5F)c5nc(c(-c6c(F)cccc6F)c6ccc3[nH]6)C=C5)C=C4)cc2)C1
REMARK SMILES IDX 22 1 21 2 19 3 20 4 18 6 8 7 9 8 82 9 10 10 6 11 7 12 5 13
REMARK SMILES IDX 2 14 1 15 3 16 4 17 11 18 12 19 13 20 17 21 14 22 16 23
REMARK SMILES IDX 15 24 23 25 24 26 25 27 26 28 27 30 28 31 29 32 81 33 30 34
REMARK SMILES IDX 80 35 31 36 32 37 33 38 74 39 34 40 79 41 73 42 75 43 35 44
REMARK SMILES IDX 78 45 72 46 71 47 36 49 62 50 45 51 61 52 46 53 49 54 60 55
REMARK SMILES IDX 76 56 47 57 48 58 59 60 77 61 50 62 37 63 38 64 43 65 39 66
REMARK SMILES IDX 40 67 42 68 44 69 41 70 63 71 64 72 69 73 65 74 66 75 68 76
REMARK SMILES IDX 70 77 67 78 51 79 52 80 57 81 53 82 54 83 56 84 58 85 55 86
REMARK H PARENT 21 5 25 29 75 48 49 59
REMARK Flexibility Score: inf
ROOT
ATOM      1  C   UNL A   1      36.310  20.134  24.652  1.00  0.00     0.117 C 
ENDROOT
BRANCH   1   2
ATOM      2  N   UNL A   1      35.696  20.742  25.830  1.00  0.00    -0.356 N 
ATOM      3  C   UNL A   1      34.731  21.677  26.025  1.00  0.00     0.225 C 
ATOM      4  O   UNL A   1      34.491  21.958  27.206  1.00  0.00    -0.275 OA
ATOM      5  H   UNL A   1      36.067  20.395  26.674  1.00  0.00     0.163 HD
BRANCH   3   6
ATOM      6  C   UNL A   1      33.966  22.414  24.926  1.00  0.00     0.103 C 
ATOM      7  N   UNL A   1      32.005  23.697  24.996  1.00  0.00    -0.307 N 
ATOM      8  C   UNL A   1      31.795  22.761  23.912  1.00  0.00     0.128 C 
ATOM      9  C   UNL A   1      33.402  23.768  25.352  1.00  0.00     0.137 C 
ATOM     10  C   UNL A   1      32.822  21.658  24.175  1.00  0.00     0.027 C 
BRANCH   7  11
ATOM     11  C   UNL A   1      31.051  24.417  25.667  1.00  0.00     0.410 C 
ATOM     12  O   UNL A   1      30.919  24.376  26.877  1.00  0.00    -0.224 OA
BRANCH  11  13
ATOM     13  O   UNL A   1      30.242  25.084  24.807  1.00  0.00    -0.444 OA
BRANCH  13  14
ATOM     14  C   UNL A   1      30.537  26.431  24.355  1.00  0.00     0.106 C 
ATOM     15  C   UNL A   1      29.188  26.986  23.873  1.00  0.00     0.056 C 
ATOM     16  C   UNL A   1      31.504  26.333  23.176  1.00  0.00     0.056 C 
ATOM     17  C   UNL A   1      31.070  27.374  25.443  1.00  0.00     0.056 C 
ENDBRANCH  13  14
ENDBRANCH  11  13
ENDBRANCH   7  11
BRANCH  10  18
ATOM     18  C   UNL A   1      32.197  20.528  24.985  1.00  0.00     0.041 C 
BRANCH  18  19
ATOM     19  C   UNL A   1      32.543  19.103  24.638  1.00  0.00    -0.048 A 
ATOM     20  C   UNL A   1      32.879  18.209  25.669  1.00  0.00     0.004 A 
ATOM     21  C   UNL A   1      32.652  18.681  23.310  1.00  0.00     0.004 A 
ATOM     22  C   UNL A   1      33.333  16.925  25.378  1.00  0.00     0.000 A 
ATOM     23  C   UNL A   1      33.109  17.394  23.021  1.00  0.00     0.000 A 
ATOM     24  C   UNL A   1      33.454  16.519  24.053  1.00  0.00     0.000 A 
ENDBRANCH  18  19
ENDBRANCH  10  18
ENDBRANCH   3   6
ENDBRANCH   1   2
BRANCH   1  25
ATOM     25  C   UNL A   1      37.524  19.266  25.001  1.00  0.00     0.042 C 
BRANCH  25  26
ATOM     26  C   UNL A   1      38.735  20.026  25.517  1.00  0.00     0.118 C 
BRANCH  26  27
ATOM     27  N   UNL A   1      39.868  19.153  25.751  1.00  0.00    -0.352 N 
ATOM     28  C   UNL A   1      41.167  19.446  26.086  1.00  0.00     0.251 C 
ATOM     29  H   UNL A   1      39.674  18.192  25.654  1.00  0.00     0.163 HD
ATOM     30  O   UNL A   1      42.012  18.558  25.995  1.00  0.00    -0.269 OA
BRANCH  28  31
ATOM     31  C   UNL A   1      41.582  20.798  26.542  1.00  0.00     0.039 A 
ATOM     32  C   UNL A   1      41.508  21.085  27.910  1.00  0.00     0.014 A 
ATOM     33  C   UNL A   1      41.956  21.813  25.656  1.00  0.00     0.014 A 
ATOM     34  C   UNL A   1      41.833  22.361  28.383  1.00  0.00     0.010 A 
ATOM     35  C   UNL A   1      42.375  23.055  26.136  1.00  0.00     0.010 A 
ATOM     36  C   UNL A   1      42.292  23.354  27.503  1.00  0.00    -0.014 A 
BRANCH  36  37
ATOM     37  C   UNL A   1      42.650  24.707  28.008  1.00  0.00     0.031 A 
ATOM     38  C   UNL A   1      44.091  25.111  28.178  1.00  0.00     0.074 A 
ATOM     39  C   UNL A   1      41.673  25.579  28.326  1.00  0.00     0.049 A 
ATOM     40  N   UNL A   1      44.590  26.263  28.555  1.00  0.00    -0.248 NA
ATOM     41  C   UNL A   1      45.106  24.081  27.913  1.00  0.00     0.031 C 
ATOM     42  C   UNL A   1      40.238  25.299  28.263  1.00  0.00     0.029 A 
ATOM     43  N   UNL A   1      41.740  26.882  28.752  1.00  0.00    -0.354 N 
ATOM     44  C   UNL A   1      45.969  26.092  28.578  1.00  0.00     0.074 A 
ATOM     45  C   UNL A   1      46.224  24.708  28.242  1.00  0.00     0.031 C 
ATOM     46  C   UNL A   1      39.559  26.413  28.583  1.00  0.00     0.029 A 
ATOM     47  C   UNL A   1      40.509  27.474  28.903  1.00  0.00     0.049 A 
ATOM     48  H   UNL A   1      42.588  27.348  28.932  1.00  0.00     0.167 HD
ATOM     49  C   UNL A   1      46.938  27.006  28.825  1.00  0.00     0.037 A 
ATOM     50  C   UNL A   1      40.182  28.734  29.242  1.00  0.00     0.037 A 
ATOM     51  C   UNL A   1      46.688  28.387  29.146  1.00  0.00     0.049 A 
ATOM     52  C   UNL A   1      41.271  29.733  29.511  1.00  0.00     0.074 A 
ATOM     53  C   UNL A   1      47.601  29.405  29.364  1.00  0.00     0.029 A 
ATOM     54  N   UNL A   1      45.427  28.945  29.300  1.00  0.00    -0.354 N 
ATOM     55  N   UNL A   1      42.571  29.574  29.458  1.00  0.00    -0.248 NA
ATOM     56  C   UNL A   1      40.843  31.091  29.875  1.00  0.00     0.031 C 
ATOM     57  C   UNL A   1      46.893  30.568  29.691  1.00  0.00     0.029 A 
ATOM     58  C   UNL A   1      45.538  30.286  29.632  1.00  0.00     0.049 A 
ATOM     59  H   UNL A   1      44.578  28.458  29.191  1.00  0.00     0.167 HD
ATOM     60  C   UNL A   1      43.118  30.814  29.761  1.00  0.00     0.074 A 
ATOM     61  C   UNL A   1      42.005  31.719  29.974  1.00  0.00     0.031 C 
ATOM     62  C   UNL A   1      44.423  31.173  29.854  1.00  0.00     0.037 A 
BRANCH  49  63
ATOM     63  C   UNL A   1      48.363  26.528  28.756  1.00  0.00     0.057 A 
ATOM     64  C   UNL A   1      49.097  26.562  27.562  1.00  0.00     0.134 A 
ATOM     65  C   UNL A   1      49.008  26.026  29.893  1.00  0.00     0.134 A 
ATOM     66  F   UNL A   1      48.536  27.019  26.432  1.00  0.00    -0.206 F 
ATOM     67  C   UNL A   1      50.404  26.076  27.491  1.00  0.00     0.040 A 
ATOM     68  C   UNL A   1      50.326  25.565  29.842  1.00  0.00     0.040 A 
ATOM     69  F   UNL A   1      48.370  25.972  31.072  1.00  0.00    -0.206 F 
ATOM     70  C   UNL A   1      51.023  25.578  28.635  1.00  0.00     0.006 A 
ENDBRANCH  49  63
BRANCH  50  71
ATOM     71  C   UNL A   1      38.754  29.138  29.286  1.00  0.00     0.057 A 
ATOM     72  C   UNL A   1      38.103  29.595  28.135  1.00  0.00     0.134 A 
ATOM     73  C   UNL A   1      38.005  29.065  30.467  1.00  0.00     0.134 A 
ATOM     74  F   UNL A   1      38.774  29.703  26.978  1.00  0.00    -0.206 F 
ATOM     75  C   UNL A   1      36.761  29.976  28.156  1.00  0.00     0.040 A 
ATOM     76  C   UNL A   1      36.656  29.422  30.497  1.00  0.00     0.040 A 
ATOM     77  F   UNL A   1      38.570  28.629  31.602  1.00  0.00    -0.206 F 
ATOM     78  C   UNL A   1      36.031  29.883  29.340  1.00  0.00     0.006 A 
ENDBRANCH  50  71
BRANCH  62  79
ATOM     79  C   UNL A   1      44.709  32.609  30.184  1.00  0.00     0.057 A 
ATOM     80  C   UNL A   1      44.782  33.596  29.192  1.00  0.00     0.134 A 
ATOM     81  C   UNL A   1      44.917  33.010  31.511  1.00  0.00     0.134 A 
ATOM     82  F   UNL A   1      44.607  33.276  27.901  1.00  0.00    -0.206 F 
ATOM     83  C   UNL A   1      45.086  34.922  29.503  1.00  0.00     0.040 A 
ATOM     84  C   UNL A   1      45.194  34.339  31.837  1.00  0.00     0.040 A 
ATOM     85  F   UNL A   1      44.854  32.118  32.511  1.00  0.00    -0.206 F 
ATOM     86  C   UNL A   1      45.290  35.297  30.830  1.00  0.00     0.006 A 
ENDBRANCH  62  79
ENDBRANCH  36  37
ENDBRANCH  28  31
ENDBRANCH  26  27
ENDBRANCH  25  26
ENDBRANCH   1  25
TORSDOF 15
ENDMDL
MODEL 3
REMARK VINA RESULT:     -11.7      4.436      9.639
REMARK SMILES CC(C)(C)OC(=O)N1C[C@H](Cc2ccccc2)[C@H](C(=O)NCCCNC(=O)c2ccc(-c3c4nc(c(-c5c(F)cccc5F)c5ccc([nH]5)c(-c5c(F)cccc5F)c5nc(c(-c6c(F)cccc6F)c6ccc3[nH]6)C=C5)C=C4)cc2)C1
REMARK SMILES IDX 22 1 21 2 19 3 20 4 18 6 8 7 9 8 82 9 10 10 6 11 7 12 5 13
REMARK SMILES IDX 2 14 1 15 3 16 4 17 11 18 12 19 13 20 17 21 14 22 16 23
REMARK SMILES IDX 15 24 23 25 24 26 25 27 26 28 27 30 28 31 29 32 81 33 30 34
REMARK SMILES IDX 80 35 31 36 32 37 33 38 74 39 34 40 79 41 73 42 75 43 35 44
REMARK SMILES IDX 78 45 72 46 71 47 36 49 62 50 45 51 61 52 46 53 49 54 60 55
REMARK SMILES IDX 76 56 47 57 48 58 59 60 77 61 50 62 37 63 38 64 43 65 39 66
REMARK SMILES IDX 40 67 42 68 44 69 41 70 63 71 64 72 69 73 65 74 66 75 68 76
REMARK SMILES IDX 70 77 67 78 51 79 52 80 57 81 53 82 54 83 56 84 58 85 55 86
REMARK H PARENT 21 5 25 29 75 48 49 59
REMARK Flexibility Score: inf
ROOT
ATOM      1  C   UNL A   1      31.004  30.924  25.389  1.00  0.00     0.117 C 
ENDROOT
BRANCH   1   2
ATOM      2  N   UNL A   1      32.182  30.132  25.042  1.00  0.00    -0.356 N 
ATOM      3  C   UNL A   1      32.564  28.848  25.264  1.00  0.00     0.225 C 
ATOM      4  O   UNL A   1      33.677  28.539  24.821  1.00  0.00    -0.275 OA
ATOM      5  H   UNL A   1      32.849  30.647  24.533  1.00  0.00     0.163 HD
BRANCH   3   6
ATOM      6  C   UNL A   1      31.761  27.795  26.028  1.00  0.00     0.103 C 
ATOM      7  N   UNL A   1      31.915  25.457  26.069  1.00  0.00    -0.307 N 
ATOM      8  C   UNL A   1      30.512  25.730  25.837  1.00  0.00     0.128 C 
ATOM      9  C   UNL A   1      32.595  26.632  26.559  1.00  0.00     0.137 C 
ATOM     10  C   UNL A   1      30.497  27.178  25.346  1.00  0.00     0.027 C 
BRANCH   7  11
ATOM     11  C   UNL A   1      32.581  24.281  25.835  1.00  0.00     0.410 C 
ATOM     12  O   UNL A   1      32.339  23.252  26.439  1.00  0.00    -0.224 OA
BRANCH  11  13
ATOM     13  O   UNL A   1      33.578  24.451  24.933  1.00  0.00    -0.444 OA
BRANCH  13  14
ATOM     14  C   UNL A   1      33.371  24.264  23.508  1.00  0.00     0.106 C 
ATOM     15  C   UNL A   1      34.428  23.230  23.092  1.00  0.00     0.056 C 
ATOM     16  C   UNL A   1      33.650  25.595  22.811  1.00  0.00     0.056 C 
ATOM     17  C   UNL A   1      31.993  23.706  23.125  1.00  0.00     0.056 C 
ENDBRANCH  13  14
ENDBRANCH  11  13
ENDBRANCH   7  11
BRANCH  10  18
ATOM     18  C   UNL A   1      30.535  27.226  23.823  1.00  0.00     0.041 C 
BRANCH  18  19
ATOM     19  C   UNL A   1      29.629  28.188  23.099  1.00  0.00    -0.048 A 
ATOM     20  C   UNL A   1      30.195  29.167  22.266  1.00  0.00     0.004 A 
ATOM     21  C   UNL A   1      28.251  28.206  23.329  1.00  0.00     0.004 A 
ATOM     22  C   UNL A   1      29.403  30.156  21.688  1.00  0.00     0.000 A 
ATOM     23  C   UNL A   1      27.458  29.198  22.749  1.00  0.00     0.000 A 
ATOM     24  C   UNL A   1      28.034  30.175  21.935  1.00  0.00     0.000 A 
ENDBRANCH  18  19
ENDBRANCH  10  18
ENDBRANCH   3   6
ENDBRANCH   1   2
BRANCH   1  25
ATOM     25  C   UNL A   1      31.208  31.760  26.658  1.00  0.00     0.042 C 
BRANCH  25  26
ATOM     26  C   UNL A   1      32.591  32.369  26.816  1.00  0.00     0.118 C 
BRANCH  26  27
ATOM     27  N   UNL A   1      32.538  33.714  27.351  1.00  0.00    -0.352 N 
ATOM     28  C   UNL A   1      33.215  34.287  28.400  1.00  0.00     0.251 C 
ATOM     29  H   UNL A   1      31.914  34.318  26.885  1.00  0.00     0.163 HD
ATOM     30  O   UNL A   1      32.830  35.374  28.825  1.00  0.00    -0.269 OA
BRANCH  28  31
ATOM     31  C   UNL A   1      34.384  33.630  29.041  1.00  0.00     0.039 A 
ATOM     32  C   UNL A   1      35.663  34.100  28.721  1.00  0.00     0.014 A 
ATOM     33  C   UNL A   1      34.261  32.515  29.874  1.00  0.00     0.014 A 
ATOM     34  C   UNL A   1      36.797  33.480  29.253  1.00  0.00     0.010 A 
ATOM     35  C   UNL A   1      35.387  31.957  30.484  1.00  0.00     0.010 A 
ATOM     36  C   UNL A   1      36.671  32.414  30.159  1.00  0.00    -0.014 A 
BRANCH  36  37
ATOM     37  C   UNL A   1      37.878  31.763  30.735  1.00  0.00     0.031 A 
ATOM     38  C   UNL A   1      38.341  32.092  32.130  1.00  0.00     0.074 A 
ATOM     39  C   UNL A   1      38.570  30.873  29.998  1.00  0.00     0.049 A 
ATOM     40  N   UNL A   1      39.338  31.585  32.814  1.00  0.00    -0.248 NA
ATOM     41  C   UNL A   1      37.605  33.146  32.843  1.00  0.00     0.031 C 
ATOM     42  C   UNL A   1      38.266  30.503  28.615  1.00  0.00     0.029 A 
ATOM     43  N   UNL A   1      39.665  30.108  30.313  1.00  0.00    -0.354 N 
ATOM     44  C   UNL A   1      39.350  32.262  34.028  1.00  0.00     0.074 A 
ATOM     45  C   UNL A   1      38.305  33.259  33.961  1.00  0.00     0.031 C 
ATOM     46  C   UNL A   1      39.117  29.543  28.219  1.00  0.00     0.029 A 
ATOM     47  C   UNL A   1      40.044  29.252  29.307  1.00  0.00     0.049 A 
ATOM     48  H   UNL A   1      40.133  30.165  31.177  1.00  0.00     0.167 HD
ATOM     49  C   UNL A   1      40.136  32.055  35.112  1.00  0.00     0.037 A 
ATOM     50  C   UNL A   1      41.018  28.323  29.272  1.00  0.00     0.037 A 
ATOM     51  C   UNL A   1      41.169  31.053  35.186  1.00  0.00     0.049 A 
ATOM     52  C   UNL A   1      41.878  28.108  30.484  1.00  0.00     0.074 A 
ATOM     53  C   UNL A   1      41.986  30.729  36.257  1.00  0.00     0.029 A 
ATOM     54  N   UNL A   1      41.529  30.214  34.143  1.00  0.00    -0.354 N 
ATOM     55  N   UNL A   1      41.829  28.706  31.650  1.00  0.00    -0.248 NA
ATOM     56  C   UNL A   1      42.920  27.078  30.377  1.00  0.00     0.031 C 
ATOM     57  C   UNL A   1      42.869  29.724  35.846  1.00  0.00     0.029 A 
ATOM     58  C   UNL A   1      42.571  29.388  34.535  1.00  0.00     0.049 A 
ATOM     59  H   UNL A   1      41.107  30.207  33.253  1.00  0.00     0.167 HD
ATOM     60  C   UNL A   1      42.819  28.112  32.423  1.00  0.00     0.074 A 
ATOM     61  C   UNL A   1      43.435  27.091  31.598  1.00  0.00     0.031 C 
ATOM     62  C   UNL A   1      43.185  28.386  33.700  1.00  0.00     0.037 A 
BRANCH  49  63
ATOM     63  C   UNL A   1      39.901  32.938  36.307  1.00  0.00     0.057 A 
ATOM     64  C   UNL A   1      40.658  34.098  36.529  1.00  0.00     0.134 A 
ATOM     65  C   UNL A   1      38.909  32.628  37.246  1.00  0.00     0.134 A 
ATOM     66  F   UNL A   1      41.632  34.448  35.675  1.00  0.00    -0.206 F 
ATOM     67  C   UNL A   1      40.467  34.891  37.662  1.00  0.00     0.040 A 
ATOM     68  C   UNL A   1      38.689  33.430  38.368  1.00  0.00     0.040 A 
ATOM     69  F   UNL A   1      38.142  31.538  37.093  1.00  0.00    -0.206 F 
ATOM     70  C   UNL A   1      39.477  34.559  38.584  1.00  0.00     0.006 A 
ENDBRANCH  49  63
BRANCH  50  71
ATOM     71  C   UNL A   1      41.190  27.483  28.060  1.00  0.00     0.057 A 
ATOM     72  C   UNL A   1      40.477  26.288  27.910  1.00  0.00     0.134 A 
ATOM     73  C   UNL A   1      42.054  27.855  27.024  1.00  0.00     0.134 A 
ATOM     74  F   UNL A   1      39.648  25.871  28.878  1.00  0.00    -0.206 F 
ATOM     75  C   UNL A   1      40.623  25.487  26.777  1.00  0.00     0.040 A 
ATOM     76  C   UNL A   1      42.193  27.074  25.875  1.00  0.00     0.040 A 
ATOM     77  F   UNL A   1      42.760  28.992  27.105  1.00  0.00    -0.206 F 
ATOM     78  C   UNL A   1      41.480  25.884  25.752  1.00  0.00     0.006 A 
ENDBRANCH  50  71
BRANCH  62  79
ATOM     79  C   UNL A   1      44.291  27.553  34.282  1.00  0.00     0.057 A 
ATOM     80  C   UNL A   1      45.630  27.966  34.237  1.00  0.00     0.134 A 
ATOM     81  C   UNL A   1      44.015  26.323  34.892  1.00  0.00     0.134 A 
ATOM     82  F   UNL A   1      45.963  29.128  33.654  1.00  0.00    -0.206 F 
ATOM     83  C   UNL A   1      46.656  27.170  34.746  1.00  0.00     0.040 A 
ATOM     84  C   UNL A   1      45.030  25.530  35.430  1.00  0.00     0.040 A 
ATOM     85  F   UNL A   1      42.754  25.871  34.977  1.00  0.00    -0.206 F 
ATOM     86  C   UNL A   1      46.357  25.948  35.347  1.00  0.00     0.006 A 
ENDBRANCH  62  79
ENDBRANCH  36  37
ENDBRANCH  28  31
ENDBRANCH  26  27
ENDBRANCH  25  26
ENDBRANCH   1  25
TORSDOF 15
ENDMDL
