MODEL 1
REMARK VINA RESULT:      -9.7      0.000      0.000
REMARK SMILES C[C@H](C[NH3+])S[C@H](C)c1ccc(C(=O)NCCCNC(=O)c2ccc(-c3c4nc(c(-c5c(F)cccc5F)c5ccc([nH]5)c(-c5c(F)cccc5F)c5nc(c(-c6c(F)cccc6F)c6ccc3[nH]6)C=C5)C=C4)cc2)o1
REMARK SMILES IDX 12 1 13 2 14 3 11 5 8 6 9 7 75 8 10 9 6 10 7 11 5 12 2 13
REMARK SMILES IDX 1 14 3 15 4 16 15 20 16 21 17 22 18 23 19 24 20 26 21 27
REMARK SMILES IDX 22 28 74 29 23 30 73 31 24 32 25 33 26 34 67 35 27 36 72 37
REMARK SMILES IDX 66 38 68 39 28 40 71 41 65 42 64 43 29 45 55 46 38 47 54 48
REMARK SMILES IDX 39 49 42 50 53 51 69 52 40 53 41 54 52 56 70 57 43 58 30 59
REMARK SMILES IDX 31 60 36 61 32 62 33 63 35 64 37 65 34 66 56 67 57 68 62 69
REMARK SMILES IDX 58 70 59 71 61 72 63 73 60 74 44 75 45 76 50 77 46 78 47 79
REMARK SMILES IDX 49 80 51 81 48 82
REMARK H PARENT 14 4 4 17 4 18 4 19 18 25 68 44 42 55
REMARK Flexibility Score: inf
ROOT
ATOM      1  C   UNL A   1      33.922  29.290  27.088  1.00  0.00     0.286 C 
ATOM      2  O   UNL A   1      34.892  29.259  27.848  1.00  0.00    -0.266 OA
ATOM      3  N   UNL A   1      32.913  30.159  27.446  1.00  0.00    -0.349 N 
ATOM      4  H   UNL A   1      33.004  30.545  28.348  1.00  0.00     0.163 HD
ENDROOT
BRANCH   1   5
ATOM      5  C   UNL A   1      33.832  28.476  25.890  1.00  0.00     0.191 A 
ATOM      6  C   UNL A   1      33.704  26.527  24.834  1.00  0.00     0.117 A 
ATOM      7  C   UNL A   1      33.633  27.504  23.864  1.00  0.00     0.047 A 
ATOM      8  O   UNL A   1      33.830  27.108  26.061  1.00  0.00    -0.455 OA
ATOM      9  C   UNL A   1      33.697  28.744  24.537  1.00  0.00     0.056 A 
BRANCH   6  10
ATOM     10  C   UNL A   1      33.643  25.033  24.792  1.00  0.00     0.110 C 
ATOM     11  C   UNL A   1      35.052  24.444  24.739  1.00  0.00     0.028 C 
BRANCH  10  12
ATOM     12  S   UNL A   1      32.803  24.421  26.304  1.00  0.00    -0.142 SA
BRANCH  12  13
ATOM     13  C   UNL A   1      31.048  24.287  25.766  1.00  0.00     0.099 C 
ATOM     14  C   UNL A   1      30.935  23.575  24.419  1.00  0.00     0.025 C 
BRANCH  13  15
ATOM     15  C   UNL A   1      30.215  25.587  25.865  1.00  0.00     0.273 C 
BRANCH  15  16
ATOM     16  N   UNL A   1      30.762  26.644  26.715  1.00  0.00    -0.357 N 
ATOM     17  H   UNL A   1      31.573  26.287  27.222  1.00  0.00     0.344 HD
ATOM     18  H   UNL A   1      30.052  26.947  27.381  1.00  0.00     0.344 HD
ATOM     19  H   UNL A   1      31.045  27.435  26.137  1.00  0.00     0.344 HD
ENDBRANCH  15  16
ENDBRANCH  13  15
ENDBRANCH  12  13
ENDBRANCH  10  12
ENDBRANCH   6  10
ENDBRANCH   1   5
BRANCH   3  20
ATOM     20  C   UNL A   1      31.740  30.599  26.716  1.00  0.00     0.118 C 
BRANCH  20  21
ATOM     21  C   UNL A   1      31.460  32.089  26.905  1.00  0.00     0.042 C 
BRANCH  21  22
ATOM     22  C   UNL A   1      32.707  32.973  26.837  1.00  0.00     0.118 C 
BRANCH  22  23
ATOM     23  N   UNL A   1      32.562  34.190  27.622  1.00  0.00    -0.352 N 
ATOM     24  C   UNL A   1      33.181  34.594  28.778  1.00  0.00     0.251 C 
ATOM     25  H   UNL A   1      31.910  34.833  27.262  1.00  0.00     0.163 HD
ATOM     26  O   UNL A   1      32.745  35.582  29.368  1.00  0.00    -0.269 OA
BRANCH  24  27
ATOM     27  C   UNL A   1      34.348  33.874  29.335  1.00  0.00     0.039 A 
ATOM     28  C   UNL A   1      35.629  34.302  28.967  1.00  0.00     0.014 A 
ATOM     29  C   UNL A   1      34.205  32.740  30.140  1.00  0.00     0.014 A 
ATOM     30  C   UNL A   1      36.758  33.626  29.434  1.00  0.00     0.010 A 
ATOM     31  C   UNL A   1      35.334  32.099  30.656  1.00  0.00     0.010 A 
ATOM     32  C   UNL A   1      36.622  32.531  30.302  1.00  0.00    -0.014 A 
BRANCH  32  33
ATOM     33  C   UNL A   1      37.818  31.835  30.841  1.00  0.00     0.031 A 
ATOM     34  C   UNL A   1      38.369  32.193  32.194  1.00  0.00     0.074 A 
ATOM     35  C   UNL A   1      38.437  30.905  30.090  1.00  0.00     0.049 A 
ATOM     36  N   UNL A   1      39.420  31.715  32.812  1.00  0.00    -0.248 NA
ATOM     37  C   UNL A   1      37.658  33.240  32.943  1.00  0.00     0.031 C 
ATOM     38  C   UNL A   1      38.031  30.498  28.743  1.00  0.00     0.029 A 
ATOM     39  N   UNL A   1      39.543  30.135  30.350  1.00  0.00    -0.354 N 
ATOM     40  C   UNL A   1      39.505  32.410  34.011  1.00  0.00     0.074 A 
ATOM     41  C   UNL A   1      38.424  33.373  34.017  1.00  0.00     0.031 C 
ATOM     42  C   UNL A   1      38.861  29.538  28.305  1.00  0.00     0.029 A 
ATOM     43  C   UNL A   1      39.872  29.281  29.326  1.00  0.00     0.049 A 
ATOM     44  H   UNL A   1      40.052  30.189  31.191  1.00  0.00     0.167 HD
ATOM     45  C   UNL A   1      40.391  32.250  35.024  1.00  0.00     0.037 A 
ATOM     46  C   UNL A   1      40.874  28.389  29.221  1.00  0.00     0.037 A 
ATOM     47  C   UNL A   1      41.451  31.275  35.031  1.00  0.00     0.049 A 
ATOM     48  C   UNL A   1      41.831  28.216  30.366  1.00  0.00     0.074 A 
ATOM     49  C   UNL A   1      42.364  30.999  36.036  1.00  0.00     0.029 A 
ATOM     50  N   UNL A   1      41.737  30.413  33.984  1.00  0.00    -0.354 N 
ATOM     51  N   UNL A   1      41.863  28.841  31.517  1.00  0.00    -0.248 NA
ATOM     52  C   UNL A   1      42.887  27.207  30.199  1.00  0.00     0.031 C 
ATOM     53  C   UNL A   1      43.222  29.991  35.582  1.00  0.00     0.029 A 
ATOM     54  C   UNL A   1      42.821  29.614  34.312  1.00  0.00     0.049 A 
ATOM     55  H   UNL A   1      41.243  30.375  33.133  1.00  0.00     0.167 HD
ATOM     56  C   UNL A   1      42.925  28.288  32.219  1.00  0.00     0.074 A 
ATOM     57  C   UNL A   1      43.502  27.266  31.371  1.00  0.00     0.031 C 
ATOM     58  C   UNL A   1      43.382  28.600  33.457  1.00  0.00     0.037 A 
BRANCH  45  59
ATOM     59  C   UNL A   1      40.247  33.151  36.215  1.00  0.00     0.057 A 
ATOM     60  C   UNL A   1      40.989  34.333  36.337  1.00  0.00     0.134 A 
ATOM     61  C   UNL A   1      39.333  32.853  37.233  1.00  0.00     0.134 A 
ATOM     62  F   UNL A   1      41.889  34.670  35.402  1.00  0.00    -0.206 F 
ATOM     63  C   UNL A   1      40.846  35.173  37.442  1.00  0.00     0.040 A 
ATOM     64  C   UNL A   1      39.165  33.698  38.332  1.00  0.00     0.040 A 
ATOM     65  F   UNL A   1      38.585  31.741  37.174  1.00  0.00    -0.206 F 
ATOM     66  C   UNL A   1      39.927  34.859  38.442  1.00  0.00     0.006 A 
ENDBRANCH  45  59
BRANCH  46  67
ATOM     67  C   UNL A   1      41.004  27.563  27.996  1.00  0.00     0.057 A 
ATOM     68  C   UNL A   1      40.362  26.323  27.894  1.00  0.00     0.134 A 
ATOM     69  C   UNL A   1      41.766  27.990  26.903  1.00  0.00     0.134 A 
ATOM     70  F   UNL A   1      39.633  25.855  28.918  1.00  0.00    -0.206 F 
ATOM     71  C   UNL A   1      40.487  25.528  26.755  1.00  0.00     0.040 A 
ATOM     72  C   UNL A   1      41.882  27.215  25.748  1.00  0.00     0.040 A 
ATOM     73  F   UNL A   1      42.397  29.172  26.938  1.00  0.00    -0.206 F 
ATOM     74  C   UNL A   1      41.245  25.977  25.675  1.00  0.00     0.006 A 
ENDBRANCH  46  67
BRANCH  58  75
ATOM     75  C   UNL A   1      44.547  27.808  33.972  1.00  0.00     0.057 A 
ATOM     76  C   UNL A   1      44.369  26.596  34.651  1.00  0.00     0.134 A 
ATOM     77  C   UNL A   1      45.859  28.253  33.768  1.00  0.00     0.134 A 
ATOM     78  F   UNL A   1      43.137  26.125  34.890  1.00  0.00    -0.206 F 
ATOM     79  C   UNL A   1      45.457  25.867  35.132  1.00  0.00     0.040 A 
ATOM     80  C   UNL A   1      46.955  27.520  34.224  1.00  0.00     0.040 A 
ATOM     81  F   UNL A   1      46.095  29.403  33.119  1.00  0.00    -0.206 F 
ATOM     82  C   UNL A   1      46.755  26.325  34.914  1.00  0.00     0.006 A 
ENDBRANCH  58  75
ENDBRANCH  32  33
ENDBRANCH  24  27
ENDBRANCH  22  23
ENDBRANCH  21  22
ENDBRANCH  20  21
ENDBRANCH   3  20
TORSDOF 15
ENDMDL
MODEL 2
REMARK VINA RESULT:      -9.7      2.886      4.251
REMARK SMILES C[C@H](C[NH3+])S[C@H](C)c1ccc(C(=O)NCCCNC(=O)c2ccc(-c3c4nc(c(-c5c(F)cccc5F)c5ccc([nH]5)c(-c5c(F)cccc5F)c5nc(c(-c6c(F)cccc6F)c6ccc3[nH]6)C=C5)C=C4)cc2)o1
REMARK SMILES IDX 12 1 13 2 14 3 11 5 8 6 9 7 75 8 10 9 6 10 7 11 5 12 2 13
REMARK SMILES IDX 1 14 3 15 4 16 15 20 16 21 17 22 18 23 19 24 20 26 21 27
REMARK SMILES IDX 22 28 74 29 23 30 73 31 24 32 25 33 26 34 67 35 27 36 72 37
REMARK SMILES IDX 66 38 68 39 28 40 71 41 65 42 64 43 29 45 55 46 38 47 54 48
REMARK SMILES IDX 39 49 42 50 53 51 69 52 40 53 41 54 52 56 70 57 43 58 30 59
REMARK SMILES IDX 31 60 36 61 32 62 33 63 35 64 37 65 34 66 56 67 57 68 62 69
REMARK SMILES IDX 58 70 59 71 61 72 63 73 60 74 44 75 45 76 50 77 46 78 47 79
REMARK SMILES IDX 49 80 51 81 48 82
REMARK H PARENT 14 4 4 17 4 18 4 19 18 25 68 44 42 55
REMARK Flexibility Score: inf
ROOT
ATOM      1  C   UNL A   1      31.287  24.213  26.877  1.00  0.00     0.286 C 
ATOM      2  O   UNL A   1      30.140  23.942  27.236  1.00  0.00    -0.266 OA
ATOM      3  N   UNL A   1      31.498  25.521  26.493  1.00  0.00    -0.349 N 
ATOM      4  H   UNL A   1      30.678  26.057  26.397  1.00  0.00     0.163 HD
ENDROOT
BRANCH   1   5
ATOM      5  C   UNL A   1      32.360  23.235  26.858  1.00  0.00     0.191 A 
ATOM      6  C   UNL A   1      33.819  21.928  25.813  1.00  0.00     0.117 A 
ATOM      7  C   UNL A   1      34.049  21.772  27.164  1.00  0.00     0.047 A 
ATOM      8  O   UNL A   1      32.795  22.807  25.623  1.00  0.00    -0.455 OA
ATOM      9  C   UNL A   1      33.133  22.617  27.828  1.00  0.00     0.056 A 
BRANCH   6  10
ATOM     10  C   UNL A   1      34.469  21.363  24.590  1.00  0.00     0.110 C 
ATOM     11  C   UNL A   1      35.788  22.082  24.310  1.00  0.00     0.028 C 
BRANCH  10  12
ATOM     12  S   UNL A   1      34.812  19.581  24.858  1.00  0.00    -0.142 SA
BRANCH  12  13
ATOM     13  C   UNL A   1      33.320  18.771  24.148  1.00  0.00     0.099 C 
ATOM     14  C   UNL A   1      32.444  19.778  23.405  1.00  0.00     0.025 C 
BRANCH  13  15
ATOM     15  C   UNL A   1      32.539  17.842  25.108  1.00  0.00     0.273 C 
BRANCH  15  16
ATOM     16  N   UNL A   1      32.717  18.092  26.538  1.00  0.00    -0.357 N 
ATOM     17  H   UNL A   1      33.563  17.621  26.863  1.00  0.00     0.344 HD
ATOM     18  H   UNL A   1      31.911  17.734  27.049  1.00  0.00     0.344 HD
ATOM     19  H   UNL A   1      32.804  19.096  26.701  1.00  0.00     0.344 HD
ENDBRANCH  15  16
ENDBRANCH  13  15
ENDBRANCH  12  13
ENDBRANCH  10  12
ENDBRANCH   6  10
ENDBRANCH   1   5
BRANCH   3  20
ATOM     20  C   UNL A   1      32.726  26.237  26.207  1.00  0.00     0.118 C 
BRANCH  20  21
ATOM     21  C   UNL A   1      32.667  27.698  26.649  1.00  0.00     0.042 C 
BRANCH  21  22
ATOM     22  C   UNL A   1      33.840  28.547  26.155  1.00  0.00     0.118 C 
BRANCH  22  23
ATOM     23  N   UNL A   1      33.737  29.933  26.590  1.00  0.00    -0.352 N 
ATOM     24  C   UNL A   1      34.502  30.660  27.467  1.00  0.00     0.251 C 
ATOM     25  H   UNL A   1      32.993  30.434  26.184  1.00  0.00     0.163 HD
ATOM     26  O   UNL A   1      34.098  31.764  27.829  1.00  0.00    -0.269 OA
BRANCH  24  27
ATOM     27  C   UNL A   1      35.790  30.152  27.991  1.00  0.00     0.039 A 
ATOM     28  C   UNL A   1      35.814  29.615  29.283  1.00  0.00     0.014 A 
ATOM     29  C   UNL A   1      36.982  30.270  27.271  1.00  0.00     0.014 A 
ATOM     30  C   UNL A   1      37.015  29.163  29.835  1.00  0.00     0.010 A 
ATOM     31  C   UNL A   1      38.172  29.764  27.797  1.00  0.00     0.010 A 
ATOM     32  C   UNL A   1      38.203  29.212  29.088  1.00  0.00    -0.014 A 
BRANCH  32  33
ATOM     33  C   UNL A   1      39.475  28.691  29.649  1.00  0.00     0.031 A 
ATOM     34  C   UNL A   1      40.089  29.320  30.868  1.00  0.00     0.074 A 
ATOM     35  C   UNL A   1      40.102  27.671  29.032  1.00  0.00     0.049 A 
ATOM     36  N   UNL A   1      41.208  29.020  31.480  1.00  0.00    -0.248 NA
ATOM     37  C   UNL A   1      39.363  30.449  31.470  1.00  0.00     0.031 C 
ATOM     38  C   UNL A   1      39.635  27.003  27.816  1.00  0.00     0.029 A 
ATOM     39  N   UNL A   1      41.271  27.021  29.341  1.00  0.00    -0.354 N 
ATOM     40  C   UNL A   1      41.327  29.927  32.524  1.00  0.00     0.074 A 
ATOM     41  C   UNL A   1      40.188  30.817  32.440  1.00  0.00     0.031 C 
ATOM     42  C   UNL A   1      40.495  26.023  27.495  1.00  0.00     0.029 A 
ATOM     43  C   UNL A   1      41.585  26.011  28.465  1.00  0.00     0.049 A 
ATOM     44  H   UNL A   1      41.829  27.255  30.116  1.00  0.00     0.167 HD
ATOM     45  C   UNL A   1      42.286  30.003  33.478  1.00  0.00     0.037 A 
ATOM     46  C   UNL A   1      42.635  25.168  28.446  1.00  0.00     0.037 A 
ATOM     47  C   UNL A   1      43.406  29.103  33.579  1.00  0.00     0.049 A 
ATOM     48  C   UNL A   1      43.675  25.260  29.526  1.00  0.00     0.074 A 
ATOM     49  C   UNL A   1      44.399  29.064  34.543  1.00  0.00     0.029 A 
ATOM     50  N   UNL A   1      43.678  28.078  32.686  1.00  0.00    -0.354 N 
ATOM     51  N   UNL A   1      43.742  26.087  30.540  1.00  0.00    -0.248 NA
ATOM     52  C   UNL A   1      44.781  24.294  29.463  1.00  0.00     0.031 C 
ATOM     53  C   UNL A   1      45.289  28.036  34.214  1.00  0.00     0.029 A 
ATOM     54  C   UNL A   1      44.830  27.411  33.067  1.00  0.00     0.049 A 
ATOM     55  H   UNL A   1      43.132  27.858  31.896  1.00  0.00     0.167 HD
ATOM     56  C   UNL A   1      44.882  25.729  31.246  1.00  0.00     0.074 A 
ATOM     57  C   UNL A   1      45.467  24.599  30.554  1.00  0.00     0.031 C 
ATOM     58  C   UNL A   1      45.399  26.287  32.368  1.00  0.00     0.037 A 
BRANCH  45  59
ATOM     59  C   UNL A   1      42.163  31.099  34.494  1.00  0.00     0.057 A 
ATOM     60  C   UNL A   1      42.764  32.350  34.304  1.00  0.00     0.134 A 
ATOM     61  C   UNL A   1      41.408  30.916  35.659  1.00  0.00     0.134 A 
ATOM     62  F   UNL A   1      43.510  32.588  33.214  1.00  0.00    -0.206 F 
ATOM     63  C   UNL A   1      42.641  33.371  35.248  1.00  0.00     0.040 A 
ATOM     64  C   UNL A   1      41.258  31.937  36.599  1.00  0.00     0.040 A 
ATOM     65  F   UNL A   1      40.800  29.745  35.900  1.00  0.00    -0.206 F 
ATOM     66  C   UNL A   1      41.880  33.167  36.398  1.00  0.00     0.006 A 
ENDBRANCH  45  59
BRANCH  46  67
ATOM     67  C   UNL A   1      42.737  24.138  27.383  1.00  0.00     0.057 A 
ATOM     68  C   UNL A   1      42.221  22.852  27.578  1.00  0.00     0.134 A 
ATOM     69  C   UNL A   1      43.346  24.413  26.154  1.00  0.00     0.134 A 
ATOM     70  F   UNL A   1      41.642  22.527  28.743  1.00  0.00    -0.206 F 
ATOM     71  C   UNL A   1      42.323  21.868  26.594  1.00  0.00     0.040 A 
ATOM     72  C   UNL A   1      43.436  23.445  25.153  1.00  0.00     0.040 A 
ATOM     73  F   UNL A   1      43.851  25.630  25.906  1.00  0.00    -0.206 F 
ATOM     74  C   UNL A   1      42.927  22.166  25.374  1.00  0.00     0.006 A 
ENDBRANCH  46  67
BRANCH  58  75
ATOM     75  C   UNL A   1      46.644  25.665  32.926  1.00  0.00     0.057 A 
ATOM     76  C   UNL A   1      46.591  24.637  33.875  1.00  0.00     0.134 A 
ATOM     77  C   UNL A   1      47.908  26.087  32.494  1.00  0.00     0.134 A 
ATOM     78  F   UNL A   1      45.411  24.200  34.338  1.00  0.00    -0.206 F 
ATOM     79  C   UNL A   1      47.754  24.066  34.394  1.00  0.00     0.040 A 
ATOM     80  C   UNL A   1      49.076  25.507  32.989  1.00  0.00     0.040 A 
ATOM     81  F   UNL A   1      48.026  27.063  31.583  1.00  0.00    -0.206 F 
ATOM     82  C   UNL A   1      49.002  24.497  33.947  1.00  0.00     0.006 A 
ENDBRANCH  58  75
ENDBRANCH  32  33
ENDBRANCH  24  27
ENDBRANCH  22  23
ENDBRANCH  21  22
ENDBRANCH  20  21
ENDBRANCH   3  20
TORSDOF 15
ENDMDL
MODEL 3
REMARK VINA RESULT:      -9.6      1.602      6.757
REMARK SMILES C[C@H](C[NH3+])S[C@H](C)c1ccc(C(=O)NCCCNC(=O)c2ccc(-c3c4nc(c(-c5c(F)cccc5F)c5ccc([nH]5)c(-c5c(F)cccc5F)c5nc(c(-c6c(F)cccc6F)c6ccc3[nH]6)C=C5)C=C4)cc2)o1
REMARK SMILES IDX 12 1 13 2 14 3 11 5 8 6 9 7 75 8 10 9 6 10 7 11 5 12 2 13
REMARK SMILES IDX 1 14 3 15 4 16 15 20 16 21 17 22 18 23 19 24 20 26 21 27
REMARK SMILES IDX 22 28 74 29 23 30 73 31 24 32 25 33 26 34 67 35 27 36 72 37
REMARK SMILES IDX 66 38 68 39 28 40 71 41 65 42 64 43 29 45 55 46 38 47 54 48
REMARK SMILES IDX 39 49 42 50 53 51 69 52 40 53 41 54 52 56 70 57 43 58 30 59
REMARK SMILES IDX 31 60 36 61 32 62 33 63 35 64 37 65 34 66 56 67 57 68 62 69
REMARK SMILES IDX 58 70 59 71 61 72 63 73 60 74 44 75 45 76 50 77 46 78 47 79
REMARK SMILES IDX 49 80 51 81 48 82
REMARK H PARENT 14 4 4 17 4 18 4 19 18 25 68 44 42 55
REMARK Flexibility Score: inf
ROOT
ATOM      1  C   UNL A   1      29.404  30.364  23.510  1.00  0.00     0.286 C 
ATOM      2  O   UNL A   1      28.368  30.741  22.959  1.00  0.00    -0.266 OA
ATOM      3  N   UNL A   1      29.930  31.231  24.446  1.00  0.00    -0.349 N 
ATOM      4  H   UNL A   1      29.511  32.122  24.460  1.00  0.00     0.163 HD
ENDROOT
BRANCH   1   5
ATOM      5  C   UNL A   1      30.040  29.094  23.211  1.00  0.00     0.191 A 
ATOM      6  C   UNL A   1      30.294  26.904  23.476  1.00  0.00     0.117 A 
ATOM      7  C   UNL A   1      31.175  27.285  22.487  1.00  0.00     0.047 A 
ATOM      8  O   UNL A   1      29.608  27.995  23.922  1.00  0.00    -0.455 OA
ATOM      9  C   UNL A   1      31.001  28.675  22.306  1.00  0.00     0.056 A 
BRANCH   6  10
ATOM     10  C   UNL A   1      29.952  25.586  24.094  1.00  0.00     0.110 C 
ATOM     11  C   UNL A   1      30.715  24.459  23.398  1.00  0.00     0.028 C 
BRANCH  10  12
ATOM     12  S   UNL A   1      30.422  25.610  25.867  1.00  0.00    -0.142 SA
BRANCH  12  13
ATOM     13  C   UNL A   1      31.991  26.572  25.857  1.00  0.00     0.099 C 
ATOM     14  C   UNL A   1      33.207  25.648  25.886  1.00  0.00     0.025 C 
BRANCH  13  15
ATOM     15  C   UNL A   1      32.065  27.746  26.862  1.00  0.00     0.273 C 
BRANCH  15  16
ATOM     16  N   UNL A   1      31.005  27.806  27.867  1.00  0.00    -0.357 N 
ATOM     17  H   UNL A   1      30.456  26.945  27.835  1.00  0.00     0.344 HD
ATOM     18  H   UNL A   1      30.398  28.602  27.674  1.00  0.00     0.344 HD
ATOM     19  H   UNL A   1      31.418  27.911  28.794  1.00  0.00     0.344 HD
ENDBRANCH  15  16
ENDBRANCH  13  15
ENDBRANCH  12  13
ENDBRANCH  10  12
ENDBRANCH   6  10
ENDBRANCH   1   5
BRANCH   3  20
ATOM     20  C   UNL A   1      30.996  31.047  25.411  1.00  0.00     0.118 C 
BRANCH  20  21
ATOM     21  C   UNL A   1      30.999  32.127  26.491  1.00  0.00     0.042 C 
BRANCH  21  22
ATOM     22  C   UNL A   1      32.397  32.563  26.935  1.00  0.00     0.118 C 
BRANCH  22  23
ATOM     23  N   UNL A   1      32.417  33.936  27.418  1.00  0.00    -0.352 N 
ATOM     24  C   UNL A   1      33.152  34.528  28.414  1.00  0.00     0.251 C 
ATOM     25  H   UNL A   1      31.800  34.543  26.950  1.00  0.00     0.163 HD
ATOM     26  O   UNL A   1      32.849  35.664  28.777  1.00  0.00    -0.269 OA
BRANCH  24  27
ATOM     27  C   UNL A   1      34.289  33.839  29.066  1.00  0.00     0.039 A 
ATOM     28  C   UNL A   1      35.587  34.250  28.741  1.00  0.00     0.014 A 
ATOM     29  C   UNL A   1      34.104  32.747  29.918  1.00  0.00     0.014 A 
ATOM     30  C   UNL A   1      36.690  33.600  29.298  1.00  0.00     0.010 A 
ATOM     31  C   UNL A   1      35.204  32.135  30.522  1.00  0.00     0.010 A 
ATOM     32  C   UNL A   1      36.509  32.550  30.213  1.00  0.00    -0.014 A 
BRANCH  32  33
ATOM     33  C   UNL A   1      37.676  31.884  30.845  1.00  0.00     0.031 A 
ATOM     34  C   UNL A   1      38.441  30.818  30.111  1.00  0.00     0.074 A 
ATOM     35  C   UNL A   1      38.023  32.211  32.105  1.00  0.00     0.049 A 
ATOM     36  N   UNL A   1      39.465  30.107  30.514  1.00  0.00    -0.248 NA
ATOM     37  C   UNL A   1      37.985  30.493  28.751  1.00  0.00     0.031 C 
ATOM     38  C   UNL A   1      37.335  33.195  32.943  1.00  0.00     0.029 A 
ATOM     39  N   UNL A   1      39.039  31.747  32.902  1.00  0.00    -0.354 N 
ATOM     40  C   UNL A   1      39.765  29.245  29.469  1.00  0.00     0.074 A 
ATOM     41  C   UNL A   1      38.790  29.490  28.427  1.00  0.00     0.031 C 
ATOM     42  C   UNL A   1      37.961  33.278  34.127  1.00  0.00     0.029 A 
ATOM     43  C   UNL A   1      39.076  32.337  34.142  1.00  0.00     0.049 A 
ATOM     44  H   UNL A   1      39.680  31.059  32.613  1.00  0.00     0.167 HD
ATOM     45  C   UNL A   1      40.772  28.342  29.375  1.00  0.00     0.037 A 
ATOM     46  C   UNL A   1      39.917  32.142  35.176  1.00  0.00     0.037 A 
ATOM     47  C   UNL A   1      41.759  28.115  30.399  1.00  0.00     0.049 A 
ATOM     48  C   UNL A   1      41.036  31.150  35.040  1.00  0.00     0.074 A 
ATOM     49  C   UNL A   1      42.850  27.263  30.374  1.00  0.00     0.029 A 
ATOM     50  N   UNL A   1      41.776  28.748  31.632  1.00  0.00    -0.354 N 
ATOM     51  N   UNL A   1      41.341  30.383  34.023  1.00  0.00    -0.248 NA
ATOM     52  C   UNL A   1      41.934  31.004  36.195  1.00  0.00     0.031 C 
ATOM     53  C   UNL A   1      43.509  27.358  31.605  1.00  0.00     0.029 A 
ATOM     54  C   UNL A   1      42.850  28.296  32.381  1.00  0.00     0.049 A 
ATOM     55  H   UNL A   1      41.121  29.420  31.932  1.00  0.00     0.167 HD
ATOM     56  C   UNL A   1      42.476  29.680  34.404  1.00  0.00     0.074 A 
ATOM     57  C   UNL A   1      42.814  30.123  35.741  1.00  0.00     0.031 C 
ATOM     58  C   UNL A   1      43.174  28.749  33.710  1.00  0.00     0.037 A 
BRANCH  45  59
ATOM     59  C   UNL A   1      40.857  27.533  28.115  1.00  0.00     0.057 A 
ATOM     60  C   UNL A   1      41.588  27.976  27.005  1.00  0.00     0.134 A 
ATOM     61  C   UNL A   1      40.232  26.284  28.020  1.00  0.00     0.134 A 
ATOM     62  F   UNL A   1      42.202  29.168  27.027  1.00  0.00    -0.206 F 
ATOM     63  C   UNL A   1      41.673  27.217  25.837  1.00  0.00     0.040 A 
ATOM     64  C   UNL A   1      40.328  25.505  26.866  1.00  0.00     0.040 A 
ATOM     65  F   UNL A   1      39.521  25.797  29.049  1.00  0.00    -0.206 F 
ATOM     66  C   UNL A   1      41.046  25.974  25.767  1.00  0.00     0.006 A 
ENDBRANCH  45  59
BRANCH  46  67
ATOM     67  C   UNL A   1      39.751  32.930  36.421  1.00  0.00     0.057 A 
ATOM     68  C   UNL A   1      40.515  34.080  36.651  1.00  0.00     0.134 A 
ATOM     69  C   UNL A   1      38.829  32.557  37.406  1.00  0.00     0.134 A 
ATOM     70  F   UNL A   1      41.427  34.475  35.750  1.00  0.00    -0.206 F 
ATOM     71  C   UNL A   1      40.382  34.822  37.825  1.00  0.00     0.040 A 
ATOM     72  C   UNL A   1      38.671  33.303  38.575  1.00  0.00     0.040 A 
ATOM     73  F   UNL A   1      38.063  31.470  37.239  1.00  0.00    -0.206 F 
ATOM     74  C   UNL A   1      39.453  34.437  38.789  1.00  0.00     0.006 A 
ENDBRANCH  46  67
BRANCH  58  75
ATOM     75  C   UNL A   1      44.386  28.170  34.377  1.00  0.00     0.057 A 
ATOM     76  C   UNL A   1      45.646  28.771  34.262  1.00  0.00     0.134 A 
ATOM     77  C   UNL A   1      44.287  27.012  35.158  1.00  0.00     0.134 A 
ATOM     78  F   UNL A   1      45.808  29.873  33.516  1.00  0.00    -0.206 F 
ATOM     79  C   UNL A   1      46.771  28.224  34.881  1.00  0.00     0.040 A 
ATOM     80  C   UNL A   1      45.400  26.470  35.801  1.00  0.00     0.040 A 
ATOM     81  F   UNL A   1      43.107  26.394  35.312  1.00  0.00    -0.206 F 
ATOM     82  C   UNL A   1      46.649  27.073  35.658  1.00  0.00     0.006 A 
ENDBRANCH  58  75
ENDBRANCH  32  33
ENDBRANCH  24  27
ENDBRANCH  22  23
ENDBRANCH  21  22
ENDBRANCH  20  21
ENDBRANCH   3  20
TORSDOF 15
ENDMDL
