MODEL 1
REMARK VINA RESULT:     -12.5      0.000      0.000
REMARK SMILES CCCCc1cc(S(F)(F)(F)(F)F)cc2c1O[C@@H](C(F)(F)F)C(C(=O)NCCCNC(=O)c1ccc(-c3c4nc(c(-c5c(F)cccc5F)c5ccc([nH]5)c(-c5c(F)cccc5F)c5nc(c(-c6c(F)cccc6F)c6ccc3[nH]6)C=C5)C=C4)cc1)=C2
REMARK SMILES IDX 27 1 26 2 24 3 25 4 23 6 5 7 6 8 16 9 7 10 15 11 17 12 14 13
REMARK SMILES IDX 87 14 18 15 4 16 3 17 2 18 1 19 8 20 9 21 10 22 11 23 12 24
REMARK SMILES IDX 13 25 19 26 20 27 21 28 22 29 28 30 29 31 30 32 31 33 32 35
REMARK SMILES IDX 33 36 34 37 86 38 35 39 85 40 36 41 37 42 38 43 79 44 39 45
REMARK SMILES IDX 84 46 78 47 80 48 40 49 83 50 77 51 76 52 41 54 67 55 50 56
REMARK SMILES IDX 66 57 51 58 54 59 65 60 81 61 52 62 53 63 64 65 82 66 55 67
REMARK SMILES IDX 42 68 43 69 48 70 44 71 45 72 47 73 49 74 46 75 68 76 69 77
REMARK SMILES IDX 74 78 70 79 71 80 73 81 75 82 72 83 56 84 57 85 62 86 58 87
REMARK SMILES IDX 59 88 61 89 63 90 60 91
REMARK H PARENT 26 5 30 34 80 53 54 64
REMARK Flexibility Score: inf
ROOT
ATOM      1  C   UNL A   1      33.626  27.049  24.842  1.00  0.00     0.118 C 
ENDROOT
BRANCH   1   2
ATOM      2  N   UNL A   1      33.556  27.331  23.400  1.00  0.00    -0.352 N 
ATOM      3  C   UNL A   1      33.563  26.224  22.434  1.00  0.00     0.251 C 
ATOM      4  O   UNL A   1      33.502  26.469  21.188  1.00  0.00    -0.270 OA
ATOM      5  H   UNL A   1      33.505  28.262  23.083  1.00  0.00     0.163 HD
BRANCH   3   6
ATOM      6  C   UNL A   1      33.642  24.788  22.923  1.00  0.00     0.067 C 
ATOM      7  C   UNL A   1      33.659  21.011  24.708  1.00  0.00    -0.004 A 
ATOM      8  C   UNL A   1      34.861  20.398  25.013  1.00  0.00     0.032 A 
ATOM      9  C   UNL A   1      33.682  22.276  24.171  1.00  0.00     0.131 A 
ATOM     10  C   UNL A   1      36.053  21.034  24.791  1.00  0.00     0.108 A 
ATOM     11  C   UNL A   1      34.867  22.941  23.915  1.00  0.00     0.019 A 
ATOM     12  O   UNL A   1      32.482  22.915  23.978  1.00  0.00    -0.475 OA
ATOM     13  C   UNL A   1      36.056  22.298  24.237  1.00  0.00     0.036 A 
ATOM     14  C   UNL A   1      34.784  24.291  23.382  1.00  0.00     0.025 C 
ATOM     15  C   UNL A   1      32.414  23.888  22.898  1.00  0.00     0.314 C 
BRANCH   7  16
ATOM     16  C   UNL A   1      32.340  20.301  24.962  1.00  0.00     0.039 C 
BRANCH  16  17
ATOM     17  C   UNL A   1      32.539  18.800  24.827  1.00  0.00     0.005 C 
BRANCH  17  18
ATOM     18  C   UNL A   1      32.510  18.415  23.357  1.00  0.00    -0.003 C 
ATOM     19  C   UNL A   1      33.494  17.282  23.110  1.00  0.00     0.004 C 
ENDBRANCH  17  18
ENDBRANCH  16  17
ENDBRANCH   7  16
BRANCH  10  20
ATOM     20  S   UNL A   1      37.614  20.222  25.219  1.00  0.00     0.310 S 
ATOM     21  F   UNL A   1      38.050  20.117  23.698  1.00  0.00    -0.094 F 
ATOM     22  F   UNL A   1      36.912  18.822  25.043  1.00  0.00    -0.094 F 
ATOM     23  F   UNL A   1      38.958  19.533  25.588  1.00  0.00    -0.094 F 
ATOM     24  F   UNL A   1      38.334  21.628  25.253  1.00  0.00    -0.094 F 
ATOM     25  F   UNL A   1      36.286  20.931  24.736  1.00  0.00    -0.094 F 
ENDBRANCH  10  20
BRANCH  15  26
ATOM     26  C   UNL A   1      31.170  24.742  23.078  1.00  0.00     0.429 C 
ATOM     27  F   UNL A   1      31.226  25.366  24.251  1.00  0.00    -0.167 F 
ATOM     28  F   UNL A   1      31.104  25.641  22.100  1.00  0.00    -0.167 F 
ATOM     29  F   UNL A   1      30.090  23.965  23.040  1.00  0.00    -0.167 F 
ENDBRANCH  15  26
ENDBRANCH   3   6
ENDBRANCH   1   2
BRANCH   1  30
ATOM     30  C   UNL A   1      34.362  28.178  25.543  1.00  0.00     0.042 C 
BRANCH  30  31
ATOM     31  C   UNL A   1      33.999  28.180  27.020  1.00  0.00     0.118 C 
BRANCH  31  32
ATOM     32  N   UNL A   1      33.506  29.511  27.401  1.00  0.00    -0.352 N 
ATOM     33  C   UNL A   1      34.415  30.476  28.039  1.00  0.00     0.251 C 
ATOM     34  H   UNL A   1      32.568  29.758  27.231  1.00  0.00     0.163 HD
ATOM     35  O   UNL A   1      33.989  31.627  28.370  1.00  0.00    -0.269 OA
BRANCH  33  36
ATOM     36  C   UNL A   1      35.862  30.096  28.303  1.00  0.00     0.039 A 
ATOM     37  C   UNL A   1      36.812  30.308  27.317  1.00  0.00     0.014 A 
ATOM     38  C   UNL A   1      36.194  29.569  29.476  1.00  0.00     0.014 A 
ATOM     39  C   UNL A   1      38.045  29.658  27.560  1.00  0.00     0.010 A 
ATOM     40  C   UNL A   1      37.458  29.077  29.690  1.00  0.00     0.010 A 
ATOM     41  C   UNL A   1      38.430  29.197  28.736  1.00  0.00    -0.014 A 
BRANCH  41  42
ATOM     42  C   UNL A   1      39.876  28.823  29.015  1.00  0.00     0.031 A 
ATOM     43  C   UNL A   1      40.687  29.768  29.647  1.00  0.00     0.074 A 
ATOM     44  C   UNL A   1      40.311  27.569  28.624  1.00  0.00     0.049 A 
ATOM     45  N   UNL A   1      41.964  29.633  30.009  1.00  0.00    -0.248 NA
ATOM     46  C   UNL A   1      40.238  31.114  30.032  1.00  0.00     0.031 C 
ATOM     47  C   UNL A   1      39.497  26.607  27.993  1.00  0.00     0.029 A 
ATOM     48  N   UNL A   1      41.570  27.028  28.765  1.00  0.00    -0.354 N 
ATOM     49  C   UNL A   1      42.394  30.746  30.607  1.00  0.00     0.074 A 
ATOM     50  C   UNL A   1      41.292  31.717  30.624  1.00  0.00     0.031 C 
ATOM     51  C   UNL A   1      40.257  25.507  27.747  1.00  0.00     0.029 A 
ATOM     52  C   UNL A   1      41.559  25.763  28.220  1.00  0.00     0.049 A 
ATOM     53  H   UNL A   1      42.344  27.469  29.183  1.00  0.00     0.167 HD
ATOM     54  C   UNL A   1      43.662  30.989  31.138  1.00  0.00     0.037 A 
ATOM     55  C   UNL A   1      42.613  24.868  28.130  1.00  0.00     0.037 A 
ATOM     56  C   UNL A   1      44.704  30.077  31.087  1.00  0.00     0.049 A 
ATOM     57  C   UNL A   1      43.898  25.133  28.610  1.00  0.00     0.074 A 
ATOM     58  C   UNL A   1      45.986  30.303  31.625  1.00  0.00     0.029 A 
ATOM     59  N   UNL A   1      44.699  28.822  30.520  1.00  0.00    -0.354 N 
ATOM     60  N   UNL A   1      44.317  26.231  29.243  1.00  0.00    -0.248 NA
ATOM     61  C   UNL A   1      45.031  24.207  28.491  1.00  0.00     0.031 C 
ATOM     62  C   UNL A   1      46.746  29.203  31.379  1.00  0.00     0.029 A 
ATOM     63  C   UNL A   1      45.953  28.272  30.681  1.00  0.00     0.049 A 
ATOM     64  H   UNL A   1      43.933  28.391  30.076  1.00  0.00     0.167 HD
ATOM     65  C   UNL A   1      45.605  26.111  29.567  1.00  0.00     0.074 A 
ATOM     66  C   UNL A   1      46.086  24.810  29.082  1.00  0.00     0.031 C 
ATOM     67  C   UNL A   1      46.400  27.033  30.251  1.00  0.00     0.037 A 
BRANCH  54  68
ATOM     68  C   UNL A   1      43.912  32.328  31.812  1.00  0.00     0.057 A 
ATOM     69  C   UNL A   1      44.383  33.404  31.077  1.00  0.00     0.134 A 
ATOM     70  C   UNL A   1      43.713  32.422  33.122  1.00  0.00     0.134 A 
ATOM     71  F   UNL A   1      44.358  33.442  29.749  1.00  0.00    -0.206 F 
ATOM     72  C   UNL A   1      44.894  34.459  31.870  1.00  0.00     0.040 A 
ATOM     73  C   UNL A   1      44.115  33.540  33.811  1.00  0.00     0.040 A 
ATOM     74  F   UNL A   1      43.120  31.424  33.771  1.00  0.00    -0.206 F 
ATOM     75  C   UNL A   1      44.642  34.618  33.157  1.00  0.00     0.006 A 
ENDBRANCH  54  68
BRANCH  55  76
ATOM     76  C   UNL A   1      42.358  23.523  27.471  1.00  0.00     0.057 A 
ATOM     77  C   UNL A   1      42.458  23.360  26.099  1.00  0.00     0.134 A 
ATOM     78  C   UNL A   1      42.050  22.504  28.265  1.00  0.00     0.134 A 
ATOM     79  F   UNL A   1      43.004  24.271  25.299  1.00  0.00    -0.206 F 
ATOM     80  C   UNL A   1      41.929  22.135  25.628  1.00  0.00     0.040 A 
ATOM     81  C   UNL A   1      41.672  21.293  27.736  1.00  0.00     0.040 A 
ATOM     82  F   UNL A   1      42.108  22.656  29.585  1.00  0.00    -0.206 F 
ATOM     83  C   UNL A   1      41.691  21.080  26.385  1.00  0.00     0.006 A 
ENDBRANCH  55  76
BRANCH  67  84
ATOM     84  C   UNL A   1      47.842  26.655  30.543  1.00  0.00     0.057 A 
ATOM     85  C   UNL A   1      48.834  27.017  29.647  1.00  0.00     0.134 A 
ATOM     86  C   UNL A   1      48.129  25.983  31.652  1.00  0.00     0.134 A 
ATOM     87  F   UNL A   1      48.640  27.895  28.667  1.00  0.00    -0.206 F 
ATOM     88  C   UNL A   1      50.073  26.370  29.869  1.00  0.00     0.040 A 
ATOM     89  C   UNL A   1      49.395  25.496  31.868  1.00  0.00     0.040 A 
ATOM     90  F   UNL A   1      47.180  25.781  32.563  1.00  0.00    -0.206 F 
ATOM     91  C   UNL A   1      50.411  25.767  30.994  1.00  0.00     0.006 A 
ENDBRANCH  67  84
ENDBRANCH  41  42
ENDBRANCH  33  36
ENDBRANCH  31  32
ENDBRANCH  30  31
ENDBRANCH   1  30
TORSDOF 15
ENDMDL
MODEL 2
REMARK VINA RESULT:     -12.5      3.642      7.938
REMARK SMILES CCCCc1cc(S(F)(F)(F)(F)F)cc2c1O[C@@H](C(F)(F)F)C(C(=O)NCCCNC(=O)c1ccc(-c3c4nc(c(-c5c(F)cccc5F)c5ccc([nH]5)c(-c5c(F)cccc5F)c5nc(c(-c6c(F)cccc6F)c6ccc3[nH]6)C=C5)C=C4)cc1)=C2
REMARK SMILES IDX 27 1 26 2 24 3 25 4 23 6 5 7 6 8 16 9 7 10 15 11 17 12 14 13
REMARK SMILES IDX 87 14 18 15 4 16 3 17 2 18 1 19 8 20 9 21 10 22 11 23 12 24
REMARK SMILES IDX 13 25 19 26 20 27 21 28 22 29 28 30 29 31 30 32 31 33 32 35
REMARK SMILES IDX 33 36 34 37 86 38 35 39 85 40 36 41 37 42 38 43 79 44 39 45
REMARK SMILES IDX 84 46 78 47 80 48 40 49 83 50 77 51 76 52 41 54 67 55 50 56
REMARK SMILES IDX 66 57 51 58 54 59 65 60 81 61 52 62 53 63 64 65 82 66 55 67
REMARK SMILES IDX 42 68 43 69 48 70 44 71 45 72 47 73 49 74 46 75 68 76 69 77
REMARK SMILES IDX 74 78 70 79 71 80 73 81 75 82 72 83 56 84 57 85 62 86 58 87
REMARK SMILES IDX 59 88 61 89 63 90 60 91
REMARK H PARENT 26 5 30 34 80 53 54 64
REMARK Flexibility Score: inf
ROOT
ATOM      1  C   UNL A   1      35.125  23.610  24.123  1.00  0.00     0.118 C 
ENDROOT
BRANCH   1   2
ATOM      2  N   UNL A   1      34.538  22.668  25.087  1.00  0.00    -0.352 N 
ATOM      3  C   UNL A   1      33.305  23.023  25.804  1.00  0.00     0.251 C 
ATOM      4  O   UNL A   1      32.798  22.208  26.637  1.00  0.00    -0.270 OA
ATOM      5  H   UNL A   1      34.970  21.799  25.252  1.00  0.00     0.163 HD
BRANCH   3   6
ATOM      6  C   UNL A   1      32.638  24.364  25.551  1.00  0.00     0.067 C 
ATOM      7  C   UNL A   1      31.022  28.037  24.391  1.00  0.00    -0.004 A 
ATOM      8  C   UNL A   1      31.437  29.201  25.012  1.00  0.00     0.032 A 
ATOM      9  C   UNL A   1      31.609  26.850  24.755  1.00  0.00     0.131 A 
ATOM     10  C   UNL A   1      32.417  29.178  25.970  1.00  0.00     0.108 A 
ATOM     11  C   UNL A   1      32.587  26.785  25.730  1.00  0.00     0.019 A 
ATOM     12  O   UNL A   1      31.267  25.721  24.051  1.00  0.00    -0.475 OA
ATOM     13  C   UNL A   1      32.984  27.973  26.332  1.00  0.00     0.036 A 
ATOM     14  C   UNL A   1      33.173  25.486  26.016  1.00  0.00     0.025 C 
ATOM     15  C   UNL A   1      31.340  24.450  24.758  1.00  0.00     0.314 C 
BRANCH   7  16
ATOM     16  C   UNL A   1      29.938  28.072  23.326  1.00  0.00     0.039 C 
BRANCH  16  17
ATOM     17  C   UNL A   1      29.654  29.514  22.939  1.00  0.00     0.005 C 
BRANCH  17  18
ATOM     18  C   UNL A   1      28.168  29.684  22.667  1.00  0.00    -0.003 C 
ATOM     19  C   UNL A   1      27.640  30.869  23.459  1.00  0.00     0.004 C 
ENDBRANCH  17  18
ENDBRANCH  16  17
ENDBRANCH   7  16
BRANCH  10  20
ATOM     20  S   UNL A   1      32.963  30.716  26.754  1.00  0.00     0.310 S 
ATOM     21  F   UNL A   1      33.149  30.006  28.160  1.00  0.00    -0.094 F 
ATOM     22  F   UNL A   1      31.473  31.007  27.176  1.00  0.00    -0.094 F 
ATOM     23  F   UNL A   1      33.440  32.035  27.426  1.00  0.00    -0.094 F 
ATOM     24  F   UNL A   1      34.465  30.337  26.447  1.00  0.00    -0.094 F 
ATOM     25  F   UNL A   1      32.508  29.320  26.168  1.00  0.00    -0.094 F 
ENDBRANCH  10  20
BRANCH  15  26
ATOM     26  C   UNL A   1      31.301  23.317  23.747  1.00  0.00     0.429 C 
ATOM     27  F   UNL A   1      30.187  23.406  23.024  1.00  0.00    -0.167 F 
ATOM     28  F   UNL A   1      32.357  23.402  22.943  1.00  0.00    -0.167 F 
ATOM     29  F   UNL A   1      31.322  22.151  24.387  1.00  0.00    -0.167 F 
ENDBRANCH  15  26
ENDBRANCH   3   6
ENDBRANCH   1   2
BRANCH   1  30
ATOM     30  C   UNL A   1      36.637  23.615  24.277  1.00  0.00     0.042 C 
BRANCH  30  31
ATOM     31  C   UNL A   1      36.998  23.467  25.746  1.00  0.00     0.118 C 
BRANCH  31  32
ATOM     32  N   UNL A   1      37.913  22.329  25.913  1.00  0.00    -0.352 N 
ATOM     33  C   UNL A   1      39.235  22.531  26.525  1.00  0.00     0.251 C 
ATOM     34  H   UNL A   1      37.641  21.430  25.615  1.00  0.00     0.163 HD
ATOM     35  O   UNL A   1      40.026  21.547  26.669  1.00  0.00    -0.269 OA
BRANCH  33  36
ATOM     36  C   UNL A   1      39.655  23.917  26.984  1.00  0.00     0.039 A 
ATOM     37  C   UNL A   1      39.486  24.275  28.311  1.00  0.00     0.014 A 
ATOM     38  C   UNL A   1      40.180  24.763  26.105  1.00  0.00     0.014 A 
ATOM     39  C   UNL A   1      39.636  25.661  28.555  1.00  0.00     0.010 A 
ATOM     40  C   UNL A   1      40.428  26.069  26.452  1.00  0.00     0.010 A 
ATOM     41  C   UNL A   1      40.226  26.506  27.731  1.00  0.00    -0.014 A 
BRANCH  41  42
ATOM     42  C   UNL A   1      40.659  27.892  28.181  1.00  0.00     0.031 A 
ATOM     43  C   UNL A   1      39.668  28.792  28.577  1.00  0.00     0.074 A 
ATOM     44  C   UNL A   1      42.011  28.186  28.172  1.00  0.00     0.049 A 
ATOM     45  N   UNL A   1      39.832  30.034  29.033  1.00  0.00    -0.248 NA
ATOM     46  C   UNL A   1      38.227  28.494  28.555  1.00  0.00     0.031 C 
ATOM     47  C   UNL A   1      43.018  27.281  27.782  1.00  0.00     0.029 A 
ATOM     48  N   UNL A   1      42.622  29.370  28.525  1.00  0.00    -0.354 N 
ATOM     49  C   UNL A   1      38.648  30.577  29.328  1.00  0.00     0.074 A 
ATOM     50  C   UNL A   1      37.600  29.597  29.019  1.00  0.00     0.031 C 
ATOM     51  C   UNL A   1      44.217  27.913  27.888  1.00  0.00     0.029 A 
ATOM     52  C   UNL A   1      43.980  29.223  28.346  1.00  0.00     0.049 A 
ATOM     53  H   UNL A   1      42.167  30.179  28.850  1.00  0.00     0.167 HD
ATOM     54  C   UNL A   1      38.404  31.851  29.844  1.00  0.00     0.037 A 
ATOM     55  C   UNL A   1      44.971  30.167  28.562  1.00  0.00     0.037 A 
ATOM     56  C   UNL A   1      39.399  32.780  30.102  1.00  0.00     0.049 A 
ATOM     57  C   UNL A   1      44.721  31.462  29.023  1.00  0.00     0.074 A 
ATOM     58  C   UNL A   1      39.170  34.066  30.629  1.00  0.00     0.029 A 
ATOM     59  N   UNL A   1      40.754  32.643  29.899  1.00  0.00    -0.354 N 
ATOM     60  N   UNL A   1      43.542  31.991  29.356  1.00  0.00    -0.248 NA
ATOM     61  C   UNL A   1      45.759  32.481  29.225  1.00  0.00     0.031 C 
ATOM     62  C   UNL A   1      40.369  34.698  30.735  1.00  0.00     0.029 A 
ATOM     63  C   UNL A   1      41.367  33.818  30.274  1.00  0.00     0.049 A 
ATOM     64  H   UNL A   1      41.207  31.842  29.547  1.00  0.00     0.167 HD
ATOM     65  C   UNL A   1      43.703  33.248  29.773  1.00  0.00     0.074 A 
ATOM     66  C   UNL A   1      45.130  33.585  29.688  1.00  0.00     0.031 C 
ATOM     67  C   UNL A   1      42.717  34.128  30.223  1.00  0.00     0.037 A 
BRANCH  54  68
ATOM     68  C   UNL A   1      36.964  32.240  30.141  1.00  0.00     0.057 A 
ATOM     69  C   UNL A   1      36.216  32.925  29.197  1.00  0.00     0.134 A 
ATOM     70  C   UNL A   1      36.466  31.948  31.337  1.00  0.00     0.134 A 
ATOM     71  F   UNL A   1      36.568  33.017  27.919  1.00  0.00    -0.206 F 
ATOM     72  C   UNL A   1      35.042  33.518  29.719  1.00  0.00     0.040 A 
ATOM     73  C   UNL A   1      35.250  32.452  31.729  1.00  0.00     0.040 A 
ATOM     74  F   UNL A   1      37.151  31.162  32.162  1.00  0.00    -0.206 F 
ATOM     75  C   UNL A   1      34.482  33.186  30.869  1.00  0.00     0.006 A 
ENDBRANCH  54  68
BRANCH  55  76
ATOM     76  C   UNL A   1      46.412  29.772  28.281  1.00  0.00     0.057 A 
ATOM     77  C   UNL A   1      46.986  29.974  27.038  1.00  0.00     0.134 A 
ATOM     78  C   UNL A   1      47.104  29.240  29.282  1.00  0.00     0.134 A 
ATOM     79  F   UNL A   1      46.426  30.724  26.093  1.00  0.00    -0.206 F 
ATOM     80  C   UNL A   1      48.224  29.311  26.864  1.00  0.00     0.040 A 
ATOM     81  C   UNL A   1      48.363  28.733  29.070  1.00  0.00     0.040 A 
ATOM     82  F   UNL A   1      46.573  29.198  30.501  1.00  0.00    -0.206 F 
ATOM     83  C   UNL A   1      48.969  28.845  27.849  1.00  0.00     0.006 A 
ENDBRANCH  55  76
BRANCH  67  84
ATOM     84  C   UNL A   1      43.150  35.508  30.688  1.00  0.00     0.057 A 
ATOM     85  C   UNL A   1      43.252  36.535  29.764  1.00  0.00     0.134 A 
ATOM     86  C   UNL A   1      43.423  35.709  31.972  1.00  0.00     0.134 A 
ATOM     87  F   UNL A   1      42.755  36.455  28.533  1.00  0.00    -0.206 F 
ATOM     88  C   UNL A   1      43.934  37.677  30.248  1.00  0.00     0.040 A 
ATOM     89  C   UNL A   1      43.961  36.899  32.395  1.00  0.00     0.040 A 
ATOM     90  F   UNL A   1      43.172  34.747  32.856  1.00  0.00    -0.206 F 
ATOM     91  C   UNL A   1      44.145  37.938  31.525  1.00  0.00     0.006 A 
ENDBRANCH  67  84
ENDBRANCH  41  42
ENDBRANCH  33  36
ENDBRANCH  31  32
ENDBRANCH  30  31
ENDBRANCH   1  30
TORSDOF 15
ENDMDL
MODEL 3
REMARK VINA RESULT:     -12.4      0.206      5.889
REMARK SMILES CCCCc1cc(S(F)(F)(F)(F)F)cc2c1O[C@@H](C(F)(F)F)C(C(=O)NCCCNC(=O)c1ccc(-c3c4nc(c(-c5c(F)cccc5F)c5ccc([nH]5)c(-c5c(F)cccc5F)c5nc(c(-c6c(F)cccc6F)c6ccc3[nH]6)C=C5)C=C4)cc1)=C2
REMARK SMILES IDX 27 1 26 2 24 3 25 4 23 6 5 7 6 8 16 9 7 10 15 11 17 12 14 13
REMARK SMILES IDX 87 14 18 15 4 16 3 17 2 18 1 19 8 20 9 21 10 22 11 23 12 24
REMARK SMILES IDX 13 25 19 26 20 27 21 28 22 29 28 30 29 31 30 32 31 33 32 35
REMARK SMILES IDX 33 36 34 37 86 38 35 39 85 40 36 41 37 42 38 43 79 44 39 45
REMARK SMILES IDX 84 46 78 47 80 48 40 49 83 50 77 51 76 52 41 54 67 55 50 56
REMARK SMILES IDX 66 57 51 58 54 59 65 60 81 61 52 62 53 63 64 65 82 66 55 67
REMARK SMILES IDX 42 68 43 69 48 70 44 71 45 72 47 73 49 74 46 75 68 76 69 77
REMARK SMILES IDX 74 78 70 79 71 80 73 81 75 82 72 83 56 84 57 85 62 86 58 87
REMARK SMILES IDX 59 88 61 89 63 90 60 91
REMARK H PARENT 26 5 30 34 80 53 54 64
REMARK Flexibility Score: inf
ROOT
ATOM      1  C   UNL A   1      33.587  27.072  24.862  1.00  0.00     0.118 C 
ENDROOT
BRANCH   1   2
ATOM      2  N   UNL A   1      33.525  27.348  23.419  1.00  0.00    -0.352 N 
ATOM      3  C   UNL A   1      33.552  26.238  22.456  1.00  0.00     0.251 C 
ATOM      4  O   UNL A   1      33.498  26.478  21.209  1.00  0.00    -0.270 OA
ATOM      5  H   UNL A   1      33.465  28.277  23.098  1.00  0.00     0.163 HD
BRANCH   3   6
ATOM      6  C   UNL A   1      33.646  24.805  22.951  1.00  0.00     0.067 C 
ATOM      7  C   UNL A   1      33.701  21.035  24.750  1.00  0.00    -0.004 A 
ATOM      8  C   UNL A   1      34.908  20.433  25.054  1.00  0.00     0.032 A 
ATOM      9  C   UNL A   1      33.711  22.298  24.208  1.00  0.00     0.131 A 
ATOM     10  C   UNL A   1      36.095  21.079  24.825  1.00  0.00     0.108 A 
ATOM     11  C   UNL A   1      34.889  22.973  23.946  1.00  0.00     0.019 A 
ATOM     12  O   UNL A   1      32.505  22.926  24.017  1.00  0.00    -0.475 OA
ATOM     13  C   UNL A   1      36.085  22.341  24.267  1.00  0.00     0.036 A 
ATOM     14  C   UNL A   1      34.793  24.319  23.408  1.00  0.00     0.025 C 
ATOM     15  C   UNL A   1      32.425  23.894  22.933  1.00  0.00     0.314 C 
BRANCH   7  16
ATOM     16  C   UNL A   1      32.388  20.315  25.011  1.00  0.00     0.039 C 
BRANCH  16  17
ATOM     17  C   UNL A   1      32.630  18.814  25.032  1.00  0.00     0.005 C 
BRANCH  17  18
ATOM     18  C   UNL A   1      32.400  18.244  23.641  1.00  0.00    -0.003 C 
ATOM     19  C   UNL A   1      33.591  17.388  23.241  1.00  0.00     0.004 C 
ENDBRANCH  17  18
ENDBRANCH  16  17
ENDBRANCH   7  16
BRANCH  10  20
ATOM     20  S   UNL A   1      37.664  20.283  25.252  1.00  0.00     0.310 S 
ATOM     21  F   UNL A   1      38.148  20.284  23.741  1.00  0.00    -0.094 F 
ATOM     22  F   UNL A   1      37.007  18.879  24.967  1.00  0.00    -0.094 F 
ATOM     23  F   UNL A   1      39.015  19.606  25.620  1.00  0.00    -0.094 F 
ATOM     24  F   UNL A   1      38.343  21.701  25.395  1.00  0.00    -0.094 F 
ATOM     25  F   UNL A   1      36.332  20.986  24.772  1.00  0.00    -0.094 F 
ENDBRANCH  10  20
BRANCH  15  26
ATOM     26  C   UNL A   1      31.174  24.738  23.113  1.00  0.00     0.429 C 
ATOM     27  F   UNL A   1      30.101  23.951  23.087  1.00  0.00    -0.167 F 
ATOM     28  F   UNL A   1      31.230  25.372  24.281  1.00  0.00    -0.167 F 
ATOM     29  F   UNL A   1      31.095  25.629  22.128  1.00  0.00    -0.167 F 
ENDBRANCH  15  26
ENDBRANCH   3   6
ENDBRANCH   1   2
BRANCH   1  30
ATOM     30  C   UNL A   1      34.326  28.200  25.562  1.00  0.00     0.042 C 
BRANCH  30  31
ATOM     31  C   UNL A   1      33.943  28.222  27.033  1.00  0.00     0.118 C 
BRANCH  31  32
ATOM     32  N   UNL A   1      33.491  29.571  27.401  1.00  0.00    -0.352 N 
ATOM     33  C   UNL A   1      34.431  30.519  28.017  1.00  0.00     0.251 C 
ATOM     34  H   UNL A   1      32.559  29.841  27.236  1.00  0.00     0.163 HD
ATOM     35  O   UNL A   1      34.041  31.685  28.336  1.00  0.00    -0.269 OA
BRANCH  33  36
ATOM     36  C   UNL A   1      35.871  30.103  28.273  1.00  0.00     0.039 A 
ATOM     37  C   UNL A   1      36.823  30.306  27.288  1.00  0.00     0.014 A 
ATOM     38  C   UNL A   1      36.192  29.552  29.438  1.00  0.00     0.014 A 
ATOM     39  C   UNL A   1      38.042  29.625  27.519  1.00  0.00     0.010 A 
ATOM     40  C   UNL A   1      37.445  29.028  29.642  1.00  0.00     0.010 A 
ATOM     41  C   UNL A   1      38.418  29.140  28.688  1.00  0.00    -0.014 A 
BRANCH  41  42
ATOM     42  C   UNL A   1      39.856  28.729  28.959  1.00  0.00     0.031 A 
ATOM     43  C   UNL A   1      40.268  27.466  28.531  1.00  0.00     0.074 A 
ATOM     44  C   UNL A   1      40.677  29.629  29.615  1.00  0.00     0.049 A 
ATOM     45  N   UNL A   1      41.483  26.926  28.638  1.00  0.00    -0.248 NA
ATOM     46  C   UNL A   1      39.388  26.494  27.863  1.00  0.00     0.031 C 
ATOM     47  C   UNL A   1      40.272  30.908  30.043  1.00  0.00     0.029 A 
ATOM     48  N   UNL A   1      41.998  29.465  29.971  1.00  0.00    -0.354 N 
ATOM     49  C   UNL A   1      41.496  25.707  28.095  1.00  0.00     0.074 A 
ATOM     50  C   UNL A   1      40.148  25.409  27.595  1.00  0.00     0.031 C 
ATOM     51  C   UNL A   1      41.329  31.503  30.657  1.00  0.00     0.029 A 
ATOM     52  C   UNL A   1      42.413  30.605  30.623  1.00  0.00     0.049 A 
ATOM     53  H   UNL A   1      42.550  28.671  29.789  1.00  0.00     0.167 HD
ATOM     54  C   UNL A   1      42.580  24.833  27.997  1.00  0.00     0.037 A 
ATOM     55  C   UNL A   1      43.661  30.866  31.166  1.00  0.00     0.037 A 
ATOM     56  C   UNL A   1      43.840  25.111  28.501  1.00  0.00     0.049 A 
ATOM     57  C   UNL A   1      44.730  29.967  31.119  1.00  0.00     0.074 A 
ATOM     58  C   UNL A   1      44.946  24.244  28.403  1.00  0.00     0.029 A 
ATOM     59  N   UNL A   1      44.248  26.241  29.175  1.00  0.00    -0.354 N 
ATOM     60  N   UNL A   1      44.753  28.765  30.541  1.00  0.00    -0.248 NA
ATOM     61  C   UNL A   1      46.046  30.218  31.719  1.00  0.00     0.031 C 
ATOM     62  C   UNL A   1      46.003  24.839  29.017  1.00  0.00     0.029 A 
ATOM     63  C   UNL A   1      45.576  26.086  29.510  1.00  0.00     0.049 A 
ATOM     64  H   UNL A   1      43.688  27.024  29.382  1.00  0.00     0.167 HD
ATOM     65  C   UNL A   1      45.958  28.209  30.685  1.00  0.00     0.074 A 
ATOM     66  C   UNL A   1      46.805  29.133  31.452  1.00  0.00     0.031 C 
ATOM     67  C   UNL A   1      46.386  26.970  30.207  1.00  0.00     0.037 A 
BRANCH  54  68
ATOM     68  C   UNL A   1      42.366  23.501  27.296  1.00  0.00     0.057 A 
ATOM     69  C   UNL A   1      41.965  22.387  28.016  1.00  0.00     0.134 A 
ATOM     70  C   UNL A   1      42.616  23.427  25.994  1.00  0.00     0.134 A 
ATOM     71  F   UNL A   1      41.465  22.460  29.245  1.00  0.00    -0.206 F 
ATOM     72  C   UNL A   1      42.139  21.165  27.324  1.00  0.00     0.040 A 
ATOM     73  C   UNL A   1      42.636  22.210  25.355  1.00  0.00     0.040 A 
ATOM     74  F   UNL A   1      42.851  24.538  25.303  1.00  0.00    -0.206 F 
ATOM     75  C   UNL A   1      42.309  21.061  26.018  1.00  0.00     0.006 A 
ENDBRANCH  54  68
BRANCH  55  76
ATOM     76  C   UNL A   1      43.879  32.204  31.852  1.00  0.00     0.057 A 
ATOM     77  C   UNL A   1      44.293  33.320  31.143  1.00  0.00     0.134 A 
ATOM     78  C   UNL A   1      43.642  32.266  33.157  1.00  0.00     0.134 A 
ATOM     79  F   UNL A   1      44.298  33.374  29.814  1.00  0.00    -0.206 F 
ATOM     80  C   UNL A   1      44.708  34.397  31.961  1.00  0.00     0.040 A 
ATOM     81  C   UNL A   1      43.947  33.400  33.871  1.00  0.00     0.040 A 
ATOM     82  F   UNL A   1      43.104  31.221  33.779  1.00  0.00    -0.206 F 
ATOM     83  C   UNL A   1      44.415  34.521  33.243  1.00  0.00     0.006 A 
ENDBRANCH  55  76
BRANCH  67  84
ATOM     84  C   UNL A   1      47.827  26.564  30.463  1.00  0.00     0.057 A 
ATOM     85  C   UNL A   1      48.803  26.900  29.539  1.00  0.00     0.134 A 
ATOM     86  C   UNL A   1      48.129  25.894  31.570  1.00  0.00     0.134 A 
ATOM     87  F   UNL A   1      48.601  27.775  28.558  1.00  0.00    -0.206 F 
ATOM     88  C   UNL A   1      50.033  26.228  29.734  1.00  0.00     0.040 A 
ATOM     89  C   UNL A   1      49.390  25.382  31.756  1.00  0.00     0.040 A 
ATOM     90  F   UNL A   1      47.201  25.717  32.506  1.00  0.00    -0.206 F 
ATOM     91  C   UNL A   1      50.388  25.626  30.854  1.00  0.00     0.006 A 
ENDBRANCH  67  84
ENDBRANCH  41  42
ENDBRANCH  33  36
ENDBRANCH  31  32
ENDBRANCH  30  31
ENDBRANCH   1  30
TORSDOF 15
ENDMDL
