MODEL 1
REMARK VINA RESULT:     -12.4      0.000      0.000
REMARK SMILES O=C(NCCCNC(=O)c1ccncc1-c1ccc(F)cc1F)c1ccc(-c2c3nc(c(-c4c(F)cccc4F)c4ccc([nH]4)c(-c4c(F)cccc4F)c4nc(c(-c5c(F)cccc5F)c5ccc2[nH]5)C=C4)C=C3)cc1
REMARK SMILES IDX 4 1 3 2 1 3 2 4 24 6 25 7 77 8 26 9 76 10 27 11 28 12 29 13
REMARK SMILES IDX 70 14 30 15 75 16 69 17 71 18 31 19 74 20 68 21 67 22 32 24
REMARK SMILES IDX 58 25 41 26 57 27 42 28 45 29 56 30 72 31 43 32 44 33 55 35
REMARK SMILES IDX 73 36 46 37 33 38 34 39 39 40 35 41 36 42 38 43 40 44 37 45
REMARK SMILES IDX 59 46 60 47 65 48 61 49 62 50 64 51 66 52 63 53 47 54 48 55
REMARK SMILES IDX 53 56 49 57 50 58 52 59 54 60 51 61 5 62 6 63 7 64 8 65 9 67
REMARK SMILES IDX 10 68 11 69 15 70 12 71 14 72 13 73 16 74 17 75 22 76 18 77
REMARK SMILES IDX 21 78 23 79 19 80 20 81
REMARK H PARENT 3 5 71 23 45 34 7 66
REMARK Flexibility Score: inf
ROOT
ATOM      1  C   UNL A   1      38.743  20.167  25.707  1.00  0.00     0.118 C 
ENDROOT
BRANCH   1   2
ATOM      2  N   UNL A   1      39.889  19.265  25.722  1.00  0.00    -0.352 N 
ATOM      3  O   UNL A   1      42.040  18.611  25.839  1.00  0.00    -0.269 OA
ATOM      4  C   UNL A   1      41.208  19.492  26.042  1.00  0.00     0.251 C 
ATOM      5  H   UNL A   1      39.684  18.339  25.460  1.00  0.00     0.163 HD
BRANCH   4   6
ATOM      6  C   UNL A   1      41.639  20.793  26.601  1.00  0.00     0.039 A 
ATOM      7  C   UNL A   1      41.722  20.987  27.978  1.00  0.00     0.014 A 
ATOM      8  C   UNL A   1      41.990  21.834  25.733  1.00  0.00     0.014 A 
ATOM      9  C   UNL A   1      41.954  22.259  28.483  1.00  0.00     0.010 A 
ATOM     10  C   UNL A   1      42.348  23.087  26.249  1.00  0.00     0.010 A 
ATOM     11  C   UNL A   1      42.293  23.322  27.629  1.00  0.00    -0.014 A 
BRANCH  11  12
ATOM     12  C   UNL A   1      42.647  24.631  28.238  1.00  0.00     0.031 A 
ATOM     13  C   UNL A   1      44.075  25.015  28.511  1.00  0.00     0.074 A 
ATOM     14  C   UNL A   1      41.655  25.518  28.459  1.00  0.00     0.049 A 
ATOM     15  N   UNL A   1      44.548  26.160  28.942  1.00  0.00    -0.248 NA
ATOM     16  C   UNL A   1      45.108  23.994  28.281  1.00  0.00     0.031 C 
ATOM     17  C   UNL A   1      40.229  25.252  28.246  1.00  0.00     0.029 A 
ATOM     18  N   UNL A   1      41.689  26.830  28.858  1.00  0.00    -0.354 N 
ATOM     19  C   UNL A   1      45.923  25.993  29.044  1.00  0.00     0.074 A 
ATOM     20  C   UNL A   1      46.211  24.628  28.657  1.00  0.00     0.031 C 
ATOM     21  C   UNL A   1      39.538  26.385  28.426  1.00  0.00     0.029 A 
ATOM     22  C   UNL A   1      40.456  27.439  28.839  1.00  0.00     0.049 A 
ATOM     23  H   UNL A   1      42.515  27.291  29.130  1.00  0.00     0.167 HD
ATOM     24  C   UNL A   1      46.857  26.900  29.416  1.00  0.00     0.037 A 
ATOM     25  C   UNL A   1      40.100  28.704  29.124  1.00  0.00     0.037 A 
ATOM     26  C   UNL A   1      46.568  28.262  29.783  1.00  0.00     0.049 A 
ATOM     27  C   UNL A   1      41.158  29.681  29.540  1.00  0.00     0.074 A 
ATOM     28  C   UNL A   1      47.452  29.257  30.166  1.00  0.00     0.029 A 
ATOM     29  N   UNL A   1      45.301  28.826  29.806  1.00  0.00    -0.354 N 
ATOM     30  N   UNL A   1      42.454  29.506  29.623  1.00  0.00    -0.248 NA
ATOM     31  C   UNL A   1      40.704  31.027  29.914  1.00  0.00     0.031 C 
ATOM     32  C   UNL A   1      46.717  30.412  30.454  1.00  0.00     0.029 A 
ATOM     33  C   UNL A   1      45.380  30.149  30.210  1.00  0.00     0.049 A 
ATOM     34  H   UNL A   1      44.469  28.355  29.570  1.00  0.00     0.167 HD
ATOM     35  C   UNL A   1      42.972  30.717  30.058  1.00  0.00     0.074 A 
ATOM     36  C   UNL A   1      41.853  31.630  30.186  1.00  0.00     0.031 C 
ATOM     37  C   UNL A   1      44.256  31.041  30.337  1.00  0.00     0.037 A 
BRANCH  24  38
ATOM     38  C   UNL A   1      48.292  26.461  29.450  1.00  0.00     0.057 A 
ATOM     39  C   UNL A   1      48.837  25.887  30.607  1.00  0.00     0.134 A 
ATOM     40  C   UNL A   1      49.157  26.698  28.376  1.00  0.00     0.134 A 
ATOM     41  F   UNL A   1      48.065  25.642  31.674  1.00  0.00    -0.206 F 
ATOM     42  C   UNL A   1      50.197  25.583  30.699  1.00  0.00     0.040 A 
ATOM     43  C   UNL A   1      50.516  26.379  28.448  1.00  0.00     0.040 A 
ATOM     44  F   UNL A   1      48.696  27.236  27.237  1.00  0.00    -0.206 F 
ATOM     45  C   UNL A   1      51.040  25.830  29.618  1.00  0.00     0.006 A 
ENDBRANCH  24  38
BRANCH  25  46
ATOM     46  C   UNL A   1      38.676  29.113  29.020  1.00  0.00     0.057 A 
ATOM     47  C   UNL A   1      38.141  29.590  27.817  1.00  0.00     0.134 A 
ATOM     48  C   UNL A   1      37.823  29.052  30.127  1.00  0.00     0.134 A 
ATOM     49  F   UNL A   1      38.910  29.679  26.722  1.00  0.00    -0.206 F 
ATOM     50  C   UNL A   1      36.813  30.008  27.722  1.00  0.00     0.040 A 
ATOM     51  C   UNL A   1      36.484  29.441  30.040  1.00  0.00     0.040 A 
ATOM     52  F   UNL A   1      38.273  28.590  31.303  1.00  0.00    -0.206 F 
ATOM     53  C   UNL A   1      35.979  29.927  28.835  1.00  0.00     0.006 A 
ENDBRANCH  25  46
BRANCH  37  54
ATOM     54  C   UNL A   1      44.518  32.440  30.806  1.00  0.00     0.057 A 
ATOM     55  C   UNL A   1      44.789  33.465  29.891  1.00  0.00     0.134 A 
ATOM     56  C   UNL A   1      44.534  32.765  32.168  1.00  0.00     0.134 A 
ATOM     57  F   UNL A   1      44.796  33.216  28.573  1.00  0.00    -0.206 F 
ATOM     58  C   UNL A   1      45.068  34.764  30.316  1.00  0.00     0.040 A 
ATOM     59  C   UNL A   1      44.787  34.066  32.604  1.00  0.00     0.040 A 
ATOM     60  F   UNL A   1      44.270  31.829  33.094  1.00  0.00    -0.206 F 
ATOM     61  C   UNL A   1      45.062  35.069  31.675  1.00  0.00     0.006 A 
ENDBRANCH  37  54
ENDBRANCH  11  12
ENDBRANCH   4   6
ENDBRANCH   1   2
BRANCH   1  62
ATOM     62  C   UNL A   1      37.603  19.679  24.826  1.00  0.00     0.042 C 
BRANCH  62  63
ATOM     63  C   UNL A   1      36.481  20.688  24.642  1.00  0.00     0.118 C 
BRANCH  63  64
ATOM     64  N   UNL A   1      35.528  20.673  25.744  1.00  0.00    -0.352 N 
ATOM     65  C   UNL A   1      34.166  20.852  25.764  1.00  0.00     0.252 C 
ATOM     66  H   UNL A   1      35.930  20.508  26.628  1.00  0.00     0.163 HD
ATOM     67  O   UNL A   1      33.587  20.896  26.844  1.00  0.00    -0.269 OA
BRANCH  65  68
ATOM     68  C   UNL A   1      33.406  20.971  24.498  1.00  0.00     0.050 A 
ATOM     69  C   UNL A   1      33.349  22.227  23.879  1.00  0.00     0.034 A 
ATOM     70  C   UNL A   1      32.832  19.849  23.877  1.00  0.00     0.016 A 
ATOM     71  C   UNL A   1      32.624  22.355  22.713  1.00  0.00     0.112 A 
ATOM     72  C   UNL A   1      32.135  20.107  22.695  1.00  0.00     0.120 A 
ATOM     73  N   UNL A   1      31.995  21.326  22.119  1.00  0.00    -0.264 NA
BRANCH  70  74
ATOM     74  C   UNL A   1      32.962  18.466  24.356  1.00  0.00     0.020 A 
ATOM     75  C   UNL A   1      32.543  18.080  25.639  1.00  0.00     0.015 A 
ATOM     76  C   UNL A   1      33.508  17.476  23.516  1.00  0.00     0.134 A 
ATOM     77  C   UNL A   1      32.673  16.750  26.057  1.00  0.00     0.040 A 
ATOM     78  C   UNL A   1      33.643  16.154  23.924  1.00  0.00     0.079 A 
ATOM     79  F   UNL A   1      33.908  17.800  22.276  1.00  0.00    -0.206 F 
ATOM     80  C   UNL A   1      33.222  15.803  25.196  1.00  0.00     0.126 A 
ATOM     81  F   UNL A   1      33.338  14.532  25.602  1.00  0.00    -0.207 F 
ENDBRANCH  70  74
ENDBRANCH  65  68
ENDBRANCH  63  64
ENDBRANCH  62  63
ENDBRANCH   1  62
TORSDOF 11
ENDMDL
MODEL 2
REMARK VINA RESULT:     -12.3      1.574      2.964
REMARK SMILES O=C(NCCCNC(=O)c1ccncc1-c1ccc(F)cc1F)c1ccc(-c2c3nc(c(-c4c(F)cccc4F)c4ccc([nH]4)c(-c4c(F)cccc4F)c4nc(c(-c5c(F)cccc5F)c5ccc2[nH]5)C=C4)C=C3)cc1
REMARK SMILES IDX 4 1 3 2 1 3 2 4 24 6 25 7 77 8 26 9 76 10 27 11 28 12 29 13
REMARK SMILES IDX 70 14 30 15 75 16 69 17 71 18 31 19 74 20 68 21 67 22 32 24
REMARK SMILES IDX 58 25 41 26 57 27 42 28 45 29 56 30 72 31 43 32 44 33 55 35
REMARK SMILES IDX 73 36 46 37 33 38 34 39 39 40 35 41 36 42 38 43 40 44 37 45
REMARK SMILES IDX 59 46 60 47 65 48 61 49 62 50 64 51 66 52 63 53 47 54 48 55
REMARK SMILES IDX 53 56 49 57 50 58 52 59 54 60 51 61 5 62 6 63 7 64 8 65 9 67
REMARK SMILES IDX 10 68 11 69 15 70 12 71 14 72 13 73 16 74 17 75 22 76 18 77
REMARK SMILES IDX 21 78 23 79 19 80 20 81
REMARK H PARENT 3 5 71 23 45 34 7 66
REMARK Flexibility Score: inf
ROOT
ATOM      1  C   UNL A   1      38.724  20.197  25.845  1.00  0.00     0.118 C 
ENDROOT
BRANCH   1   2
ATOM      2  N   UNL A   1      39.889  19.323  25.763  1.00  0.00    -0.352 N 
ATOM      3  O   UNL A   1      42.057  18.718  25.730  1.00  0.00    -0.269 OA
ATOM      4  C   UNL A   1      41.219  19.573  26.009  1.00  0.00     0.251 C 
ATOM      5  H   UNL A   1      39.689  18.400  25.486  1.00  0.00     0.163 HD
BRANCH   4   6
ATOM      6  C   UNL A   1      41.655  20.867  26.580  1.00  0.00     0.039 A 
ATOM      7  C   UNL A   1      41.738  21.049  27.958  1.00  0.00     0.014 A 
ATOM      8  C   UNL A   1      42.009  21.915  25.721  1.00  0.00     0.014 A 
ATOM      9  C   UNL A   1      41.974  22.316  28.475  1.00  0.00     0.010 A 
ATOM     10  C   UNL A   1      42.371  23.162  26.248  1.00  0.00     0.010 A 
ATOM     11  C   UNL A   1      42.317  23.385  27.630  1.00  0.00    -0.014 A 
BRANCH  11  12
ATOM     12  C   UNL A   1      42.676  24.688  28.250  1.00  0.00     0.031 A 
ATOM     13  C   UNL A   1      44.105  25.066  28.523  1.00  0.00     0.074 A 
ATOM     14  C   UNL A   1      41.685  25.574  28.483  1.00  0.00     0.049 A 
ATOM     15  N   UNL A   1      44.581  26.206  28.963  1.00  0.00    -0.248 NA
ATOM     16  C   UNL A   1      45.136  24.045  28.279  1.00  0.00     0.031 C 
ATOM     17  C   UNL A   1      40.259  25.313  28.272  1.00  0.00     0.029 A 
ATOM     18  N   UNL A   1      41.723  26.882  28.895  1.00  0.00    -0.354 N 
ATOM     19  C   UNL A   1      45.956  26.035  29.059  1.00  0.00     0.074 A 
ATOM     20  C   UNL A   1      46.241  24.674  28.658  1.00  0.00     0.031 C 
ATOM     21  C   UNL A   1      39.570  26.445  28.465  1.00  0.00     0.029 A 
ATOM     22  C   UNL A   1      40.491  27.493  28.886  1.00  0.00     0.049 A 
ATOM     23  H   UNL A   1      42.551  27.339  29.169  1.00  0.00     0.167 HD
ATOM     24  C   UNL A   1      46.893  26.937  29.437  1.00  0.00     0.037 A 
ATOM     25  C   UNL A   1      40.138  28.756  29.184  1.00  0.00     0.037 A 
ATOM     26  C   UNL A   1      46.608  28.297  29.818  1.00  0.00     0.049 A 
ATOM     27  C   UNL A   1      41.200  29.727  29.606  1.00  0.00     0.074 A 
ATOM     28  C   UNL A   1      47.495  29.286  30.208  1.00  0.00     0.029 A 
ATOM     29  N   UNL A   1      45.342  28.862  29.850  1.00  0.00    -0.354 N 
ATOM     30  N   UNL A   1      42.495  29.549  29.683  1.00  0.00    -0.248 NA
ATOM     31  C   UNL A   1      40.749  31.070  29.994  1.00  0.00     0.031 C 
ATOM     32  C   UNL A   1      46.763  30.439  30.509  1.00  0.00     0.029 A 
ATOM     33  C   UNL A   1      45.425  30.181  30.267  1.00  0.00     0.049 A 
ATOM     34  H   UNL A   1      44.508  28.395  29.613  1.00  0.00     0.167 HD
ATOM     35  C   UNL A   1      43.017  30.755  30.128  1.00  0.00     0.074 A 
ATOM     36  C   UNL A   1      41.900  31.668  30.268  1.00  0.00     0.031 C 
ATOM     37  C   UNL A   1      44.303  31.074  30.407  1.00  0.00     0.037 A 
BRANCH  24  38
ATOM     38  C   UNL A   1      48.328  26.495  29.462  1.00  0.00     0.057 A 
ATOM     39  C   UNL A   1      48.875  25.908  30.611  1.00  0.00     0.134 A 
ATOM     40  C   UNL A   1      49.190  26.743  28.388  1.00  0.00     0.134 A 
ATOM     41  F   UNL A   1      48.105  25.653  31.678  1.00  0.00    -0.206 F 
ATOM     42  C   UNL A   1      50.234  25.600  30.696  1.00  0.00     0.040 A 
ATOM     43  C   UNL A   1      50.548  26.420  28.454  1.00  0.00     0.040 A 
ATOM     44  F   UNL A   1      48.727  27.294  27.257  1.00  0.00    -0.206 F 
ATOM     45  C   UNL A   1      51.075  25.857  29.615  1.00  0.00     0.006 A 
ENDBRANCH  24  38
BRANCH  25  46
ATOM     46  C   UNL A   1      38.715  29.169  29.089  1.00  0.00     0.057 A 
ATOM     47  C   UNL A   1      38.161  29.601  27.877  1.00  0.00     0.134 A 
ATOM     48  C   UNL A   1      37.881  29.156  30.212  1.00  0.00     0.134 A 
ATOM     49  F   UNL A   1      38.911  29.642  26.766  1.00  0.00    -0.206 F 
ATOM     50  C   UNL A   1      36.834  30.022  27.789  1.00  0.00     0.040 A 
ATOM     51  C   UNL A   1      36.543  29.549  30.132  1.00  0.00     0.040 A 
ATOM     52  F   UNL A   1      38.349  28.739  31.397  1.00  0.00    -0.206 F 
ATOM     53  C   UNL A   1      36.019  29.990  28.918  1.00  0.00     0.006 A 
ENDBRANCH  25  46
BRANCH  37  54
ATOM     54  C   UNL A   1      44.569  32.468  30.888  1.00  0.00     0.057 A 
ATOM     55  C   UNL A   1      44.550  32.770  32.255  1.00  0.00     0.134 A 
ATOM     56  C   UNL A   1      44.813  33.517  29.994  1.00  0.00     0.134 A 
ATOM     57  F   UNL A   1      44.315  31.811  33.162  1.00  0.00    -0.206 F 
ATOM     58  C   UNL A   1      44.763  34.070  32.715  1.00  0.00     0.040 A 
ATOM     59  C   UNL A   1      45.052  34.816  30.443  1.00  0.00     0.040 A 
ATOM     60  F   UNL A   1      44.857  33.288  28.672  1.00  0.00    -0.206 F 
ATOM     61  C   UNL A   1      45.021  35.096  31.809  1.00  0.00     0.006 A 
ENDBRANCH  37  54
ENDBRANCH  11  12
ENDBRANCH   4   6
ENDBRANCH   1   2
BRANCH   1  62
ATOM     62  C   UNL A   1      37.682  19.915  24.773  1.00  0.00     0.042 C 
BRANCH  62  63
ATOM     63  C   UNL A   1      36.580  20.959  24.684  1.00  0.00     0.118 C 
BRANCH  63  64
ATOM     64  N   UNL A   1      35.708  20.955  25.851  1.00  0.00    -0.352 N 
ATOM     65  C   UNL A   1      34.341  21.033  25.957  1.00  0.00     0.252 C 
ATOM     66  H   UNL A   1      36.180  20.886  26.712  1.00  0.00     0.163 HD
ATOM     67  O   UNL A   1      33.834  21.114  27.071  1.00  0.00    -0.269 OA
BRANCH  65  68
ATOM     68  C   UNL A   1      33.490  21.001  24.745  1.00  0.00     0.050 A 
ATOM     69  C   UNL A   1      33.143  19.751  24.216  1.00  0.00     0.034 A 
ATOM     70  C   UNL A   1      32.962  22.177  24.187  1.00  0.00     0.016 A 
ATOM     71  C   UNL A   1      32.371  19.710  23.074  1.00  0.00     0.112 A 
ATOM     72  C   UNL A   1      32.185  22.002  23.040  1.00  0.00     0.120 A 
ATOM     73  N   UNL A   1      31.904  20.810  22.460  1.00  0.00    -0.264 NA
BRANCH  70  74
ATOM     74  C   UNL A   1      33.133  23.524  24.749  1.00  0.00     0.020 A 
ATOM     75  C   UNL A   1      32.211  24.075  25.655  1.00  0.00     0.015 A 
ATOM     76  C   UNL A   1      34.253  24.301  24.396  1.00  0.00     0.134 A 
ATOM     77  C   UNL A   1      32.413  25.357  26.179  1.00  0.00     0.040 A 
ATOM     78  C   UNL A   1      34.458  25.576  24.910  1.00  0.00     0.079 A 
ATOM     79  F   UNL A   1      35.165  23.806  23.544  1.00  0.00    -0.206 F 
ATOM     80  C   UNL A   1      33.532  26.094  25.800  1.00  0.00     0.126 A 
ATOM     81  F   UNL A   1      33.719  27.318  26.309  1.00  0.00    -0.207 F 
ENDBRANCH  70  74
ENDBRANCH  65  68
ENDBRANCH  63  64
ENDBRANCH  62  63
ENDBRANCH   1  62
TORSDOF 11
ENDMDL
MODEL 3
REMARK VINA RESULT:     -12.3      5.306      9.762
REMARK SMILES O=C(NCCCNC(=O)c1ccncc1-c1ccc(F)cc1F)c1ccc(-c2c3nc(c(-c4c(F)cccc4F)c4ccc([nH]4)c(-c4c(F)cccc4F)c4nc(c(-c5c(F)cccc5F)c5ccc2[nH]5)C=C4)C=C3)cc1
REMARK SMILES IDX 4 1 3 2 1 3 2 4 24 6 25 7 77 8 26 9 76 10 27 11 28 12 29 13
REMARK SMILES IDX 70 14 30 15 75 16 69 17 71 18 31 19 74 20 68 21 67 22 32 24
REMARK SMILES IDX 58 25 41 26 57 27 42 28 45 29 56 30 72 31 43 32 44 33 55 35
REMARK SMILES IDX 73 36 46 37 33 38 34 39 39 40 35 41 36 42 38 43 40 44 37 45
REMARK SMILES IDX 59 46 60 47 65 48 61 49 62 50 64 51 66 52 63 53 47 54 48 55
REMARK SMILES IDX 53 56 49 57 50 58 52 59 54 60 51 61 5 62 6 63 7 64 8 65 9 67
REMARK SMILES IDX 10 68 11 69 15 70 12 71 14 72 13 73 16 74 17 75 22 76 18 77
REMARK SMILES IDX 21 78 23 79 19 80 20 81
REMARK H PARENT 3 5 71 23 45 34 7 66
REMARK Flexibility Score: inf
ROOT
ATOM      1  C   UNL A   1      32.540  30.862  26.301  1.00  0.00     0.118 C 
ENDROOT
BRANCH   1   2
ATOM      2  N   UNL A   1      32.343  32.243  26.728  1.00  0.00    -0.352 N 
ATOM      3  O   UNL A   1      32.611  34.119  27.943  1.00  0.00    -0.269 OA
ATOM      4  C   UNL A   1      33.048  33.017  27.621  1.00  0.00     0.251 C 
ATOM      5  H   UNL A   1      31.578  32.696  26.307  1.00  0.00     0.163 HD
BRANCH   4   6
ATOM      6  C   UNL A   1      34.311  32.527  28.217  1.00  0.00     0.039 A 
ATOM      7  C   UNL A   1      34.396  31.247  28.760  1.00  0.00     0.014 A 
ATOM      8  C   UNL A   1      35.441  33.354  28.215  1.00  0.00     0.014 A 
ATOM      9  C   UNL A   1      35.528  30.872  29.471  1.00  0.00     0.010 A 
ATOM     10  C   UNL A   1      36.627  32.923  28.824  1.00  0.00     0.010 A 
ATOM     11  C   UNL A   1      36.668  31.693  29.493  1.00  0.00    -0.014 A 
BRANCH  11  12
ATOM     12  C   UNL A   1      37.891  31.184  30.170  1.00  0.00     0.031 A 
ATOM     13  C   UNL A   1      38.172  31.478  31.617  1.00  0.00     0.074 A 
ATOM     14  C   UNL A   1      38.709  30.367  29.475  1.00  0.00     0.049 A 
ATOM     15  N   UNL A   1      39.141  31.020  32.373  1.00  0.00    -0.248 NA
ATOM     16  C   UNL A   1      37.262  32.402  32.312  1.00  0.00     0.031 C 
ATOM     17  C   UNL A   1      38.545  30.023  28.059  1.00  0.00     0.029 A 
ATOM     18  N   UNL A   1      39.802  29.638  29.867  1.00  0.00    -0.354 N 
ATOM     19  C   UNL A   1      38.965  31.607  33.620  1.00  0.00     0.074 A 
ATOM     20  C   UNL A   1      37.812  32.475  33.517  1.00  0.00     0.031 C 
ATOM     21  C   UNL A   1      39.442  29.084  27.728  1.00  0.00     0.029 A 
ATOM     22  C   UNL A   1      40.292  28.814  28.881  1.00  0.00     0.049 A 
ATOM     23  H   UNL A   1      40.198  29.699  30.766  1.00  0.00     0.167 HD
ATOM     24  C   UNL A   1      39.693  31.425  34.747  1.00  0.00     0.037 A 
ATOM     25  C   UNL A   1      41.312  27.937  28.898  1.00  0.00     0.037 A 
ATOM     26  C   UNL A   1      40.828  30.545  34.850  1.00  0.00     0.049 A 
ATOM     27  C   UNL A   1      42.102  27.767  30.160  1.00  0.00     0.074 A 
ATOM     28  C   UNL A   1      41.623  30.290  35.956  1.00  0.00     0.029 A 
ATOM     29  N   UNL A   1      41.327  29.770  33.815  1.00  0.00    -0.354 N 
ATOM     30  N   UNL A   1      41.914  28.325  31.331  1.00  0.00    -0.248 NA
ATOM     31  C   UNL A   1      43.252  26.855  30.101  1.00  0.00     0.031 C 
ATOM     32  C   UNL A   1      42.623  29.389  35.580  1.00  0.00     0.029 A 
ATOM     33  C   UNL A   1      42.427  29.048  34.252  1.00  0.00     0.049 A 
ATOM     34  H   UNL A   1      40.956  29.737  32.903  1.00  0.00     0.167 HD
ATOM     35  C   UNL A   1      42.921  27.833  32.149  1.00  0.00     0.074 A 
ATOM     36  C   UNL A   1      43.695  26.904  31.350  1.00  0.00     0.031 C 
ATOM     37  C   UNL A   1      43.188  28.133  33.442  1.00  0.00     0.037 A 
BRANCH  24  38
ATOM     38  C   UNL A   1      39.293  32.190  35.975  1.00  0.00     0.057 A 
ATOM     39  C   UNL A   1      38.313  31.689  36.843  1.00  0.00     0.134 A 
ATOM     40  C   UNL A   1      39.804  33.466  36.244  1.00  0.00     0.134 A 
ATOM     41  F   UNL A   1      37.777  30.478  36.638  1.00  0.00    -0.206 F 
ATOM     42  C   UNL A   1      37.843  32.439  37.923  1.00  0.00     0.040 A 
ATOM     43  C   UNL A   1      39.356  34.217  37.333  1.00  0.00     0.040 A 
ATOM     44  F   UNL A   1      40.751  33.999  35.457  1.00  0.00    -0.206 F 
ATOM     45  C   UNL A   1      38.364  33.708  38.170  1.00  0.00     0.006 A 
ENDBRANCH  24  38
BRANCH  25  46
ATOM     46  C   UNL A   1      41.637  27.157  27.678  1.00  0.00     0.057 A 
ATOM     47  C   UNL A   1      41.129  25.866  27.482  1.00  0.00     0.134 A 
ATOM     48  C   UNL A   1      42.476  27.676  26.687  1.00  0.00     0.134 A 
ATOM     49  F   UNL A   1      40.324  25.308  28.399  1.00  0.00    -0.206 F 
ATOM     50  C   UNL A   1      41.458  25.114  26.354  1.00  0.00     0.040 A 
ATOM     51  C   UNL A   1      42.792  26.946  25.539  1.00  0.00     0.040 A 
ATOM     52  F   UNL A   1      42.982  28.913  26.810  1.00  0.00    -0.206 F 
ATOM     53  C   UNL A   1      42.287  25.657  25.376  1.00  0.00     0.006 A 
ENDBRANCH  25  46
BRANCH  37  54
ATOM     54  C   UNL A   1      44.363  27.448  34.071  1.00  0.00     0.057 A 
ATOM     55  C   UNL A   1      44.216  26.209  34.707  1.00  0.00     0.134 A 
ATOM     56  C   UNL A   1      45.636  28.031  34.073  1.00  0.00     0.134 A 
ATOM     57  F   UNL A   1      43.020  25.602  34.745  1.00  0.00    -0.206 F 
ATOM     58  C   UNL A   1      45.294  25.576  35.325  1.00  0.00     0.040 A 
ATOM     59  C   UNL A   1      46.728  27.396  34.667  1.00  0.00     0.040 A 
ATOM     60  F   UNL A   1      45.845  29.211  33.469  1.00  0.00    -0.206 F 
ATOM     61  C   UNL A   1      46.555  26.167  35.301  1.00  0.00     0.006 A 
ENDBRANCH  37  54
ENDBRANCH  11  12
ENDBRANCH   4   6
ENDBRANCH   1   2
BRANCH   1  62
ATOM     62  C   UNL A   1      31.665  29.868  27.050  1.00  0.00     0.042 C 
BRANCH  62  63
ATOM     63  C   UNL A   1      32.286  28.491  27.216  1.00  0.00     0.118 C 
BRANCH  63  64
ATOM     64  N   UNL A   1      31.291  27.425  27.225  1.00  0.00    -0.352 N 
ATOM     65  C   UNL A   1      31.027  26.430  26.316  1.00  0.00     0.252 C 
ATOM     66  H   UNL A   1      30.709  27.418  28.018  1.00  0.00     0.163 HD
ATOM     67  O   UNL A   1      30.058  25.700  26.499  1.00  0.00    -0.269 OA
BRANCH  65  68
ATOM     68  C   UNL A   1      31.909  26.229  25.142  1.00  0.00     0.050 A 
ATOM     69  C   UNL A   1      32.936  25.283  25.245  1.00  0.00     0.034 A 
ATOM     70  C   UNL A   1      31.675  26.892  23.926  1.00  0.00     0.016 A 
ATOM     71  C   UNL A   1      33.778  25.104  24.167  1.00  0.00     0.112 A 
ATOM     72  C   UNL A   1      32.589  26.617  22.907  1.00  0.00     0.120 A 
ATOM     73  N   UNL A   1      33.641  25.769  23.007  1.00  0.00    -0.264 NA
BRANCH  70  74
ATOM     74  C   UNL A   1      30.538  27.784  23.660  1.00  0.00     0.020 A 
ATOM     75  C   UNL A   1      30.686  29.179  23.590  1.00  0.00     0.015 A 
ATOM     76  C   UNL A   1      29.253  27.248  23.454  1.00  0.00     0.134 A 
ATOM     77  C   UNL A   1      29.582  29.996  23.324  1.00  0.00     0.040 A 
ATOM     78  C   UNL A   1      28.150  28.053  23.191  1.00  0.00     0.079 A 
ATOM     79  F   UNL A   1      29.069  25.918  23.498  1.00  0.00    -0.206 F 
ATOM     80  C   UNL A   1      28.327  29.425  23.129  1.00  0.00     0.126 A 
ATOM     81  F   UNL A   1      27.276  30.214  22.871  1.00  0.00    -0.207 F 
ENDBRANCH  70  74
ENDBRANCH  65  68
ENDBRANCH  63  64
ENDBRANCH  62  63
ENDBRANCH   1  62
TORSDOF 11
ENDMDL
