MODEL 1
REMARK VINA RESULT:     -11.1      0.000      0.000
REMARK SMILES CC[N@@H+]([C@@H]1CSCC(C)(C)C1)[C@@H]1COC[C@@H]1C(=O)NCCCNC(=O)c1ccc(-c2c3nc(c(-c4c(F)cccc4F)c4ccc([nH]4)c(-c4c(F)cccc4F)c4nc(c(-c5c(F)cccc5F)c5ccc2[nH]5)C=C4)C=C3)cc1
REMARK SMILES IDX 21 1 20 2 19 3 17 4 18 5 16 7 12 8 13 9 14 10 15 11 3 12
REMARK SMILES IDX 2 14 1 15 4 16 5 17 11 18 6 19 8 20 7 21 9 22 10 23 22 24
REMARK SMILES IDX 23 25 24 26 25 28 26 29 27 30 79 31 28 32 78 33 29 34 30 35
REMARK SMILES IDX 31 36 72 37 32 38 77 39 71 40 73 41 33 42 76 43 70 44 69 45
REMARK SMILES IDX 34 47 60 48 43 49 59 50 44 51 47 52 58 53 74 54 45 55 46 56
REMARK SMILES IDX 57 58 75 59 48 60 35 61 36 62 41 63 37 64 38 65 40 66 42 67
REMARK SMILES IDX 39 68 61 69 62 70 67 71 63 72 64 73 66 74 68 75 65 76 49 77
REMARK SMILES IDX 50 78 55 79 51 80 52 81 54 82 56 83 53 84
REMARK H PARENT 19 6 3 13 23 27 73 46 47 57
REMARK Flexibility Score: inf
ROOT
ATOM      1  C   UNL A   1      37.800  19.814  24.733  1.00  0.00     0.042 C 
ENDROOT
BRANCH   1   2
ATOM      2  C   UNL A   1      36.685  20.858  24.586  1.00  0.00     0.117 C 
BRANCH   2   3
ATOM      3  N   UNL A   1      35.759  20.803  25.713  1.00  0.00    -0.356 N 
ATOM      4  C   UNL A   1      34.440  21.122  25.879  1.00  0.00     0.231 C 
ATOM      5  O   UNL A   1      34.017  21.044  27.034  1.00  0.00    -0.274 OA
ATOM      6  H   UNL A   1      36.177  20.463  26.537  1.00  0.00     0.163 HD
BRANCH   4   7
ATOM      7  C   UNL A   1      33.526  21.498  24.714  1.00  0.00     0.164 C 
ATOM      8  C   UNL A   1      32.721  22.803  24.853  1.00  0.00     0.225 C 
ATOM      9  C   UNL A   1      31.568  22.369  25.773  1.00  0.00     0.226 C 
ATOM     10  O   UNL A   1      31.246  21.026  25.378  1.00  0.00    -0.374 OA
ATOM     11  C   UNL A   1      32.366  20.493  24.649  1.00  0.00     0.180 C 
BRANCH   8  12
ATOM     12  N   UNL A   1      33.369  24.114  25.064  1.00  0.00    -0.327 N 
ATOM     13  H   UNL A   1      33.621  24.083  26.052  1.00  0.00     0.348 HD
BRANCH  12  14
ATOM     14  C   UNL A   1      34.645  24.268  24.344  1.00  0.00     0.259 C 
ATOM     15  C   UNL A   1      35.796  24.431  25.335  1.00  0.00     0.071 C 
ENDBRANCH  12  14
BRANCH  12  16
ATOM     16  C   UNL A   1      32.479  25.316  25.024  1.00  0.00     0.194 C 
ATOM     17  C   UNL A   1      32.441  26.038  23.648  1.00  0.00     0.134 C 
ATOM     18  C   UNL A   1      32.475  26.185  26.314  1.00  0.00     0.073 C 
ATOM     19  S   UNL A   1      32.582  27.837  23.548  1.00  0.00    -0.155 SA
ATOM     20  C   UNL A   1      32.414  27.720  26.298  1.00  0.00    -0.021 C 
ATOM     21  C   UNL A   1      31.708  28.272  25.061  1.00  0.00     0.076 C 
ATOM     22  C   UNL A   1      33.852  28.258  26.456  1.00  0.00     0.012 C 
ATOM     23  C   UNL A   1      31.614  28.171  27.547  1.00  0.00     0.012 C 
ENDBRANCH  12  16
ENDBRANCH   8  12
ENDBRANCH   4   7
ENDBRANCH   2   3
ENDBRANCH   1   2
BRANCH   1  24
ATOM     24  C   UNL A   1      38.718  20.030  25.930  1.00  0.00     0.118 C 
BRANCH  24  25
ATOM     25  N   UNL A   1      39.963  19.280  25.828  1.00  0.00    -0.352 N 
ATOM     26  C   UNL A   1      41.278  19.639  25.997  1.00  0.00     0.251 C 
ATOM     27  H   UNL A   1      39.837  18.333  25.590  1.00  0.00     0.163 HD
ATOM     28  O   UNL A   1      42.145  18.820  25.662  1.00  0.00    -0.269 OA
BRANCH  26  29
ATOM     29  C   UNL A   1      41.710  20.953  26.540  1.00  0.00     0.039 A 
ATOM     30  C   UNL A   1      41.825  21.105  27.930  1.00  0.00     0.014 A 
ATOM     31  C   UNL A   1      41.928  22.068  25.732  1.00  0.00     0.014 A 
ATOM     32  C   UNL A   1      42.199  22.336  28.489  1.00  0.00     0.010 A 
ATOM     33  C   UNL A   1      42.421  23.254  26.277  1.00  0.00     0.010 A 
ATOM     34  C   UNL A   1      42.536  23.418  27.665  1.00  0.00    -0.014 A 
BRANCH  34  35
ATOM     35  C   UNL A   1      42.946  24.744  28.210  1.00  0.00     0.031 A 
ATOM     36  C   UNL A   1      41.903  25.803  28.480  1.00  0.00     0.074 A 
ATOM     37  C   UNL A   1      44.251  25.038  28.387  1.00  0.00     0.049 A 
ATOM     38  N   UNL A   1      42.058  27.066  28.789  1.00  0.00    -0.248 NA
ATOM     39  C   UNL A   1      40.495  25.395  28.336  1.00  0.00     0.031 C 
ATOM     40  C   UNL A   1      45.369  24.129  28.132  1.00  0.00     0.029 A 
ATOM     41  N   UNL A   1      44.859  26.196  28.809  1.00  0.00    -0.354 N 
ATOM     42  C   UNL A   1      40.776  27.607  28.829  1.00  0.00     0.074 A 
ATOM     43  C   UNL A   1      39.862  26.552  28.457  1.00  0.00     0.031 C 
ATOM     44  C   UNL A   1      46.521  24.753  28.425  1.00  0.00     0.029 A 
ATOM     45  C   UNL A   1      46.231  26.122  28.839  1.00  0.00     0.049 A 
ATOM     46  H   UNL A   1      44.358  27.005  29.064  1.00  0.00     0.167 HD
ATOM     47  C   UNL A   1      40.391  28.860  29.169  1.00  0.00     0.037 A 
ATOM     48  C   UNL A   1      47.153  27.054  29.150  1.00  0.00     0.037 A 
ATOM     49  C   UNL A   1      41.296  29.892  29.602  1.00  0.00     0.049 A 
ATOM     50  C   UNL A   1      46.702  28.434  29.542  1.00  0.00     0.074 A 
ATOM     51  C   UNL A   1      41.000  31.169  30.045  1.00  0.00     0.029 A 
ATOM     52  N   UNL A   1      42.675  29.759  29.654  1.00  0.00    -0.354 N 
ATOM     53  N   UNL A   1      45.484  28.914  29.624  1.00  0.00    -0.248 NA
ATOM     54  C   UNL A   1      47.752  29.403  29.889  1.00  0.00     0.031 C 
ATOM     55  C   UNL A   1      42.202  31.824  30.326  1.00  0.00     0.029 A 
ATOM     56  C   UNL A   1      43.246  30.937  30.106  1.00  0.00     0.049 A 
ATOM     57  H   UNL A   1      43.174  28.947  29.407  1.00  0.00     0.167 HD
ATOM     58  C   UNL A   1      45.620  30.226  30.059  1.00  0.00     0.074 A 
ATOM     59  C   UNL A   1      47.037  30.464  30.236  1.00  0.00     0.031 C 
ATOM     60  C   UNL A   1      44.657  31.151  30.292  1.00  0.00     0.037 A 
BRANCH  47  61
ATOM     61  C   UNL A   1      38.923  29.184  29.099  1.00  0.00     0.057 A 
ATOM     62  C   UNL A   1      38.301  29.561  27.901  1.00  0.00     0.134 A 
ATOM     63  C   UNL A   1      38.115  29.089  30.240  1.00  0.00     0.134 A 
ATOM     64  F   UNL A   1      39.016  29.681  26.772  1.00  0.00    -0.206 F 
ATOM     65  C   UNL A   1      36.940  29.865  27.847  1.00  0.00     0.040 A 
ATOM     66  C   UNL A   1      36.746  29.360  30.191  1.00  0.00     0.040 A 
ATOM     67  F   UNL A   1      38.641  28.725  31.420  1.00  0.00    -0.206 F 
ATOM     68  C   UNL A   1      36.156  29.758  28.994  1.00  0.00     0.006 A 
ENDBRANCH  47  61
BRANCH  48  69
ATOM     69  C   UNL A   1      48.599  26.709  29.122  1.00  0.00     0.057 A 
ATOM     70  C   UNL A   1      49.353  26.859  27.952  1.00  0.00     0.134 A 
ATOM     71  C   UNL A   1      49.261  26.220  30.254  1.00  0.00     0.134 A 
ATOM     72  F   UNL A   1      48.772  27.304  26.828  1.00  0.00    -0.206 F 
ATOM     73  C   UNL A   1      50.706  26.520  27.903  1.00  0.00     0.040 A 
ATOM     74  C   UNL A   1      50.621  25.902  30.228  1.00  0.00     0.040 A 
ATOM     75  F   UNL A   1      48.597  26.057  31.409  1.00  0.00    -0.206 F 
ATOM     76  C   UNL A   1      51.345  26.045  29.047  1.00  0.00     0.006 A 
ENDBRANCH  48  69
BRANCH  60  77
ATOM     77  C   UNL A   1      45.095  32.491  30.808  1.00  0.00     0.057 A 
ATOM     78  C   UNL A   1      45.249  32.743  32.177  1.00  0.00     0.134 A 
ATOM     79  C   UNL A   1      45.423  33.521  29.918  1.00  0.00     0.134 A 
ATOM     80  F   UNL A   1      44.941  31.801  33.082  1.00  0.00    -0.206 F 
ATOM     81  C   UNL A   1      45.696  33.981  32.643  1.00  0.00     0.040 A 
ATOM     82  C   UNL A   1      45.896  34.753  30.370  1.00  0.00     0.040 A 
ATOM     83  F   UNL A   1      45.308  33.340  28.594  1.00  0.00    -0.206 F 
ATOM     84  C   UNL A   1      46.029  34.987  31.737  1.00  0.00     0.006 A 
ENDBRANCH  60  77
ENDBRANCH  34  35
ENDBRANCH  26  29
ENDBRANCH  24  25
ENDBRANCH   1  24
TORSDOF 13
ENDMDL
MODEL 2
REMARK VINA RESULT:     -11.1      0.137      1.322
REMARK SMILES CC[N@@H+]([C@@H]1CSCC(C)(C)C1)[C@@H]1COC[C@@H]1C(=O)NCCCNC(=O)c1ccc(-c2c3nc(c(-c4c(F)cccc4F)c4ccc([nH]4)c(-c4c(F)cccc4F)c4nc(c(-c5c(F)cccc5F)c5ccc2[nH]5)C=C4)C=C3)cc1
REMARK SMILES IDX 21 1 20 2 19 3 17 4 18 5 16 7 12 8 13 9 14 10 15 11 3 12
REMARK SMILES IDX 2 14 1 15 4 16 5 17 11 18 6 19 8 20 7 21 9 22 10 23 22 24
REMARK SMILES IDX 23 25 24 26 25 28 26 29 27 30 79 31 28 32 78 33 29 34 30 35
REMARK SMILES IDX 31 36 72 37 32 38 77 39 71 40 73 41 33 42 76 43 70 44 69 45
REMARK SMILES IDX 34 47 60 48 43 49 59 50 44 51 47 52 58 53 74 54 45 55 46 56
REMARK SMILES IDX 57 58 75 59 48 60 35 61 36 62 41 63 37 64 38 65 40 66 42 67
REMARK SMILES IDX 39 68 61 69 62 70 67 71 63 72 64 73 66 74 68 75 65 76 49 77
REMARK SMILES IDX 50 78 55 79 51 80 52 81 54 82 56 83 53 84
REMARK H PARENT 19 6 3 13 23 27 73 46 47 57
REMARK Flexibility Score: inf
ROOT
ATOM      1  C   UNL A   1      37.833  19.576  24.873  1.00  0.00     0.042 C 
ENDROOT
BRANCH   1   2
ATOM      2  C   UNL A   1      36.720  20.592  24.587  1.00  0.00     0.117 C 
BRANCH   2   3
ATOM      3  N   UNL A   1      35.801  20.700  25.716  1.00  0.00    -0.356 N 
ATOM      4  C   UNL A   1      34.517  21.145  25.860  1.00  0.00     0.231 C 
ATOM      5  O   UNL A   1      34.097  21.186  27.019  1.00  0.00    -0.274 OA
ATOM      6  H   UNL A   1      36.193  20.383  26.561  1.00  0.00     0.163 HD
BRANCH   4   7
ATOM      7  C   UNL A   1      33.631  21.517  24.672  1.00  0.00     0.164 C 
ATOM      8  C   UNL A   1      32.807  22.812  24.796  1.00  0.00     0.225 C 
ATOM      9  C   UNL A   1      31.634  22.359  25.681  1.00  0.00     0.226 C 
ATOM     10  O   UNL A   1      31.339  21.015  25.270  1.00  0.00    -0.374 OA
ATOM     11  C   UNL A   1      32.485  20.498  24.570  1.00  0.00     0.180 C 
BRANCH   8  12
ATOM     12  N   UNL A   1      33.434  24.129  25.031  1.00  0.00    -0.327 N 
ATOM     13  H   UNL A   1      33.677  24.087  26.020  1.00  0.00     0.348 HD
BRANCH  12  14
ATOM     14  C   UNL A   1      34.714  24.312  24.325  1.00  0.00     0.259 C 
ATOM     15  C   UNL A   1      35.869  24.348  25.323  1.00  0.00     0.071 C 
ENDBRANCH  12  14
BRANCH  12  16
ATOM     16  C   UNL A   1      32.527  25.318  25.000  1.00  0.00     0.194 C 
ATOM     17  C   UNL A   1      32.473  26.045  23.627  1.00  0.00     0.134 C 
ATOM     18  C   UNL A   1      32.515  26.182  26.293  1.00  0.00     0.073 C 
ATOM     19  S   UNL A   1      32.588  27.847  23.534  1.00  0.00    -0.155 SA
ATOM     20  C   UNL A   1      32.432  27.715  26.284  1.00  0.00    -0.021 C 
ATOM     21  C   UNL A   1      31.714  28.262  25.052  1.00  0.00     0.076 C 
ATOM     22  C   UNL A   1      33.863  28.273  26.439  1.00  0.00     0.012 C 
ATOM     23  C   UNL A   1      31.630  28.150  27.538  1.00  0.00     0.012 C 
ENDBRANCH  12  16
ENDBRANCH   8  12
ENDBRANCH   4   7
ENDBRANCH   2   3
ENDBRANCH   1   2
BRANCH   1  24
ATOM     24  C   UNL A   1      38.863  20.034  25.899  1.00  0.00     0.118 C 
BRANCH  24  25
ATOM     25  N   UNL A   1      40.107  19.280  25.822  1.00  0.00    -0.352 N 
ATOM     26  C   UNL A   1      41.421  19.639  26.006  1.00  0.00     0.251 C 
ATOM     27  H   UNL A   1      39.984  18.331  25.593  1.00  0.00     0.163 HD
ATOM     28  O   UNL A   1      42.291  18.815  25.692  1.00  0.00    -0.269 OA
BRANCH  26  29
ATOM     29  C   UNL A   1      41.847  20.958  26.541  1.00  0.00     0.039 A 
ATOM     30  C   UNL A   1      41.990  21.111  27.928  1.00  0.00     0.014 A 
ATOM     31  C   UNL A   1      42.033  22.076  25.730  1.00  0.00     0.014 A 
ATOM     32  C   UNL A   1      42.360  22.346  28.480  1.00  0.00     0.010 A 
ATOM     33  C   UNL A   1      42.523  23.268  26.265  1.00  0.00     0.010 A 
ATOM     34  C   UNL A   1      42.666  23.433  27.649  1.00  0.00    -0.014 A 
BRANCH  34  35
ATOM     35  C   UNL A   1      43.070  24.765  28.187  1.00  0.00     0.031 A 
ATOM     36  C   UNL A   1      42.019  25.811  28.475  1.00  0.00     0.074 A 
ATOM     37  C   UNL A   1      44.374  25.074  28.340  1.00  0.00     0.049 A 
ATOM     38  N   UNL A   1      42.165  27.076  28.781  1.00  0.00    -0.248 NA
ATOM     39  C   UNL A   1      40.614  25.387  28.357  1.00  0.00     0.031 C 
ATOM     40  C   UNL A   1      45.497  24.177  28.065  1.00  0.00     0.029 A 
ATOM     41  N   UNL A   1      44.976  26.239  28.751  1.00  0.00    -0.354 N 
ATOM     42  C   UNL A   1      40.878  27.603  28.844  1.00  0.00     0.074 A 
ATOM     43  C   UNL A   1      39.970  26.536  28.488  1.00  0.00     0.031 C 
ATOM     44  C   UNL A   1      46.647  24.814  28.337  1.00  0.00     0.029 A 
ATOM     45  C   UNL A   1      46.349  26.180  28.756  1.00  0.00     0.049 A 
ATOM     46  H   UNL A   1      44.470  27.041  29.015  1.00  0.00     0.167 HD
ATOM     47  C   UNL A   1      40.485  28.851  29.191  1.00  0.00     0.037 A 
ATOM     48  C   UNL A   1      47.266  27.123  29.050  1.00  0.00     0.037 A 
ATOM     49  C   UNL A   1      41.386  29.893  29.607  1.00  0.00     0.049 A 
ATOM     50  C   UNL A   1      46.806  28.498  29.450  1.00  0.00     0.074 A 
ATOM     51  C   UNL A   1      41.083  31.167  30.055  1.00  0.00     0.029 A 
ATOM     52  N   UNL A   1      42.766  29.776  29.635  1.00  0.00    -0.354 N 
ATOM     53  N   UNL A   1      45.584  28.964  29.554  1.00  0.00    -0.248 NA
ATOM     54  C   UNL A   1      47.851  29.479  29.778  1.00  0.00     0.031 C 
ATOM     55  C   UNL A   1      42.282  31.836  30.314  1.00  0.00     0.029 A 
ATOM     56  C   UNL A   1      43.332  30.961  30.076  1.00  0.00     0.049 A 
ATOM     57  H   UNL A   1      43.271  28.970  29.379  1.00  0.00     0.167 HD
ATOM     58  C   UNL A   1      45.713  30.278  29.986  1.00  0.00     0.074 A 
ATOM     59  C   UNL A   1      47.130  30.532  30.138  1.00  0.00     0.031 C 
ATOM     60  C   UNL A   1      44.744  31.191  30.237  1.00  0.00     0.037 A 
BRANCH  47  61
ATOM     61  C   UNL A   1      39.013  29.158  29.147  1.00  0.00     0.057 A 
ATOM     62  C   UNL A   1      38.363  29.523  27.959  1.00  0.00     0.134 A 
ATOM     63  C   UNL A   1      38.227  29.059  30.303  1.00  0.00     0.134 A 
ATOM     64  F   UNL A   1      39.056  29.646  26.817  1.00  0.00    -0.206 F 
ATOM     65  C   UNL A   1      36.998  29.811  27.930  1.00  0.00     0.040 A 
ATOM     66  C   UNL A   1      36.854  29.313  30.279  1.00  0.00     0.040 A 
ATOM     67  F   UNL A   1      38.779  28.705  31.475  1.00  0.00    -0.206 F 
ATOM     68  C   UNL A   1      36.238  29.700  29.092  1.00  0.00     0.006 A 
ENDBRANCH  47  61
BRANCH  48  69
ATOM     69  C   UNL A   1      48.715  26.795  28.997  1.00  0.00     0.057 A 
ATOM     70  C   UNL A   1      49.385  26.309  30.127  1.00  0.00     0.134 A 
ATOM     71  C   UNL A   1      49.465  26.962  27.828  1.00  0.00     0.134 A 
ATOM     72  F   UNL A   1      48.727  26.147  31.283  1.00  0.00    -0.206 F 
ATOM     73  C   UNL A   1      50.750  26.018  30.101  1.00  0.00     0.040 A 
ATOM     74  C   UNL A   1      50.825  26.649  27.779  1.00  0.00     0.040 A 
ATOM     75  F   UNL A   1      48.882  27.419  26.709  1.00  0.00    -0.206 F 
ATOM     76  C   UNL A   1      51.473  26.182  28.920  1.00  0.00     0.006 A 
ENDBRANCH  48  69
BRANCH  60  77
ATOM     77  C   UNL A   1      45.176  32.536  30.744  1.00  0.00     0.057 A 
ATOM     78  C   UNL A   1      45.427  33.609  29.880  1.00  0.00     0.134 A 
ATOM     79  C   UNL A   1      45.284  32.774  32.120  1.00  0.00     0.134 A 
ATOM     80  F   UNL A   1      45.351  33.443  28.550  1.00  0.00    -0.206 F 
ATOM     81  C   UNL A   1      45.789  34.867  30.366  1.00  0.00     0.040 A 
ATOM     82  C   UNL A   1      45.618  34.033  32.619  1.00  0.00     0.040 A 
ATOM     83  F   UNL A   1      45.046  31.791  33.002  1.00  0.00    -0.206 F 
ATOM     84  C   UNL A   1      45.877  35.082  31.740  1.00  0.00     0.006 A 
ENDBRANCH  60  77
ENDBRANCH  34  35
ENDBRANCH  26  29
ENDBRANCH  24  25
ENDBRANCH   1  24
TORSDOF 13
ENDMDL
MODEL 3
REMARK VINA RESULT:     -11.0      0.185      1.328
REMARK SMILES CC[N@@H+]([C@@H]1CSCC(C)(C)C1)[C@@H]1COC[C@@H]1C(=O)NCCCNC(=O)c1ccc(-c2c3nc(c(-c4c(F)cccc4F)c4ccc([nH]4)c(-c4c(F)cccc4F)c4nc(c(-c5c(F)cccc5F)c5ccc2[nH]5)C=C4)C=C3)cc1
REMARK SMILES IDX 21 1 20 2 19 3 17 4 18 5 16 7 12 8 13 9 14 10 15 11 3 12
REMARK SMILES IDX 2 14 1 15 4 16 5 17 11 18 6 19 8 20 7 21 9 22 10 23 22 24
REMARK SMILES IDX 23 25 24 26 25 28 26 29 27 30 79 31 28 32 78 33 29 34 30 35
REMARK SMILES IDX 31 36 72 37 32 38 77 39 71 40 73 41 33 42 76 43 70 44 69 45
REMARK SMILES IDX 34 47 60 48 43 49 59 50 44 51 47 52 58 53 74 54 45 55 46 56
REMARK SMILES IDX 57 58 75 59 48 60 35 61 36 62 41 63 37 64 38 65 40 66 42 67
REMARK SMILES IDX 39 68 61 69 62 70 67 71 63 72 64 73 66 74 68 75 65 76 49 77
REMARK SMILES IDX 50 78 55 79 51 80 52 81 54 82 56 83 53 84
REMARK H PARENT 19 6 3 13 23 27 73 46 47 57
REMARK Flexibility Score: inf
ROOT
ATOM      1  C   UNL A   1      37.689  19.332  24.965  1.00  0.00     0.042 C 
ENDROOT
BRANCH   1   2
ATOM      2  C   UNL A   1      36.511  20.233  24.569  1.00  0.00     0.117 C 
BRANCH   2   3
ATOM      3  N   UNL A   1      35.695  20.575  25.730  1.00  0.00    -0.356 N 
ATOM      4  C   UNL A   1      34.490  21.197  25.897  1.00  0.00     0.231 C 
ATOM      5  O   UNL A   1      34.162  21.413  27.067  1.00  0.00    -0.274 OA
ATOM      6  H   UNL A   1      36.104  20.298  26.582  1.00  0.00     0.163 HD
BRANCH   4   7
ATOM      7  C   UNL A   1      33.574  21.558  24.729  1.00  0.00     0.164 C 
ATOM      8  C   UNL A   1      32.733  22.840  24.873  1.00  0.00     0.225 C 
ATOM      9  C   UNL A   1      31.585  22.367  25.780  1.00  0.00     0.226 C 
ATOM     10  O   UNL A   1      31.303  21.019  25.371  1.00  0.00    -0.374 OA
ATOM     11  C   UNL A   1      32.443  20.522  24.646  1.00  0.00     0.180 C 
BRANCH   8  12
ATOM     12  N   UNL A   1      33.343  24.166  25.099  1.00  0.00    -0.327 N 
ATOM     13  H   UNL A   1      33.605  24.126  26.084  1.00  0.00     0.348 HD
BRANCH  12  14
ATOM     14  C   UNL A   1      34.608  24.370  24.371  1.00  0.00     0.259 C 
ATOM     15  C   UNL A   1      35.781  24.413  25.347  1.00  0.00     0.071 C 
ENDBRANCH  12  14
BRANCH  12  16
ATOM     16  C   UNL A   1      32.418  25.341  25.087  1.00  0.00     0.194 C 
ATOM     17  C   UNL A   1      32.277  26.030  23.701  1.00  0.00     0.134 C 
ATOM     18  C   UNL A   1      32.464  26.239  26.356  1.00  0.00     0.073 C 
ATOM     19  S   UNL A   1      32.359  27.830  23.554  1.00  0.00    -0.155 SA
ATOM     20  C   UNL A   1      32.357  27.771  26.311  1.00  0.00    -0.021 C 
ATOM     21  C   UNL A   1      31.563  28.274  25.107  1.00  0.00     0.076 C 
ATOM     22  C   UNL A   1      33.785  28.352  26.371  1.00  0.00     0.012 C 
ATOM     23  C   UNL A   1      31.619  28.228  27.596  1.00  0.00     0.012 C 
ENDBRANCH  12  16
ENDBRANCH   8  12
ENDBRANCH   4   7
ENDBRANCH   2   3
ENDBRANCH   1   2
BRANCH   1  24
ATOM     24  C   UNL A   1      38.839  20.058  25.653  1.00  0.00     0.118 C 
BRANCH  24  25
ATOM     25  N   UNL A   1      40.049  19.250  25.729  1.00  0.00    -0.352 N 
ATOM     26  C   UNL A   1      41.354  19.560  26.027  1.00  0.00     0.251 C 
ATOM     27  H   UNL A   1      39.904  18.297  25.526  1.00  0.00     0.163 HD
ATOM     28  O   UNL A   1      42.211  18.688  25.832  1.00  0.00    -0.269 OA
BRANCH  26  29
ATOM     29  C   UNL A   1      41.786  20.882  26.550  1.00  0.00     0.039 A 
ATOM     30  C   UNL A   1      41.862  21.068  27.938  1.00  0.00     0.014 A 
ATOM     31  C   UNL A   1      42.043  21.973  25.721  1.00  0.00     0.014 A 
ATOM     32  C   UNL A   1      42.236  22.308  28.477  1.00  0.00     0.010 A 
ATOM     33  C   UNL A   1      42.536  23.167  26.250  1.00  0.00     0.010 A 
ATOM     34  C   UNL A   1      42.612  23.365  27.636  1.00  0.00    -0.014 A 
BRANCH  34  35
ATOM     35  C   UNL A   1      43.024  24.699  28.160  1.00  0.00     0.031 A 
ATOM     36  C   UNL A   1      41.977  25.752  28.445  1.00  0.00     0.074 A 
ATOM     37  C   UNL A   1      44.329  25.006  28.303  1.00  0.00     0.049 A 
ATOM     38  N   UNL A   1      42.129  27.019  28.739  1.00  0.00    -0.248 NA
ATOM     39  C   UNL A   1      40.571  25.331  28.338  1.00  0.00     0.031 C 
ATOM     40  C   UNL A   1      45.448  24.103  28.030  1.00  0.00     0.029 A 
ATOM     41  N   UNL A   1      44.937  26.173  28.701  1.00  0.00    -0.354 N 
ATOM     42  C   UNL A   1      40.844  27.550  28.804  1.00  0.00     0.074 A 
ATOM     43  C   UNL A   1      39.930  26.483  28.463  1.00  0.00     0.031 C 
ATOM     44  C   UNL A   1      46.602  24.740  28.290  1.00  0.00     0.029 A 
ATOM     45  C   UNL A   1      46.310  26.110  28.699  1.00  0.00     0.049 A 
ATOM     46  H   UNL A   1      44.435  26.979  28.961  1.00  0.00     0.167 HD
ATOM     47  C   UNL A   1      40.456  28.802  29.143  1.00  0.00     0.037 A 
ATOM     48  C   UNL A   1      47.231  27.052  28.980  1.00  0.00     0.037 A 
ATOM     49  C   UNL A   1      41.362  29.845  29.545  1.00  0.00     0.049 A 
ATOM     50  C   UNL A   1      46.778  28.432  29.370  1.00  0.00     0.074 A 
ATOM     51  C   UNL A   1      41.066  31.124  29.984  1.00  0.00     0.029 A 
ATOM     52  N   UNL A   1      42.743  29.724  29.566  1.00  0.00    -0.354 N 
ATOM     53  N   UNL A   1      45.558  28.903  29.477  1.00  0.00    -0.248 NA
ATOM     54  C   UNL A   1      47.827  29.412  29.684  1.00  0.00     0.031 C 
ATOM     55  C   UNL A   1      42.269  31.791  30.230  1.00  0.00     0.029 A 
ATOM     56  C   UNL A   1      43.314  30.911  29.994  1.00  0.00     0.049 A 
ATOM     57  H   UNL A   1      43.244  28.914  29.315  1.00  0.00     0.167 HD
ATOM     58  C   UNL A   1      45.693  30.220  29.897  1.00  0.00     0.074 A 
ATOM     59  C   UNL A   1      47.111  30.471  30.038  1.00  0.00     0.031 C 
ATOM     60  C   UNL A   1      44.728  31.138  30.145  1.00  0.00     0.037 A 
BRANCH  47  61
ATOM     61  C   UNL A   1      38.985  29.113  29.105  1.00  0.00     0.057 A 
ATOM     62  C   UNL A   1      38.179  29.044  30.250  1.00  0.00     0.134 A 
ATOM     63  C   UNL A   1      38.370  29.516  27.912  1.00  0.00     0.134 A 
ATOM     64  F   UNL A   1      38.700  28.656  31.425  1.00  0.00    -0.206 F 
ATOM     65  C   UNL A   1      36.814  29.330  30.204  1.00  0.00     0.040 A 
ATOM     66  C   UNL A   1      37.012  29.836  27.860  1.00  0.00     0.040 A 
ATOM     67  F   UNL A   1      39.081  29.614  26.777  1.00  0.00    -0.206 F 
ATOM     68  C   UNL A   1      36.227  29.733  29.006  1.00  0.00     0.006 A 
ENDBRANCH  47  61
BRANCH  48  69
ATOM     69  C   UNL A   1      48.679  26.720  28.921  1.00  0.00     0.057 A 
ATOM     70  C   UNL A   1      49.426  26.957  27.761  1.00  0.00     0.134 A 
ATOM     71  C   UNL A   1      49.350  26.156  30.013  1.00  0.00     0.134 A 
ATOM     72  F   UNL A   1      48.836  27.476  26.674  1.00  0.00    -0.206 F 
ATOM     73  C   UNL A   1      50.781  26.630  27.682  1.00  0.00     0.040 A 
ATOM     74  C   UNL A   1      50.711  25.849  29.958  1.00  0.00     0.040 A 
ATOM     75  F   UNL A   1      48.693  25.908  31.157  1.00  0.00    -0.206 F 
ATOM     76  C   UNL A   1      51.428  26.080  28.786  1.00  0.00     0.006 A 
ENDBRANCH  48  69
BRANCH  60  77
ATOM     77  C   UNL A   1      45.166  32.486  30.639  1.00  0.00     0.057 A 
ATOM     78  C   UNL A   1      45.416  33.550  29.764  1.00  0.00     0.134 A 
ATOM     79  C   UNL A   1      45.284  32.736  32.012  1.00  0.00     0.134 A 
ATOM     80  F   UNL A   1      45.332  33.374  28.436  1.00  0.00    -0.206 F 
ATOM     81  C   UNL A   1      45.784  34.811  30.237  1.00  0.00     0.040 A 
ATOM     82  C   UNL A   1      45.624  33.997  32.498  1.00  0.00     0.040 A 
ATOM     83  F   UNL A   1      45.048  31.761  32.904  1.00  0.00    -0.206 F 
ATOM     84  C   UNL A   1      45.881  35.039  31.609  1.00  0.00     0.006 A 
ENDBRANCH  60  77
ENDBRANCH  34  35
ENDBRANCH  26  29
ENDBRANCH  24  25
ENDBRANCH   1  24
TORSDOF 13
ENDMDL
