MODEL 1
REMARK VINA RESULT:     -12.6      0.000      0.000
REMARK SMILES C[C@H]1N=N[C@H](S/C(=C/c2ccc(-c3cccc(Cl)c3)o2)C(=O)NCCCNC(=O)c2ccc(-c3c4nc(c(-c5c(F)cccc5F)c5ccc([nH]5)c(-c5c(F)cccc5F)c5nc(c(-c6c(F)cccc6F)c6ccc3[nH]6)C=C5)C=C4)cc2)[NH2+]1
REMARK SMILES IDX 25 1 24 2 23 3 21 4 22 5 7 7 8 8 6 9 5 10 1 11 2 12 3 13
REMARK SMILES IDX 84 14 4 15 9 18 10 19 20 20 11 21 12 22 13 23 14 24 19 25
REMARK SMILES IDX 15 26 17 27 16 28 18 29 26 30 27 31 28 32 29 34 30 35 31 36
REMARK SMILES IDX 83 37 32 38 82 39 33 40 34 41 35 42 76 43 36 44 81 45 75 46
REMARK SMILES IDX 77 47 37 48 80 49 74 50 73 51 38 53 64 54 47 55 63 56 48 57
REMARK SMILES IDX 51 58 62 59 78 60 49 61 50 62 61 64 79 65 52 66 39 67 40 68
REMARK SMILES IDX 45 69 41 70 42 71 44 72 46 73 43 74 65 75 66 76 71 77 67 78
REMARK SMILES IDX 68 79 70 80 72 81 69 82 53 83 54 84 59 85 55 86 56 87 58 88
REMARK SMILES IDX 60 89 57 90
REMARK H PARENT 23 6 84 16 84 17 27 33 77 52 51 63
REMARK Flexibility Score: inf
ROOT
ATOM      1  C   UNL A   1      32.046  28.263  27.384  1.00  0.00     0.042 C 
ENDROOT
BRANCH   1   2
ATOM      2  C   UNL A   1      31.875  26.901  26.752  1.00  0.00     0.118 C 
BRANCH   2   3
ATOM      3  N   UNL A   1      30.671  26.603  26.014  1.00  0.00    -0.352 N 
ATOM      4  C   UNL A   1      30.545  26.488  24.644  1.00  0.00     0.258 C 
ATOM      5  O   UNL A   1      29.530  25.945  24.206  1.00  0.00    -0.269 OA
ATOM      6  H   UNL A   1      29.853  26.467  26.544  1.00  0.00     0.163 HD
BRANCH   4   7
ATOM      7  C   UNL A   1      31.550  27.130  23.696  1.00  0.00     0.084 C 
ATOM      8  C   UNL A   1      32.622  26.548  23.126  1.00  0.00     0.068 C 
BRANCH   7   9
ATOM      9  S   UNL A   1      31.286  28.869  23.561  1.00  0.00    -0.030 SA
BRANCH   9  10
ATOM     10  C   UNL A   1      29.980  29.163  22.331  1.00  0.00     0.393 C 
ATOM     11  C   UNL A   1      28.183  31.774  20.845  1.00  0.00     0.106 C 
ATOM     12  C   UNL A   1      28.866  31.096  22.029  1.00  0.00     0.324 C 
ATOM     13  N   UNL A   1      27.948  30.073  22.551  1.00  0.00    -0.126 NA
ATOM     14  N   UNL A   1      30.124  30.453  21.656  1.00  0.00    -0.293 N 
ATOM     15  N   UNL A   1      28.562  28.989  22.689  1.00  0.00    -0.115 NA
ATOM     16  H   UNL A   1      30.929  30.972  22.005  1.00  0.00     0.350 HD
ATOM     17  H   UNL A   1      30.284  30.387  20.650  1.00  0.00     0.350 HD
ENDBRANCH   9  10
ENDBRANCH   7   9
BRANCH   8  18
ATOM     18  C   UNL A   1      33.039  25.200  23.241  1.00  0.00     0.128 A 
ATOM     19  C   UNL A   1      32.406  23.986  23.012  1.00  0.00     0.051 A 
ATOM     20  O   UNL A   1      34.303  24.921  23.712  1.00  0.00    -0.457 OA
ATOM     21  C   UNL A   1      33.299  22.955  23.423  1.00  0.00     0.051 A 
ATOM     22  C   UNL A   1      34.434  23.579  23.892  1.00  0.00     0.134 A 
BRANCH  22  23
ATOM     23  C   UNL A   1      35.664  23.151  24.552  1.00  0.00     0.019 A 
ATOM     24  C   UNL A   1      36.413  24.047  25.325  1.00  0.00     0.012 A 
ATOM     25  C   UNL A   1      36.142  21.838  24.404  1.00  0.00     0.032 A 
ATOM     26  C   UNL A   1      37.601  23.643  25.944  1.00  0.00     0.002 A 
ATOM     27  C   UNL A   1      37.330  21.439  25.019  1.00  0.00     0.041 A 
ATOM     28  C   UNL A   1      38.062  22.337  25.789  1.00  0.00     0.020 A 
ATOM     29  Cl  UNL A   1      37.885  19.820  24.830  1.00  0.00    -0.084 Cl
ENDBRANCH  22  23
ENDBRANCH   8  18
ENDBRANCH   4   7
ENDBRANCH   2   3
ENDBRANCH   1   2
BRANCH   1  30
ATOM     30  C   UNL A   1      33.321  29.017  27.031  1.00  0.00     0.118 C 
BRANCH  30  31
ATOM     31  N   UNL A   1      33.528  30.287  27.730  1.00  0.00    -0.352 N 
ATOM     32  C   UNL A   1      34.594  30.864  28.393  1.00  0.00     0.251 C 
ATOM     33  H   UNL A   1      32.727  30.859  27.727  1.00  0.00     0.163 HD
ATOM     34  O   UNL A   1      34.433  31.959  28.914  1.00  0.00    -0.269 OA
BRANCH  32  35
ATOM     35  C   UNL A   1      35.906  30.181  28.536  1.00  0.00     0.039 A 
ATOM     36  C   UNL A   1      36.801  30.189  27.456  1.00  0.00     0.014 A 
ATOM     37  C   UNL A   1      36.279  29.525  29.701  1.00  0.00     0.014 A 
ATOM     38  C   UNL A   1      38.090  29.660  27.601  1.00  0.00     0.010 A 
ATOM     39  C   UNL A   1      37.602  29.149  29.900  1.00  0.00     0.010 A 
ATOM     40  C   UNL A   1      38.530  29.205  28.853  1.00  0.00    -0.014 A 
BRANCH  40  41
ATOM     41  C   UNL A   1      39.936  28.783  29.114  1.00  0.00     0.031 A 
ATOM     42  C   UNL A   1      40.936  29.774  29.655  1.00  0.00     0.074 A 
ATOM     43  C   UNL A   1      40.351  27.555  28.743  1.00  0.00     0.049 A 
ATOM     44  N   UNL A   1      42.234  29.657  29.785  1.00  0.00    -0.248 NA
ATOM     45  C   UNL A   1      40.414  31.089  30.065  1.00  0.00     0.031 C 
ATOM     46  C   UNL A   1      39.507  26.516  28.152  1.00  0.00     0.029 A 
ATOM     47  N   UNL A   1      41.598  26.980  28.777  1.00  0.00    -0.354 N 
ATOM     48  C   UNL A   1      42.678  30.883  30.265  1.00  0.00     0.074 A 
ATOM     49  C   UNL A   1      41.526  31.756  30.326  1.00  0.00     0.031 C 
ATOM     50  C   UNL A   1      40.253  25.435  27.883  1.00  0.00     0.029 A 
ATOM     51  C   UNL A   1      41.638  25.715  28.240  1.00  0.00     0.049 A 
ATOM     52  H   UNL A   1      42.390  27.431  29.151  1.00  0.00     0.167 HD
ATOM     53  C   UNL A   1      43.922  31.241  30.661  1.00  0.00     0.037 A 
ATOM     54  C   UNL A   1      42.673  24.877  28.038  1.00  0.00     0.037 A 
ATOM     55  C   UNL A   1      45.059  30.359  30.640  1.00  0.00     0.049 A 
ATOM     56  C   UNL A   1      44.049  25.299  28.470  1.00  0.00     0.074 A 
ATOM     57  C   UNL A   1      46.342  30.595  31.100  1.00  0.00     0.029 A 
ATOM     58  N   UNL A   1      45.046  29.070  30.127  1.00  0.00    -0.354 N 
ATOM     59  N   UNL A   1      44.436  26.431  29.005  1.00  0.00    -0.248 NA
ATOM     60  C   UNL A   1      45.129  24.319  28.287  1.00  0.00     0.031 C 
ATOM     61  C   UNL A   1      47.118  29.465  30.824  1.00  0.00     0.029 A 
ATOM     62  C   UNL A   1      46.306  28.506  30.240  1.00  0.00     0.049 A 
ATOM     63  H   UNL A   1      44.259  28.623  29.741  1.00  0.00     0.167 HD
ATOM     64  C   UNL A   1      45.792  26.285  29.261  1.00  0.00     0.074 A 
ATOM     65  C   UNL A   1      46.159  24.954  28.827  1.00  0.00     0.031 C 
ATOM     66  C   UNL A   1      46.654  27.174  29.815  1.00  0.00     0.037 A 
BRANCH  53  67
ATOM     67  C   UNL A   1      44.109  32.641  31.176  1.00  0.00     0.057 A 
ATOM     68  C   UNL A   1      44.466  33.699  30.328  1.00  0.00     0.134 A 
ATOM     69  C   UNL A   1      43.907  32.942  32.529  1.00  0.00     0.134 A 
ATOM     70  F   UNL A   1      44.686  33.479  29.022  1.00  0.00    -0.206 F 
ATOM     71  C   UNL A   1      44.652  34.995  30.811  1.00  0.00     0.040 A 
ATOM     72  C   UNL A   1      44.058  34.240  33.018  1.00  0.00     0.040 A 
ATOM     73  F   UNL A   1      43.557  31.981  33.397  1.00  0.00    -0.206 F 
ATOM     74  C   UNL A   1      44.441  35.270  32.160  1.00  0.00     0.006 A 
ENDBRANCH  53  67
BRANCH  54  75
ATOM     75  C   UNL A   1      42.442  23.545  27.424  1.00  0.00     0.057 A 
ATOM     76  C   UNL A   1      42.546  23.360  26.040  1.00  0.00     0.134 A 
ATOM     77  C   UNL A   1      42.115  22.426  28.199  1.00  0.00     0.134 A 
ATOM     78  F   UNL A   1      42.841  24.398  25.242  1.00  0.00    -0.206 F 
ATOM     79  C   UNL A   1      42.311  22.120  25.446  1.00  0.00     0.040 A 
ATOM     80  C   UNL A   1      41.903  21.173  27.620  1.00  0.00     0.040 A 
ATOM     81  F   UNL A   1      42.006  22.533  29.532  1.00  0.00    -0.206 F 
ATOM     82  C   UNL A   1      41.994  21.019  26.239  1.00  0.00     0.006 A 
ENDBRANCH  54  75
BRANCH  66  83
ATOM     83  C   UNL A   1      48.066  26.716  30.031  1.00  0.00     0.057 A 
ATOM     84  C   UNL A   1      48.447  25.991  31.166  1.00  0.00     0.134 A 
ATOM     85  C   UNL A   1      49.050  26.976  29.067  1.00  0.00     0.134 A 
ATOM     86  F   UNL A   1      47.557  25.722  32.132  1.00  0.00    -0.206 F 
ATOM     87  C   UNL A   1      49.764  25.562  31.347  1.00  0.00     0.040 A 
ATOM     88  C   UNL A   1      50.360  26.526  29.223  1.00  0.00     0.040 A 
ATOM     89  F   UNL A   1      48.748  27.658  27.951  1.00  0.00    -0.206 F 
ATOM     90  C   UNL A   1      50.722  25.823  30.370  1.00  0.00     0.006 A 
ENDBRANCH  66  83
ENDBRANCH  40  41
ENDBRANCH  32  35
ENDBRANCH  30  31
ENDBRANCH   1  30
TORSDOF 14
ENDMDL
MODEL 2
REMARK VINA RESULT:     -12.4      3.830      8.766
REMARK SMILES C[C@H]1N=N[C@H](S/C(=C/c2ccc(-c3cccc(Cl)c3)o2)C(=O)NCCCNC(=O)c2ccc(-c3c4nc(c(-c5c(F)cccc5F)c5ccc([nH]5)c(-c5c(F)cccc5F)c5nc(c(-c6c(F)cccc6F)c6ccc3[nH]6)C=C5)C=C4)cc2)[NH2+]1
REMARK SMILES IDX 25 1 24 2 23 3 21 4 22 5 7 7 8 8 6 9 5 10 1 11 2 12 3 13
REMARK SMILES IDX 84 14 4 15 9 18 10 19 20 20 11 21 12 22 13 23 14 24 19 25
REMARK SMILES IDX 15 26 17 27 16 28 18 29 26 30 27 31 28 32 29 34 30 35 31 36
REMARK SMILES IDX 83 37 32 38 82 39 33 40 34 41 35 42 76 43 36 44 81 45 75 46
REMARK SMILES IDX 77 47 37 48 80 49 74 50 73 51 38 53 64 54 47 55 63 56 48 57
REMARK SMILES IDX 51 58 62 59 78 60 49 61 50 62 61 64 79 65 52 66 39 67 40 68
REMARK SMILES IDX 45 69 41 70 42 71 44 72 46 73 43 74 65 75 66 76 71 77 67 78
REMARK SMILES IDX 68 79 70 80 72 81 69 82 53 83 54 84 59 85 55 86 56 87 58 88
REMARK SMILES IDX 60 89 57 90
REMARK H PARENT 23 6 84 16 84 17 27 33 77 52 51 63
REMARK Flexibility Score: inf
ROOT
ATOM      1  C   UNL A   1      36.560  22.637  24.062  1.00  0.00     0.042 C 
ENDROOT
BRANCH   1   2
ATOM      2  C   UNL A   1      35.396  23.521  23.677  1.00  0.00     0.118 C 
BRANCH   2   3
ATOM      3  N   UNL A   1      34.220  22.932  23.081  1.00  0.00    -0.352 N 
ATOM      4  C   UNL A   1      33.024  22.654  23.710  1.00  0.00     0.258 C 
ATOM      5  O   UNL A   1      32.042  22.433  22.999  1.00  0.00    -0.269 OA
ATOM      6  H   UNL A   1      34.279  22.706  22.125  1.00  0.00     0.163 HD
BRANCH   4   7
ATOM      7  C   UNL A   1      32.939  22.485  25.221  1.00  0.00     0.084 C 
ATOM      8  C   UNL A   1      32.473  23.374  26.117  1.00  0.00     0.068 C 
BRANCH   7   9
ATOM      9  S   UNL A   1      33.745  21.007  25.749  1.00  0.00    -0.030 SA
BRANCH   9  10
ATOM     10  C   UNL A   1      32.673  19.591  25.355  1.00  0.00     0.393 C 
ATOM     11  C   UNL A   1      32.583  16.100  25.597  1.00  0.00     0.106 C 
ATOM     12  C   UNL A   1      33.296  17.427  25.356  1.00  0.00     0.324 C 
ATOM     13  N   UNL A   1      32.997  17.855  23.982  1.00  0.00    -0.126 NA
ATOM     14  N   UNL A   1      32.858  18.472  26.279  1.00  0.00    -0.293 N 
ATOM     15  N   UNL A   1      32.621  19.050  23.987  1.00  0.00    -0.115 NA
ATOM     16  H   UNL A   1      33.570  18.677  26.979  1.00  0.00     0.350 HD
ATOM     17  H   UNL A   1      32.030  18.235  26.826  1.00  0.00     0.350 HD
ENDBRANCH   9  10
ENDBRANCH   7   9
BRANCH   8  18
ATOM     18  C   UNL A   1      31.917  24.651  25.862  1.00  0.00     0.128 A 
ATOM     19  C   UNL A   1      30.885  25.092  25.046  1.00  0.00     0.051 A 
ATOM     20  O   UNL A   1      32.470  25.761  26.461  1.00  0.00    -0.457 OA
ATOM     21  C   UNL A   1      30.867  26.516  25.112  1.00  0.00     0.051 A 
ATOM     22  C   UNL A   1      31.891  26.884  25.957  1.00  0.00     0.134 A 
BRANCH  22  23
ATOM     23  C   UNL A   1      32.498  28.146  26.372  1.00  0.00     0.019 A 
ATOM     24  C   UNL A   1      33.816  28.186  26.844  1.00  0.00     0.012 A 
ATOM     25  C   UNL A   1      31.765  29.344  26.338  1.00  0.00     0.032 A 
ATOM     26  C   UNL A   1      34.393  29.391  27.260  1.00  0.00     0.002 A 
ATOM     27  C   UNL A   1      32.343  30.544  26.757  1.00  0.00     0.041 A 
ATOM     28  C   UNL A   1      33.655  30.572  27.219  1.00  0.00     0.020 A 
ATOM     29  Cl  UNL A   1      31.425  31.999  26.691  1.00  0.00    -0.084 Cl
ENDBRANCH  22  23
ENDBRANCH   8  18
ENDBRANCH   4   7
ENDBRANCH   2   3
ENDBRANCH   1   2
BRANCH   1  30
ATOM     30  C   UNL A   1      37.214  22.928  25.407  1.00  0.00     0.118 C 
BRANCH  30  31
ATOM     31  N   UNL A   1      38.572  22.411  25.582  1.00  0.00    -0.352 N 
ATOM     32  C   UNL A   1      39.725  22.900  26.166  1.00  0.00     0.251 C 
ATOM     33  H   UNL A   1      38.692  21.513  25.198  1.00  0.00     0.163 HD
ATOM     34  O   UNL A   1      40.739  22.216  26.119  1.00  0.00    -0.269 OA
BRANCH  32  35
ATOM     35  C   UNL A   1      39.789  24.242  26.802  1.00  0.00     0.039 A 
ATOM     36  C   UNL A   1      39.200  24.429  28.061  1.00  0.00     0.014 A 
ATOM     37  C   UNL A   1      40.404  25.326  26.190  1.00  0.00     0.014 A 
ATOM     38  C   UNL A   1      39.348  25.647  28.738  1.00  0.00     0.010 A 
ATOM     39  C   UNL A   1      40.690  26.473  26.920  1.00  0.00     0.010 A 
ATOM     40  C   UNL A   1      40.164  26.656  28.205  1.00  0.00    -0.014 A 
BRANCH  40  41
ATOM     41  C   UNL A   1      40.495  27.907  28.945  1.00  0.00     0.031 A 
ATOM     42  C   UNL A   1      41.776  28.003  29.736  1.00  0.00     0.074 A 
ATOM     43  C   UNL A   1      39.591  28.905  29.020  1.00  0.00     0.049 A 
ATOM     44  N   UNL A   1      42.162  28.926  30.581  1.00  0.00    -0.248 NA
ATOM     45  C   UNL A   1      42.732  26.893  29.591  1.00  0.00     0.031 C 
ATOM     46  C   UNL A   1      38.287  28.920  28.356  1.00  0.00     0.029 A 
ATOM     47  N   UNL A   1      39.615  30.088  29.717  1.00  0.00    -0.354 N 
ATOM     48  C   UNL A   1      43.386  28.494  31.080  1.00  0.00     0.074 A 
ATOM     49  C   UNL A   1      43.638  27.191  30.507  1.00  0.00     0.031 C 
ATOM     50  C   UNL A   1      37.639  30.052  28.671  1.00  0.00     0.029 A 
ATOM     51  C   UNL A   1      38.460  30.824  29.595  1.00  0.00     0.049 A 
ATOM     52  H   UNL A   1      40.386  30.382  30.254  1.00  0.00     0.167 HD
ATOM     53  C   UNL A   1      44.243  29.139  31.905  1.00  0.00     0.037 A 
ATOM     54  C   UNL A   1      38.090  31.983  30.174  1.00  0.00     0.037 A 
ATOM     55  C   UNL A   1      44.009  30.454  32.441  1.00  0.00     0.049 A 
ATOM     56  C   UNL A   1      39.049  32.676  31.100  1.00  0.00     0.074 A 
ATOM     57  C   UNL A   1      44.852  31.232  33.215  1.00  0.00     0.029 A 
ATOM     58  N   UNL A   1      42.844  31.183  32.257  1.00  0.00    -0.354 N 
ATOM     59  N   UNL A   1      40.241  32.294  31.491  1.00  0.00    -0.248 NA
ATOM     60  C   UNL A   1      38.621  33.969  31.650  1.00  0.00     0.031 C 
ATOM     61  C   UNL A   1      44.178  32.414  33.539  1.00  0.00     0.029 A 
ATOM     62  C   UNL A   1      42.937  32.395  32.923  1.00  0.00     0.049 A 
ATOM     63  H   UNL A   1      42.066  30.885  31.733  1.00  0.00     0.167 HD
ATOM     64  C   UNL A   1      40.721  33.317  32.297  1.00  0.00     0.074 A 
ATOM     65  C   UNL A   1      39.693  34.337  32.335  1.00  0.00     0.031 C 
ATOM     66  C   UNL A   1      41.911  33.406  32.941  1.00  0.00     0.037 A 
BRANCH  53  67
ATOM     67  C   UNL A   1      45.525  28.438  32.256  1.00  0.00     0.057 A 
ATOM     68  C   UNL A   1      45.631  27.611  33.383  1.00  0.00     0.134 A 
ATOM     69  C   UNL A   1      46.661  28.571  31.447  1.00  0.00     0.134 A 
ATOM     70  F   UNL A   1      44.584  27.448  34.207  1.00  0.00    -0.206 F 
ATOM     71  C   UNL A   1      46.827  26.972  33.714  1.00  0.00     0.040 A 
ATOM     72  C   UNL A   1      47.853  27.911  31.749  1.00  0.00     0.040 A 
ATOM     73  F   UNL A   1      46.631  29.340  30.349  1.00  0.00    -0.206 F 
ATOM     74  C   UNL A   1      47.942  27.116  32.891  1.00  0.00     0.006 A 
ENDBRANCH  53  67
BRANCH  54  75
ATOM     75  C   UNL A   1      36.762  32.575  29.871  1.00  0.00     0.057 A 
ATOM     76  C   UNL A   1      36.598  33.475  28.812  1.00  0.00     0.134 A 
ATOM     77  C   UNL A   1      35.628  32.258  30.628  1.00  0.00     0.134 A 
ATOM     78  F   UNL A   1      37.650  33.831  28.061  1.00  0.00    -0.206 F 
ATOM     79  C   UNL A   1      35.361  34.056  28.529  1.00  0.00     0.040 A 
ATOM     80  C   UNL A   1      34.378  32.811  30.340  1.00  0.00     0.040 A 
ATOM     81  F   UNL A   1      35.715  31.396  31.652  1.00  0.00    -0.206 F 
ATOM     82  C   UNL A   1      34.244  33.720  29.292  1.00  0.00     0.006 A 
ENDBRANCH  54  75
BRANCH  66  83
ATOM     83  C   UNL A   1      42.187  34.671  33.699  1.00  0.00     0.057 A 
ATOM     84  C   UNL A   1      42.796  35.779  33.099  1.00  0.00     0.134 A 
ATOM     85  C   UNL A   1      41.804  34.790  35.042  1.00  0.00     0.134 A 
ATOM     86  F   UNL A   1      43.200  35.725  31.821  1.00  0.00    -0.206 F 
ATOM     87  C   UNL A   1      43.037  36.954  33.815  1.00  0.00     0.040 A 
ATOM     88  C   UNL A   1      42.012  35.968  35.758  1.00  0.00     0.040 A 
ATOM     89  F   UNL A   1      41.207  33.768  35.674  1.00  0.00    -0.206 F 
ATOM     90  C   UNL A   1      42.637  37.053  35.146  1.00  0.00     0.006 A 
ENDBRANCH  66  83
ENDBRANCH  40  41
ENDBRANCH  32  35
ENDBRANCH  30  31
ENDBRANCH   1  30
TORSDOF 14
ENDMDL
MODEL 3
REMARK VINA RESULT:     -12.2      2.417      5.083
REMARK SMILES C[C@H]1N=N[C@H](S/C(=C/c2ccc(-c3cccc(Cl)c3)o2)C(=O)NCCCNC(=O)c2ccc(-c3c4nc(c(-c5c(F)cccc5F)c5ccc([nH]5)c(-c5c(F)cccc5F)c5nc(c(-c6c(F)cccc6F)c6ccc3[nH]6)C=C5)C=C4)cc2)[NH2+]1
REMARK SMILES IDX 25 1 24 2 23 3 21 4 22 5 7 7 8 8 6 9 5 10 1 11 2 12 3 13
REMARK SMILES IDX 84 14 4 15 9 18 10 19 20 20 11 21 12 22 13 23 14 24 19 25
REMARK SMILES IDX 15 26 17 27 16 28 18 29 26 30 27 31 28 32 29 34 30 35 31 36
REMARK SMILES IDX 83 37 32 38 82 39 33 40 34 41 35 42 76 43 36 44 81 45 75 46
REMARK SMILES IDX 77 47 37 48 80 49 74 50 73 51 38 53 64 54 47 55 63 56 48 57
REMARK SMILES IDX 51 58 62 59 78 60 49 61 50 62 61 64 79 65 52 66 39 67 40 68
REMARK SMILES IDX 45 69 41 70 42 71 44 72 46 73 43 74 65 75 66 76 71 77 67 78
REMARK SMILES IDX 68 79 70 80 72 81 69 82 53 83 54 84 59 85 55 86 56 87 58 88
REMARK SMILES IDX 60 89 57 90
REMARK H PARENT 23 6 84 16 84 17 27 33 77 52 51 63
REMARK Flexibility Score: inf
ROOT
ATOM      1  C   UNL A   1      33.044  28.276  27.121  1.00  0.00     0.042 C 
ENDROOT
BRANCH   1   2
ATOM      2  C   UNL A   1      31.862  27.893  26.260  1.00  0.00     0.118 C 
BRANCH   2   3
ATOM      3  N   UNL A   1      31.008  26.803  26.666  1.00  0.00    -0.352 N 
ATOM      4  C   UNL A   1      30.842  25.596  26.019  1.00  0.00     0.258 C 
ATOM      5  O   UNL A   1      30.314  24.677  26.648  1.00  0.00    -0.269 OA
ATOM      6  H   UNL A   1      30.489  26.935  27.492  1.00  0.00     0.163 HD
BRANCH   4   7
ATOM      7  C   UNL A   1      31.167  25.433  24.540  1.00  0.00     0.084 C 
ATOM      8  C   UNL A   1      30.519  25.983  23.496  1.00  0.00     0.068 C 
BRANCH   7   9
ATOM      9  S   UNL A   1      32.425  24.222  24.288  1.00  0.00    -0.030 SA
BRANCH   9  10
ATOM     10  C   UNL A   1      33.747  24.499  25.505  1.00  0.00     0.393 C 
ATOM     11  C   UNL A   1      37.162  23.900  25.993  1.00  0.00     0.106 C 
ATOM     12  C   UNL A   1      35.772  23.513  25.498  1.00  0.00     0.324 C 
ATOM     13  N   UNL A   1      34.997  23.043  26.656  1.00  0.00    -0.126 NA
ATOM     14  N   UNL A   1      35.064  24.634  24.883  1.00  0.00    -0.293 N 
ATOM     15  N   UNL A   1      33.883  23.616  26.676  1.00  0.00    -0.115 NA
ATOM     16  H   UNL A   1      35.013  24.535  23.870  1.00  0.00     0.350 HD
ATOM     17  H   UNL A   1      35.507  25.542  25.025  1.00  0.00     0.350 HD
ENDBRANCH   9  10
ENDBRANCH   7   9
BRANCH   8  18
ATOM     18  C   UNL A   1      29.414  26.868  23.531  1.00  0.00     0.128 A 
ATOM     19  C   UNL A   1      28.085  26.714  23.900  1.00  0.00     0.051 A 
ATOM     20  O   UNL A   1      29.570  28.161  23.086  1.00  0.00    -0.457 OA
ATOM     21  C   UNL A   1      27.415  27.936  23.602  1.00  0.00     0.051 A 
ATOM     22  C   UNL A   1      28.359  28.780  23.057  1.00  0.00     0.134 A 
BRANCH  22  23
ATOM     23  C   UNL A   1      28.343  30.104  22.441  1.00  0.00     0.019 A 
ATOM     24  C   UNL A   1      27.920  30.273  21.117  1.00  0.00     0.012 A 
ATOM     25  C   UNL A   1      28.780  31.235  23.151  1.00  0.00     0.032 A 
ATOM     26  C   UNL A   1      27.921  31.537  20.519  1.00  0.00     0.002 A 
ATOM     27  C   UNL A   1      28.783  32.495  22.550  1.00  0.00     0.041 A 
ATOM     28  C   UNL A   1      28.355  32.651  21.235  1.00  0.00     0.020 A 
ATOM     29  Cl  UNL A   1      29.311  33.865  23.449  1.00  0.00    -0.084 Cl
ENDBRANCH  22  23
ENDBRANCH   8  18
ENDBRANCH   4   7
ENDBRANCH   2   3
ENDBRANCH   1   2
BRANCH   1  30
ATOM     30  C   UNL A   1      33.805  29.529  26.707  1.00  0.00     0.118 C 
BRANCH  30  31
ATOM     31  N   UNL A   1      33.905  30.581  27.720  1.00  0.00    -0.352 N 
ATOM     32  C   UNL A   1      34.881  30.971  28.617  1.00  0.00     0.251 C 
ATOM     33  H   UNL A   1      33.095  31.136  27.774  1.00  0.00     0.163 HD
ATOM     34  O   UNL A   1      34.638  31.900  29.376  1.00  0.00    -0.269 OA
BRANCH  32  35
ATOM     35  C   UNL A   1      36.189  30.272  28.724  1.00  0.00     0.039 A 
ATOM     36  C   UNL A   1      37.074  30.310  27.637  1.00  0.00     0.014 A 
ATOM     37  C   UNL A   1      36.566  29.573  29.862  1.00  0.00     0.014 A 
ATOM     38  C   UNL A   1      38.360  29.765  27.752  1.00  0.00     0.010 A 
ATOM     39  C   UNL A   1      37.887  29.178  30.036  1.00  0.00     0.010 A 
ATOM     40  C   UNL A   1      38.806  29.263  28.983  1.00  0.00    -0.014 A 
BRANCH  40  41
ATOM     41  C   UNL A   1      40.210  28.821  29.217  1.00  0.00     0.031 A 
ATOM     42  C   UNL A   1      41.233  29.793  29.751  1.00  0.00     0.074 A 
ATOM     43  C   UNL A   1      40.603  27.590  28.828  1.00  0.00     0.049 A 
ATOM     44  N   UNL A   1      42.531  29.658  29.858  1.00  0.00    -0.248 NA
ATOM     45  C   UNL A   1      40.735  31.111  30.182  1.00  0.00     0.031 C 
ATOM     46  C   UNL A   1      39.736  26.569  28.240  1.00  0.00     0.029 A 
ATOM     47  N   UNL A   1      41.843  26.999  28.835  1.00  0.00    -0.354 N 
ATOM     48  C   UNL A   1      42.999  30.873  30.343  1.00  0.00     0.074 A 
ATOM     49  C   UNL A   1      41.860  31.760  30.431  1.00  0.00     0.031 C 
ATOM     50  C   UNL A   1      40.463  25.480  27.949  1.00  0.00     0.029 A 
ATOM     51  C   UNL A   1      41.857  25.739  28.285  1.00  0.00     0.049 A 
ATOM     52  H   UNL A   1      42.647  27.436  29.200  1.00  0.00     0.167 HD
ATOM     53  C   UNL A   1      44.254  31.211  30.721  1.00  0.00     0.037 A 
ATOM     54  C   UNL A   1      42.877  24.890  28.058  1.00  0.00     0.037 A 
ATOM     55  C   UNL A   1      45.378  30.314  30.672  1.00  0.00     0.049 A 
ATOM     56  C   UNL A   1      44.266  25.289  28.471  1.00  0.00     0.074 A 
ATOM     57  C   UNL A   1      46.672  30.529  31.113  1.00  0.00     0.029 A 
ATOM     58  N   UNL A   1      45.340  29.031  30.148  1.00  0.00    -0.354 N 
ATOM     59  N   UNL A   1      44.676  26.411  29.010  1.00  0.00    -0.248 NA
ATOM     60  C   UNL A   1      45.330  24.297  28.261  1.00  0.00     0.031 C 
ATOM     61  C   UNL A   1      47.429  29.391  30.814  1.00  0.00     0.029 A 
ATOM     62  C   UNL A   1      46.594  28.449  30.234  1.00  0.00     0.049 A 
ATOM     63  H   UNL A   1      44.541  28.598  29.770  1.00  0.00     0.167 HD
ATOM     64  C   UNL A   1      46.035  26.245  29.242  1.00  0.00     0.074 A 
ATOM     65  C   UNL A   1      46.377  24.913  28.790  1.00  0.00     0.031 C 
ATOM     66  C   UNL A   1      46.917  27.117  29.790  1.00  0.00     0.037 A 
BRANCH  53  67
ATOM     67  C   UNL A   1      44.468  32.603  31.246  1.00  0.00     0.057 A 
ATOM     68  C   UNL A   1      44.322  32.910  32.607  1.00  0.00     0.134 A 
ATOM     69  C   UNL A   1      44.845  33.644  30.389  1.00  0.00     0.134 A 
ATOM     70  F   UNL A   1      43.951  31.962  33.481  1.00  0.00    -0.206 F 
ATOM     71  C   UNL A   1      44.508  34.206  33.089  1.00  0.00     0.040 A 
ATOM     72  C   UNL A   1      45.066  34.938  30.865  1.00  0.00     0.040 A 
ATOM     73  F   UNL A   1      45.010  33.422  29.076  1.00  0.00    -0.206 F 
ATOM     74  C   UNL A   1      44.888  35.224  32.217  1.00  0.00     0.006 A 
ENDBRANCH  53  67
BRANCH  54  75
ATOM     75  C   UNL A   1      42.619  23.567  27.435  1.00  0.00     0.057 A 
ATOM     76  C   UNL A   1      42.709  23.392  26.049  1.00  0.00     0.134 A 
ATOM     77  C   UNL A   1      42.279  22.447  28.204  1.00  0.00     0.134 A 
ATOM     78  F   UNL A   1      43.015  24.431  25.257  1.00  0.00    -0.206 F 
ATOM     79  C   UNL A   1      42.448  22.160  25.447  1.00  0.00     0.040 A 
ATOM     80  C   UNL A   1      42.041  21.202  27.617  1.00  0.00     0.040 A 
ATOM     81  F   UNL A   1      42.183  22.545  29.538  1.00  0.00    -0.206 F 
ATOM     82  C   UNL A   1      42.118  21.059  26.233  1.00  0.00     0.006 A 
ENDBRANCH  54  75
BRANCH  66  83
ATOM     83  C   UNL A   1      48.326  26.638  29.978  1.00  0.00     0.057 A 
ATOM     84  C   UNL A   1      48.731  25.949  31.127  1.00  0.00     0.134 A 
ATOM     85  C   UNL A   1      49.284  26.842  28.975  1.00  0.00     0.134 A 
ATOM     86  F   UNL A   1      47.867  25.734  32.132  1.00  0.00    -0.206 F 
ATOM     87  C   UNL A   1      50.044  25.500  31.283  1.00  0.00     0.040 A 
ATOM     88  C   UNL A   1      50.589  26.371  29.106  1.00  0.00     0.040 A 
ATOM     89  F   UNL A   1      48.959  27.487  27.844  1.00  0.00    -0.206 F 
ATOM     90  C   UNL A   1      50.975  25.704  30.267  1.00  0.00     0.006 A 
ENDBRANCH  66  83
ENDBRANCH  40  41
ENDBRANCH  32  35
ENDBRANCH  30  31
ENDBRANCH   1  30
TORSDOF 14
ENDMDL
