MODEL 1
REMARK VINA RESULT:     -10.8      0.000      0.000
REMARK SMILES CCC[N@H+]1CCC[C@H]([C@@H](C)Nc2cccc(C(=O)NCCCNC(=O)c3ccc(-c4c5nc(c(-c6c(F)cccc6F)c6ccc([nH]6)c(-c6c(F)cccc6F)c6nc(c(-c7c(F)cccc7F)c7ccc4[nH]7)C=C6)C=C5)cc3)c2)C1
REMARK SMILES IDX 17 1 18 2 19 3 16 5 12 6 13 7 80 8 14 9 15 10 11 11 9 13
REMARK SMILES IDX 10 14 8 15 4 16 5 17 81 18 6 20 7 21 3 22 2 23 1 24 20 25
REMARK SMILES IDX 21 26 22 27 23 28 24 29 25 31 26 32 27 33 79 34 28 35 78 36
REMARK SMILES IDX 29 37 30 38 31 39 72 40 32 41 77 42 71 43 73 44 33 45 76 46
REMARK SMILES IDX 70 47 69 48 34 50 60 51 43 52 59 53 44 54 47 55 58 56 74 57
REMARK SMILES IDX 45 58 46 59 57 61 75 62 48 63 35 64 36 65 41 66 37 67 38 68
REMARK SMILES IDX 40 69 42 70 39 71 61 72 62 73 67 74 63 75 64 76 66 77 68 78
REMARK SMILES IDX 65 79 49 80 50 81 55 82 51 83 52 84 54 85 56 86 53 87
REMARK H PARENT 19 4 11 12 4 19 23 30 73 49 47 60
REMARK Flexibility Score: inf
ROOT
ATOM      1  C   UNL A   1      37.188  23.247  25.891  1.00  0.00     0.251 C 
ATOM      2  O   UNL A   1      37.862  24.137  26.411  1.00  0.00    -0.269 OA
ATOM      3  N   UNL A   1      37.860  22.253  25.212  1.00  0.00    -0.352 N 
ATOM      4  H   UNL A   1      38.838  22.365  25.231  1.00  0.00     0.163 HD
ENDROOT
BRANCH   1   5
ATOM      5  C   UNL A   1      35.704  23.335  25.958  1.00  0.00     0.041 A 
ATOM      6  C   UNL A   1      33.682  24.691  26.087  1.00  0.00     0.035 A 
ATOM      7  C   UNL A   1      32.969  23.541  26.433  1.00  0.00     0.026 A 
ATOM      8  C   UNL A   1      35.013  24.516  25.702  1.00  0.00     0.039 A 
ATOM      9  C   UNL A   1      33.594  22.291  26.492  1.00  0.00     0.003 A 
ATOM     10  C   UNL A   1      34.972  22.197  26.301  1.00  0.00     0.014 A 
BRANCH   6  11
ATOM     11  N   UNL A   1      33.062  25.927  26.124  1.00  0.00    -0.382 N 
ATOM     12  H   UNL A   1      32.242  26.011  26.661  1.00  0.00     0.160 HD
BRANCH  11  13
ATOM     13  C   UNL A   1      33.539  27.122  25.419  1.00  0.00     0.084 C 
ATOM     14  C   UNL A   1      33.973  28.164  26.454  1.00  0.00     0.031 C 
BRANCH  13  15
ATOM     15  C   UNL A   1      32.437  27.633  24.450  1.00  0.00     0.066 C 
ATOM     16  N   UNL A   1      32.890  25.887  22.762  1.00  0.00    -0.335 N 
ATOM     17  C   UNL A   1      33.381  26.848  21.778  1.00  0.00     0.262 C 
ATOM     18  C   UNL A   1      31.851  26.470  23.619  1.00  0.00     0.267 C 
ATOM     19  H   UNL A   1      33.703  25.685  23.345  1.00  0.00     0.348 HD
ATOM     20  C   UNL A   1      33.941  28.105  22.453  1.00  0.00     0.062 C 
ATOM     21  C   UNL A   1      32.957  28.699  23.464  1.00  0.00     0.017 C 
BRANCH  16  22
ATOM     22  C   UNL A   1      32.522  24.569  22.237  1.00  0.00     0.261 C 
BRANCH  22  23
ATOM     23  C   UNL A   1      33.397  23.363  22.605  1.00  0.00     0.058 C 
ATOM     24  C   UNL A   1      32.621  22.056  22.716  1.00  0.00     0.010 C 
ENDBRANCH  22  23
ENDBRANCH  16  22
ENDBRANCH  13  15
ENDBRANCH  11  13
ENDBRANCH   6  11
ENDBRANCH   1   5
BRANCH   3  25
ATOM     25  C   UNL A   1      37.433  21.071  24.470  1.00  0.00     0.118 C 
BRANCH  25  26
ATOM     26  C   UNL A   1      38.139  19.786  24.877  1.00  0.00     0.042 C 
BRANCH  26  27
ATOM     27  C   UNL A   1      39.081  19.932  26.060  1.00  0.00     0.118 C 
BRANCH  27  28
ATOM     28  N   UNL A   1      40.341  19.222  25.873  1.00  0.00    -0.352 N 
ATOM     29  C   UNL A   1      41.648  19.636  25.938  1.00  0.00     0.251 C 
ATOM     30  H   UNL A   1      40.234  18.267  25.661  1.00  0.00     0.163 HD
ATOM     31  O   UNL A   1      42.529  18.882  25.535  1.00  0.00    -0.269 OA
BRANCH  29  32
ATOM     32  C   UNL A   1      42.020  20.967  26.473  1.00  0.00     0.039 A 
ATOM     33  C   UNL A   1      42.022  21.157  27.860  1.00  0.00     0.014 A 
ATOM     34  C   UNL A   1      42.297  22.047  25.634  1.00  0.00     0.014 A 
ATOM     35  C   UNL A   1      42.348  22.405  28.397  1.00  0.00     0.010 A 
ATOM     36  C   UNL A   1      42.725  23.259  26.169  1.00  0.00     0.010 A 
ATOM     37  C   UNL A   1      42.733  23.461  27.556  1.00  0.00    -0.014 A 
BRANCH  37  38
ATOM     38  C   UNL A   1      43.104  24.792  28.100  1.00  0.00     0.031 A 
ATOM     39  C   UNL A   1      42.040  25.825  28.363  1.00  0.00     0.074 A 
ATOM     40  C   UNL A   1      44.401  25.095  28.300  1.00  0.00     0.049 A 
ATOM     41  N   UNL A   1      42.168  27.063  28.769  1.00  0.00    -0.248 NA
ATOM     42  C   UNL A   1      40.648  25.424  28.102  1.00  0.00     0.031 C 
ATOM     43  C   UNL A   1      45.531  24.204  28.029  1.00  0.00     0.029 A 
ATOM     44  N   UNL A   1      44.989  26.242  28.770  1.00  0.00    -0.354 N 
ATOM     45  C   UNL A   1      40.884  27.591  28.785  1.00  0.00     0.074 A 
ATOM     46  C   UNL A   1      39.996  26.561  28.295  1.00  0.00     0.031 C 
ATOM     47  C   UNL A   1      46.673  24.827  28.367  1.00  0.00     0.029 A 
ATOM     48  C   UNL A   1      46.359  26.170  28.843  1.00  0.00     0.049 A 
ATOM     49  H   UNL A   1      44.477  27.042  29.030  1.00  0.00     0.167 HD
ATOM     50  C   UNL A   1      40.473  28.815  29.198  1.00  0.00     0.037 A 
ATOM     51  C   UNL A   1      47.260  27.084  29.251  1.00  0.00     0.037 A 
ATOM     52  C   UNL A   1      41.352  29.824  29.726  1.00  0.00     0.049 A 
ATOM     53  C   UNL A   1      46.778  28.423  29.733  1.00  0.00     0.074 A 
ATOM     54  C   UNL A   1      41.031  31.070  30.233  1.00  0.00     0.029 A 
ATOM     55  N   UNL A   1      42.730  29.697  29.819  1.00  0.00    -0.354 N 
ATOM     56  N   UNL A   1      45.553  28.885  29.806  1.00  0.00    -0.248 NA
ATOM     57  C   UNL A   1      47.804  29.366  30.201  1.00  0.00     0.031 C 
ATOM     58  C   UNL A   1      42.218  31.712  30.602  1.00  0.00     0.029 A 
ATOM     59  C   UNL A   1      43.274  30.848  30.364  1.00  0.00     0.049 A 
ATOM     60  H   UNL A   1      43.246  28.907  29.539  1.00  0.00     0.167 HD
ATOM     61  C   UNL A   1      45.657  30.157  30.351  1.00  0.00     0.074 A 
ATOM     62  C   UNL A   1      47.064  30.389  30.605  1.00  0.00     0.031 C 
ATOM     63  C   UNL A   1      44.677  31.055  30.618  1.00  0.00     0.037 A 
BRANCH  50  64
ATOM     64  C   UNL A   1      39.006  29.121  29.104  1.00  0.00     0.057 A 
ATOM     65  C   UNL A   1      38.409  29.513  27.897  1.00  0.00     0.134 A 
ATOM     66  C   UNL A   1      38.175  29.004  30.224  1.00  0.00     0.134 A 
ATOM     67  F   UNL A   1      39.150  29.659  26.788  1.00  0.00    -0.206 F 
ATOM     68  C   UNL A   1      37.047  29.805  27.816  1.00  0.00     0.040 A 
ATOM     69  C   UNL A   1      36.806  29.265  30.150  1.00  0.00     0.040 A 
ATOM     70  F   UNL A   1      38.680  28.627  31.409  1.00  0.00    -0.206 F 
ATOM     71  C   UNL A   1      36.239  29.676  28.944  1.00  0.00     0.006 A 
ENDBRANCH  50  64
BRANCH  51  72
ATOM     72  C   UNL A   1      48.705  26.749  29.259  1.00  0.00     0.057 A 
ATOM     73  C   UNL A   1      49.525  27.073  28.172  1.00  0.00     0.134 A 
ATOM     74  C   UNL A   1      49.302  26.099  30.346  1.00  0.00     0.134 A 
ATOM     75  F   UNL A   1      49.007  27.682  27.094  1.00  0.00    -0.206 F 
ATOM     76  C   UNL A   1      50.882  26.745  28.155  1.00  0.00     0.040 A 
ATOM     77  C   UNL A   1      50.662  25.786  30.352  1.00  0.00     0.040 A 
ATOM     78  F   UNL A   1      48.572  25.770  31.422  1.00  0.00    -0.206 F 
ATOM     79  C   UNL A   1      51.454  26.103  29.251  1.00  0.00     0.006 A 
ENDBRANCH  51  72
BRANCH  63  80
ATOM     80  C   UNL A   1      45.092  32.352  31.247  1.00  0.00     0.057 A 
ATOM     81  C   UNL A   1      45.405  33.480  30.479  1.00  0.00     0.134 A 
ATOM     82  C   UNL A   1      45.148  32.480  32.640  1.00  0.00     0.134 A 
ATOM     83  F   UNL A   1      45.383  33.418  29.139  1.00  0.00    -0.206 F 
ATOM     84  C   UNL A   1      45.787  34.682  31.074  1.00  0.00     0.040 A 
ATOM     85  C   UNL A   1      45.503  33.685  33.248  1.00  0.00     0.040 A 
ATOM     86  F   UNL A   1      44.850  31.439  33.433  1.00  0.00    -0.206 F 
ATOM     87  C   UNL A   1      45.831  34.788  32.464  1.00  0.00     0.006 A 
ENDBRANCH  63  80
ENDBRANCH  37  38
ENDBRANCH  29  32
ENDBRANCH  27  28
ENDBRANCH  26  27
ENDBRANCH  25  26
ENDBRANCH   3  25
TORSDOF 15
ENDMDL
MODEL 2
REMARK VINA RESULT:     -10.8      4.386      8.811
REMARK SMILES CCC[N@H+]1CCC[C@H]([C@@H](C)Nc2cccc(C(=O)NCCCNC(=O)c3ccc(-c4c5nc(c(-c6c(F)cccc6F)c6ccc([nH]6)c(-c6c(F)cccc6F)c6nc(c(-c7c(F)cccc7F)c7ccc4[nH]7)C=C6)C=C5)cc3)c2)C1
REMARK SMILES IDX 17 1 18 2 19 3 16 5 12 6 13 7 80 8 14 9 15 10 11 11 9 13
REMARK SMILES IDX 10 14 8 15 4 16 5 17 81 18 6 20 7 21 3 22 2 23 1 24 20 25
REMARK SMILES IDX 21 26 22 27 23 28 24 29 25 31 26 32 27 33 79 34 28 35 78 36
REMARK SMILES IDX 29 37 30 38 31 39 72 40 32 41 77 42 71 43 73 44 33 45 76 46
REMARK SMILES IDX 70 47 69 48 34 50 60 51 43 52 59 53 44 54 47 55 58 56 74 57
REMARK SMILES IDX 45 58 46 59 57 61 75 62 48 63 35 64 36 65 41 66 37 67 38 68
REMARK SMILES IDX 40 69 42 70 39 71 61 72 62 73 67 74 63 75 64 76 66 77 68 78
REMARK SMILES IDX 65 79 49 80 50 81 55 82 51 83 52 84 54 85 56 86 53 87
REMARK H PARENT 19 4 11 12 4 19 23 30 73 49 47 60
REMARK Flexibility Score: inf
ROOT
ATOM      1  C   UNL A   1      32.453  29.158  24.994  1.00  0.00     0.251 C 
ATOM      2  O   UNL A   1      33.627  28.890  24.735  1.00  0.00    -0.269 OA
ATOM      3  N   UNL A   1      32.162  30.454  25.364  1.00  0.00    -0.352 N 
ATOM      4  H   UNL A   1      32.952  31.042  25.366  1.00  0.00     0.163 HD
ENDROOT
BRANCH   1   5
ATOM      5  C   UNL A   1      31.443  28.066  24.970  1.00  0.00     0.041 A 
ATOM      6  C   UNL A   1      30.673  25.896  25.772  1.00  0.00     0.035 A 
ATOM      7  C   UNL A   1      29.773  25.854  24.705  1.00  0.00     0.026 A 
ATOM      8  C   UNL A   1      31.374  27.089  25.959  1.00  0.00     0.039 A 
ATOM      9  C   UNL A   1      29.663  26.922  23.807  1.00  0.00     0.003 A 
ATOM     10  C   UNL A   1      30.533  28.007  23.913  1.00  0.00     0.014 A 
BRANCH   6  11
ATOM     11  N   UNL A   1      30.826  24.792  26.591  1.00  0.00    -0.382 N 
ATOM     12  H   UNL A   1      30.898  24.947  27.560  1.00  0.00     0.160 HD
BRANCH  11  13
ATOM     13  C   UNL A   1      30.888  23.404  26.118  1.00  0.00     0.084 C 
ATOM     14  C   UNL A   1      29.846  22.578  26.877  1.00  0.00     0.031 C 
BRANCH  13  15
ATOM     15  C   UNL A   1      32.337  22.864  26.271  1.00  0.00     0.066 C 
ATOM     16  N   UNL A   1      33.047  23.688  24.052  1.00  0.00    -0.335 N 
ATOM     17  C   UNL A   1      33.225  22.341  23.517  1.00  0.00     0.262 C 
ATOM     18  C   UNL A   1      33.339  23.744  25.490  1.00  0.00     0.267 C 
ATOM     19  H   UNL A   1      32.053  23.881  23.924  1.00  0.00     0.348 HD
ATOM     20  C   UNL A   1      32.337  21.326  24.244  1.00  0.00     0.062 C 
ATOM     21  C   UNL A   1      32.491  21.416  25.765  1.00  0.00     0.017 C 
BRANCH  16  22
ATOM     22  C   UNL A   1      33.694  24.765  23.298  1.00  0.00     0.261 C 
BRANCH  22  23
ATOM     23  C   UNL A   1      32.924  25.413  22.139  1.00  0.00     0.058 C 
ATOM     24  C   UNL A   1      33.279  26.878  21.913  1.00  0.00     0.010 C 
ENDBRANCH  22  23
ENDBRANCH  16  22
ENDBRANCH  13  15
ENDBRANCH  11  13
ENDBRANCH   6  11
ENDBRANCH   1   5
BRANCH   3  25
ATOM     25  C   UNL A   1      30.935  31.142  25.753  1.00  0.00     0.118 C 
BRANCH  25  26
ATOM     26  C   UNL A   1      31.144  32.561  26.261  1.00  0.00     0.042 C 
BRANCH  26  27
ATOM     27  C   UNL A   1      32.340  32.729  27.183  1.00  0.00     0.118 C 
BRANCH  27  28
ATOM     28  N   UNL A   1      32.526  34.106  27.625  1.00  0.00    -0.352 N 
ATOM     29  C   UNL A   1      33.390  34.671  28.530  1.00  0.00     0.251 C 
ATOM     30  H   UNL A   1      31.919  34.750  27.195  1.00  0.00     0.163 HD
ATOM     31  O   UNL A   1      33.205  35.835  28.878  1.00  0.00    -0.269 OA
BRANCH  29  32
ATOM     32  C   UNL A   1      34.529  33.915  29.101  1.00  0.00     0.039 A 
ATOM     33  C   UNL A   1      34.264  32.890  30.017  1.00  0.00     0.014 A 
ATOM     34  C   UNL A   1      35.853  34.244  28.806  1.00  0.00     0.014 A 
ATOM     35  C   UNL A   1      35.316  32.171  30.590  1.00  0.00     0.010 A 
ATOM     36  C   UNL A   1      36.895  33.459  29.293  1.00  0.00     0.010 A 
ATOM     37  C   UNL A   1      36.642  32.429  30.209  1.00  0.00    -0.014 A 
BRANCH  37  38
ATOM     38  C   UNL A   1      37.779  31.666  30.786  1.00  0.00     0.031 A 
ATOM     39  C   UNL A   1      38.224  31.929  32.201  1.00  0.00     0.074 A 
ATOM     40  C   UNL A   1      38.449  30.784  30.020  1.00  0.00     0.049 A 
ATOM     41  N   UNL A   1      39.234  31.420  32.859  1.00  0.00    -0.248 NA
ATOM     42  C   UNL A   1      37.452  32.921  32.966  1.00  0.00     0.031 C 
ATOM     43  C   UNL A   1      38.155  30.483  28.618  1.00  0.00     0.029 A 
ATOM     44  N   UNL A   1      39.525  29.984  30.313  1.00  0.00    -0.354 N 
ATOM     45  C   UNL A   1      39.233  32.047  34.099  1.00  0.00     0.074 A 
ATOM     46  C   UNL A   1      38.159  33.014  34.082  1.00  0.00     0.031 C 
ATOM     47  C   UNL A   1      39.009  29.541  28.183  1.00  0.00     0.029 A 
ATOM     48  C   UNL A   1      39.931  29.199  29.261  1.00  0.00     0.049 A 
ATOM     49  H   UNL A   1      39.965  29.973  31.194  1.00  0.00     0.167 HD
ATOM     50  C   UNL A   1      40.035  31.820  35.167  1.00  0.00     0.037 A 
ATOM     51  C   UNL A   1      40.933  28.304  29.177  1.00  0.00     0.037 A 
ATOM     52  C   UNL A   1      41.075  30.826  35.197  1.00  0.00     0.049 A 
ATOM     53  C   UNL A   1      41.789  28.046  30.384  1.00  0.00     0.074 A 
ATOM     54  C   UNL A   1      41.900  30.471  36.249  1.00  0.00     0.029 A 
ATOM     55  N   UNL A   1      41.429  30.025  34.122  1.00  0.00    -0.354 N 
ATOM     56  N   UNL A   1      41.733  28.600  31.572  1.00  0.00    -0.248 NA
ATOM     57  C   UNL A   1      42.842  27.031  30.244  1.00  0.00     0.031 C 
ATOM     58  C   UNL A   1      42.776  29.477  35.801  1.00  0.00     0.029 A 
ATOM     59  C   UNL A   1      42.470  29.184  34.483  1.00  0.00     0.049 A 
ATOM     60  H   UNL A   1      41.006  30.050  33.234  1.00  0.00     0.167 HD
ATOM     61  C   UNL A   1      42.721  27.983  32.326  1.00  0.00     0.074 A 
ATOM     62  C   UNL A   1      43.352  27.002  31.467  1.00  0.00     0.031 C 
ATOM     63  C   UNL A   1      43.077  28.208  33.615  1.00  0.00     0.037 A 
BRANCH  50  64
ATOM     64  C   UNL A   1      39.806  32.655  36.394  1.00  0.00     0.057 A 
ATOM     65  C   UNL A   1      40.583  33.789  36.671  1.00  0.00     0.134 A 
ATOM     66  C   UNL A   1      38.787  32.337  37.299  1.00  0.00     0.134 A 
ATOM     67  F   UNL A   1      41.586  34.142  35.853  1.00  0.00    -0.206 F 
ATOM     68  C   UNL A   1      40.373  34.557  37.817  1.00  0.00     0.040 A 
ATOM     69  C   UNL A   1      38.548  33.114  38.434  1.00  0.00     0.040 A 
ATOM     70  F   UNL A   1      38.001  31.269  37.091  1.00  0.00    -0.206 F 
ATOM     71  C   UNL A   1      39.348  34.223  38.700  1.00  0.00     0.006 A 
ENDBRANCH  50  64
BRANCH  51  72
ATOM     72  C   UNL A   1      41.154  27.555  27.915  1.00  0.00     0.057 A 
ATOM     73  C   UNL A   1      40.553  26.310  27.703  1.00  0.00     0.134 A 
ATOM     74  C   UNL A   1      41.969  28.060  26.895  1.00  0.00     0.134 A 
ATOM     75  F   UNL A   1      39.774  25.766  28.650  1.00  0.00    -0.206 F 
ATOM     76  C   UNL A   1      40.769  25.582  26.531  1.00  0.00     0.040 A 
ATOM     77  C   UNL A   1      42.175  27.354  25.708  1.00  0.00     0.040 A 
ATOM     78  F   UNL A   1      42.567  29.253  27.033  1.00  0.00    -0.206 F 
ATOM     79  C   UNL A   1      41.579  26.108  25.527  1.00  0.00     0.006 A 
ENDBRANCH  51  72
BRANCH  63  80
ATOM     80  C   UNL A   1      44.172  27.353  34.180  1.00  0.00     0.057 A 
ATOM     81  C   UNL A   1      43.913  26.099  34.747  1.00  0.00     0.134 A 
ATOM     82  C   UNL A   1      45.505  27.778  34.127  1.00  0.00     0.134 A 
ATOM     83  F   UNL A   1      42.656  25.641  34.840  1.00  0.00    -0.206 F 
ATOM     84  C   UNL A   1      44.940  25.310  35.267  1.00  0.00     0.040 A 
ATOM     85  C   UNL A   1      46.543  26.986  34.620  1.00  0.00     0.040 A 
ATOM     86  F   UNL A   1      45.821  28.965  33.586  1.00  0.00    -0.206 F 
ATOM     87  C   UNL A   1      46.260  25.751  35.198  1.00  0.00     0.006 A 
ENDBRANCH  63  80
ENDBRANCH  37  38
ENDBRANCH  29  32
ENDBRANCH  27  28
ENDBRANCH  26  27
ENDBRANCH  25  26
ENDBRANCH   3  25
TORSDOF 15
ENDMDL
MODEL 3
REMARK VINA RESULT:     -10.7      1.503      6.392
REMARK SMILES CCC[N@H+]1CCC[C@H]([C@@H](C)Nc2cccc(C(=O)NCCCNC(=O)c3ccc(-c4c5nc(c(-c6c(F)cccc6F)c6ccc([nH]6)c(-c6c(F)cccc6F)c6nc(c(-c7c(F)cccc7F)c7ccc4[nH]7)C=C6)C=C5)cc3)c2)C1
REMARK SMILES IDX 17 1 18 2 19 3 16 5 12 6 13 7 80 8 14 9 15 10 11 11 9 13
REMARK SMILES IDX 10 14 8 15 4 16 5 17 81 18 6 20 7 21 3 22 2 23 1 24 20 25
REMARK SMILES IDX 21 26 22 27 23 28 24 29 25 31 26 32 27 33 79 34 28 35 78 36
REMARK SMILES IDX 29 37 30 38 31 39 72 40 32 41 77 42 71 43 73 44 33 45 76 46
REMARK SMILES IDX 70 47 69 48 34 50 60 51 43 52 59 53 44 54 47 55 58 56 74 57
REMARK SMILES IDX 45 58 46 59 57 61 75 62 48 63 35 64 36 65 41 66 37 67 38 68
REMARK SMILES IDX 40 69 42 70 39 71 61 72 62 73 67 74 63 75 64 76 66 77 68 78
REMARK SMILES IDX 65 79 49 80 50 81 55 82 51 83 52 84 54 85 56 86 53 87
REMARK H PARENT 19 4 11 12 4 19 23 30 73 49 47 60
REMARK Flexibility Score: inf
ROOT
ATOM      1  C   UNL A   1      33.450  19.562  25.256  1.00  0.00     0.251 C 
ATOM      2  O   UNL A   1      32.651  18.642  25.081  1.00  0.00    -0.269 OA
ATOM      3  N   UNL A   1      34.767  19.337  24.911  1.00  0.00    -0.352 N 
ATOM      4  H   UNL A   1      34.920  18.438  24.540  1.00  0.00     0.163 HD
ENDROOT
BRANCH   1   5
ATOM      5  C   UNL A   1      32.974  20.820  25.892  1.00  0.00     0.041 A 
ATOM      6  C   UNL A   1      31.587  22.823  25.809  1.00  0.00     0.035 A 
ATOM      7  C   UNL A   1      32.321  23.340  26.879  1.00  0.00     0.026 A 
ATOM      8  C   UNL A   1      31.840  21.498  25.452  1.00  0.00     0.039 A 
ATOM      9  C   UNL A   1      33.335  22.594  27.489  1.00  0.00     0.003 A 
ATOM     10  C   UNL A   1      33.693  21.353  26.964  1.00  0.00     0.014 A 
BRANCH   6  11
ATOM     11  N   UNL A   1      30.652  23.614  25.166  1.00  0.00    -0.382 N 
ATOM     12  H   UNL A   1      29.932  23.162  24.671  1.00  0.00     0.160 HD
BRANCH  11  13
ATOM     13  C   UNL A   1      30.657  25.082  25.169  1.00  0.00     0.084 C 
ATOM     14  C   UNL A   1      29.559  25.576  26.115  1.00  0.00     0.031 C 
BRANCH  13  15
ATOM     15  C   UNL A   1      30.504  25.608  23.715  1.00  0.00     0.066 C 
ATOM     16  N   UNL A   1      32.847  25.099  23.117  1.00  0.00    -0.335 N 
ATOM     17  C   UNL A   1      33.203  26.507  22.968  1.00  0.00     0.262 C 
ATOM     18  C   UNL A   1      31.447  24.851  22.752  1.00  0.00     0.267 C 
ATOM     19  H   UNL A   1      32.950  24.916  24.115  1.00  0.00     0.348 HD
ATOM     20  C   UNL A   1      32.301  27.406  23.820  1.00  0.00     0.062 C 
ATOM     21  C   UNL A   1      30.816  27.113  23.589  1.00  0.00     0.017 C 
BRANCH  16  22
ATOM     22  C   UNL A   1      33.772  24.139  22.507  1.00  0.00     0.261 C 
BRANCH  22  23
ATOM     23  C   UNL A   1      34.515  23.155  23.421  1.00  0.00     0.058 C 
ATOM     24  C   UNL A   1      35.308  23.833  24.532  1.00  0.00     0.010 C 
ENDBRANCH  22  23
ENDBRANCH  16  22
ENDBRANCH  13  15
ENDBRANCH  11  13
ENDBRANCH   6  11
ENDBRANCH   1   5
BRANCH   3  25
ATOM     25  C   UNL A   1      35.981  20.144  24.979  1.00  0.00     0.118 C 
BRANCH  25  26
ATOM     26  C   UNL A   1      37.271  19.339  24.962  1.00  0.00     0.042 C 
BRANCH  26  27
ATOM     27  C   UNL A   1      38.513  20.133  25.333  1.00  0.00     0.118 C 
BRANCH  27  28
ATOM     28  N   UNL A   1      39.666  19.284  25.612  1.00  0.00    -0.352 N 
ATOM     29  C   UNL A   1      40.928  19.571  26.070  1.00  0.00     0.251 C 
ATOM     30  H   UNL A   1      39.509  18.328  25.441  1.00  0.00     0.163 HD
ATOM     31  O   UNL A   1      41.788  18.694  26.025  1.00  0.00    -0.269 OA
BRANCH  29  32
ATOM     32  C   UNL A   1      41.280  20.906  26.606  1.00  0.00     0.039 A 
ATOM     33  C   UNL A   1      41.797  21.868  25.729  1.00  0.00     0.014 A 
ATOM     34  C   UNL A   1      41.179  21.205  27.965  1.00  0.00     0.014 A 
ATOM     35  C   UNL A   1      42.158  23.131  26.206  1.00  0.00     0.010 A 
ATOM     36  C   UNL A   1      41.438  22.494  28.422  1.00  0.00     0.010 A 
ATOM     37  C   UNL A   1      41.953  23.466  27.553  1.00  0.00    -0.014 A 
BRANCH  37  38
ATOM     38  C   UNL A   1      42.309  24.807  28.083  1.00  0.00     0.031 A 
ATOM     39  C   UNL A   1      43.733  25.115  28.466  1.00  0.00     0.074 A 
ATOM     40  C   UNL A   1      41.345  25.727  28.278  1.00  0.00     0.049 A 
ATOM     41  N   UNL A   1      44.230  26.197  29.009  1.00  0.00    -0.248 NA
ATOM     42  C   UNL A   1      44.726  24.051  28.240  1.00  0.00     0.031 C 
ATOM     43  C   UNL A   1      39.920  25.533  28.003  1.00  0.00     0.029 A 
ATOM     44  N   UNL A   1      41.417  27.008  28.763  1.00  0.00    -0.354 N 
ATOM     45  C   UNL A   1      45.579  25.934  29.212  1.00  0.00     0.074 A 
ATOM     46  C   UNL A   1      45.813  24.572  28.789  1.00  0.00     0.031 C 
ATOM     47  C   UNL A   1      39.258  26.665  28.294  1.00  0.00     0.029 A 
ATOM     48  C   UNL A   1      40.204  27.651  28.808  1.00  0.00     0.049 A 
ATOM     49  H   UNL A   1      42.260  27.428  29.052  1.00  0.00     0.167 HD
ATOM     50  C   UNL A   1      46.544  26.760  29.683  1.00  0.00     0.037 A 
ATOM     51  C   UNL A   1      39.890  28.895  29.216  1.00  0.00     0.037 A 
ATOM     52  C   UNL A   1      46.318  28.129  30.064  1.00  0.00     0.049 A 
ATOM     53  C   UNL A   1      40.982  29.803  29.705  1.00  0.00     0.074 A 
ATOM     54  C   UNL A   1      47.238  29.070  30.490  1.00  0.00     0.029 A 
ATOM     55  N   UNL A   1      45.080  28.753  30.059  1.00  0.00    -0.354 N 
ATOM     56  N   UNL A   1      42.265  29.562  29.829  1.00  0.00    -0.248 NA
ATOM     57  C   UNL A   1      40.585  31.161  30.102  1.00  0.00     0.031 C 
ATOM     58  C   UNL A   1      46.552  30.256  30.775  1.00  0.00     0.029 A 
ATOM     59  C   UNL A   1      45.210  30.064  30.486  1.00  0.00     0.049 A 
ATOM     60  H   UNL A   1      44.233  28.328  29.792  1.00  0.00     0.167 HD
ATOM     61  C   UNL A   1      42.832  30.742  30.290  1.00  0.00     0.074 A 
ATOM     62  C   UNL A   1      41.755  31.704  30.409  1.00  0.00     0.031 C 
ATOM     63  C   UNL A   1      44.127  31.008  30.589  1.00  0.00     0.037 A 
BRANCH  50  64
ATOM     64  C   UNL A   1      47.935  26.205  29.800  1.00  0.00     0.057 A 
ATOM     65  C   UNL A   1      48.820  26.198  28.713  1.00  0.00     0.134 A 
ATOM     66  C   UNL A   1      48.402  25.690  31.015  1.00  0.00     0.134 A 
ATOM     67  F   UNL A   1      48.432  26.662  27.516  1.00  0.00    -0.206 F 
ATOM     68  C   UNL A   1      50.109  25.671  28.824  1.00  0.00     0.040 A 
ATOM     69  C   UNL A   1      49.698  25.188  31.146  1.00  0.00     0.040 A 
ATOM     70  F   UNL A   1      47.609  25.672  32.097  1.00  0.00    -0.206 F 
ATOM     71  C   UNL A   1      50.553  25.170  30.045  1.00  0.00     0.006 A 
ENDBRANCH  50  64
BRANCH  51  72
ATOM     72  C   UNL A   1      38.486  29.368  29.142  1.00  0.00     0.057 A 
ATOM     73  C   UNL A   1      37.933  29.791  27.928  1.00  0.00     0.134 A 
ATOM     74  C   UNL A   1      37.664  29.411  30.274  1.00  0.00     0.134 A 
ATOM     75  F   UNL A   1      38.676  29.788  26.811  1.00  0.00    -0.206 F 
ATOM     76  C   UNL A   1      36.620  30.260  27.844  1.00  0.00     0.040 A 
ATOM     77  C   UNL A   1      36.343  29.855  30.201  1.00  0.00     0.040 A 
ATOM     78  F   UNL A   1      38.132  29.010  31.466  1.00  0.00    -0.206 F 
ATOM     79  C   UNL A   1      35.820  30.288  28.985  1.00  0.00     0.006 A 
ENDBRANCH  51  72
BRANCH  63  80
ATOM     80  C   UNL A   1      44.452  32.402  31.038  1.00  0.00     0.057 A 
ATOM     81  C   UNL A   1      44.759  33.420  30.126  1.00  0.00     0.134 A 
ATOM     82  C   UNL A   1      44.426  32.736  32.397  1.00  0.00     0.134 A 
ATOM     83  F   UNL A   1      44.812  33.161  28.810  1.00  0.00    -0.206 F 
ATOM     84  C   UNL A   1      45.056  34.714  30.553  1.00  0.00     0.040 A 
ATOM     85  C   UNL A   1      44.696  34.033  32.835  1.00  0.00     0.040 A 
ATOM     86  F   UNL A   1      44.129  31.809  33.321  1.00  0.00    -0.206 F 
ATOM     87  C   UNL A   1      45.019  35.025  31.911  1.00  0.00     0.006 A 
ENDBRANCH  63  80
ENDBRANCH  37  38
ENDBRANCH  29  32
ENDBRANCH  27  28
ENDBRANCH  26  27
ENDBRANCH  25  26
ENDBRANCH   3  25
TORSDOF 15
ENDMDL
