MODEL 1
REMARK VINA RESULT:     -12.2      0.000      0.000
REMARK SMILES O=C(NCCCNC(=O)[C@@H]1C=C[C@H](NC(=O)c2ccc(Br)cc2)C1)c1ccc(-c2c3nc(c(-c4c(F)cccc4F)c4ccc([nH]4)c(-c4c(F)cccc4F)c4nc(c(-c5c(F)cccc5F)c5ccc2[nH]5)C=C4)C=C3)cc1
REMARK SMILES IDX 5 1 4 2 3 3 1 4 2 5 25 7 26 8 78 9 27 10 77 11 28 12 29 13
REMARK SMILES IDX 30 14 71 15 31 16 76 17 70 18 72 19 32 20 75 21 69 22 68 23
REMARK SMILES IDX 33 25 59 26 42 27 58 28 43 29 46 30 57 31 73 32 44 33 45 34
REMARK SMILES IDX 56 36 74 37 47 38 34 39 35 40 40 41 36 42 37 43 39 44 41 45
REMARK SMILES IDX 38 46 60 47 61 48 66 49 62 50 63 51 65 52 67 53 64 54 48 55
REMARK SMILES IDX 49 56 54 57 50 58 51 59 53 60 55 61 52 62 6 63 7 64 8 65
REMARK SMILES IDX 9 67 10 68 11 69 24 70 12 71 13 72 14 73 15 74 16 76 17 77
REMARK SMILES IDX 18 78 23 79 19 80 22 81 20 82 21 83
REMARK H PARENT 3 6 72 24 46 35 7 66 14 75
REMARK Flexibility Score: inf
ROOT
ATOM      1  C   UNL A   1      31.403  32.207  26.545  1.00  0.00     0.042 C 
ENDROOT
BRANCH   1   2
ATOM      2  C   UNL A   1      32.637  32.839  27.170  1.00  0.00     0.118 C 
BRANCH   2   3
ATOM      3  N   UNL A   1      32.411  34.203  27.626  1.00  0.00    -0.352 N 
ATOM      4  O   UNL A   1      32.534  36.005  28.968  1.00  0.00    -0.269 OA
ATOM      5  C   UNL A   1      32.999  34.916  28.642  1.00  0.00     0.251 C 
ATOM      6  H   UNL A   1      31.722  34.696  27.123  1.00  0.00     0.163 HD
BRANCH   5   7
ATOM      7  C   UNL A   1      34.165  34.370  29.368  1.00  0.00     0.039 A 
ATOM      8  C   UNL A   1      35.464  34.554  28.891  1.00  0.00     0.014 A 
ATOM      9  C   UNL A   1      33.955  33.679  30.565  1.00  0.00     0.014 A 
ATOM     10  C   UNL A   1      36.526  33.899  29.502  1.00  0.00     0.010 A 
ATOM     11  C   UNL A   1      35.039  33.111  31.240  1.00  0.00     0.010 A 
ATOM     12  C   UNL A   1      36.329  33.182  30.693  1.00  0.00    -0.014 A 
BRANCH  12  13
ATOM     13  C   UNL A   1      37.489  32.557  31.373  1.00  0.00     0.031 A 
ATOM     14  C   UNL A   1      38.205  31.386  30.761  1.00  0.00     0.074 A 
ATOM     15  C   UNL A   1      37.900  33.060  32.553  1.00  0.00     0.049 A 
ATOM     16  N   UNL A   1      39.209  30.693  31.237  1.00  0.00    -0.248 NA
ATOM     17  C   UNL A   1      37.729  30.927  29.448  1.00  0.00     0.031 C 
ATOM     18  C   UNL A   1      37.283  34.194  33.247  1.00  0.00     0.029 A 
ATOM     19  N   UNL A   1      38.935  32.693  33.373  1.00  0.00    -0.354 N 
ATOM     20  C   UNL A   1      39.467  29.702  30.299  1.00  0.00     0.074 A 
ATOM     21  C   UNL A   1      38.500  29.870  29.234  1.00  0.00     0.031 C 
ATOM     22  C   UNL A   1      37.971  34.449  34.369  1.00  0.00     0.029 A 
ATOM     23  C   UNL A   1      39.033  33.460  34.507  1.00  0.00     0.049 A 
ATOM     24  H   UNL A   1      39.549  31.950  33.168  1.00  0.00     0.167 HD
ATOM     25  C   UNL A   1      40.424  28.744  30.325  1.00  0.00     0.037 A 
ATOM     26  C   UNL A   1      39.867  33.365  35.558  1.00  0.00     0.037 A 
ATOM     27  C   UNL A   1      41.392  28.593  31.380  1.00  0.00     0.049 A 
ATOM     28  C   UNL A   1      40.901  32.280  35.573  1.00  0.00     0.074 A 
ATOM     29  C   UNL A   1      42.424  27.676  31.480  1.00  0.00     0.029 A 
ATOM     30  N   UNL A   1      41.448  29.381  32.520  1.00  0.00    -0.354 N 
ATOM     31  N   UNL A   1      41.146  31.362  34.669  1.00  0.00    -0.248 NA
ATOM     32  C   UNL A   1      41.772  32.213  36.754  1.00  0.00     0.031 C 
ATOM     33  C   UNL A   1      43.078  27.881  32.700  1.00  0.00     0.029 A 
ATOM     34  C   UNL A   1      42.482  28.958  33.339  1.00  0.00     0.049 A 
ATOM     35  H   UNL A   1      40.840  30.131  32.719  1.00  0.00     0.167 HD
ATOM     36  C   UNL A   1      42.209  30.620  35.162  1.00  0.00     0.074 A 
ATOM     37  C   UNL A   1      42.571  31.203  36.439  1.00  0.00     0.031 C 
ATOM     38  C   UNL A   1      42.830  29.551  34.605  1.00  0.00     0.037 A 
BRANCH  25  39
ATOM     39  C   UNL A   1      40.454  27.766  29.185  1.00  0.00     0.057 A 
ATOM     40  C   UNL A   1      41.292  27.940  28.078  1.00  0.00     0.134 A 
ATOM     41  C   UNL A   1      39.653  26.616  29.214  1.00  0.00     0.134 A 
ATOM     42  F   UNL A   1      42.075  29.026  27.981  1.00  0.00    -0.206 F 
ATOM     43  C   UNL A   1      41.315  27.020  27.027  1.00  0.00     0.040 A 
ATOM     44  C   UNL A   1      39.684  25.677  28.181  1.00  0.00     0.040 A 
ATOM     45  F   UNL A   1      38.832  26.384  30.249  1.00  0.00    -0.206 F 
ATOM     46  C   UNL A   1      40.512  25.882  27.080  1.00  0.00     0.006 A 
ENDBRANCH  25  39
BRANCH  26  47
ATOM     47  C   UNL A   1      39.739  34.326  36.680  1.00  0.00     0.057 A 
ATOM     48  C   UNL A   1      39.001  34.006  37.824  1.00  0.00     0.134 A 
ATOM     49  C   UNL A   1      40.383  35.570  36.649  1.00  0.00     0.134 A 
ATOM     50  F   UNL A   1      38.352  32.836  37.904  1.00  0.00    -0.206 F 
ATOM     51  C   UNL A   1      38.903  34.892  38.898  1.00  0.00     0.040 A 
ATOM     52  C   UNL A   1      40.313  36.453  37.725  1.00  0.00     0.040 A 
ATOM     53  F   UNL A   1      41.113  35.927  35.583  1.00  0.00    -0.206 F 
ATOM     54  C   UNL A   1      39.568  36.116  38.853  1.00  0.00     0.006 A 
ENDBRANCH  26  47
BRANCH  38  55
ATOM     55  C   UNL A   1      43.986  28.966  35.360  1.00  0.00     0.057 A 
ATOM     56  C   UNL A   1      45.300  29.402  35.152  1.00  0.00     0.134 A 
ATOM     57  C   UNL A   1      43.775  27.977  36.328  1.00  0.00     0.134 A 
ATOM     58  F   UNL A   1      45.568  30.335  34.227  1.00  0.00    -0.206 F 
ATOM     59  C   UNL A   1      46.366  28.863  35.873  1.00  0.00     0.040 A 
ATOM     60  C   UNL A   1      44.830  27.447  37.071  1.00  0.00     0.040 A 
ATOM     61  F   UNL A   1      42.538  27.521  36.578  1.00  0.00    -0.206 F 
ATOM     62  C   UNL A   1      46.132  27.887  36.840  1.00  0.00     0.006 A 
ENDBRANCH  38  55
ENDBRANCH  12  13
ENDBRANCH   5   7
ENDBRANCH   2   3
ENDBRANCH   1   2
BRANCH   1  63
ATOM     63  C   UNL A   1      31.619  30.799  26.021  1.00  0.00     0.117 C 
BRANCH  63  64
ATOM     64  N   UNL A   1      31.452  29.786  27.047  1.00  0.00    -0.356 N 
ATOM     65  C   UNL A   1      31.575  28.431  26.980  1.00  0.00     0.227 C 
ATOM     66  H   UNL A   1      31.211  30.135  27.935  1.00  0.00     0.163 HD
ATOM     67  O   UNL A   1      31.320  27.796  28.005  1.00  0.00    -0.274 OA
BRANCH  65  68
ATOM     68  C   UNL A   1      31.942  27.765  25.651  1.00  0.00     0.103 C 
ATOM     69  C   UNL A   1      30.784  27.814  24.696  1.00  0.00    -0.016 C 
ATOM     70  C   UNL A   1      32.222  26.256  25.757  1.00  0.00     0.047 C 
ATOM     71  C   UNL A   1      30.277  26.603  24.447  1.00  0.00    -0.006 C 
ATOM     72  C   UNL A   1      31.032  25.523  25.135  1.00  0.00     0.106 C 
BRANCH  72  73
ATOM     73  N   UNL A   1      30.205  24.896  26.144  1.00  0.00    -0.346 N 
ATOM     74  C   UNL A   1      30.389  23.709  26.803  1.00  0.00     0.251 C 
ATOM     75  H   UNL A   1      29.394  25.395  26.394  1.00  0.00     0.164 HD
ATOM     76  O   UNL A   1      29.569  23.317  27.626  1.00  0.00    -0.269 OA
BRANCH  74  77
ATOM     77  C   UNL A   1      31.537  22.851  26.451  1.00  0.00     0.039 A 
ATOM     78  C   UNL A   1      32.729  22.877  27.181  1.00  0.00     0.015 A 
ATOM     79  C   UNL A   1      31.403  22.014  25.340  1.00  0.00     0.015 A 
ATOM     80  C   UNL A   1      33.820  22.123  26.745  1.00  0.00     0.016 A 
ATOM     81  C   UNL A   1      32.490  21.250  24.915  1.00  0.00     0.016 A 
ATOM     82  C   UNL A   1      33.697  21.323  25.609  1.00  0.00     0.018 A 
ATOM     83  Br  UNL A   1      35.185  20.329  25.001  1.00  0.00    -0.051 Br
ENDBRANCH  74  77
ENDBRANCH  72  73
ENDBRANCH  65  68
ENDBRANCH  63  64
ENDBRANCH   1  63
TORSDOF 12
ENDMDL
MODEL 2
REMARK VINA RESULT:     -12.2      4.896      9.398
REMARK SMILES O=C(NCCCNC(=O)[C@@H]1C=C[C@H](NC(=O)c2ccc(Br)cc2)C1)c1ccc(-c2c3nc(c(-c4c(F)cccc4F)c4ccc([nH]4)c(-c4c(F)cccc4F)c4nc(c(-c5c(F)cccc5F)c5ccc2[nH]5)C=C4)C=C3)cc1
REMARK SMILES IDX 5 1 4 2 3 3 1 4 2 5 25 7 26 8 78 9 27 10 77 11 28 12 29 13
REMARK SMILES IDX 30 14 71 15 31 16 76 17 70 18 72 19 32 20 75 21 69 22 68 23
REMARK SMILES IDX 33 25 59 26 42 27 58 28 43 29 46 30 57 31 73 32 44 33 45 34
REMARK SMILES IDX 56 36 74 37 47 38 34 39 35 40 40 41 36 42 37 43 39 44 41 45
REMARK SMILES IDX 38 46 60 47 61 48 66 49 62 50 63 51 65 52 67 53 64 54 48 55
REMARK SMILES IDX 49 56 54 57 50 58 51 59 53 60 55 61 52 62 6 63 7 64 8 65
REMARK SMILES IDX 9 67 10 68 11 69 24 70 12 71 13 72 14 73 15 74 16 76 17 77
REMARK SMILES IDX 18 78 23 79 19 80 22 81 20 82 21 83
REMARK H PARENT 3 6 72 24 46 35 7 66 14 75
REMARK Flexibility Score: inf
ROOT
ATOM      1  C   UNL A   1      37.786  19.447  25.033  1.00  0.00     0.042 C 
ENDROOT
BRANCH   1   2
ATOM      2  C   UNL A   1      38.976  20.081  25.735  1.00  0.00     0.118 C 
BRANCH   2   3
ATOM      3  N   UNL A   1      40.127  19.194  25.821  1.00  0.00    -0.352 N 
ATOM      4  O   UNL A   1      42.287  18.582  25.971  1.00  0.00    -0.269 OA
ATOM      5  C   UNL A   1      41.440  19.457  26.125  1.00  0.00     0.251 C 
ATOM      6  H   UNL A   1      39.932  18.247  25.630  1.00  0.00     0.163 HD
BRANCH   5   7
ATOM      7  C   UNL A   1      41.848  20.796  26.601  1.00  0.00     0.039 A 
ATOM      8  C   UNL A   1      41.841  21.112  27.960  1.00  0.00     0.014 A 
ATOM      9  C   UNL A   1      42.270  21.748  25.668  1.00  0.00     0.014 A 
ATOM     10  C   UNL A   1      42.075  22.419  28.370  1.00  0.00     0.010 A 
ATOM     11  C   UNL A   1      42.611  23.035  26.092  1.00  0.00     0.010 A 
ATOM     12  C   UNL A   1      42.477  23.393  27.442  1.00  0.00    -0.014 A 
BRANCH  12  13
ATOM     13  C   UNL A   1      42.800  24.763  27.910  1.00  0.00     0.031 A 
ATOM     14  C   UNL A   1      44.221  25.178  28.167  1.00  0.00     0.074 A 
ATOM     15  C   UNL A   1      41.795  25.641  28.096  1.00  0.00     0.049 A 
ATOM     16  N   UNL A   1      44.678  26.319  28.617  1.00  0.00    -0.248 NA
ATOM     17  C   UNL A   1      45.266  24.180  27.892  1.00  0.00     0.031 C 
ATOM     18  C   UNL A   1      40.374  25.353  27.880  1.00  0.00     0.029 A 
ATOM     19  N   UNL A   1      41.811  26.951  28.498  1.00  0.00    -0.354 N 
ATOM     20  C   UNL A   1      46.056  26.170  28.706  1.00  0.00     0.074 A 
ATOM     21  C   UNL A   1      46.360  24.819  28.282  1.00  0.00     0.031 C 
ATOM     22  C   UNL A   1      39.660  26.462  28.121  1.00  0.00     0.029 A 
ATOM     23  C   UNL A   1      40.562  27.516  28.569  1.00  0.00     0.049 A 
ATOM     24  H   UNL A   1      42.638  27.438  28.715  1.00  0.00     0.167 HD
ATOM     25  C   UNL A   1      46.980  27.078  29.101  1.00  0.00     0.037 A 
ATOM     26  C   UNL A   1      40.178  28.739  28.976  1.00  0.00     0.037 A 
ATOM     27  C   UNL A   1      46.672  28.425  29.505  1.00  0.00     0.049 A 
ATOM     28  C   UNL A   1      41.219  29.717  29.432  1.00  0.00     0.074 A 
ATOM     29  C   UNL A   1      47.541  29.432  29.888  1.00  0.00     0.029 A 
ATOM     30  N   UNL A   1      45.392  28.955  29.579  1.00  0.00    -0.354 N 
ATOM     31  N   UNL A   1      42.519  29.568  29.492  1.00  0.00    -0.248 NA
ATOM     32  C   UNL A   1      40.739  31.030  29.882  1.00  0.00     0.031 C 
ATOM     33  C   UNL A   1      46.785  30.557  30.235  1.00  0.00     0.029 A 
ATOM     34  C   UNL A   1      45.446  30.266  30.022  1.00  0.00     0.049 A 
ATOM     35  H   UNL A   1      44.565  28.470  29.351  1.00  0.00     0.167 HD
ATOM     36  C   UNL A   1      43.017  30.772  29.967  1.00  0.00     0.074 A 
ATOM     37  C   UNL A   1      41.878  31.646  30.168  1.00  0.00     0.031 C 
ATOM     38  C   UNL A   1      44.303  31.123  30.214  1.00  0.00     0.037 A 
BRANCH  25  39
ATOM     39  C   UNL A   1      48.414  26.634  29.138  1.00  0.00     0.057 A 
ATOM     40  C   UNL A   1      49.289  26.853  28.067  1.00  0.00     0.134 A 
ATOM     41  C   UNL A   1      48.934  26.005  30.277  1.00  0.00     0.134 A 
ATOM     42  F   UNL A   1      48.852  27.439  26.941  1.00  0.00    -0.206 F 
ATOM     43  C   UNL A   1      50.622  26.440  28.116  1.00  0.00     0.040 A 
ATOM     44  C   UNL A   1      50.271  25.608  30.348  1.00  0.00     0.040 A 
ATOM     45  F   UNL A   1      48.153  25.770  31.342  1.00  0.00    -0.206 F 
ATOM     46  C   UNL A   1      51.118  25.820  29.262  1.00  0.00     0.006 A 
ENDBRANCH  25  39
BRANCH  26  47
ATOM     47  C   UNL A   1      38.737  29.089  28.974  1.00  0.00     0.057 A 
ATOM     48  C   UNL A   1      37.967  28.984  30.136  1.00  0.00     0.134 A 
ATOM     49  C   UNL A   1      38.107  29.572  27.820  1.00  0.00     0.134 A 
ATOM     50  F   UNL A   1      38.512  28.514  31.268  1.00  0.00    -0.206 F 
ATOM     51  C   UNL A   1      36.618  29.342  30.151  1.00  0.00     0.040 A 
ATOM     52  C   UNL A   1      36.768  29.957  27.827  1.00  0.00     0.040 A 
ATOM     53  F   UNL A   1      38.798  29.704  26.677  1.00  0.00    -0.206 F 
ATOM     54  C   UNL A   1      36.018  29.839  28.995  1.00  0.00     0.006 A 
ENDBRANCH  26  47
BRANCH  38  55
ATOM     55  C   UNL A   1      44.548  32.520  30.697  1.00  0.00     0.057 A 
ATOM     56  C   UNL A   1      44.610  32.830  32.061  1.00  0.00     0.134 A 
ATOM     57  C   UNL A   1      44.755  33.562  29.784  1.00  0.00     0.134 A 
ATOM     58  F   UNL A   1      44.404  31.879  32.984  1.00  0.00    -0.206 F 
ATOM     59  C   UNL A   1      44.856  34.132  32.500  1.00  0.00     0.040 A 
ATOM     60  C   UNL A   1      45.024  34.862  30.210  1.00  0.00     0.040 A 
ATOM     61  F   UNL A   1      44.713  33.328  28.464  1.00  0.00    -0.206 F 
ATOM     62  C   UNL A   1      45.070  35.151  31.573  1.00  0.00     0.006 A 
ENDBRANCH  38  55
ENDBRANCH  12  13
ENDBRANCH   5   7
ENDBRANCH   2   3
ENDBRANCH   1   2
BRANCH   1  63
ATOM     63  C   UNL A   1      36.703  20.430  24.625  1.00  0.00     0.117 C 
BRANCH  63  64
ATOM     64  N   UNL A   1      35.894  20.872  25.747  1.00  0.00    -0.356 N 
ATOM     65  C   UNL A   1      35.124  21.985  25.898  1.00  0.00     0.227 C 
ATOM     66  H   UNL A   1      35.903  20.268  26.524  1.00  0.00     0.163 HD
ATOM     67  O   UNL A   1      34.579  22.143  26.991  1.00  0.00    -0.274 OA
BRANCH  65  68
ATOM     68  C   UNL A   1      35.031  23.006  24.760  1.00  0.00     0.103 C 
ATOM     69  C   UNL A   1      35.364  24.383  25.255  1.00  0.00    -0.016 C 
ATOM     70  C   UNL A   1      33.615  23.190  24.190  1.00  0.00     0.047 C 
ATOM     71  C   UNL A   1      34.307  25.201  25.238  1.00  0.00    -0.006 C 
ATOM     72  C   UNL A   1      33.097  24.546  24.676  1.00  0.00     0.106 C 
BRANCH  72  73
ATOM     73  N   UNL A   1      32.086  24.394  25.701  1.00  0.00    -0.346 N 
ATOM     74  C   UNL A   1      30.966  25.148  25.935  1.00  0.00     0.251 C 
ATOM     75  H   UNL A   1      32.223  23.640  26.319  1.00  0.00     0.164 HD
ATOM     76  O   UNL A   1      30.219  24.884  26.870  1.00  0.00    -0.269 OA
BRANCH  74  77
ATOM     77  C   UNL A   1      30.707  26.342  25.108  1.00  0.00     0.039 A 
ATOM     78  C   UNL A   1      31.384  27.547  25.318  1.00  0.00     0.015 A 
ATOM     79  C   UNL A   1      29.738  26.237  24.106  1.00  0.00     0.015 A 
ATOM     80  C   UNL A   1      31.029  28.675  24.578  1.00  0.00     0.016 A 
ATOM     81  C   UNL A   1      29.396  27.363  23.355  1.00  0.00     0.016 A 
ATOM     82  C   UNL A   1      30.030  28.579  23.608  1.00  0.00     0.018 A 
ATOM     83  Br  UNL A   1      29.527  30.116  22.629  1.00  0.00    -0.051 Br
ENDBRANCH  74  77
ENDBRANCH  72  73
ENDBRANCH  65  68
ENDBRANCH  63  64
ENDBRANCH   1  63
TORSDOF 12
ENDMDL
MODEL 3
REMARK VINA RESULT:     -12.2      5.536     10.569
REMARK SMILES O=C(NCCCNC(=O)[C@@H]1C=C[C@H](NC(=O)c2ccc(Br)cc2)C1)c1ccc(-c2c3nc(c(-c4c(F)cccc4F)c4ccc([nH]4)c(-c4c(F)cccc4F)c4nc(c(-c5c(F)cccc5F)c5ccc2[nH]5)C=C4)C=C3)cc1
REMARK SMILES IDX 5 1 4 2 3 3 1 4 2 5 25 7 26 8 78 9 27 10 77 11 28 12 29 13
REMARK SMILES IDX 30 14 71 15 31 16 76 17 70 18 72 19 32 20 75 21 69 22 68 23
REMARK SMILES IDX 33 25 59 26 42 27 58 28 43 29 46 30 57 31 73 32 44 33 45 34
REMARK SMILES IDX 56 36 74 37 47 38 34 39 35 40 40 41 36 42 37 43 39 44 41 45
REMARK SMILES IDX 38 46 60 47 61 48 66 49 62 50 63 51 65 52 67 53 64 54 48 55
REMARK SMILES IDX 49 56 54 57 50 58 51 59 53 60 55 61 52 62 6 63 7 64 8 65
REMARK SMILES IDX 9 67 10 68 11 69 24 70 12 71 13 72 14 73 15 74 16 76 17 77
REMARK SMILES IDX 18 78 23 79 19 80 22 81 20 82 21 83
REMARK H PARENT 3 6 72 24 46 35 7 66 14 75
REMARK Flexibility Score: inf
ROOT
ATOM      1  C   UNL A   1      38.051  19.499  25.001  1.00  0.00     0.042 C 
ENDROOT
BRANCH   1   2
ATOM      2  C   UNL A   1      39.182  19.903  25.934  1.00  0.00     0.118 C 
BRANCH   2   3
ATOM      3  N   UNL A   1      40.293  18.962  25.926  1.00  0.00    -0.352 N 
ATOM      4  O   UNL A   1      42.424  18.246  25.843  1.00  0.00    -0.269 OA
ATOM      5  C   UNL A   1      41.645  19.171  26.052  1.00  0.00     0.251 C 
ATOM      6  H   UNL A   1      40.032  18.019  25.811  1.00  0.00     0.163 HD
BRANCH   5   7
ATOM      7  C   UNL A   1      42.170  20.508  26.402  1.00  0.00     0.039 A 
ATOM      8  C   UNL A   1      42.311  20.902  27.733  1.00  0.00     0.014 A 
ATOM      9  C   UNL A   1      42.552  21.376  25.375  1.00  0.00     0.014 A 
ATOM     10  C   UNL A   1      42.656  22.214  28.035  1.00  0.00     0.010 A 
ATOM     11  C   UNL A   1      43.002  22.662  25.683  1.00  0.00     0.010 A 
ATOM     12  C   UNL A   1      43.020  23.105  27.014  1.00  0.00    -0.014 A 
BRANCH  12  13
ATOM     13  C   UNL A   1      43.461  24.478  27.362  1.00  0.00     0.031 A 
ATOM     14  C   UNL A   1      42.476  25.512  27.828  1.00  0.00     0.074 A 
ATOM     15  C   UNL A   1      44.768  24.787  27.261  1.00  0.00     0.049 A 
ATOM     16  N   UNL A   1      42.681  26.768  28.134  1.00  0.00    -0.248 NA
ATOM     17  C   UNL A   1      41.075  25.084  27.962  1.00  0.00     0.031 C 
ATOM     18  C   UNL A   1      45.820  23.867  26.818  1.00  0.00     0.029 A 
ATOM     19  N   UNL A   1      45.438  25.952  27.530  1.00  0.00    -0.354 N 
ATOM     20  C   UNL A   1      41.437  27.288  28.468  1.00  0.00     0.074 A 
ATOM     21  C   UNL A   1      40.477  26.216  28.309  1.00  0.00     0.031 C 
ATOM     22  C   UNL A   1      47.004  24.493  26.877  1.00  0.00     0.029 A 
ATOM     23  C   UNL A   1      46.789  25.872  27.297  1.00  0.00     0.049 A 
ATOM     24  H   UNL A   1      44.993  26.767  27.858  1.00  0.00     0.167 HD
ATOM     25  C   UNL A   1      41.128  28.543  28.874  1.00  0.00     0.037 A 
ATOM     26  C   UNL A   1      47.748  26.811  27.385  1.00  0.00     0.037 A 
ATOM     27  C   UNL A   1      42.091  29.600  29.047  1.00  0.00     0.049 A 
ATOM     28  C   UNL A   1      47.375  28.198  27.813  1.00  0.00     0.074 A 
ATOM     29  C   UNL A   1      41.881  30.895  29.488  1.00  0.00     0.029 A 
ATOM     30  N   UNL A   1      43.448  29.483  28.785  1.00  0.00    -0.354 N 
ATOM     31  N   UNL A   1      46.198  28.670  28.144  1.00  0.00    -0.248 NA
ATOM     32  C   UNL A   1      48.460  29.185  27.873  1.00  0.00     0.031 C 
ATOM     33  C   UNL A   1      43.103  31.575  29.452  1.00  0.00     0.029 A 
ATOM     34  C   UNL A   1      44.084  30.688  29.034  1.00  0.00     0.049 A 
ATOM     35  H   UNL A   1      43.894  28.664  28.467  1.00  0.00     0.167 HD
ATOM     36  C   UNL A   1      46.402  30.002  28.471  1.00  0.00     0.074 A 
ATOM     37  C   UNL A   1      47.819  30.260  28.309  1.00  0.00     0.031 C 
ATOM     38  C   UNL A   1      45.495  30.928  28.870  1.00  0.00     0.037 A 
BRANCH  25  39
ATOM     39  C   UNL A   1      39.681  28.848  29.136  1.00  0.00     0.057 A 
ATOM     40  C   UNL A   1      38.816  29.276  28.122  1.00  0.00     0.134 A 
ATOM     41  C   UNL A   1      39.140  28.679  30.418  1.00  0.00     0.134 A 
ATOM     42  F   UNL A   1      39.273  29.470  26.875  1.00  0.00    -0.206 F 
ATOM     43  C   UNL A   1      37.471  29.551  28.377  1.00  0.00     0.040 A 
ATOM     44  C   UNL A   1      37.791  28.929  30.680  1.00  0.00     0.040 A 
ATOM     45  F   UNL A   1      39.911  28.265  31.434  1.00  0.00    -0.206 F 
ATOM     46  C   UNL A   1      36.954  29.372  29.659  1.00  0.00     0.006 A 
ENDBRANCH  25  39
BRANCH  26  47
ATOM     47  C   UNL A   1      49.148  26.456  27.048  1.00  0.00     0.057 A 
ATOM     48  C   UNL A   1      50.041  26.028  28.035  1.00  0.00     0.134 A 
ATOM     49  C   UNL A   1      49.612  26.500  25.727  1.00  0.00     0.134 A 
ATOM     50  F   UNL A   1      49.658  25.979  29.318  1.00  0.00    -0.206 F 
ATOM     51  C   UNL A   1      51.351  25.661  27.721  1.00  0.00     0.040 A 
ATOM     52  C   UNL A   1      50.910  26.113  25.397  1.00  0.00     0.040 A 
ATOM     53  F   UNL A   1      48.798  26.893  24.737  1.00  0.00    -0.206 F 
ATOM     54  C   UNL A   1      51.785  25.695  26.397  1.00  0.00     0.006 A 
ENDBRANCH  26  47
BRANCH  38  55
ATOM     55  C   UNL A   1      46.016  32.296  29.191  1.00  0.00     0.057 A 
ATOM     56  C   UNL A   1      46.053  33.316  28.233  1.00  0.00     0.134 A 
ATOM     57  C   UNL A   1      46.456  32.604  30.485  1.00  0.00     0.134 A 
ATOM     58  F   UNL A   1      45.661  33.079  26.972  1.00  0.00    -0.206 F 
ATOM     59  C   UNL A   1      46.523  34.592  28.547  1.00  0.00     0.040 A 
ATOM     60  C   UNL A   1      46.907  33.881  30.817  1.00  0.00     0.040 A 
ATOM     61  F   UNL A   1      46.441  31.671  31.449  1.00  0.00    -0.206 F 
ATOM     62  C   UNL A   1      46.946  34.879  29.845  1.00  0.00     0.006 A 
ENDBRANCH  38  55
ENDBRANCH  12  13
ENDBRANCH   5   7
ENDBRANCH   2   3
ENDBRANCH   1   2
BRANCH   1  63
ATOM     63  C   UNL A   1      37.114  20.633  24.626  1.00  0.00     0.117 C 
BRANCH  63  64
ATOM     64  N   UNL A   1      35.934  20.688  25.468  1.00  0.00    -0.356 N 
ATOM     65  C   UNL A   1      34.888  21.560  25.469  1.00  0.00     0.227 C 
ATOM     66  H   UNL A   1      35.880  19.979  26.149  1.00  0.00     0.163 HD
ATOM     67  O   UNL A   1      34.032  21.406  26.342  1.00  0.00    -0.274 OA
BRANCH  65  68
ATOM     68  C   UNL A   1      34.857  22.713  24.460  1.00  0.00     0.103 C 
ATOM     69  C   UNL A   1      35.313  23.991  25.102  1.00  0.00    -0.016 C 
ATOM     70  C   UNL A   1      33.450  23.076  23.958  1.00  0.00     0.047 C 
ATOM     71  C   UNL A   1      34.327  24.887  25.211  1.00  0.00    -0.006 C 
ATOM     72  C   UNL A   1      33.056  24.401  24.613  1.00  0.00     0.106 C 
BRANCH  72  73
ATOM     73  N   UNL A   1      32.056  24.212  25.643  1.00  0.00    -0.346 N 
ATOM     74  C   UNL A   1      30.943  24.959  25.921  1.00  0.00     0.251 C 
ATOM     75  H   UNL A   1      32.197  23.432  26.228  1.00  0.00     0.164 HD
ATOM     76  O   UNL A   1      30.206  24.660  26.854  1.00  0.00    -0.269 OA
BRANCH  74  77
ATOM     77  C   UNL A   1      30.680  26.188  25.148  1.00  0.00     0.039 A 
ATOM     78  C   UNL A   1      31.401  27.365  25.364  1.00  0.00     0.015 A 
ATOM     79  C   UNL A   1      29.661  26.145  24.192  1.00  0.00     0.015 A 
ATOM     80  C   UNL A   1      31.044  28.528  24.680  1.00  0.00     0.016 A 
ATOM     81  C   UNL A   1      29.316  27.304  23.497  1.00  0.00     0.016 A 
ATOM     82  C   UNL A   1      29.997  28.493  23.758  1.00  0.00     0.018 A 
ATOM     83  Br  UNL A   1      29.492  30.076  22.856  1.00  0.00    -0.051 Br
ENDBRANCH  74  77
ENDBRANCH  72  73
ENDBRANCH  65  68
ENDBRANCH  63  64
ENDBRANCH   1  63
TORSDOF 12
ENDMDL
