MODEL 1
REMARK VINA RESULT:     -11.5      0.000      0.000
REMARK SMILES O=C(NCCCNC(=O)c1nn(-c2ccc(Br)cc2F)cc1CCCO)c1ccc(-c2c3nc(c(-c4c(F)cccc4F)c4ccc([nH]4)c(-c4c(F)cccc4F)c4nc(c(-c5c(F)cccc5F)c5ccc2[nH]5)C=C4)C=C3)cc1
REMARK SMILES IDX 6 1 5 2 4 3 3 4 1 5 2 6 27 8 28 9 80 10 29 11 79 12 30 13
REMARK SMILES IDX 31 14 32 15 73 16 33 17 78 18 72 19 74 20 34 21 77 22 71 23
REMARK SMILES IDX 70 24 35 26 61 27 44 28 60 29 45 30 48 31 59 32 75 33 46 34
REMARK SMILES IDX 47 35 58 37 76 38 49 39 36 40 37 41 42 42 38 43 39 44 41 45
REMARK SMILES IDX 43 46 40 47 62 48 63 49 68 50 64 51 65 52 67 53 69 54 66 55
REMARK SMILES IDX 50 56 51 57 56 58 52 59 53 60 55 61 57 62 54 63 7 64 8 65
REMARK SMILES IDX 9 67 10 68 11 69 22 70 12 71 21 72 23 73 24 74 25 75 26 76
REMARK SMILES IDX 13 78 14 79 19 80 15 81 18 82 20 83 16 84 17 85
REMARK H PARENT 3 7 74 25 48 36 7 66 26 77
REMARK Flexibility Score: inf
ROOT
ATOM      1  C   UNL A   1      33.237  29.133  26.369  1.00  0.00     0.118 C 
ENDROOT
BRANCH   1   2
ATOM      2  C   UNL A   1      34.340  29.669  27.282  1.00  0.00     0.042 C 
BRANCH   2   3
ATOM      3  C   UNL A   1      34.397  31.191  27.455  1.00  0.00     0.118 C 
BRANCH   3   4
ATOM      4  N   UNL A   1      34.265  31.693  28.810  1.00  0.00    -0.352 N 
ATOM      5  O   UNL A   1      34.660  32.457  30.842  1.00  0.00    -0.269 OA
ATOM      6  C   UNL A   1      35.094  31.802  29.891  1.00  0.00     0.251 C 
ATOM      7  H   UNL A   1      33.361  32.037  28.995  1.00  0.00     0.163 HD
BRANCH   6   8
ATOM      8  C   UNL A   1      36.426  31.152  30.024  1.00  0.00     0.039 A 
ATOM      9  C   UNL A   1      37.655  31.791  29.876  1.00  0.00     0.014 A 
ATOM     10  C   UNL A   1      36.420  29.767  30.281  1.00  0.00     0.014 A 
ATOM     11  C   UNL A   1      38.840  31.059  29.872  1.00  0.00     0.010 A 
ATOM     12  C   UNL A   1      37.604  29.035  30.315  1.00  0.00     0.010 A 
ATOM     13  C   UNL A   1      38.814  29.676  30.062  1.00  0.00    -0.014 A 
BRANCH  13  14
ATOM     14  C   UNL A   1      40.091  28.963  30.040  1.00  0.00     0.031 A 
ATOM     15  C   UNL A   1      40.804  28.801  31.343  1.00  0.00     0.074 A 
ATOM     16  C   UNL A   1      40.571  28.335  28.949  1.00  0.00     0.049 A 
ATOM     17  N   UNL A   1      42.022  29.125  31.646  1.00  0.00    -0.248 NA
ATOM     18  C   UNL A   1      40.047  28.208  32.455  1.00  0.00     0.031 C 
ATOM     19  C   UNL A   1      39.889  28.091  27.677  1.00  0.00     0.029 A 
ATOM     20  N   UNL A   1      41.760  27.679  28.800  1.00  0.00    -0.354 N 
ATOM     21  C   UNL A   1      42.245  28.633  32.933  1.00  0.00     0.074 A 
ATOM     22  C   UNL A   1      40.973  28.153  33.412  1.00  0.00     0.031 C 
ATOM     23  C   UNL A   1      40.581  27.166  26.976  1.00  0.00     0.029 A 
ATOM     24  C   UNL A   1      41.810  26.856  27.689  1.00  0.00     0.049 A 
ATOM     25  H   UNL A   1      42.512  27.783  29.426  1.00  0.00     0.167 HD
ATOM     26  C   UNL A   1      43.490  28.498  33.466  1.00  0.00     0.037 A 
ATOM     27  C   UNL A   1      42.755  25.930  27.405  1.00  0.00     0.037 A 
ATOM     28  C   UNL A   1      44.465  29.314  32.798  1.00  0.00     0.049 A 
ATOM     29  C   UNL A   1      43.965  26.231  28.202  1.00  0.00     0.074 A 
ATOM     30  C   UNL A   1      44.619  30.667  32.563  1.00  0.00     0.029 A 
ATOM     31  N   UNL A   1      45.407  28.703  32.010  1.00  0.00    -0.354 N 
ATOM     32  N   UNL A   1      44.762  27.240  27.992  1.00  0.00    -0.248 NA
ATOM     33  C   UNL A   1      44.123  25.569  29.488  1.00  0.00     0.031 C 
ATOM     34  C   UNL A   1      45.287  30.755  31.305  1.00  0.00     0.029 A 
ATOM     35  C   UNL A   1      45.490  29.448  30.863  1.00  0.00     0.049 A 
ATOM     36  H   UNL A   1      45.921  27.893  32.226  1.00  0.00     0.167 HD
ATOM     37  C   UNL A   1      45.228  27.591  29.250  1.00  0.00     0.074 A 
ATOM     38  C   UNL A   1      44.906  26.455  30.105  1.00  0.00     0.031 C 
ATOM     39  C   UNL A   1      45.579  28.877  29.542  1.00  0.00     0.037 A 
BRANCH  26  40
ATOM     40  C   UNL A   1      43.891  27.400  34.420  1.00  0.00     0.057 A 
ATOM     41  C   UNL A   1      43.815  26.054  34.014  1.00  0.00     0.134 A 
ATOM     42  C   UNL A   1      44.068  27.600  35.804  1.00  0.00     0.134 A 
ATOM     43  F   UNL A   1      43.620  25.733  32.726  1.00  0.00    -0.206 F 
ATOM     44  C   UNL A   1      43.852  24.990  34.926  1.00  0.00     0.040 A 
ATOM     45  C   UNL A   1      44.158  26.543  36.716  1.00  0.00     0.040 A 
ATOM     46  F   UNL A   1      44.065  28.822  36.352  1.00  0.00    -0.206 F 
ATOM     47  C   UNL A   1      44.021  25.234  36.282  1.00  0.00     0.006 A 
ENDBRANCH  26  40
BRANCH  27  48
ATOM     48  C   UNL A   1      42.591  24.662  26.665  1.00  0.00     0.057 A 
ATOM     49  C   UNL A   1      43.271  24.423  25.465  1.00  0.00     0.134 A 
ATOM     50  C   UNL A   1      41.947  23.554  27.244  1.00  0.00     0.134 A 
ATOM     51  F   UNL A   1      43.958  25.405  24.864  1.00  0.00    -0.206 F 
ATOM     52  C   UNL A   1      43.311  23.153  24.874  1.00  0.00     0.040 A 
ATOM     53  C   UNL A   1      41.967  22.286  26.659  1.00  0.00     0.040 A 
ATOM     54  F   UNL A   1      41.347  23.647  28.440  1.00  0.00    -0.206 F 
ATOM     55  C   UNL A   1      42.660  22.079  25.474  1.00  0.00     0.006 A 
ENDBRANCH  27  48
BRANCH  39  56
ATOM     56  C   UNL A   1      45.744  29.836  28.400  1.00  0.00     0.057 A 
ATOM     57  C   UNL A   1      44.676  30.535  27.820  1.00  0.00     0.134 A 
ATOM     58  C   UNL A   1      47.033  30.171  27.972  1.00  0.00     0.134 A 
ATOM     59  F   UNL A   1      43.419  30.358  28.248  1.00  0.00    -0.206 F 
ATOM     60  C   UNL A   1      44.880  31.488  26.818  1.00  0.00     0.040 A 
ATOM     61  C   UNL A   1      47.252  31.145  26.994  1.00  0.00     0.040 A 
ATOM     62  F   UNL A   1      48.106  29.589  28.531  1.00  0.00    -0.206 F 
ATOM     63  C   UNL A   1      46.172  31.798  26.405  1.00  0.00     0.006 A 
ENDBRANCH  39  56
ENDBRANCH  13  14
ENDBRANCH   6   8
ENDBRANCH   3   4
ENDBRANCH   2   3
ENDBRANCH   1   2
BRANCH   1  64
ATOM     64  N   UNL A   1      33.482  29.427  24.973  1.00  0.00    -0.351 N 
ATOM     65  C   UNL A   1      33.127  28.730  23.853  1.00  0.00     0.272 C 
ATOM     66  H   UNL A   1      33.982  30.258  24.804  1.00  0.00     0.163 HD
ATOM     67  O   UNL A   1      33.595  29.124  22.773  1.00  0.00    -0.267 OA
BRANCH  65  68
ATOM     68  C   UNL A   1      32.279  27.542  23.966  1.00  0.00     0.153 A 
ATOM     69  N   UNL A   1      32.819  26.313  24.098  1.00  0.00    -0.162 NA
ATOM     70  C   UNL A   1      30.853  27.481  23.988  1.00  0.00     0.004 A 
ATOM     71  N   UNL A   1      31.772  25.458  24.025  1.00  0.00    -0.237 N 
ATOM     72  C   UNL A   1      30.577  26.128  23.952  1.00  0.00     0.119 A 
BRANCH  70  73
ATOM     73  C   UNL A   1      29.849  28.588  23.935  1.00  0.00     0.042 C 
BRANCH  73  74
ATOM     74  C   UNL A   1      29.197  28.822  22.567  1.00  0.00     0.033 C 
BRANCH  74  75
ATOM     75  C   UNL A   1      29.620  30.082  21.820  1.00  0.00     0.156 C 
BRANCH  75  76
ATOM     76  O   UNL A   1      30.951  29.977  21.335  1.00  0.00    -0.396 OA
ATOM     77  H   UNL A   1      30.942  29.583  20.448  1.00  0.00     0.210 HD
ENDBRANCH  75  76
ENDBRANCH  74  75
ENDBRANCH  73  74
ENDBRANCH  70  73
BRANCH  71  78
ATOM     78  C   UNL A   1      31.978  24.060  24.044  1.00  0.00     0.100 A 
ATOM     79  C   UNL A   1      31.695  23.335  25.211  1.00  0.00     0.032 A 
ATOM     80  C   UNL A   1      32.459  23.393  22.917  1.00  0.00     0.149 A 
ATOM     81  C   UNL A   1      31.860  21.946  25.222  1.00  0.00     0.018 A 
ATOM     82  C   UNL A   1      32.670  22.016  22.942  1.00  0.00     0.057 A 
ATOM     83  F   UNL A   1      32.805  24.061  21.807  1.00  0.00    -0.205 F 
ATOM     84  C   UNL A   1      32.355  21.296  24.092  1.00  0.00     0.021 A 
ATOM     85  Br  UNL A   1      32.608  19.423  24.122  1.00  0.00    -0.051 Br
ENDBRANCH  71  78
ENDBRANCH  65  68
ENDBRANCH   1  64
TORSDOF 15
ENDMDL
MODEL 2
REMARK VINA RESULT:     -11.2      1.602      1.972
REMARK SMILES O=C(NCCCNC(=O)c1nn(-c2ccc(Br)cc2F)cc1CCCO)c1ccc(-c2c3nc(c(-c4c(F)cccc4F)c4ccc([nH]4)c(-c4c(F)cccc4F)c4nc(c(-c5c(F)cccc5F)c5ccc2[nH]5)C=C4)C=C3)cc1
REMARK SMILES IDX 6 1 5 2 4 3 3 4 1 5 2 6 27 8 28 9 80 10 29 11 79 12 30 13
REMARK SMILES IDX 31 14 32 15 73 16 33 17 78 18 72 19 74 20 34 21 77 22 71 23
REMARK SMILES IDX 70 24 35 26 61 27 44 28 60 29 45 30 48 31 59 32 75 33 46 34
REMARK SMILES IDX 47 35 58 37 76 38 49 39 36 40 37 41 42 42 38 43 39 44 41 45
REMARK SMILES IDX 43 46 40 47 62 48 63 49 68 50 64 51 65 52 67 53 69 54 66 55
REMARK SMILES IDX 50 56 51 57 56 58 52 59 53 60 55 61 57 62 54 63 7 64 8 65
REMARK SMILES IDX 9 67 10 68 11 69 22 70 12 71 21 72 23 73 24 74 25 75 26 76
REMARK SMILES IDX 13 78 14 79 19 80 15 81 18 82 20 83 16 84 17 85
REMARK H PARENT 3 7 74 25 48 36 7 66 26 77
REMARK Flexibility Score: inf
ROOT
ATOM      1  C   UNL A   1      33.452  28.946  27.244  1.00  0.00     0.118 C 
ENDROOT
BRANCH   1   2
ATOM      2  C   UNL A   1      33.197  30.449  27.127  1.00  0.00     0.042 C 
BRANCH   2   3
ATOM      3  C   UNL A   1      34.329  31.368  27.604  1.00  0.00     0.118 C 
BRANCH   3   4
ATOM      4  N   UNL A   1      34.222  31.871  28.960  1.00  0.00    -0.352 N 
ATOM      5  O   UNL A   1      34.656  32.622  30.990  1.00  0.00    -0.269 OA
ATOM      6  C   UNL A   1      35.064  31.956  30.035  1.00  0.00     0.251 C 
ATOM      7  H   UNL A   1      33.330  32.240  29.154  1.00  0.00     0.163 HD
BRANCH   6   8
ATOM      8  C   UNL A   1      36.378  31.269  30.155  1.00  0.00     0.039 A 
ATOM      9  C   UNL A   1      37.623  31.869  29.980  1.00  0.00     0.014 A 
ATOM     10  C   UNL A   1      36.336  29.888  30.429  1.00  0.00     0.014 A 
ATOM     11  C   UNL A   1      38.786  31.103  29.967  1.00  0.00     0.010 A 
ATOM     12  C   UNL A   1      37.498  29.122  30.455  1.00  0.00     0.010 A 
ATOM     13  C   UNL A   1      38.722  29.724  30.175  1.00  0.00    -0.014 A 
BRANCH  13  14
ATOM     14  C   UNL A   1      39.977  28.974  30.142  1.00  0.00     0.031 A 
ATOM     15  C   UNL A   1      40.691  28.781  31.440  1.00  0.00     0.074 A 
ATOM     16  C   UNL A   1      40.434  28.339  29.044  1.00  0.00     0.049 A 
ATOM     17  N   UNL A   1      41.920  29.067  31.741  1.00  0.00    -0.248 NA
ATOM     18  C   UNL A   1      39.921  28.203  32.552  1.00  0.00     0.031 C 
ATOM     19  C   UNL A   1      39.739  28.125  27.774  1.00  0.00     0.029 A 
ATOM     20  N   UNL A   1      41.602  27.650  28.886  1.00  0.00    -0.354 N 
ATOM     21  C   UNL A   1      42.133  28.559  33.023  1.00  0.00     0.074 A 
ATOM     22  C   UNL A   1      40.849  28.114  33.505  1.00  0.00     0.031 C 
ATOM     23  C   UNL A   1      40.402  27.185  27.064  1.00  0.00     0.029 A 
ATOM     24  C   UNL A   1      41.624  26.834  27.769  1.00  0.00     0.049 A 
ATOM     25  H   UNL A   1      42.360  27.727  29.509  1.00  0.00     0.167 HD
ATOM     26  C   UNL A   1      43.376  28.385  33.549  1.00  0.00     0.037 A 
ATOM     27  C   UNL A   1      42.539  25.882  27.474  1.00  0.00     0.037 A 
ATOM     28  C   UNL A   1      44.372  29.176  32.883  1.00  0.00     0.049 A 
ATOM     29  C   UNL A   1      43.761  26.142  28.267  1.00  0.00     0.074 A 
ATOM     30  C   UNL A   1      44.565  30.525  32.656  1.00  0.00     0.029 A 
ATOM     31  N   UNL A   1      45.292  28.543  32.086  1.00  0.00    -0.354 N 
ATOM     32  N   UNL A   1      44.587  27.128  28.061  1.00  0.00    -0.248 NA
ATOM     33  C   UNL A   1      43.905  25.466  29.549  1.00  0.00     0.031 C 
ATOM     34  C   UNL A   1      45.229  30.602  31.396  1.00  0.00     0.029 A 
ATOM     35  C   UNL A   1      45.392  29.293  30.944  1.00  0.00     0.049 A 
ATOM     36  H   UNL A   1      45.783  27.716  32.294  1.00  0.00     0.167 HD
ATOM     37  C   UNL A   1      45.068  27.456  29.319  1.00  0.00     0.074 A 
ATOM     38  C   UNL A   1      44.716  26.324  30.168  1.00  0.00     0.031 C 
ATOM     39  C   UNL A   1      45.459  28.729  29.618  1.00  0.00     0.037 A 
BRANCH  26  40
ATOM     40  C   UNL A   1      43.749  27.268  34.494  1.00  0.00     0.057 A 
ATOM     41  C   UNL A   1      44.288  27.569  35.759  1.00  0.00     0.134 A 
ATOM     42  C   UNL A   1      43.869  25.922  34.096  1.00  0.00     0.134 A 
ATOM     43  F   UNL A   1      44.260  28.821  36.240  1.00  0.00    -0.206 F 
ATOM     44  C   UNL A   1      44.949  26.613  36.542  1.00  0.00     0.040 A 
ATOM     45  C   UNL A   1      44.482  24.949  34.892  1.00  0.00     0.040 A 
ATOM     46  F   UNL A   1      43.489  25.502  32.882  1.00  0.00    -0.206 F 
ATOM     47  C   UNL A   1      45.051  25.298  36.107  1.00  0.00     0.006 A 
ENDBRANCH  26  40
BRANCH  27  48
ATOM     48  C   UNL A   1      42.335  24.625  26.726  1.00  0.00     0.057 A 
ATOM     49  C   UNL A   1      43.100  24.313  25.596  1.00  0.00     0.134 A 
ATOM     50  C   UNL A   1      41.544  23.584  27.245  1.00  0.00     0.134 A 
ATOM     51  F   UNL A   1      43.925  25.225  25.059  1.00  0.00    -0.206 F 
ATOM     52  C   UNL A   1      43.084  23.039  25.015  1.00  0.00     0.040 A 
ATOM     53  C   UNL A   1      41.507  22.312  26.669  1.00  0.00     0.040 A 
ATOM     54  F   UNL A   1      40.846  23.743  28.379  1.00  0.00    -0.206 F 
ATOM     55  C   UNL A   1      42.288  22.032  25.555  1.00  0.00     0.006 A 
ENDBRANCH  27  48
BRANCH  39  56
ATOM     56  C   UNL A   1      45.647  29.691  28.483  1.00  0.00     0.057 A 
ATOM     57  C   UNL A   1      44.600  30.433  27.919  1.00  0.00     0.134 A 
ATOM     58  C   UNL A   1      46.943  29.983  28.044  1.00  0.00     0.134 A 
ATOM     59  F   UNL A   1      43.341  30.298  28.358  1.00  0.00    -0.206 F 
ATOM     60  C   UNL A   1      44.828  31.386  26.922  1.00  0.00     0.040 A 
ATOM     61  C   UNL A   1      47.188  30.956  27.072  1.00  0.00     0.040 A 
ATOM     62  F   UNL A   1      48.000  29.358  28.588  1.00  0.00    -0.206 F 
ATOM     63  C   UNL A   1      46.126  31.652  26.499  1.00  0.00     0.006 A 
ENDBRANCH  39  56
ENDBRANCH  13  14
ENDBRANCH   6   8
ENDBRANCH   3   4
ENDBRANCH   2   3
ENDBRANCH   1   2
BRANCH   1  64
ATOM     64  N   UNL A   1      32.226  28.184  27.363  1.00  0.00    -0.351 N 
ATOM     65  C   UNL A   1      31.806  27.085  26.669  1.00  0.00     0.272 C 
ATOM     66  H   UNL A   1      31.599  28.509  28.048  1.00  0.00     0.163 HD
ATOM     67  O   UNL A   1      30.637  26.712  26.862  1.00  0.00    -0.267 OA
BRANCH  65  68
ATOM     68  C   UNL A   1      32.698  26.437  25.706  1.00  0.00     0.153 A 
ATOM     69  N   UNL A   1      33.270  25.247  25.981  1.00  0.00    -0.162 NA
ATOM     70  C   UNL A   1      33.062  26.893  24.404  1.00  0.00     0.004 A 
ATOM     71  N   UNL A   1      34.128  25.024  24.958  1.00  0.00    -0.237 N 
ATOM     72  C   UNL A   1      34.031  25.998  23.997  1.00  0.00     0.119 A 
BRANCH  70  73
ATOM     73  C   UNL A   1      32.624  28.116  23.663  1.00  0.00     0.042 C 
BRANCH  73  74
ATOM     74  C   UNL A   1      31.257  28.017  22.975  1.00  0.00     0.033 C 
BRANCH  74  75
ATOM     75  C   UNL A   1      30.502  29.326  22.774  1.00  0.00     0.156 C 
BRANCH  75  76
ATOM     76  O   UNL A   1      30.966  30.022  21.626  1.00  0.00    -0.396 OA
ATOM     77  H   UNL A   1      31.560  30.740  21.900  1.00  0.00     0.210 HD
ENDBRANCH  75  76
ENDBRANCH  74  75
ENDBRANCH  73  74
ENDBRANCH  70  73
BRANCH  71  78
ATOM     78  C   UNL A   1      34.971  23.890  24.956  1.00  0.00     0.100 A 
ATOM     79  C   UNL A   1      36.322  24.032  25.302  1.00  0.00     0.032 A 
ATOM     80  C   UNL A   1      34.475  22.631  24.614  1.00  0.00     0.149 A 
ATOM     81  C   UNL A   1      37.152  22.906  25.340  1.00  0.00     0.018 A 
ATOM     82  C   UNL A   1      35.312  21.516  24.603  1.00  0.00     0.057 A 
ATOM     83  F   UNL A   1      33.207  22.469  24.210  1.00  0.00    -0.205 F 
ATOM     84  C   UNL A   1      36.645  21.657  24.981  1.00  0.00     0.021 A 
ATOM     85  Br  UNL A   1      37.777  20.144  25.002  1.00  0.00    -0.051 Br
ENDBRANCH  71  78
ENDBRANCH  65  68
ENDBRANCH   1  64
TORSDOF 15
ENDMDL
MODEL 3
REMARK VINA RESULT:     -11.2      1.444      1.728
REMARK SMILES O=C(NCCCNC(=O)c1nn(-c2ccc(Br)cc2F)cc1CCCO)c1ccc(-c2c3nc(c(-c4c(F)cccc4F)c4ccc([nH]4)c(-c4c(F)cccc4F)c4nc(c(-c5c(F)cccc5F)c5ccc2[nH]5)C=C4)C=C3)cc1
REMARK SMILES IDX 6 1 5 2 4 3 3 4 1 5 2 6 27 8 28 9 80 10 29 11 79 12 30 13
REMARK SMILES IDX 31 14 32 15 73 16 33 17 78 18 72 19 74 20 34 21 77 22 71 23
REMARK SMILES IDX 70 24 35 26 61 27 44 28 60 29 45 30 48 31 59 32 75 33 46 34
REMARK SMILES IDX 47 35 58 37 76 38 49 39 36 40 37 41 42 42 38 43 39 44 41 45
REMARK SMILES IDX 43 46 40 47 62 48 63 49 68 50 64 51 65 52 67 53 69 54 66 55
REMARK SMILES IDX 50 56 51 57 56 58 52 59 53 60 55 61 57 62 54 63 7 64 8 65
REMARK SMILES IDX 9 67 10 68 11 69 22 70 12 71 21 72 23 73 24 74 25 75 26 76
REMARK SMILES IDX 13 78 14 79 19 80 15 81 18 82 20 83 16 84 17 85
REMARK H PARENT 3 7 74 25 48 36 7 66 26 77
REMARK Flexibility Score: inf
ROOT
ATOM      1  C   UNL A   1      33.736  28.433  25.172  1.00  0.00     0.118 C 
ENDROOT
BRANCH   1   2
ATOM      2  C   UNL A   1      33.124  29.727  25.709  1.00  0.00     0.042 C 
BRANCH   2   3
ATOM      3  C   UNL A   1      32.973  29.825  27.232  1.00  0.00     0.118 C 
BRANCH   3   4
ATOM      4  N   UNL A   1      33.260  31.117  27.826  1.00  0.00    -0.352 N 
ATOM      5  O   UNL A   1      34.245  32.963  28.528  1.00  0.00    -0.269 OA
ATOM      6  C   UNL A   1      34.391  31.779  28.215  1.00  0.00     0.251 C 
ATOM      7  H   UNL A   1      32.444  31.645  27.988  1.00  0.00     0.163 HD
BRANCH   6   8
ATOM      8  C   UNL A   1      35.743  31.170  28.343  1.00  0.00     0.039 A 
ATOM      9  C   UNL A   1      36.059  29.841  28.072  1.00  0.00     0.014 A 
ATOM     10  C   UNL A   1      36.764  32.016  28.816  1.00  0.00     0.014 A 
ATOM     11  C   UNL A   1      37.324  29.337  28.369  1.00  0.00     0.010 A 
ATOM     12  C   UNL A   1      38.042  31.528  29.079  1.00  0.00     0.010 A 
ATOM     13  C   UNL A   1      38.308  30.173  28.900  1.00  0.00    -0.014 A 
BRANCH  13  14
ATOM     14  C   UNL A   1      39.613  29.583  29.196  1.00  0.00     0.031 A 
ATOM     15  C   UNL A   1      39.990  29.448  30.635  1.00  0.00     0.074 A 
ATOM     16  C   UNL A   1      40.411  29.038  28.256  1.00  0.00     0.049 A 
ATOM     17  N   UNL A   1      41.057  29.875  31.238  1.00  0.00    -0.248 NA
ATOM     18  C   UNL A   1      39.041  28.752  31.517  1.00  0.00     0.031 C 
ATOM     19  C   UNL A   1      40.095  28.771  26.852  1.00  0.00     0.029 A 
ATOM     20  N   UNL A   1      41.657  28.501  28.407  1.00  0.00    -0.354 N 
ATOM     21  C   UNL A   1      40.997  29.366  32.535  1.00  0.00     0.074 A 
ATOM     22  C   UNL A   1      39.700  28.754  32.676  1.00  0.00     0.031 C 
ATOM     23  C   UNL A   1      41.028  27.938  26.342  1.00  0.00     0.029 A 
ATOM     24  C   UNL A   1      42.064  27.721  27.339  1.00  0.00     0.049 A 
ATOM     25  H   UNL A   1      42.215  28.655  29.203  1.00  0.00     0.167 HD
ATOM     26  C   UNL A   1      42.077  29.332  33.364  1.00  0.00     0.037 A 
ATOM     27  C   UNL A   1      43.136  26.897  27.296  1.00  0.00     0.037 A 
ATOM     28  C   UNL A   1      43.103  30.256  32.969  1.00  0.00     0.049 A 
ATOM     29  C   UNL A   1      44.074  27.285  28.374  1.00  0.00     0.074 A 
ATOM     30  C   UNL A   1      43.177  31.624  32.789  1.00  0.00     0.029 A 
ATOM     31  N   UNL A   1      44.267  29.761  32.439  1.00  0.00    -0.354 N 
ATOM     32  N   UNL A   1      44.795  28.370  28.378  1.00  0.00    -0.248 NA
ATOM     33  C   UNL A   1      43.969  26.600  29.654  1.00  0.00     0.031 C 
ATOM     34  C   UNL A   1      44.126  31.813  31.740  1.00  0.00     0.029 A 
ATOM     35  C   UNL A   1      44.561  30.545  31.355  1.00  0.00     0.049 A 
ATOM     36  H   UNL A   1      44.788  28.995  32.772  1.00  0.00     0.167 HD
ATOM     37  C   UNL A   1      44.894  28.723  29.715  1.00  0.00     0.074 A 
ATOM     38  C   UNL A   1      44.482  27.536  30.454  1.00  0.00     0.031 C 
ATOM     39  C   UNL A   1      45.033  30.027  30.095  1.00  0.00     0.037 A 
BRANCH  26  40
ATOM     40  C   UNL A   1      42.333  28.246  34.381  1.00  0.00     0.057 A 
ATOM     41  C   UNL A   1      42.730  26.964  33.956  1.00  0.00     0.134 A 
ATOM     42  C   UNL A   1      41.925  28.332  35.727  1.00  0.00     0.134 A 
ATOM     43  F   UNL A   1      43.114  26.747  32.688  1.00  0.00    -0.206 F 
ATOM     44  C   UNL A   1      42.667  25.842  34.791  1.00  0.00     0.040 A 
ATOM     45  C   UNL A   1      41.908  27.226  36.584  1.00  0.00     0.040 A 
ATOM     46  F   UNL A   1      41.432  29.462  36.250  1.00  0.00    -0.206 F 
ATOM     47  C   UNL A   1      42.252  25.971  36.110  1.00  0.00     0.006 A 
ENDBRANCH  26  40
BRANCH  27  48
ATOM     48  C   UNL A   1      43.288  25.643  26.529  1.00  0.00     0.057 A 
ATOM     49  C   UNL A   1      44.176  25.548  25.451  1.00  0.00     0.134 A 
ATOM     50  C   UNL A   1      42.741  24.433  26.991  1.00  0.00     0.134 A 
ATOM     51  F   UNL A   1      44.788  26.642  24.974  1.00  0.00    -0.206 F 
ATOM     52  C   UNL A   1      44.503  24.319  24.865  1.00  0.00     0.040 A 
ATOM     53  C   UNL A   1      43.048  23.201  26.407  1.00  0.00     0.040 A 
ATOM     54  F   UNL A   1      41.955  24.396  28.077  1.00  0.00    -0.206 F 
ATOM     55  C   UNL A   1      43.941  23.140  25.345  1.00  0.00     0.006 A 
ENDBRANCH  27  48
BRANCH  39  56
ATOM     56  C   UNL A   1      45.382  31.032  29.038  1.00  0.00     0.057 A 
ATOM     57  C   UNL A   1      44.432  31.635  28.203  1.00  0.00     0.134 A 
ATOM     58  C   UNL A   1      46.695  31.512  28.960  1.00  0.00     0.134 A 
ATOM     59  F   UNL A   1      43.133  31.317  28.289  1.00  0.00    -0.206 F 
ATOM     60  C   UNL A   1      44.784  32.634  27.291  1.00  0.00     0.040 A 
ATOM     61  C   UNL A   1      47.053  32.532  28.076  1.00  0.00     0.040 A 
ATOM     62  F   UNL A   1      47.643  31.026  29.777  1.00  0.00    -0.206 F 
ATOM     63  C   UNL A   1      46.098  33.088  27.229  1.00  0.00     0.006 A 
ENDBRANCH  39  56
ENDBRANCH  13  14
ENDBRANCH   6   8
ENDBRANCH   3   4
ENDBRANCH   2   3
ENDBRANCH   1   2
BRANCH   1  64
ATOM     64  N   UNL A   1      34.014  28.499  23.753  1.00  0.00    -0.351 N 
ATOM     65  C   UNL A   1      33.644  27.655  22.745  1.00  0.00     0.272 C 
ATOM     66  H   UNL A   1      34.555  29.272  23.470  1.00  0.00     0.163 HD
ATOM     67  O   UNL A   1      34.145  27.858  21.628  1.00  0.00    -0.267 OA
BRANCH  65  68
ATOM     68  C   UNL A   1      32.740  26.536  23.019  1.00  0.00     0.153 A 
ATOM     69  N   UNL A   1      33.203  25.378  23.531  1.00  0.00    -0.162 NA
ATOM     70  C   UNL A   1      31.324  26.489  22.840  1.00  0.00     0.004 A 
ATOM     71  N   UNL A   1      32.143  24.536  23.515  1.00  0.00    -0.237 N 
ATOM     72  C   UNL A   1      31.000  25.171  23.099  1.00  0.00     0.119 A 
BRANCH  70  73
ATOM     73  C   UNL A   1      30.386  27.551  22.363  1.00  0.00     0.042 C 
BRANCH  73  74
ATOM     74  C   UNL A   1      30.102  28.679  23.362  1.00  0.00     0.033 C 
BRANCH  74  75
ATOM     75  C   UNL A   1      30.089  30.096  22.800  1.00  0.00     0.156 C 
BRANCH  75  76
ATOM     76  O   UNL A   1      30.377  30.106  21.410  1.00  0.00    -0.396 OA
ATOM     77  H   UNL A   1      29.574  30.331  20.914  1.00  0.00     0.210 HD
ENDBRANCH  75  76
ENDBRANCH  74  75
ENDBRANCH  73  74
ENDBRANCH  70  73
BRANCH  71  78
ATOM     78  C   UNL A   1      32.285  23.187  23.910  1.00  0.00     0.100 A 
ATOM     79  C   UNL A   1      32.248  22.174  22.941  1.00  0.00     0.032 A 
ATOM     80  C   UNL A   1      32.460  22.850  25.253  1.00  0.00     0.149 A 
ATOM     81  C   UNL A   1      32.428  20.840  23.323  1.00  0.00     0.018 A 
ATOM     82  C   UNL A   1      32.590  21.518  25.642  1.00  0.00     0.057 A 
ATOM     83  F   UNL A   1      32.430  23.785  26.214  1.00  0.00    -0.205 F 
ATOM     84  C   UNL A   1      32.588  20.519  24.671  1.00  0.00     0.021 A 
ATOM     85  Br  UNL A   1      32.797  18.713  25.187  1.00  0.00    -0.051 Br
ENDBRANCH  71  78
ENDBRANCH  65  68
ENDBRANCH   1  64
TORSDOF 15
ENDMDL
