MODEL 1
REMARK VINA RESULT:     -12.8      0.000      0.000
REMARK SMILES CC(C)[C@H](NC(=O)[C@H](Cc1ccccc1)n1c(=O)[nH]c2ccccc2c1=O)C(=O)NCCCNC(=O)c1ccc(-c2c3nc(c(-c4c(F)cccc4F)c4ccc([nH]4)c(-c4c(F)cccc4F)c4nc(c(-c5c(F)cccc5F)c5ccc2[nH]5)C=C4)C=C3)cc1
REMARK SMILES IDX 31 1 30 2 28 3 29 4 4 6 2 7 1 8 3 9 5 10 6 11 7 13 8 14
REMARK SMILES IDX 16 15 17 16 26 17 18 18 19 19 25 20 27 21 20 22 24 24 21 25
REMARK SMILES IDX 23 26 22 27 9 28 10 29 11 30 15 31 12 32 14 33 13 34 32 35
REMARK SMILES IDX 33 36 34 37 35 38 36 40 37 41 38 42 90 43 39 44 89 45 40 46
REMARK SMILES IDX 41 47 42 48 83 49 43 50 88 51 82 52 84 53 44 54 87 55 81 56
REMARK SMILES IDX 80 57 45 59 71 60 54 61 70 62 55 63 58 64 69 65 85 66 56 67
REMARK SMILES IDX 57 68 68 70 86 71 59 72 46 73 47 74 52 75 48 76 49 77 51 78
REMARK SMILES IDX 53 79 50 80 72 81 73 82 78 83 74 84 75 85 77 86 79 87 76 88
REMARK SMILES IDX 60 89 61 90 66 91 62 92 63 93 65 94 67 95 64 96
REMARK H PARENT 30 5 5 12 19 23 34 39 84 58 58 69
REMARK Flexibility Score: inf
ROOT
ATOM      1  C   UNL A   1      36.013  20.712  25.046  1.00  0.00     0.117 C 
ENDROOT
BRANCH   1   2
ATOM      2  N   UNL A   1      35.719  21.414  26.282  1.00  0.00    -0.354 N 
ATOM      3  C   UNL A   1      34.629  22.148  26.663  1.00  0.00     0.242 C 
ATOM      4  O   UNL A   1      34.481  22.381  27.867  1.00  0.00    -0.273 OA
ATOM      5  H   UNL A   1      36.426  21.352  26.964  1.00  0.00     0.163 HD
BRANCH   3   6
ATOM      6  C   UNL A   1      33.580  22.610  25.654  1.00  0.00     0.173 C 
BRANCH   6   7
ATOM      7  C   UNL A   1      32.530  21.443  25.561  1.00  0.00     0.015 C 
ATOM      8  C   UNL A   1      31.124  21.957  25.950  1.00  0.00     0.010 C 
ATOM      9  C   UNL A   1      32.407  20.750  24.205  1.00  0.00     0.010 C 
ENDBRANCH   6   7
BRANCH   6  10
ATOM     10  N   UNL A   1      34.246  23.046  24.399  1.00  0.00    -0.342 N 
ATOM     11  C   UNL A   1      34.219  24.206  23.652  1.00  0.00     0.244 C 
ATOM     12  H   UNL A   1      34.835  22.357  24.017  1.00  0.00     0.164 HD
ATOM     13  O   UNL A   1      34.633  24.054  22.488  1.00  0.00    -0.273 OA
BRANCH  11  14
ATOM     14  C   UNL A   1      33.737  25.669  24.073  1.00  0.00     0.189 C 
BRANCH  14  15
ATOM     15  N   UNL A   1      32.531  26.110  23.373  1.00  0.00    -0.247 N 
ATOM     16  C   UNL A   1      31.398  25.340  23.508  1.00  0.00     0.329 A 
ATOM     17  C   UNL A   1      32.510  27.393  22.838  1.00  0.00     0.264 A 
ATOM     18  O   UNL A   1      31.385  24.117  23.572  1.00  0.00    -0.248 OA
ATOM     19  N   UNL A   1      30.219  26.002  23.588  1.00  0.00    -0.307 N 
ATOM     20  C   UNL A   1      31.177  28.022  22.726  1.00  0.00     0.064 A 
ATOM     21  O   UNL A   1      33.514  28.039  22.539  1.00  0.00    -0.268 OA
ATOM     22  C   UNL A   1      30.083  27.335  23.245  1.00  0.00     0.055 A 
ATOM     23  H   UNL A   1      29.425  25.512  23.904  1.00  0.00     0.171 HD
ATOM     24  C   UNL A   1      31.006  29.304  22.206  1.00  0.00     0.016 A 
ATOM     25  C   UNL A   1      28.838  27.942  23.355  1.00  0.00     0.027 A 
ATOM     26  C   UNL A   1      29.743  29.899  22.260  1.00  0.00     0.001 A 
ATOM     27  C   UNL A   1      28.672  29.233  22.862  1.00  0.00     0.002 A 
ENDBRANCH  14  15
BRANCH  14  28
ATOM     28  C   UNL A   1      33.617  25.983  25.575  1.00  0.00     0.071 C 
BRANCH  28  29
ATOM     29  C   UNL A   1      33.240  27.299  26.248  1.00  0.00    -0.045 A 
ATOM     30  C   UNL A   1      31.979  27.434  26.846  1.00  0.00     0.004 A 
ATOM     31  C   UNL A   1      33.947  28.480  26.003  1.00  0.00     0.004 A 
ATOM     32  C   UNL A   1      31.422  28.670  27.184  1.00  0.00     0.000 A 
ATOM     33  C   UNL A   1      33.389  29.732  26.319  1.00  0.00     0.000 A 
ATOM     34  C   UNL A   1      32.127  29.828  26.904  1.00  0.00     0.000 A 
ENDBRANCH  28  29
ENDBRANCH  14  28
ENDBRANCH  11  14
ENDBRANCH   6  10
ENDBRANCH   3   6
ENDBRANCH   1   2
BRANCH   1  35
ATOM     35  C   UNL A   1      37.457  20.300  24.726  1.00  0.00     0.042 C 
BRANCH  35  36
ATOM     36  C   UNL A   1      38.584  20.593  25.711  1.00  0.00     0.118 C 
BRANCH  36  37
ATOM     37  N   UNL A   1      39.685  19.655  25.677  1.00  0.00    -0.352 N 
ATOM     38  C   UNL A   1      40.996  19.824  26.038  1.00  0.00     0.251 C 
ATOM     39  H   UNL A   1      39.457  18.757  25.344  1.00  0.00     0.163 HD
ATOM     40  O   UNL A   1      41.785  18.897  25.862  1.00  0.00    -0.269 OA
BRANCH  38  41
ATOM     41  C   UNL A   1      41.496  21.095  26.609  1.00  0.00     0.039 A 
ATOM     42  C   UNL A   1      42.097  22.003  25.730  1.00  0.00     0.014 A 
ATOM     43  C   UNL A   1      41.459  21.381  27.977  1.00  0.00     0.014 A 
ATOM     44  C   UNL A   1      42.612  23.207  26.212  1.00  0.00     0.010 A 
ATOM     45  C   UNL A   1      41.973  22.579  28.463  1.00  0.00     0.010 A 
ATOM     46  C   UNL A   1      42.531  23.506  27.579  1.00  0.00    -0.014 A 
BRANCH  46  47
ATOM     47  C   UNL A   1      42.858  24.853  28.085  1.00  0.00     0.031 A 
ATOM     48  C   UNL A   1      44.251  25.225  28.480  1.00  0.00     0.074 A 
ATOM     49  C   UNL A   1      41.830  25.697  28.285  1.00  0.00     0.049 A 
ATOM     50  N   UNL A   1      44.701  26.373  28.916  1.00  0.00    -0.248 NA
ATOM     51  C   UNL A   1      45.267  24.165  28.398  1.00  0.00     0.031 C 
ATOM     52  C   UNL A   1      40.424  25.377  28.019  1.00  0.00     0.029 A 
ATOM     53  N   UNL A   1      41.799  26.975  28.769  1.00  0.00    -0.354 N 
ATOM     54  C   UNL A   1      46.057  26.183  29.146  1.00  0.00     0.074 A 
ATOM     55  C   UNL A   1      46.341  24.792  28.859  1.00  0.00     0.031 C 
ATOM     56  C   UNL A   1      39.670  26.444  28.317  1.00  0.00     0.029 A 
ATOM     57  C   UNL A   1      40.535  27.508  28.811  1.00  0.00     0.049 A 
ATOM     58  H   UNL A   1      42.603  27.463  29.058  1.00  0.00     0.167 HD
ATOM     59  C   UNL A   1      46.976  27.097  29.543  1.00  0.00     0.037 A 
ATOM     60  C   UNL A   1      40.126  28.730  29.193  1.00  0.00     0.037 A 
ATOM     61  C   UNL A   1      46.651  28.465  29.864  1.00  0.00     0.049 A 
ATOM     62  C   UNL A   1      41.159  29.723  29.634  1.00  0.00     0.074 A 
ATOM     63  C   UNL A   1      47.499  29.497  30.229  1.00  0.00     0.029 A 
ATOM     64  N   UNL A   1      45.363  28.986  29.882  1.00  0.00    -0.354 N 
ATOM     65  N   UNL A   1      42.459  29.576  29.732  1.00  0.00    -0.248 NA
ATOM     66  C   UNL A   1      40.671  31.057  30.002  1.00  0.00     0.031 C 
ATOM     67  C   UNL A   1      46.719  30.623  30.518  1.00  0.00     0.029 A 
ATOM     68  C   UNL A   1      45.388  30.314  30.276  1.00  0.00     0.049 A 
ATOM     69  H   UNL A   1      44.549  28.483  29.648  1.00  0.00     0.167 HD
ATOM     70  C   UNL A   1      42.952  30.805  30.143  1.00  0.00     0.074 A 
ATOM     71  C   UNL A   1      41.808  31.690  30.262  1.00  0.00     0.031 C 
ATOM     72  C   UNL A   1      44.233  31.171  30.393  1.00  0.00     0.037 A 
BRANCH  59  73
ATOM     73  C   UNL A   1      48.403  26.637  29.651  1.00  0.00     0.057 A 
ATOM     74  C   UNL A   1      49.294  26.736  28.571  1.00  0.00     0.134 A 
ATOM     75  C   UNL A   1      48.904  26.095  30.843  1.00  0.00     0.134 A 
ATOM     76  F   UNL A   1      48.886  27.243  27.398  1.00  0.00    -0.206 F 
ATOM     77  C   UNL A   1      50.609  26.274  28.658  1.00  0.00     0.040 A 
ATOM     78  C   UNL A   1      50.226  25.656  30.951  1.00  0.00     0.040 A 
ATOM     79  F   UNL A   1      48.116  25.980  31.923  1.00  0.00    -0.206 F 
ATOM     80  C   UNL A   1      51.080  25.735  29.853  1.00  0.00     0.006 A 
ENDBRANCH  59  73
BRANCH  60  81
ATOM     81  C   UNL A   1      38.692  29.087  29.085  1.00  0.00     0.057 A 
ATOM     82  C   UNL A   1      37.856  29.027  30.206  1.00  0.00     0.134 A 
ATOM     83  C   UNL A   1      38.134  29.548  27.886  1.00  0.00     0.134 A 
ATOM     84  F   UNL A   1      38.334  28.592  31.380  1.00  0.00    -0.206 F 
ATOM     85  C   UNL A   1      36.513  29.399  30.136  1.00  0.00     0.040 A 
ATOM     86  C   UNL A   1      36.799  29.945  27.808  1.00  0.00     0.040 A 
ATOM     87  F   UNL A   1      38.889  29.650  26.783  1.00  0.00    -0.206 F 
ATOM     88  C   UNL A   1      35.983  29.867  28.936  1.00  0.00     0.006 A 
ENDBRANCH  60  81
BRANCH  72  89
ATOM     89  C   UNL A   1      44.459  32.601  30.793  1.00  0.00     0.057 A 
ATOM     90  C   UNL A   1      44.647  33.615  29.845  1.00  0.00     0.134 A 
ATOM     91  C   UNL A   1      44.467  32.968  32.144  1.00  0.00     0.134 A 
ATOM     92  F   UNL A   1      44.668  33.328  28.535  1.00  0.00    -0.206 F 
ATOM     93  C   UNL A   1      44.866  34.939  30.230  1.00  0.00     0.040 A 
ATOM     94  C   UNL A   1      44.653  34.292  32.540  1.00  0.00     0.040 A 
ATOM     95  F   UNL A   1      44.286  32.045  33.102  1.00  0.00    -0.206 F 
ATOM     96  C   UNL A   1      44.862  35.281  31.580  1.00  0.00     0.006 A 
ENDBRANCH  72  89
ENDBRANCH  46  47
ENDBRANCH  38  41
ENDBRANCH  36  37
ENDBRANCH  35  36
ENDBRANCH   1  35
TORSDOF 16
ENDMDL
MODEL 2
REMARK VINA RESULT:     -12.7      2.016      3.995
REMARK SMILES CC(C)[C@H](NC(=O)[C@H](Cc1ccccc1)n1c(=O)[nH]c2ccccc2c1=O)C(=O)NCCCNC(=O)c1ccc(-c2c3nc(c(-c4c(F)cccc4F)c4ccc([nH]4)c(-c4c(F)cccc4F)c4nc(c(-c5c(F)cccc5F)c5ccc2[nH]5)C=C4)C=C3)cc1
REMARK SMILES IDX 31 1 30 2 28 3 29 4 4 6 2 7 1 8 3 9 5 10 6 11 7 13 8 14
REMARK SMILES IDX 16 15 17 16 26 17 18 18 19 19 25 20 27 21 20 22 24 24 21 25
REMARK SMILES IDX 23 26 22 27 9 28 10 29 11 30 15 31 12 32 14 33 13 34 32 35
REMARK SMILES IDX 33 36 34 37 35 38 36 40 37 41 38 42 90 43 39 44 89 45 40 46
REMARK SMILES IDX 41 47 42 48 83 49 43 50 88 51 82 52 84 53 44 54 87 55 81 56
REMARK SMILES IDX 80 57 45 59 71 60 54 61 70 62 55 63 58 64 69 65 85 66 56 67
REMARK SMILES IDX 57 68 68 70 86 71 59 72 46 73 47 74 52 75 48 76 49 77 51 78
REMARK SMILES IDX 53 79 50 80 72 81 73 82 78 83 74 84 75 85 77 86 79 87 76 88
REMARK SMILES IDX 60 89 61 90 66 91 62 92 63 93 65 94 67 95 64 96
REMARK H PARENT 30 5 5 12 19 23 34 39 84 58 58 69
REMARK Flexibility Score: inf
ROOT
ATOM      1  C   UNL A   1      37.383  20.990  24.509  1.00  0.00     0.117 C 
ENDROOT
BRANCH   1   2
ATOM      2  N   UNL A   1      37.725  22.313  25.002  1.00  0.00    -0.354 N 
ATOM      3  C   UNL A   1      36.941  23.322  25.491  1.00  0.00     0.242 C 
ATOM      4  O   UNL A   1      37.492  24.223  26.131  1.00  0.00    -0.273 OA
ATOM      5  H   UNL A   1      38.687  22.520  24.979  1.00  0.00     0.163 HD
BRANCH   3   6
ATOM      6  C   UNL A   1      35.423  23.313  25.323  1.00  0.00     0.173 C 
BRANCH   6   7
ATOM      7  C   UNL A   1      35.025  24.787  24.945  1.00  0.00     0.015 C 
ATOM      8  C   UNL A   1      34.480  24.838  23.499  1.00  0.00     0.010 C 
ATOM      9  C   UNL A   1      33.994  25.461  25.849  1.00  0.00     0.010 C 
ENDBRANCH   6   7
BRANCH   6  10
ATOM     10  N   UNL A   1      34.787  22.707  26.522  1.00  0.00    -0.342 N 
ATOM     11  C   UNL A   1      33.534  22.192  26.786  1.00  0.00     0.244 C 
ATOM     12  H   UNL A   1      35.391  22.665  27.297  1.00  0.00     0.164 HD
ATOM     13  O   UNL A   1      33.281  22.107  28.001  1.00  0.00    -0.273 OA
BRANCH  11  14
ATOM     14  C   UNL A   1      32.404  21.711  25.766  1.00  0.00     0.189 C 
BRANCH  14  15
ATOM     15  N   UNL A   1      31.420  22.747  25.454  1.00  0.00    -0.247 N 
ATOM     16  C   UNL A   1      30.708  23.285  26.501  1.00  0.00     0.329 A 
ATOM     17  C   UNL A   1      31.441  23.317  24.185  1.00  0.00     0.264 A 
ATOM     18  O   UNL A   1      30.316  22.660  27.478  1.00  0.00    -0.248 OA
ATOM     19  N   UNL A   1      30.440  24.611  26.437  1.00  0.00    -0.307 N 
ATOM     20  C   UNL A   1      30.933  24.702  24.093  1.00  0.00     0.064 A 
ATOM     21  O   UNL A   1      31.915  22.776  23.187  1.00  0.00    -0.268 OA
ATOM     22  C   UNL A   1      30.576  25.349  25.273  1.00  0.00     0.055 A 
ATOM     23  H   UNL A   1      30.135  25.070  27.253  1.00  0.00     0.171 HD
ATOM     24  C   UNL A   1      30.892  25.395  22.884  1.00  0.00     0.016 A 
ATOM     25  C   UNL A   1      30.280  26.706  25.289  1.00  0.00     0.027 A 
ATOM     26  C   UNL A   1      30.539  26.747  22.886  1.00  0.00     0.001 A 
ATOM     27  C   UNL A   1      30.267  27.407  24.088  1.00  0.00     0.002 A 
ENDBRANCH  14  15
BRANCH  14  28
ATOM     28  C   UNL A   1      32.853  21.006  24.473  1.00  0.00     0.071 C 
BRANCH  28  29
ATOM     29  C   UNL A   1      33.102  19.520  24.234  1.00  0.00    -0.045 A 
ATOM     30  C   UNL A   1      34.289  18.934  24.698  1.00  0.00     0.004 A 
ATOM     31  C   UNL A   1      32.373  18.794  23.287  1.00  0.00     0.004 A 
ATOM     32  C   UNL A   1      34.754  17.695  24.251  1.00  0.00     0.000 A 
ATOM     33  C   UNL A   1      32.841  17.555  22.813  1.00  0.00     0.000 A 
ATOM     34  C   UNL A   1      34.032  17.008  23.290  1.00  0.00     0.000 A 
ENDBRANCH  28  29
ENDBRANCH  14  28
ENDBRANCH  11  14
ENDBRANCH   6  10
ENDBRANCH   3   6
ENDBRANCH   1   2
BRANCH   1  35
ATOM     35  C   UNL A   1      38.166  19.766  25.001  1.00  0.00     0.042 C 
BRANCH  35  36
ATOM     36  C   UNL A   1      39.251  19.913  26.064  1.00  0.00     0.118 C 
BRANCH  36  37
ATOM     37  N   UNL A   1      40.352  18.983  25.945  1.00  0.00    -0.352 N 
ATOM     38  C   UNL A   1      41.701  19.198  26.062  1.00  0.00     0.251 C 
ATOM     39  H   UNL A   1      40.094  18.053  25.749  1.00  0.00     0.163 HD
ATOM     40  O   UNL A   1      42.471  18.263  25.854  1.00  0.00    -0.269 OA
BRANCH  38  41
ATOM     41  C   UNL A   1      42.257  20.526  26.407  1.00  0.00     0.039 A 
ATOM     42  C   UNL A   1      42.853  21.261  25.376  1.00  0.00     0.014 A 
ATOM     43  C   UNL A   1      42.278  21.027  27.712  1.00  0.00     0.014 A 
ATOM     44  C   UNL A   1      43.419  22.509  25.643  1.00  0.00     0.010 A 
ATOM     45  C   UNL A   1      42.844  22.267  27.984  1.00  0.00     0.010 A 
ATOM     46  C   UNL A   1      43.397  23.023  26.947  1.00  0.00    -0.014 A 
BRANCH  46  47
ATOM     47  C   UNL A   1      43.780  24.422  27.220  1.00  0.00     0.031 A 
ATOM     48  C   UNL A   1      45.205  24.869  27.158  1.00  0.00     0.074 A 
ATOM     49  C   UNL A   1      42.809  25.250  27.641  1.00  0.00     0.049 A 
ATOM     50  N   UNL A   1      45.698  26.066  27.347  1.00  0.00    -0.248 NA
ATOM     51  C   UNL A   1      46.211  23.836  26.872  1.00  0.00     0.031 C 
ATOM     52  C   UNL A   1      41.406  24.867  27.826  1.00  0.00     0.029 A 
ATOM     53  N   UNL A   1      42.848  26.568  28.005  1.00  0.00    -0.354 N 
ATOM     54  C   UNL A   1      47.071  25.938  27.185  1.00  0.00     0.074 A 
ATOM     55  C   UNL A   1      47.336  24.534  26.945  1.00  0.00     0.031 C 
ATOM     56  C   UNL A   1      40.712  25.936  28.241  1.00  0.00     0.029 A 
ATOM     57  C   UNL A   1      41.623  27.067  28.370  1.00  0.00     0.049 A 
ATOM     58  H   UNL A   1      43.673  27.105  28.004  1.00  0.00     0.167 HD
ATOM     59  C   UNL A   1      48.013  26.912  27.218  1.00  0.00     0.037 A 
ATOM     60  C   UNL A   1      41.274  28.306  28.751  1.00  0.00     0.037 A 
ATOM     61  C   UNL A   1      47.719  28.295  27.505  1.00  0.00     0.049 A 
ATOM     62  C   UNL A   1      42.334  29.367  28.786  1.00  0.00     0.074 A 
ATOM     63  C   UNL A   1      48.578  29.380  27.518  1.00  0.00     0.029 A 
ATOM     64  N   UNL A   1      46.464  28.778  27.855  1.00  0.00    -0.354 N 
ATOM     65  N   UNL A   1      43.612  29.267  28.512  1.00  0.00    -0.248 NA
ATOM     66  C   UNL A   1      41.900  30.716  29.168  1.00  0.00     0.031 C 
ATOM     67  C   UNL A   1      47.853  30.507  27.927  1.00  0.00     0.029 A 
ATOM     68  C   UNL A   1      46.529  30.137  28.111  1.00  0.00     0.049 A 
ATOM     69  H   UNL A   1      45.647  28.232  27.912  1.00  0.00     0.167 HD
ATOM     70  C   UNL A   1      44.134  30.543  28.656  1.00  0.00     0.074 A 
ATOM     71  C   UNL A   1      43.026  31.403  29.030  1.00  0.00     0.031 C 
ATOM     72  C   UNL A   1      45.411  30.969  28.490  1.00  0.00     0.037 A 
BRANCH  59  73
ATOM     73  C   UNL A   1      49.434  26.505  26.942  1.00  0.00     0.057 A 
ATOM     74  C   UNL A   1      49.921  26.367  25.633  1.00  0.00     0.134 A 
ATOM     75  C   UNL A   1      50.334  26.254  27.987  1.00  0.00     0.134 A 
ATOM     76  F   UNL A   1      49.117  26.590  24.583  1.00  0.00    -0.206 F 
ATOM     77  C   UNL A   1      51.229  25.953  25.375  1.00  0.00     0.040 A 
ATOM     78  C   UNL A   1      51.654  25.867  27.741  1.00  0.00     0.040 A 
ATOM     79  F   UNL A   1      49.946  26.378  29.265  1.00  0.00    -0.206 F 
ATOM     80  C   UNL A   1      52.101  25.704  26.432  1.00  0.00     0.006 A 
ENDBRANCH  59  73
BRANCH  60  81
ATOM     81  C   UNL A   1      39.852  28.611  29.037  1.00  0.00     0.057 A 
ATOM     82  C   UNL A   1      39.333  28.445  30.327  1.00  0.00     0.134 A 
ATOM     83  C   UNL A   1      38.995  29.124  28.057  1.00  0.00     0.134 A 
ATOM     84  F   UNL A   1      40.107  27.954  31.306  1.00  0.00    -0.206 F 
ATOM     85  C   UNL A   1      38.009  28.764  30.628  1.00  0.00     0.040 A 
ATOM     86  C   UNL A   1      37.675  29.471  28.350  1.00  0.00     0.040 A 
ATOM     87  F   UNL A   1      39.439  29.328  26.808  1.00  0.00    -0.206 F 
ATOM     88  C   UNL A   1      37.178  29.286  29.640  1.00  0.00     0.006 A 
ENDBRANCH  60  81
BRANCH  72  89
ATOM     89  C   UNL A   1      45.663  32.436  28.684  1.00  0.00     0.057 A 
ATOM     90  C   UNL A   1      46.038  32.966  29.925  1.00  0.00     0.134 A 
ATOM     91  C   UNL A   1      45.547  33.325  27.609  1.00  0.00     0.134 A 
ATOM     92  F   UNL A   1      46.149  32.171  31.001  1.00  0.00    -0.206 F 
ATOM     93  C   UNL A   1      46.260  34.334  30.096  1.00  0.00     0.040 A 
ATOM     94  C   UNL A   1      45.797  34.689  27.759  1.00  0.00     0.040 A 
ATOM     95  F   UNL A   1      45.198  32.881  26.392  1.00  0.00    -0.206 F 
ATOM     96  C   UNL A   1      46.146  35.198  29.009  1.00  0.00     0.006 A 
ENDBRANCH  72  89
ENDBRANCH  46  47
ENDBRANCH  38  41
ENDBRANCH  36  37
ENDBRANCH  35  36
ENDBRANCH   1  35
TORSDOF 16
ENDMDL
MODEL 3
REMARK VINA RESULT:     -12.7      0.979      5.945
REMARK SMILES CC(C)[C@H](NC(=O)[C@H](Cc1ccccc1)n1c(=O)[nH]c2ccccc2c1=O)C(=O)NCCCNC(=O)c1ccc(-c2c3nc(c(-c4c(F)cccc4F)c4ccc([nH]4)c(-c4c(F)cccc4F)c4nc(c(-c5c(F)cccc5F)c5ccc2[nH]5)C=C4)C=C3)cc1
REMARK SMILES IDX 31 1 30 2 28 3 29 4 4 6 2 7 1 8 3 9 5 10 6 11 7 13 8 14
REMARK SMILES IDX 16 15 17 16 26 17 18 18 19 19 25 20 27 21 20 22 24 24 21 25
REMARK SMILES IDX 23 26 22 27 9 28 10 29 11 30 15 31 12 32 14 33 13 34 32 35
REMARK SMILES IDX 33 36 34 37 35 38 36 40 37 41 38 42 90 43 39 44 89 45 40 46
REMARK SMILES IDX 41 47 42 48 83 49 43 50 88 51 82 52 84 53 44 54 87 55 81 56
REMARK SMILES IDX 80 57 45 59 71 60 54 61 70 62 55 63 58 64 69 65 85 66 56 67
REMARK SMILES IDX 57 68 68 70 86 71 59 72 46 73 47 74 52 75 48 76 49 77 51 78
REMARK SMILES IDX 53 79 50 80 72 81 73 82 78 83 74 84 75 85 77 86 79 87 76 88
REMARK SMILES IDX 60 89 61 90 66 91 62 92 63 93 65 94 67 95 64 96
REMARK H PARENT 30 5 5 12 19 23 34 39 84 58 58 69
REMARK Flexibility Score: inf
ROOT
ATOM      1  C   UNL A   1      36.275  20.743  24.927  1.00  0.00     0.117 C 
ENDROOT
BRANCH   1   2
ATOM      2  N   UNL A   1      35.650  21.199  26.157  1.00  0.00    -0.354 N 
ATOM      3  C   UNL A   1      34.356  21.544  26.434  1.00  0.00     0.242 C 
ATOM      4  O   UNL A   1      34.014  21.599  27.620  1.00  0.00    -0.273 OA
ATOM      5  H   UNL A   1      36.264  21.272  26.923  1.00  0.00     0.163 HD
BRANCH   3   6
ATOM      6  C   UNL A   1      33.334  21.788  25.325  1.00  0.00     0.173 C 
BRANCH   6   7
ATOM      7  C   UNL A   1      32.555  20.432  25.155  1.00  0.00     0.015 C 
ATOM      8  C   UNL A   1      32.469  20.049  23.658  1.00  0.00     0.010 C 
ATOM      9  C   UNL A   1      33.123  19.227  25.905  1.00  0.00     0.010 C 
ENDBRANCH   6   7
BRANCH   6  10
ATOM     10  N   UNL A   1      34.013  22.353  24.130  1.00  0.00    -0.342 N 
ATOM     11  C   UNL A   1      33.958  23.570  23.481  1.00  0.00     0.244 C 
ATOM     12  H   UNL A   1      34.640  21.721  23.710  1.00  0.00     0.164 HD
ATOM     13  O   UNL A   1      34.407  23.531  22.321  1.00  0.00    -0.273 OA
BRANCH  11  14
ATOM     14  C   UNL A   1      33.404  24.971  24.007  1.00  0.00     0.189 C 
BRANCH  14  15
ATOM     15  N   UNL A   1      32.113  25.343  23.430  1.00  0.00    -0.247 N 
ATOM     16  C   UNL A   1      31.038  24.527  23.696  1.00  0.00     0.329 A 
ATOM     17  C   UNL A   1      31.977  26.613  22.881  1.00  0.00     0.264 A 
ATOM     18  O   UNL A   1      31.088  23.306  23.780  1.00  0.00    -0.248 OA
ATOM     19  N   UNL A   1      29.844  25.136  23.889  1.00  0.00    -0.307 N 
ATOM     20  C   UNL A   1      30.611  27.179  22.899  1.00  0.00     0.064 A 
ATOM     21  O   UNL A   1      32.912  27.297  22.468  1.00  0.00    -0.268 OA
ATOM     22  C   UNL A   1      29.610  26.455  23.540  1.00  0.00     0.055 A 
ATOM     23  H   UNL A   1      29.111  24.619  24.293  1.00  0.00     0.171 HD
ATOM     24  C   UNL A   1      30.328  28.441  22.379  1.00  0.00     0.016 A 
ATOM     25  C   UNL A   1      28.356  27.008  23.770  1.00  0.00     0.027 A 
ATOM     26  C   UNL A   1      29.051  28.980  22.555  1.00  0.00     0.001 A 
ATOM     27  C   UNL A   1      28.080  28.279  23.277  1.00  0.00     0.002 A 
ENDBRANCH  14  15
BRANCH  14  28
ATOM     28  C   UNL A   1      33.390  25.215  25.528  1.00  0.00     0.071 C 
BRANCH  28  29
ATOM     29  C   UNL A   1      33.115  26.511  26.284  1.00  0.00    -0.045 A 
ATOM     30  C   UNL A   1      31.808  26.805  26.699  1.00  0.00     0.004 A 
ATOM     31  C   UNL A   1      34.026  27.571  26.285  1.00  0.00     0.004 A 
ATOM     32  C   UNL A   1      31.400  28.083  27.090  1.00  0.00     0.000 A 
ATOM     33  C   UNL A   1      33.623  28.867  26.657  1.00  0.00     0.000 A 
ATOM     34  C   UNL A   1      32.311  29.124  27.054  1.00  0.00     0.000 A 
ENDBRANCH  28  29
ENDBRANCH  14  28
ENDBRANCH  11  14
ENDBRANCH   6  10
ENDBRANCH   3   6
ENDBRANCH   1   2
BRANCH   1  35
ATOM     35  C   UNL A   1      37.516  19.842  24.989  1.00  0.00     0.042 C 
BRANCH  35  36
ATOM     36  C   UNL A   1      38.761  20.286  25.752  1.00  0.00     0.118 C 
BRANCH  36  37
ATOM     37  N   UNL A   1      39.835  19.318  25.784  1.00  0.00    -0.352 N 
ATOM     38  C   UNL A   1      41.155  19.480  26.116  1.00  0.00     0.251 C 
ATOM     39  H   UNL A   1      39.579  18.403  25.528  1.00  0.00     0.163 HD
ATOM     40  O   UNL A   1      41.916  18.521  26.009  1.00  0.00    -0.269 OA
BRANCH  38  41
ATOM     41  C   UNL A   1      41.695  20.780  26.576  1.00  0.00     0.039 A 
ATOM     42  C   UNL A   1      42.226  21.635  25.604  1.00  0.00     0.014 A 
ATOM     43  C   UNL A   1      41.765  21.141  27.925  1.00  0.00     0.014 A 
ATOM     44  C   UNL A   1      42.774  22.863  25.976  1.00  0.00     0.010 A 
ATOM     45  C   UNL A   1      42.313  22.362  28.301  1.00  0.00     0.010 A 
ATOM     46  C   UNL A   1      42.800  23.238  27.327  1.00  0.00    -0.014 A 
BRANCH  46  47
ATOM     47  C   UNL A   1      43.163  24.610  27.730  1.00  0.00     0.031 A 
ATOM     48  C   UNL A   1      42.122  25.649  28.000  1.00  0.00     0.074 A 
ATOM     49  C   UNL A   1      44.472  24.919  27.733  1.00  0.00     0.049 A 
ATOM     50  N   UNL A   1      42.281  26.888  28.386  1.00  0.00    -0.248 NA
ATOM     51  C   UNL A   1      40.723  25.254  27.784  1.00  0.00     0.031 C 
ATOM     52  C   UNL A   1      45.550  23.989  27.385  1.00  0.00     0.029 A 
ATOM     53  N   UNL A   1      45.116  26.091  28.017  1.00  0.00    -0.354 N 
ATOM     54  C   UNL A   1      41.003  27.420  28.478  1.00  0.00     0.074 A 
ATOM     55  C   UNL A   1      40.085  26.386  28.047  1.00  0.00     0.031 C 
ATOM     56  C   UNL A   1      46.726  24.621  27.504  1.00  0.00     0.029 A 
ATOM     57  C   UNL A   1      46.481  25.998  27.915  1.00  0.00     0.049 A 
ATOM     58  H   UNL A   1      44.647  26.919  28.269  1.00  0.00     0.167 HD
ATOM     59  C   UNL A   1      40.638  28.655  28.903  1.00  0.00     0.037 A 
ATOM     60  C   UNL A   1      47.430  26.921  28.146  1.00  0.00     0.037 A 
ATOM     61  C   UNL A   1      41.581  29.678  29.283  1.00  0.00     0.049 A 
ATOM     62  C   UNL A   1      47.003  28.283  28.608  1.00  0.00     0.074 A 
ATOM     63  C   UNL A   1      41.334  30.947  29.776  1.00  0.00     0.029 A 
ATOM     64  N   UNL A   1      42.962  29.551  29.188  1.00  0.00    -0.354 N 
ATOM     65  N   UNL A   1      45.792  28.744  28.813  1.00  0.00    -0.248 NA
ATOM     66  C   UNL A   1      48.074  29.246  28.888  1.00  0.00     0.031 C 
ATOM     67  C   UNL A   1      42.562  31.604  29.927  1.00  0.00     0.029 A 
ATOM     68  C   UNL A   1      43.579  30.725  29.586  1.00  0.00     0.049 A 
ATOM     69  H   UNL A   1      43.433  28.743  28.881  1.00  0.00     0.167 HD
ATOM     70  C   UNL A   1      45.952  30.041  29.275  1.00  0.00     0.074 A 
ATOM     71  C   UNL A   1      47.381  30.286  29.333  1.00  0.00     0.031 C 
ATOM     72  C   UNL A   1      45.005  30.946  29.627  1.00  0.00     0.037 A 
BRANCH  59  73
ATOM     73  C   UNL A   1      39.165  28.954  28.969  1.00  0.00     0.057 A 
ATOM     74  C   UNL A   1      38.460  29.437  27.856  1.00  0.00     0.134 A 
ATOM     75  C   UNL A   1      38.436  28.754  30.148  1.00  0.00     0.134 A 
ATOM     76  F   UNL A   1      39.093  29.655  26.693  1.00  0.00    -0.206 F 
ATOM     77  C   UNL A   1      37.101  29.752  27.926  1.00  0.00     0.040 A 
ATOM     78  C   UNL A   1      37.070  29.037  30.223  1.00  0.00     0.040 A 
ATOM     79  F   UNL A   1      39.037  28.282  31.250  1.00  0.00    -0.206 F 
ATOM     80  C   UNL A   1      36.401  29.549  29.112  1.00  0.00     0.006 A 
ENDBRANCH  59  73
BRANCH  60  81
ATOM     81  C   UNL A   1      48.858  26.548  28.023  1.00  0.00     0.057 A 
ATOM     82  C   UNL A   1      49.543  26.735  26.817  1.00  0.00     0.134 A 
ATOM     83  C   UNL A   1      49.589  26.054  29.110  1.00  0.00     0.134 A 
ATOM     84  F   UNL A   1      48.896  27.203  25.740  1.00  0.00    -0.206 F 
ATOM     85  C   UNL A   1      50.899  26.430  26.691  1.00  0.00     0.040 A 
ATOM     86  C   UNL A   1      50.950  25.767  29.006  1.00  0.00     0.040 A 
ATOM     87  F   UNL A   1      48.995  25.874  30.299  1.00  0.00    -0.206 F 
ATOM     88  C   UNL A   1      51.608  25.951  27.791  1.00  0.00     0.006 A 
ENDBRANCH  60  81
BRANCH  72  89
ATOM     89  C   UNL A   1      45.495  32.272  30.130  1.00  0.00     0.057 A 
ATOM     90  C   UNL A   1      45.696  33.363  29.275  1.00  0.00     0.134 A 
ATOM     91  C   UNL A   1      45.750  32.464  31.494  1.00  0.00     0.134 A 
ATOM     92  F   UNL A   1      45.487  33.242  27.955  1.00  0.00    -0.206 F 
ATOM     93  C   UNL A   1      46.161  34.589  29.755  1.00  0.00     0.040 A 
ATOM     94  C   UNL A   1      46.185  33.693  31.990  1.00  0.00     0.040 A 
ATOM     95  F   UNL A   1      45.572  31.462  32.368  1.00  0.00    -0.206 F 
ATOM     96  C   UNL A   1      46.400  34.758  31.117  1.00  0.00     0.006 A 
ENDBRANCH  72  89
ENDBRANCH  46  47
ENDBRANCH  38  41
ENDBRANCH  36  37
ENDBRANCH  35  36
ENDBRANCH   1  35
TORSDOF 16
ENDMDL
