MODEL 1
REMARK VINA RESULT:     -10.4      0.000      0.000
REMARK SMILES CC(C)C[C@H](NC(=O)CNC(=O)[C@@H](NC(=O)OCc1ccccc1)C(C)C)C(=O)N[C@@H](C)C(=O)NCCCNC(=O)c1ccc(-c2c3nc(c(-c4c(F)cccc4F)c4ccc([nH]4)c(-c4c(F)cccc4F)c4nc(c(-c5c(F)cccc5F)c5ccc2[nH]5)C=C4)C=C3)cc1
REMARK SMILES IDX 28 1 29 2 30 3 5 5 4 6 2 7 1 8 3 9 6 10 7 11 8 13 9 14 10 15
REMARK SMILES IDX 11 16 12 18 13 19 14 20 15 21 16 23 17 24 18 25 19 26 20 27
REMARK SMILES IDX 24 28 21 29 23 30 22 31 25 32 26 33 27 34 31 35 32 36 33 37
REMARK SMILES IDX 34 38 35 39 36 41 37 42 38 43 39 44 40 45 41 47 42 48 43 49
REMARK SMILES IDX 95 50 44 51 94 52 45 53 46 54 47 55 88 56 48 57 93 58 87 59
REMARK SMILES IDX 89 60 49 61 92 62 86 63 85 64 50 66 76 67 59 68 75 69 60 70
REMARK SMILES IDX 63 71 74 72 90 73 61 74 62 75 73 77 91 78 64 79 51 80 52 81
REMARK SMILES IDX 57 82 53 83 54 84 56 85 58 86 55 87 77 88 78 89 83 90 79 91
REMARK SMILES IDX 80 92 82 93 84 94 81 95 65 96 66 97 71 98 67 99 68 100
REMARK SMILES IDX 70 101 72 102 69 103
REMARK H PARENT 30 4 6 12 10 17 14 22 35 40 39 46 89 65 63 76
REMARK Flexibility Score: inf
ROOT
ATOM      1  C   UNL A   1      37.127  22.511  25.088  1.00  0.00     0.243 C 
ATOM      2  O   UNL A   1      36.765  23.497  24.429  1.00  0.00    -0.273 OA
ATOM      3  N   UNL A   1      38.503  22.423  25.325  1.00  0.00    -0.343 N 
ATOM      4  H   UNL A   1      39.009  23.087  24.803  1.00  0.00     0.164 HD
ENDROOT
BRANCH   1   5
ATOM      5  C   UNL A   1      36.024  21.399  25.496  1.00  0.00     0.171 C 
BRANCH   5   6
ATOM      6  C   UNL A   1      34.769  20.970  24.593  1.00  0.00     0.038 C 
BRANCH   6   7
ATOM      7  C   UNL A   1      33.895  19.641  24.875  1.00  0.00    -0.015 C 
ATOM      8  C   UNL A   1      32.495  19.540  24.224  1.00  0.00     0.007 C 
ATOM      9  C   UNL A   1      34.544  18.309  24.508  1.00  0.00     0.007 C 
ENDBRANCH   6   7
ENDBRANCH   5   6
BRANCH   5  10
ATOM     10  N   UNL A   1      35.563  21.628  26.809  1.00  0.00    -0.343 N 
ATOM     11  C   UNL A   1      34.648  22.599  27.084  1.00  0.00     0.240 C 
ATOM     12  H   UNL A   1      35.911  21.074  27.544  1.00  0.00     0.164 HD
ATOM     13  O   UNL A   1      34.123  22.555  28.198  1.00  0.00    -0.273 OA
BRANCH  11  14
ATOM     14  C   UNL A   1      34.256  23.708  26.001  1.00  0.00     0.216 C 
BRANCH  14  15
ATOM     15  N   UNL A   1      33.062  24.664  25.919  1.00  0.00    -0.345 N 
ATOM     16  C   UNL A   1      31.874  25.083  25.408  1.00  0.00     0.243 C 
ATOM     17  H   UNL A   1      33.264  25.339  26.607  1.00  0.00     0.164 HD
ATOM     18  O   UNL A   1      31.419  25.970  26.173  1.00  0.00    -0.273 OA
BRANCH  16  19
ATOM     19  C   UNL A   1      30.936  24.815  24.081  1.00  0.00     0.177 C 
BRANCH  19  20
ATOM     20  N   UNL A   1      29.601  25.477  24.033  1.00  0.00    -0.309 N 
ATOM     21  C   UNL A   1      29.145  26.716  23.653  1.00  0.00     0.408 C 
ATOM     22  H   UNL A   1      28.876  24.888  24.345  1.00  0.00     0.167 HD
ATOM     23  O   UNL A   1      27.991  27.042  23.881  1.00  0.00    -0.225 OA
BRANCH  21  24
ATOM     24  O   UNL A   1      30.075  27.533  23.096  1.00  0.00    -0.445 OA
BRANCH  24  25
ATOM     25  C   UNL A   1      30.208  28.838  23.701  1.00  0.00     0.270 C 
BRANCH  25  26
ATOM     26  C   UNL A   1      29.517  30.019  23.075  1.00  0.00    -0.011 A 
ATOM     27  C   UNL A   1      29.202  29.979  21.705  1.00  0.00     0.007 A 
ATOM     28  C   UNL A   1      29.069  31.094  23.845  1.00  0.00     0.007 A 
ATOM     29  C   UNL A   1      28.504  31.025  21.105  1.00  0.00     0.000 A 
ATOM     30  C   UNL A   1      28.370  32.141  23.242  1.00  0.00     0.000 A 
ATOM     31  C   UNL A   1      28.097  32.111  21.874  1.00  0.00     0.000 A 
ENDBRANCH  25  26
ENDBRANCH  24  25
ENDBRANCH  21  24
ENDBRANCH  19  20
BRANCH  19  32
ATOM     32  C   UNL A   1      31.554  24.404  22.719  1.00  0.00     0.015 C 
ATOM     33  C   UNL A   1      32.607  25.424  22.275  1.00  0.00     0.010 C 
ATOM     34  C   UNL A   1      32.245  23.021  22.746  1.00  0.00     0.010 C 
ENDBRANCH  19  32
ENDBRANCH  16  19
ENDBRANCH  14  15
ENDBRANCH  11  14
ENDBRANCH   5  10
ENDBRANCH   1   5
BRANCH   3  35
ATOM     35  C   UNL A   1      39.400  21.574  26.174  1.00  0.00     0.168 C 
ATOM     36  C   UNL A   1      39.504  20.106  25.781  1.00  0.00     0.041 C 
BRANCH  35  37
ATOM     37  C   UNL A   1      40.837  22.130  26.360  1.00  0.00     0.242 C 
ATOM     38  O   UNL A   1      41.784  21.728  25.681  1.00  0.00    -0.273 OA
ATOM     39  N   UNL A   1      41.096  23.141  27.244  1.00  0.00    -0.354 N 
ATOM     40  H   UNL A   1      41.667  22.953  28.025  1.00  0.00     0.163 HD
BRANCH  39  41
ATOM     41  C   UNL A   1      40.562  24.480  27.076  1.00  0.00     0.117 C 
BRANCH  41  42
ATOM     42  C   UNL A   1      40.777  25.061  25.686  1.00  0.00     0.042 C 
BRANCH  42  43
ATOM     43  C   UNL A   1      41.806  26.186  25.608  1.00  0.00     0.118 C 
BRANCH  43  44
ATOM     44  N   UNL A   1      43.145  25.787  26.029  1.00  0.00    -0.352 N 
ATOM     45  C   UNL A   1      43.908  26.187  27.099  1.00  0.00     0.251 C 
ATOM     46  H   UNL A   1      43.574  25.118  25.448  1.00  0.00     0.163 HD
ATOM     47  O   UNL A   1      45.090  25.860  27.164  1.00  0.00    -0.269 OA
BRANCH  45  48
ATOM     48  C   UNL A   1      43.327  27.038  28.155  1.00  0.00     0.039 A 
ATOM     49  C   UNL A   1      42.596  26.442  29.187  1.00  0.00     0.014 A 
ATOM     50  C   UNL A   1      43.487  28.422  28.121  1.00  0.00     0.014 A 
ATOM     51  C   UNL A   1      42.112  27.227  30.236  1.00  0.00     0.010 A 
ATOM     52  C   UNL A   1      43.088  29.189  29.207  1.00  0.00     0.010 A 
ATOM     53  C   UNL A   1      42.399  28.601  30.278  1.00  0.00    -0.014 A 
BRANCH  53  54
ATOM     54  C   UNL A   1      42.001  29.451  31.429  1.00  0.00     0.031 A 
ATOM     55  C   UNL A   1      40.723  30.240  31.371  1.00  0.00     0.074 A 
ATOM     56  C   UNL A   1      42.843  29.594  32.471  1.00  0.00     0.049 A 
ATOM     57  N   UNL A   1      40.273  31.146  32.201  1.00  0.00    -0.248 NA
ATOM     58  C   UNL A   1      39.855  30.011  30.205  1.00  0.00     0.031 C 
ATOM     59  C   UNL A   1      44.136  28.923  32.617  1.00  0.00     0.029 A 
ATOM     60  N   UNL A   1      42.744  30.370  33.599  1.00  0.00    -0.354 N 
ATOM     61  C   UNL A   1      39.091  31.616  31.640  1.00  0.00     0.074 A 
ATOM     62  C   UNL A   1      38.916  30.930  30.380  1.00  0.00     0.031 C 
ATOM     63  C   UNL A   1      44.699  29.298  33.777  1.00  0.00     0.029 A 
ATOM     64  C   UNL A   1      43.831  30.269  34.435  1.00  0.00     0.049 A 
ATOM     65  H   UNL A   1      41.969  30.944  33.792  1.00  0.00     0.167 HD
ATOM     66  C   UNL A   1      38.223  32.525  32.142  1.00  0.00     0.037 A 
ATOM     67  C   UNL A   1      44.101  30.897  35.593  1.00  0.00     0.037 A 
ATOM     68  C   UNL A   1      38.375  33.165  33.421  1.00  0.00     0.049 A 
ATOM     69  C   UNL A   1      43.111  31.892  36.133  1.00  0.00     0.074 A 
ATOM     70  C   UNL A   1      37.502  34.023  34.065  1.00  0.00     0.029 A 
ATOM     71  N   UNL A   1      39.474  33.012  34.252  1.00  0.00    -0.354 N 
ATOM     72  N   UNL A   1      41.960  32.268  35.632  1.00  0.00    -0.248 NA
ATOM     73  C   UNL A   1      43.458  32.551  37.401  1.00  0.00     0.031 C 
ATOM     74  C   UNL A   1      38.092  34.422  35.268  1.00  0.00     0.029 A 
ATOM     75  C   UNL A   1      39.313  33.781  35.392  1.00  0.00     0.049 A 
ATOM     76  H   UNL A   1      40.254  32.442  34.059  1.00  0.00     0.167 HD
ATOM     77  C   UNL A   1      41.434  33.184  36.533  1.00  0.00     0.074 A 
ATOM     78  C   UNL A   1      42.385  33.298  37.618  1.00  0.00     0.031 C 
ATOM     79  C   UNL A   1      40.267  33.870  36.467  1.00  0.00     0.037 A 
BRANCH  66  80
ATOM     80  C   UNL A   1      37.024  32.875  31.310  1.00  0.00     0.057 A 
ATOM     81  C   UNL A   1      37.074  33.861  30.316  1.00  0.00     0.134 A 
ATOM     82  C   UNL A   1      35.814  32.188  31.478  1.00  0.00     0.134 A 
ATOM     83  F   UNL A   1      38.198  34.563  30.112  1.00  0.00    -0.206 F 
ATOM     84  C   UNL A   1      35.958  34.168  29.536  1.00  0.00     0.040 A 
ATOM     85  C   UNL A   1      34.699  32.469  30.686  1.00  0.00     0.040 A 
ATOM     86  F   UNL A   1      35.698  31.228  32.409  1.00  0.00    -0.206 F 
ATOM     87  C   UNL A   1      34.768  33.466  29.716  1.00  0.00     0.006 A 
ENDBRANCH  66  80
BRANCH  67  88
ATOM     88  C   UNL A   1      45.350  30.595  36.336  1.00  0.00     0.057 A 
ATOM     89  C   UNL A   1      45.392  29.557  37.274  1.00  0.00     0.134 A 
ATOM     90  C   UNL A   1      46.521  31.337  36.143  1.00  0.00     0.134 A 
ATOM     91  F   UNL A   1      44.296  28.823  37.517  1.00  0.00    -0.206 F 
ATOM     92  C   UNL A   1      46.546  29.280  38.009  1.00  0.00     0.040 A 
ATOM     93  C   UNL A   1      47.690  31.056  36.853  1.00  0.00     0.040 A 
ATOM     94  F   UNL A   1      46.549  32.339  35.252  1.00  0.00    -0.206 F 
ATOM     95  C   UNL A   1      47.701  30.029  37.796  1.00  0.00     0.006 A 
ENDBRANCH  67  88
BRANCH  79  96
ATOM     96  C   UNL A   1      39.940  34.778  37.614  1.00  0.00     0.057 A 
ATOM     97  C   UNL A   1      40.188  36.154  37.559  1.00  0.00     0.134 A 
ATOM     98  C   UNL A   1      39.323  34.274  38.766  1.00  0.00     0.134 A 
ATOM     99  F   UNL A   1      40.790  36.694  36.488  1.00  0.00    -0.206 F 
ATOM    100  C   UNL A   1      39.849  36.997  38.617  1.00  0.00     0.040 A 
ATOM    101  C   UNL A   1      38.957  35.111  39.821  1.00  0.00     0.040 A 
ATOM    102  F   UNL A   1      39.052  32.965  38.877  1.00  0.00    -0.206 F 
ATOM    103  C   UNL A   1      39.224  36.477  39.749  1.00  0.00     0.006 A 
ENDBRANCH  79  96
ENDBRANCH  53  54
ENDBRANCH  45  48
ENDBRANCH  43  44
ENDBRANCH  42  43
ENDBRANCH  41  42
ENDBRANCH  39  41
ENDBRANCH  35  37
ENDBRANCH   3  35
TORSDOF 23
ENDMDL
MODEL 2
REMARK VINA RESULT:     -10.4      4.787      9.604
REMARK SMILES CC(C)C[C@H](NC(=O)CNC(=O)[C@@H](NC(=O)OCc1ccccc1)C(C)C)C(=O)N[C@@H](C)C(=O)NCCCNC(=O)c1ccc(-c2c3nc(c(-c4c(F)cccc4F)c4ccc([nH]4)c(-c4c(F)cccc4F)c4nc(c(-c5c(F)cccc5F)c5ccc2[nH]5)C=C4)C=C3)cc1
REMARK SMILES IDX 28 1 29 2 30 3 5 5 4 6 2 7 1 8 3 9 6 10 7 11 8 13 9 14 10 15
REMARK SMILES IDX 11 16 12 18 13 19 14 20 15 21 16 23 17 24 18 25 19 26 20 27
REMARK SMILES IDX 24 28 21 29 23 30 22 31 25 32 26 33 27 34 31 35 32 36 33 37
REMARK SMILES IDX 34 38 35 39 36 41 37 42 38 43 39 44 40 45 41 47 42 48 43 49
REMARK SMILES IDX 95 50 44 51 94 52 45 53 46 54 47 55 88 56 48 57 93 58 87 59
REMARK SMILES IDX 89 60 49 61 92 62 86 63 85 64 50 66 76 67 59 68 75 69 60 70
REMARK SMILES IDX 63 71 74 72 90 73 61 74 62 75 73 77 91 78 64 79 51 80 52 81
REMARK SMILES IDX 57 82 53 83 54 84 56 85 58 86 55 87 77 88 78 89 83 90 79 91
REMARK SMILES IDX 80 92 82 93 84 94 81 95 65 96 66 97 71 98 67 99 68 100
REMARK SMILES IDX 70 101 72 102 69 103
REMARK H PARENT 30 4 6 12 10 17 14 22 35 40 39 46 89 65 63 76
REMARK Flexibility Score: inf
ROOT
ATOM      1  C   UNL A   1      42.211  27.710  25.759  1.00  0.00     0.243 C 
ATOM      2  O   UNL A   1      42.272  28.205  24.624  1.00  0.00    -0.273 OA
ATOM      3  N   UNL A   1      40.919  27.451  26.230  1.00  0.00    -0.343 N 
ATOM      4  H   UNL A   1      40.230  27.840  25.645  1.00  0.00     0.164 HD
ENDROOT
BRANCH   1   5
ATOM      5  C   UNL A   1      43.580  27.525  26.602  1.00  0.00     0.171 C 
BRANCH   5   6
ATOM      6  C   UNL A   1      43.865  28.160  28.049  1.00  0.00     0.038 C 
BRANCH   6   7
ATOM      7  C   UNL A   1      44.083  27.264  29.375  1.00  0.00    -0.015 C 
ATOM      8  C   UNL A   1      44.731  25.868  29.211  1.00  0.00     0.007 C 
ATOM      9  C   UNL A   1      44.902  27.896  30.497  1.00  0.00     0.007 C 
ENDBRANCH   6   7
ENDBRANCH   5   6
BRANCH   5  10
ATOM     10  N   UNL A   1      44.698  27.781  25.782  1.00  0.00    -0.343 N 
ATOM     11  C   UNL A   1      45.393  26.770  25.189  1.00  0.00     0.240 C 
ATOM     12  H   UNL A   1      44.982  28.711  25.635  1.00  0.00     0.164 HD
ATOM     13  O   UNL A   1      46.181  27.098  24.300  1.00  0.00    -0.273 OA
BRANCH  11  14
ATOM     14  C   UNL A   1      45.164  25.244  25.603  1.00  0.00     0.216 C 
BRANCH  14  15
ATOM     15  N   UNL A   1      44.809  24.010  24.767  1.00  0.00    -0.345 N 
ATOM     16  C   UNL A   1      44.402  22.723  24.614  1.00  0.00     0.243 C 
ATOM     17  H   UNL A   1      44.955  24.314  23.842  1.00  0.00     0.164 HD
ATOM     18  O   UNL A   1      44.138  22.545  23.399  1.00  0.00    -0.273 OA
BRANCH  16  19
ATOM     19  C   UNL A   1      44.233  21.363  25.528  1.00  0.00     0.177 C 
BRANCH  19  20
ATOM     20  N   UNL A   1      43.441  21.470  26.787  1.00  0.00    -0.309 N 
ATOM     21  C   UNL A   1      42.123  21.719  27.086  1.00  0.00     0.408 C 
ATOM     22  H   UNL A   1      43.989  21.328  27.592  1.00  0.00     0.167 HD
ATOM     23  O   UNL A   1      41.782  21.912  28.243  1.00  0.00    -0.225 OA
BRANCH  21  24
ATOM     24  O   UNL A   1      41.288  21.800  26.019  1.00  0.00    -0.445 OA
BRANCH  24  25
ATOM     25  C   UNL A   1      39.988  21.198  26.191  1.00  0.00     0.270 C 
BRANCH  25  26
ATOM     26  C   UNL A   1      38.755  21.972  25.808  1.00  0.00    -0.011 A 
ATOM     27  C   UNL A   1      37.746  21.326  25.071  1.00  0.00     0.007 A 
ATOM     28  C   UNL A   1      38.533  23.269  26.273  1.00  0.00     0.007 A 
ATOM     29  C   UNL A   1      36.562  21.989  24.755  1.00  0.00     0.000 A 
ATOM     30  C   UNL A   1      37.347  23.931  25.955  1.00  0.00     0.000 A 
ATOM     31  C   UNL A   1      36.368  23.296  25.189  1.00  0.00     0.000 A 
ENDBRANCH  25  26
ENDBRANCH  24  25
ENDBRANCH  21  24
ENDBRANCH  19  20
BRANCH  19  32
ATOM     32  C   UNL A   1      44.360  19.947  24.909  1.00  0.00     0.015 C 
ATOM     33  C   UNL A   1      45.820  19.485  24.915  1.00  0.00     0.010 C 
ATOM     34  C   UNL A   1      43.538  18.870  25.655  1.00  0.00     0.010 C 
ENDBRANCH  19  32
ENDBRANCH  16  19
ENDBRANCH  14  15
ENDBRANCH  11  14
ENDBRANCH   5  10
ENDBRANCH   1   5
BRANCH   3  35
ATOM     35  C   UNL A   1      40.321  26.730  27.399  1.00  0.00     0.168 C 
ATOM     36  C   UNL A   1      41.107  25.535  27.925  1.00  0.00     0.041 C 
BRANCH  35  37
ATOM     37  C   UNL A   1      39.954  27.637  28.604  1.00  0.00     0.242 C 
ATOM     38  O   UNL A   1      40.749  27.856  29.520  1.00  0.00    -0.273 OA
ATOM     39  N   UNL A   1      38.750  28.284  28.662  1.00  0.00    -0.354 N 
ATOM     40  H   UNL A   1      38.112  28.035  29.369  1.00  0.00     0.163 HD
BRANCH  39  41
ATOM     41  C   UNL A   1      38.378  29.324  27.720  1.00  0.00     0.117 C 
BRANCH  41  42
ATOM     42  C   UNL A   1      37.824  30.581  28.374  1.00  0.00     0.042 C 
BRANCH  42  43
ATOM     43  C   UNL A   1      36.491  30.402  29.095  1.00  0.00     0.118 C 
BRANCH  43  44
ATOM     44  N   UNL A   1      35.955  31.639  29.654  1.00  0.00    -0.352 N 
ATOM     45  C   UNL A   1      36.193  32.261  30.856  1.00  0.00     0.251 C 
ATOM     46  H   UNL A   1      35.315  32.107  29.071  1.00  0.00     0.163 HD
ATOM     47  O   UNL A   1      35.490  33.205  31.205  1.00  0.00    -0.269 OA
BRANCH  45  48
ATOM     48  C   UNL A   1      37.264  31.778  31.747  1.00  0.00     0.039 A 
ATOM     49  C   UNL A   1      38.582  32.186  31.514  1.00  0.00     0.014 A 
ATOM     50  C   UNL A   1      36.977  30.914  32.802  1.00  0.00     0.014 A 
ATOM     51  C   UNL A   1      39.592  31.803  32.400  1.00  0.00     0.010 A 
ATOM     52  C   UNL A   1      37.961  30.610  33.733  1.00  0.00     0.010 A 
ATOM     53  C   UNL A   1      39.279  31.053  33.545  1.00  0.00    -0.014 A 
BRANCH  53  54
ATOM     54  C   UNL A   1      40.301  30.721  34.569  1.00  0.00     0.031 A 
ATOM     55  C   UNL A   1      40.704  31.751  35.587  1.00  0.00     0.074 A 
ATOM     56  C   UNL A   1      40.939  29.536  34.511  1.00  0.00     0.049 A 
ATOM     57  N   UNL A   1      41.672  31.710  36.467  1.00  0.00    -0.248 NA
ATOM     58  C   UNL A   1      39.944  33.012  35.591  1.00  0.00     0.031 C 
ATOM     59  C   UNL A   1      40.675  28.476  33.536  1.00  0.00     0.029 A 
ATOM     60  N   UNL A   1      41.959  29.032  35.280  1.00  0.00    -0.354 N 
ATOM     61  C   UNL A   1      41.658  32.947  37.100  1.00  0.00     0.074 A 
ATOM     62  C   UNL A   1      40.616  33.732  36.477  1.00  0.00     0.031 C 
ATOM     63  C   UNL A   1      41.494  27.440  33.779  1.00  0.00     0.029 A 
ATOM     64  C   UNL A   1      42.371  27.778  34.895  1.00  0.00     0.049 A 
ATOM     65  H   UNL A   1      42.357  29.521  36.034  1.00  0.00     0.167 HD
ATOM     66  C   UNL A   1      42.432  33.380  38.123  1.00  0.00     0.037 A 
ATOM     67  C   UNL A   1      43.353  26.997  35.380  1.00  0.00     0.037 A 
ATOM     68  C   UNL A   1      43.431  32.575  38.774  1.00  0.00     0.049 A 
ATOM     69  C   UNL A   1      44.188  27.499  36.525  1.00  0.00     0.074 A 
ATOM     70  C   UNL A   1      44.199  32.885  39.883  1.00  0.00     0.029 A 
ATOM     71  N   UNL A   1      43.797  31.299  38.375  1.00  0.00    -0.354 N 
ATOM     72  N   UNL A   1      44.111  28.639  37.166  1.00  0.00    -0.248 NA
ATOM     73  C   UNL A   1      45.249  26.605  37.013  1.00  0.00     0.031 C 
ATOM     74  C   UNL A   1      45.059  31.810  40.130  1.00  0.00     0.029 A 
ATOM     75  C   UNL A   1      44.798  30.817  39.200  1.00  0.00     0.049 A 
ATOM     76  H   UNL A   1      43.404  30.809  37.617  1.00  0.00     0.167 HD
ATOM     77  C   UNL A   1      45.092  28.589  38.149  1.00  0.00     0.074 A 
ATOM     78  C   UNL A   1      45.742  27.302  38.027  1.00  0.00     0.031 C 
ATOM     79  C   UNL A   1      45.424  29.527  39.070  1.00  0.00     0.037 A 
BRANCH  66  80
ATOM     80  C   UNL A   1      42.224  34.785  38.607  1.00  0.00     0.057 A 
ATOM     81  C   UNL A   1      42.962  35.862  38.097  1.00  0.00     0.134 A 
ATOM     82  C   UNL A   1      41.244  35.071  39.566  1.00  0.00     0.134 A 
ATOM     83  F   UNL A   1      43.922  35.654  37.184  1.00  0.00    -0.206 F 
ATOM     84  C   UNL A   1      42.750  37.167  38.542  1.00  0.00     0.040 A 
ATOM     85  C   UNL A   1      41.006  36.377  40.000  1.00  0.00     0.040 A 
ATOM     86  F   UNL A   1      40.498  34.088  40.093  1.00  0.00    -0.206 F 
ATOM     87  C   UNL A   1      41.765  37.429  39.491  1.00  0.00     0.006 A 
ENDBRANCH  66  80
BRANCH  67  88
ATOM     88  C   UNL A   1      43.591  25.649  34.804  1.00  0.00     0.057 A 
ATOM     89  C   UNL A   1      42.851  24.543  35.237  1.00  0.00     0.134 A 
ATOM     90  C   UNL A   1      44.567  25.428  33.825  1.00  0.00     0.134 A 
ATOM     91  F   UNL A   1      41.916  24.690  36.187  1.00  0.00    -0.206 F 
ATOM     92  C   UNL A   1      43.085  23.263  34.735  1.00  0.00     0.040 A 
ATOM     93  C   UNL A   1      44.796  24.157  33.295  1.00  0.00     0.040 A 
ATOM     94  F   UNL A   1      45.305  26.448  33.361  1.00  0.00    -0.206 F 
ATOM     95  C   UNL A   1      44.058  23.068  33.757  1.00  0.00     0.006 A 
ENDBRANCH  67  88
BRANCH  79  96
ATOM     96  C   UNL A   1      46.515  29.180  40.037  1.00  0.00     0.057 A 
ATOM     97  C   UNL A   1      46.253  28.497  41.230  1.00  0.00     0.134 A 
ATOM     98  C   UNL A   1      47.849  29.490  39.744  1.00  0.00     0.134 A 
ATOM     99  F   UNL A   1      44.993  28.185  41.572  1.00  0.00    -0.206 F 
ATOM    100  C   UNL A   1      47.279  28.147  42.108  1.00  0.00     0.040 A 
ATOM    101  C   UNL A   1      48.886  29.124  40.603  1.00  0.00     0.040 A 
ATOM    102  F   UNL A   1      48.166  30.137  38.613  1.00  0.00    -0.206 F 
ATOM    103  C   UNL A   1      48.601  28.454  41.791  1.00  0.00     0.006 A 
ENDBRANCH  79  96
ENDBRANCH  53  54
ENDBRANCH  45  48
ENDBRANCH  43  44
ENDBRANCH  42  43
ENDBRANCH  41  42
ENDBRANCH  39  41
ENDBRANCH  35  37
ENDBRANCH   3  35
TORSDOF 23
ENDMDL
MODEL 3
REMARK VINA RESULT:     -10.4      1.354      6.088
REMARK SMILES CC(C)C[C@H](NC(=O)CNC(=O)[C@@H](NC(=O)OCc1ccccc1)C(C)C)C(=O)N[C@@H](C)C(=O)NCCCNC(=O)c1ccc(-c2c3nc(c(-c4c(F)cccc4F)c4ccc([nH]4)c(-c4c(F)cccc4F)c4nc(c(-c5c(F)cccc5F)c5ccc2[nH]5)C=C4)C=C3)cc1
REMARK SMILES IDX 28 1 29 2 30 3 5 5 4 6 2 7 1 8 3 9 6 10 7 11 8 13 9 14 10 15
REMARK SMILES IDX 11 16 12 18 13 19 14 20 15 21 16 23 17 24 18 25 19 26 20 27
REMARK SMILES IDX 24 28 21 29 23 30 22 31 25 32 26 33 27 34 31 35 32 36 33 37
REMARK SMILES IDX 34 38 35 39 36 41 37 42 38 43 39 44 40 45 41 47 42 48 43 49
REMARK SMILES IDX 95 50 44 51 94 52 45 53 46 54 47 55 88 56 48 57 93 58 87 59
REMARK SMILES IDX 89 60 49 61 92 62 86 63 85 64 50 66 76 67 59 68 75 69 60 70
REMARK SMILES IDX 63 71 74 72 90 73 61 74 62 75 73 77 91 78 64 79 51 80 52 81
REMARK SMILES IDX 57 82 53 83 54 84 56 85 58 86 55 87 77 88 78 89 83 90 79 91
REMARK SMILES IDX 80 92 82 93 84 94 81 95 65 96 66 97 71 98 67 99 68 100
REMARK SMILES IDX 70 101 72 102 69 103
REMARK H PARENT 30 4 6 12 10 17 14 22 35 40 39 46 89 65 63 76
REMARK Flexibility Score: inf
ROOT
ATOM      1  C   UNL A   1      37.201  22.605  24.978  1.00  0.00     0.243 C 
ATOM      2  O   UNL A   1      37.120  23.672  24.351  1.00  0.00    -0.273 OA
ATOM      3  N   UNL A   1      38.494  22.233  25.361  1.00  0.00    -0.343 N 
ATOM      4  H   UNL A   1      39.179  22.804  24.944  1.00  0.00     0.164 HD
ENDROOT
BRANCH   1   5
ATOM      5  C   UNL A   1      35.862  21.720  25.186  1.00  0.00     0.171 C 
BRANCH   5   6
ATOM      6  C   UNL A   1      34.568  21.769  24.237  1.00  0.00     0.038 C 
BRANCH   6   7
ATOM      7  C   UNL A   1      33.448  20.605  24.216  1.00  0.00    -0.015 C 
ATOM      8  C   UNL A   1      33.834  19.215  24.777  1.00  0.00     0.007 C 
ATOM      9  C   UNL A   1      32.133  20.912  24.927  1.00  0.00     0.007 C 
ENDBRANCH   6   7
ENDBRANCH   5   6
BRANCH   5  10
ATOM     10  N   UNL A   1      35.428  21.797  26.525  1.00  0.00    -0.343 N 
ATOM     11  C   UNL A   1      34.587  22.783  26.946  1.00  0.00     0.240 C 
ATOM     12  H   UNL A   1      35.741  21.124  27.171  1.00  0.00     0.164 HD
ATOM     13  O   UNL A   1      34.068  22.623  28.052  1.00  0.00    -0.273 OA
BRANCH  11  14
ATOM     14  C   UNL A   1      34.267  24.055  26.032  1.00  0.00     0.216 C 
BRANCH  14  15
ATOM     15  N   UNL A   1      33.349  25.260  26.261  1.00  0.00    -0.345 N 
ATOM     16  C   UNL A   1      33.062  26.588  26.243  1.00  0.00     0.243 C 
ATOM     17  H   UNL A   1      32.523  24.852  26.606  1.00  0.00     0.164 HD
ATOM     18  O   UNL A   1      31.824  26.715  26.417  1.00  0.00    -0.273 OA
BRANCH  16  19
ATOM     19  C   UNL A   1      33.860  28.024  26.135  1.00  0.00     0.177 C 
BRANCH  19  20
ATOM     20  N   UNL A   1      33.993  28.641  24.784  1.00  0.00    -0.309 N 
ATOM     21  C   UNL A   1      33.145  28.842  23.721  1.00  0.00     0.408 C 
ATOM     22  H   UNL A   1      34.899  28.987  24.614  1.00  0.00     0.167 HD
ATOM     23  O   UNL A   1      33.584  29.240  22.653  1.00  0.00    -0.225 OA
BRANCH  21  24
ATOM     24  O   UNL A   1      31.850  28.501  23.937  1.00  0.00    -0.445 OA
BRANCH  24  25
ATOM     25  C   UNL A   1      31.016  29.532  24.508  1.00  0.00     0.270 C 
BRANCH  25  26
ATOM     26  C   UNL A   1      29.839  30.052  23.727  1.00  0.00    -0.011 A 
ATOM     27  C   UNL A   1      29.193  29.196  22.816  1.00  0.00     0.007 A 
ATOM     28  C   UNL A   1      29.295  31.313  23.978  1.00  0.00     0.007 A 
ATOM     29  C   UNL A   1      28.060  29.618  22.124  1.00  0.00     0.000 A 
ATOM     30  C   UNL A   1      28.160  31.734  23.284  1.00  0.00     0.000 A 
ATOM     31  C   UNL A   1      27.550  30.893  22.352  1.00  0.00     0.000 A 
ENDBRANCH  25  26
ENDBRANCH  24  25
ENDBRANCH  21  24
ENDBRANCH  19  20
BRANCH  19  32
ATOM     32  C   UNL A   1      33.975  28.984  27.348  1.00  0.00     0.015 C 
ATOM     33  C   UNL A   1      35.428  29.418  27.556  1.00  0.00     0.010 C 
ATOM     34  C   UNL A   1      33.132  30.272  27.199  1.00  0.00     0.010 C 
ENDBRANCH  19  32
ENDBRANCH  16  19
ENDBRANCH  14  15
ENDBRANCH  11  14
ENDBRANCH   5  10
ENDBRANCH   1   5
BRANCH   3  35
ATOM     35  C   UNL A   1      39.099  21.185  26.244  1.00  0.00     0.168 C 
ATOM     36  C   UNL A   1      39.737  19.995  25.537  1.00  0.00     0.041 C 
BRANCH  35  37
ATOM     37  C   UNL A   1      40.107  21.722  27.296  1.00  0.00     0.242 C 
ATOM     38  O   UNL A   1      40.795  20.965  27.984  1.00  0.00    -0.273 OA
ATOM     39  N   UNL A   1      40.318  23.064  27.453  1.00  0.00    -0.354 N 
ATOM     40  H   UNL A   1      40.060  23.488  28.303  1.00  0.00     0.163 HD
BRANCH  39  41
ATOM     41  C   UNL A   1      40.910  23.886  26.413  1.00  0.00     0.117 C 
BRANCH  41  42
ATOM     42  C   UNL A   1      40.327  25.290  26.329  1.00  0.00     0.042 C 
BRANCH  42  43
ATOM     43  C   UNL A   1      41.269  26.348  25.760  1.00  0.00     0.118 C 
BRANCH  43  44
ATOM     44  N   UNL A   1      42.671  25.945  25.755  1.00  0.00    -0.352 N 
ATOM     45  C   UNL A   1      43.734  26.376  26.511  1.00  0.00     0.251 C 
ATOM     46  H   UNL A   1      42.893  25.246  25.099  1.00  0.00     0.163 HD
ATOM     47  O   UNL A   1      44.875  26.033  26.215  1.00  0.00    -0.269 OA
BRANCH  45  48
ATOM     48  C   UNL A   1      43.518  27.280  27.657  1.00  0.00     0.039 A 
ATOM     49  C   UNL A   1      43.848  28.633  27.531  1.00  0.00     0.014 A 
ATOM     50  C   UNL A   1      43.006  26.795  28.859  1.00  0.00     0.014 A 
ATOM     51  C   UNL A   1      43.572  29.514  28.580  1.00  0.00     0.010 A 
ATOM     52  C   UNL A   1      42.645  27.683  29.864  1.00  0.00     0.010 A 
ATOM     53  C   UNL A   1      42.921  29.052  29.735  1.00  0.00    -0.014 A 
BRANCH  53  54
ATOM     54  C   UNL A   1      42.506  29.973  30.823  1.00  0.00     0.031 A 
ATOM     55  C   UNL A   1      43.398  30.171  32.018  1.00  0.00     0.074 A 
ATOM     56  C   UNL A   1      41.285  30.539  30.786  1.00  0.00     0.049 A 
ATOM     57  N   UNL A   1      43.158  30.812  33.132  1.00  0.00    -0.248 NA
ATOM     58  C   UNL A   1      44.723  29.529  31.969  1.00  0.00     0.031 C 
ATOM     59  C   UNL A   1      40.307  30.380  29.707  1.00  0.00     0.029 A 
ATOM     60  N   UNL A   1      40.647  31.350  31.691  1.00  0.00    -0.354 N 
ATOM     61  C   UNL A   1      44.282  30.621  33.927  1.00  0.00     0.074 A 
ATOM     62  C   UNL A   1      45.186  29.770  33.187  1.00  0.00     0.031 C 
ATOM     63  C   UNL A   1      39.205  31.088  30.002  1.00  0.00     0.029 A 
ATOM     64  C   UNL A   1      39.378  31.713  31.309  1.00  0.00     0.049 A 
ATOM     65  H   UNL A   1      41.060  31.644  32.535  1.00  0.00     0.167 HD
ATOM     66  C   UNL A   1      44.542  31.127  35.155  1.00  0.00     0.037 A 
ATOM     67  C   UNL A   1      38.455  32.456  31.947  1.00  0.00     0.037 A 
ATOM     68  C   UNL A   1      43.662  32.017  35.864  1.00  0.00     0.049 A 
ATOM     69  C   UNL A   1      38.778  33.016  33.304  1.00  0.00     0.074 A 
ATOM     70  C   UNL A   1      43.876  32.665  37.067  1.00  0.00     0.029 A 
ATOM     71  N   UNL A   1      42.398  32.385  35.429  1.00  0.00    -0.354 N 
ATOM     72  N   UNL A   1      39.875  32.893  34.009  1.00  0.00    -0.248 NA
ATOM     73  C   UNL A   1      37.731  33.818  33.956  1.00  0.00     0.031 C 
ATOM     74  C   UNL A   1      42.725  33.393  37.380  1.00  0.00     0.029 A 
ATOM     75  C   UNL A   1      41.811  33.232  36.353  1.00  0.00     0.049 A 
ATOM     76  H   UNL A   1      41.981  32.089  34.587  1.00  0.00     0.167 HD
ATOM     77  C   UNL A   1      39.664  33.622  35.172  1.00  0.00     0.074 A 
ATOM     78  C   UNL A   1      38.338  34.194  35.072  1.00  0.00     0.031 C 
ATOM     79  C   UNL A   1      40.494  33.802  36.229  1.00  0.00     0.037 A 
BRANCH  66  80
ATOM     80  C   UNL A   1      45.836  30.738  35.808  1.00  0.00     0.057 A 
ATOM     81  C   UNL A   1      45.935  29.622  36.650  1.00  0.00     0.134 A 
ATOM     82  C   UNL A   1      47.008  31.464  35.559  1.00  0.00     0.134 A 
ATOM     83  F   UNL A   1      44.849  28.891  36.938  1.00  0.00    -0.206 F 
ATOM     84  C   UNL A   1      47.146  29.259  37.240  1.00  0.00     0.040 A 
ATOM     85  C   UNL A   1      48.230  31.095  36.123  1.00  0.00     0.040 A 
ATOM     86  F   UNL A   1      46.985  32.541  34.758  1.00  0.00    -0.206 F 
ATOM     87  C   UNL A   1      48.300  29.992  36.971  1.00  0.00     0.006 A 
ENDBRANCH  66  80
BRANCH  67  88
ATOM     88  C   UNL A   1      37.145  32.735  31.306  1.00  0.00     0.057 A 
ATOM     89  C   UNL A   1      36.017  31.966  31.615  1.00  0.00     0.134 A 
ATOM     90  C   UNL A   1      36.989  33.758  30.364  1.00  0.00     0.134 A 
ATOM     91  F   UNL A   1      36.110  30.959  32.496  1.00  0.00    -0.206 F 
ATOM     92  C   UNL A   1      34.786  32.189  30.998  1.00  0.00     0.040 A 
ATOM     93  C   UNL A   1      35.757  34.009  29.755  1.00  0.00     0.040 A 
ATOM     94  F   UNL A   1      38.029  34.536  30.029  1.00  0.00    -0.206 F 
ATOM     95  C   UNL A   1      34.654  33.217  30.065  1.00  0.00     0.006 A 
ENDBRANCH  67  88
BRANCH  79  96
ATOM     96  C   UNL A   1      40.005  34.676  37.343  1.00  0.00     0.057 A 
ATOM     97  C   UNL A   1      39.365  34.147  38.469  1.00  0.00     0.134 A 
ATOM     98  C   UNL A   1      40.225  36.059  37.310  1.00  0.00     0.134 A 
ATOM     99  F   UNL A   1      39.114  32.831  38.552  1.00  0.00    -0.206 F 
ATOM    100  C   UNL A   1      38.944  34.964  39.518  1.00  0.00     0.040 A 
ATOM    101  C   UNL A   1      39.831  36.884  38.364  1.00  0.00     0.040 A 
ATOM    102  F   UNL A   1      40.840  36.627  36.262  1.00  0.00    -0.206 F 
ATOM    103  C   UNL A   1      39.185  36.336  39.471  1.00  0.00     0.006 A 
ENDBRANCH  79  96
ENDBRANCH  53  54
ENDBRANCH  45  48
ENDBRANCH  43  44
ENDBRANCH  42  43
ENDBRANCH  41  42
ENDBRANCH  39  41
ENDBRANCH  35  37
ENDBRANCH   3  35
TORSDOF 23
ENDMDL
