MODEL 1
REMARK VINA RESULT:     -14.7      0.000      0.000
REMARK SMILES Cc1ccccc1C(=O)Nc1cc(C(=O)NCCCNC(=O)c2ccc(-c3c4nc(c(-c5c(F)cccc5F)c5ccc([nH]5)c(-c5c(F)cccc5F)c5nc(c(-c6c(F)cccc6F)c6ccc3[nH]6)C=C5)C=C4)cc2)ccc1N1CC[NH+](CC(=O)Nc2ccc(F)cc2)CC1
REMARK SMILES IDX 17 1 16 2 14 3 15 4 13 6 11 7 12 8 79 9 78 10 77 11 10 12
REMARK SMILES IDX 8 13 9 14 7 16 1 17 2 18 3 19 4 20 6 21 5 22 80 23 81 24
REMARK SMILES IDX 96 25 82 26 95 27 83 28 84 30 85 31 86 32 87 33 88 35 89 36
REMARK SMILES IDX 94 37 90 38 93 39 91 40 92 41 18 42 19 43 20 44 21 45 22 47
REMARK SMILES IDX 23 48 24 49 76 50 25 51 75 52 26 53 27 54 28 55 69 56 29 57
REMARK SMILES IDX 74 58 68 59 70 60 30 61 73 62 67 63 66 64 31 66 57 67 40 68
REMARK SMILES IDX 56 69 41 70 44 71 55 72 71 73 42 74 43 75 54 77 72 78 45 79
REMARK SMILES IDX 32 80 33 81 38 82 34 83 35 84 37 85 39 86 36 87 58 88 59 89
REMARK SMILES IDX 64 90 60 91 61 92 63 93 65 94 62 95 46 96 47 97 52 98 48 99
REMARK SMILES IDX 49 100 51 101 53 102 50 103
REMARK H PARENT 16 5 10 15 83 29 87 34 20 46 70 65 44 76
REMARK Flexibility Score: inf
ROOT
ATOM      1  C   UNL A   1      34.290  31.436  27.654  1.00  0.00     0.118 C 
ENDROOT
BRANCH   1   2
ATOM      2  N   UNL A   1      33.027  31.832  27.028  1.00  0.00    -0.352 N 
ATOM      3  C   UNL A   1      31.930  31.135  26.554  1.00  0.00     0.251 C 
ATOM      4  O   UNL A   1      30.938  31.797  26.244  1.00  0.00    -0.269 OA
ATOM      5  H   UNL A   1      32.940  32.806  26.919  1.00  0.00     0.163 HD
BRANCH   3   6
ATOM      6  C   UNL A   1      31.868  29.652  26.382  1.00  0.00     0.042 A 
ATOM      7  C   UNL A   1      31.820  27.668  24.982  1.00  0.00     0.065 A 
ATOM      8  C   UNL A   1      31.879  29.044  25.147  1.00  0.00     0.042 A 
ATOM      9  C   UNL A   1      31.715  26.783  26.083  1.00  0.00     0.061 A 
ATOM     10  C   UNL A   1      31.686  27.401  27.345  1.00  0.00     0.029 A 
ATOM     11  C   UNL A   1      31.775  28.806  27.495  1.00  0.00     0.016 A 
BRANCH   7  12
ATOM     12  N   UNL A   1      31.833  27.196  23.662  1.00  0.00    -0.320 N 
ATOM     13  C   UNL A   1      30.997  27.481  22.598  1.00  0.00     0.255 C 
ATOM     14  O   UNL A   1      31.328  27.045  21.491  1.00  0.00    -0.269 OA
ATOM     15  H   UNL A   1      32.555  26.557  23.459  1.00  0.00     0.170 HD
BRANCH  13  16
ATOM     16  C   UNL A   1      29.727  28.271  22.683  1.00  0.00     0.043 A 
ATOM     17  C   UNL A   1      28.210  26.603  23.973  1.00  0.00     0.045 C 
ATOM     18  C   UNL A   1      28.491  27.890  23.248  1.00  0.00    -0.038 A 
ATOM     19  C   UNL A   1      27.399  28.784  23.162  1.00  0.00     0.004 A 
ATOM     20  C   UNL A   1      27.542  30.061  22.622  1.00  0.00     0.000 A 
ATOM     21  C   UNL A   1      29.856  29.583  22.178  1.00  0.00     0.014 A 
ATOM     22  C   UNL A   1      28.780  30.471  22.151  1.00  0.00     0.001 A 
ENDBRANCH  13  16
ENDBRANCH   7  12
BRANCH   9  23
ATOM     23  N   UNL A   1      31.711  25.402  25.932  1.00  0.00    -0.359 N 
ATOM     24  C   UNL A   1      30.627  24.494  26.402  1.00  0.00     0.178 C 
ATOM     25  C   UNL A   1      32.977  24.682  25.830  1.00  0.00     0.178 C 
ATOM     26  C   UNL A   1      30.718  23.039  25.768  1.00  0.00     0.284 C 
ATOM     27  C   UNL A   1      32.796  23.627  24.740  1.00  0.00     0.284 C 
ATOM     28  N   UNL A   1      32.014  22.517  25.264  1.00  0.00    -0.324 N 
ATOM     29  H   UNL A   1      31.757  21.863  24.524  1.00  0.00     0.348 HD
BRANCH  28  30
ATOM     30  C   UNL A   1      32.800  21.599  26.123  1.00  0.00     0.364 C 
BRANCH  30  31
ATOM     31  C   UNL A   1      33.283  20.281  25.519  1.00  0.00     0.279 C 
ATOM     32  O   UNL A   1      32.505  19.316  25.467  1.00  0.00    -0.268 OA
ATOM     33  N   UNL A   1      34.520  20.070  24.967  1.00  0.00    -0.321 N 
ATOM     34  H   UNL A   1      34.508  19.289  24.369  1.00  0.00     0.170 HD
BRANCH  33  35
ATOM     35  C   UNL A   1      35.807  20.652  25.012  1.00  0.00     0.041 A 
ATOM     36  C   UNL A   1      36.892  19.758  24.966  1.00  0.00     0.029 A 
ATOM     37  C   UNL A   1      36.098  21.997  25.215  1.00  0.00     0.029 A 
ATOM     38  C   UNL A   1      38.209  20.186  25.177  1.00  0.00     0.041 A 
ATOM     39  C   UNL A   1      37.408  22.427  25.491  1.00  0.00     0.041 A 
ATOM     40  C   UNL A   1      38.452  21.517  25.470  1.00  0.00     0.123 A 
ATOM     41  F   UNL A   1      39.701  21.927  25.726  1.00  0.00    -0.207 F 
ENDBRANCH  33  35
ENDBRANCH  30  31
ENDBRANCH  28  30
ENDBRANCH   9  23
ENDBRANCH   3   6
ENDBRANCH   1   2
BRANCH   1  42
ATOM     42  C   UNL A   1      35.296  32.586  27.828  1.00  0.00     0.042 C 
BRANCH  42  43
ATOM     43  C   UNL A   1      36.568  32.195  28.546  1.00  0.00     0.118 C 
BRANCH  43  44
ATOM     44  N   UNL A   1      36.446  32.084  30.000  1.00  0.00    -0.352 N 
ATOM     45  C   UNL A   1      36.661  30.947  30.772  1.00  0.00     0.251 C 
ATOM     46  H   UNL A   1      36.183  32.902  30.483  1.00  0.00     0.163 HD
ATOM     47  O   UNL A   1      36.579  30.967  31.983  1.00  0.00    -0.269 OA
BRANCH  45  48
ATOM     48  C   UNL A   1      37.134  29.738  30.053  1.00  0.00     0.039 A 
ATOM     49  C   UNL A   1      37.416  28.625  30.847  1.00  0.00     0.014 A 
ATOM     50  C   UNL A   1      37.709  29.894  28.794  1.00  0.00     0.014 A 
ATOM     51  C   UNL A   1      38.506  27.831  30.515  1.00  0.00     0.010 A 
ATOM     52  C   UNL A   1      38.853  29.168  28.518  1.00  0.00     0.010 A 
ATOM     53  C   UNL A   1      39.299  28.196  29.424  1.00  0.00    -0.014 A 
BRANCH  53  54
ATOM     54  C   UNL A   1      40.647  27.669  29.236  1.00  0.00     0.031 A 
ATOM     55  C   UNL A   1      40.826  26.267  28.819  1.00  0.00     0.074 A 
ATOM     56  C   UNL A   1      41.744  28.425  29.469  1.00  0.00     0.049 A 
ATOM     57  N   UNL A   1      41.837  25.535  29.144  1.00  0.00    -0.248 NA
ATOM     58  C   UNL A   1      39.824  25.564  28.037  1.00  0.00     0.031 C 
ATOM     59  C   UNL A   1      43.134  28.075  29.183  1.00  0.00     0.029 A 
ATOM     60  N   UNL A   1      41.832  29.585  30.246  1.00  0.00    -0.354 N 
ATOM     61  C   UNL A   1      41.771  24.383  28.395  1.00  0.00     0.074 A 
ATOM     62  C   UNL A   1      40.457  24.416  27.792  1.00  0.00     0.031 C 
ATOM     63  C   UNL A   1      43.932  28.776  30.002  1.00  0.00     0.029 A 
ATOM     64  C   UNL A   1      43.082  29.526  30.906  1.00  0.00     0.049 A 
ATOM     65  H   UNL A   1      41.159  30.300  30.318  1.00  0.00     0.167 HD
ATOM     66  C   UNL A   1      42.886  23.607  28.261  1.00  0.00     0.037 A 
ATOM     67  C   UNL A   1      43.151  29.510  32.268  1.00  0.00     0.037 A 
ATOM     68  C   UNL A   1      43.996  24.101  29.086  1.00  0.00     0.049 A 
ATOM     69  C   UNL A   1      43.730  28.237  32.850  1.00  0.00     0.074 A 
ATOM     70  C   UNL A   1      45.158  24.811  28.827  1.00  0.00     0.029 A 
ATOM     71  N   UNL A   1      43.856  24.110  30.464  1.00  0.00    -0.354 N 
ATOM     72  N   UNL A   1      44.189  27.238  32.148  1.00  0.00    -0.248 NA
ATOM     73  C   UNL A   1      43.728  27.951  34.287  1.00  0.00     0.031 C 
ATOM     74  C   UNL A   1      45.715  25.237  30.068  1.00  0.00     0.029 A 
ATOM     75  C   UNL A   1      44.888  24.792  31.083  1.00  0.00     0.049 A 
ATOM     76  H   UNL A   1      43.110  23.684  30.946  1.00  0.00     0.167 HD
ATOM     77  C   UNL A   1      44.457  26.182  32.982  1.00  0.00     0.074 A 
ATOM     78  C   UNL A   1      44.156  26.679  34.311  1.00  0.00     0.031 C 
ATOM     79  C   UNL A   1      44.857  24.958  32.527  1.00  0.00     0.037 A 
BRANCH  66  80
ATOM     80  C   UNL A   1      43.048  22.577  27.157  1.00  0.00     0.057 A 
ATOM     81  C   UNL A   1      42.339  21.362  27.193  1.00  0.00     0.134 A 
ATOM     82  C   UNL A   1      43.938  22.683  26.074  1.00  0.00     0.134 A 
ATOM     83  F   UNL A   1      41.339  21.152  28.059  1.00  0.00    -0.206 F 
ATOM     84  C   UNL A   1      42.613  20.290  26.329  1.00  0.00     0.040 A 
ATOM     85  C   UNL A   1      44.270  21.601  25.244  1.00  0.00     0.040 A 
ATOM     86  F   UNL A   1      44.470  23.855  25.712  1.00  0.00    -0.206 F 
ATOM     87  C   UNL A   1      43.620  20.388  25.384  1.00  0.00     0.006 A 
ENDBRANCH  66  80
BRANCH  67  88
ATOM     88  C   UNL A   1      42.081  30.336  32.889  1.00  0.00     0.057 A 
ATOM     89  C   UNL A   1      42.248  31.734  32.908  1.00  0.00     0.134 A 
ATOM     90  C   UNL A   1      40.787  29.846  33.069  1.00  0.00     0.134 A 
ATOM     91  F   UNL A   1      43.469  32.272  32.749  1.00  0.00    -0.206 F 
ATOM     92  C   UNL A   1      41.157  32.604  32.943  1.00  0.00     0.040 A 
ATOM     93  C   UNL A   1      39.690  30.710  33.133  1.00  0.00     0.040 A 
ATOM     94  F   UNL A   1      40.545  28.527  33.053  1.00  0.00    -0.206 F 
ATOM     95  C   UNL A   1      39.868  32.087  33.016  1.00  0.00     0.006 A 
ENDBRANCH  67  88
BRANCH  79  96
ATOM     96  C   UNL A   1      45.226  23.812  33.435  1.00  0.00     0.057 A 
ATOM     97  C   UNL A   1      44.296  22.853  33.866  1.00  0.00     0.134 A 
ATOM     98  C   UNL A   1      46.511  23.697  34.002  1.00  0.00     0.134 A 
ATOM     99  F   UNL A   1      43.012  22.911  33.483  1.00  0.00    -0.206 F 
ATOM    100  C   UNL A   1      44.639  21.809  34.735  1.00  0.00     0.040 A 
ATOM    101  C   UNL A   1      46.853  22.690  34.910  1.00  0.00     0.040 A 
ATOM    102  F   UNL A   1      47.500  24.547  33.689  1.00  0.00    -0.206 F 
ATOM    103  C   UNL A   1      45.920  21.728  35.265  1.00  0.00     0.006 A 
ENDBRANCH  79  96
ENDBRANCH  53  54
ENDBRANCH  45  48
ENDBRANCH  43  44
ENDBRANCH  42  43
ENDBRANCH   1  42
TORSDOF 16
ENDMDL
MODEL 2
REMARK VINA RESULT:     -14.5      2.248      3.796
REMARK SMILES Cc1ccccc1C(=O)Nc1cc(C(=O)NCCCNC(=O)c2ccc(-c3c4nc(c(-c5c(F)cccc5F)c5ccc([nH]5)c(-c5c(F)cccc5F)c5nc(c(-c6c(F)cccc6F)c6ccc3[nH]6)C=C5)C=C4)cc2)ccc1N1CC[NH+](CC(=O)Nc2ccc(F)cc2)CC1
REMARK SMILES IDX 17 1 16 2 14 3 15 4 13 6 11 7 12 8 79 9 78 10 77 11 10 12
REMARK SMILES IDX 8 13 9 14 7 16 1 17 2 18 3 19 4 20 6 21 5 22 80 23 81 24
REMARK SMILES IDX 96 25 82 26 95 27 83 28 84 30 85 31 86 32 87 33 88 35 89 36
REMARK SMILES IDX 94 37 90 38 93 39 91 40 92 41 18 42 19 43 20 44 21 45 22 47
REMARK SMILES IDX 23 48 24 49 76 50 25 51 75 52 26 53 27 54 28 55 69 56 29 57
REMARK SMILES IDX 74 58 68 59 70 60 30 61 73 62 67 63 66 64 31 66 57 67 40 68
REMARK SMILES IDX 56 69 41 70 44 71 55 72 71 73 42 74 43 75 54 77 72 78 45 79
REMARK SMILES IDX 32 80 33 81 38 82 34 83 35 84 37 85 39 86 36 87 58 88 59 89
REMARK SMILES IDX 64 90 60 91 61 92 63 93 65 94 62 95 46 96 47 97 52 98 48 99
REMARK SMILES IDX 49 100 51 101 53 102 50 103
REMARK H PARENT 16 5 10 15 83 29 87 34 20 46 70 65 44 76
REMARK Flexibility Score: inf
ROOT
ATOM      1  C   UNL A   1      34.165  31.337  27.976  1.00  0.00     0.118 C 
ENDROOT
BRANCH   1   2
ATOM      2  N   UNL A   1      33.010  31.767  27.183  1.00  0.00    -0.352 N 
ATOM      3  C   UNL A   1      31.970  31.100  26.563  1.00  0.00     0.251 C 
ATOM      4  O   UNL A   1      31.048  31.789  26.122  1.00  0.00    -0.269 OA
ATOM      5  H   UNL A   1      32.966  32.743  27.066  1.00  0.00     0.163 HD
BRANCH   3   6
ATOM      6  C   UNL A   1      31.891  29.619  26.381  1.00  0.00     0.042 A 
ATOM      7  C   UNL A   1      31.826  27.645  24.968  1.00  0.00     0.065 A 
ATOM      8  C   UNL A   1      31.901  29.019  25.142  1.00  0.00     0.042 A 
ATOM      9  C   UNL A   1      31.705  26.754  26.062  1.00  0.00     0.061 A 
ATOM     10  C   UNL A   1      31.677  27.364  27.328  1.00  0.00     0.029 A 
ATOM     11  C   UNL A   1      31.782  28.767  27.488  1.00  0.00     0.016 A 
BRANCH   7  12
ATOM     12  N   UNL A   1      31.840  27.181  23.644  1.00  0.00    -0.320 N 
ATOM     13  C   UNL A   1      31.007  27.476  22.581  1.00  0.00     0.255 C 
ATOM     14  O   UNL A   1      31.339  27.046  21.471  1.00  0.00    -0.269 OA
ATOM     15  H   UNL A   1      32.560  26.541  23.439  1.00  0.00     0.170 HD
BRANCH  13  16
ATOM     16  C   UNL A   1      29.739  28.270  22.668  1.00  0.00     0.043 A 
ATOM     17  C   UNL A   1      28.220  26.604  23.959  1.00  0.00     0.045 C 
ATOM     18  C   UNL A   1      28.503  27.891  23.235  1.00  0.00    -0.038 A 
ATOM     19  C   UNL A   1      27.414  28.789  23.151  1.00  0.00     0.004 A 
ATOM     20  C   UNL A   1      27.559  30.065  22.612  1.00  0.00     0.000 A 
ATOM     21  C   UNL A   1      29.871  29.582  22.165  1.00  0.00     0.014 A 
ATOM     22  C   UNL A   1      28.798  30.473  22.140  1.00  0.00     0.001 A 
ENDBRANCH  13  16
ENDBRANCH   7  12
BRANCH   9  23
ATOM     23  N   UNL A   1      31.684  25.374  25.902  1.00  0.00    -0.359 N 
ATOM     24  C   UNL A   1      30.585  24.477  26.356  1.00  0.00     0.178 C 
ATOM     25  C   UNL A   1      32.942  24.639  25.808  1.00  0.00     0.178 C 
ATOM     26  C   UNL A   1      30.663  23.025  25.713  1.00  0.00     0.284 C 
ATOM     27  C   UNL A   1      32.758  23.593  24.709  1.00  0.00     0.284 C 
ATOM     28  N   UNL A   1      31.957  22.490  25.218  1.00  0.00    -0.324 N 
ATOM     29  H   UNL A   1      31.700  21.844  24.471  1.00  0.00     0.348 HD
BRANCH  28  30
ATOM     30  C   UNL A   1      32.723  21.556  26.079  1.00  0.00     0.364 C 
BRANCH  30  31
ATOM     31  C   UNL A   1      33.224  20.251  25.461  1.00  0.00     0.279 C 
ATOM     32  O   UNL A   1      32.454  19.282  25.385  1.00  0.00    -0.268 OA
ATOM     33  N   UNL A   1      34.470  20.058  24.923  1.00  0.00    -0.321 N 
ATOM     34  H   UNL A   1      34.472  19.286  24.312  1.00  0.00     0.170 HD
BRANCH  33  35
ATOM     35  C   UNL A   1      35.751  20.650  24.992  1.00  0.00     0.041 A 
ATOM     36  C   UNL A   1      36.844  19.765  24.928  1.00  0.00     0.029 A 
ATOM     37  C   UNL A   1      36.030  21.991  25.236  1.00  0.00     0.029 A 
ATOM     38  C   UNL A   1      38.156  20.199  25.160  1.00  0.00     0.041 A 
ATOM     39  C   UNL A   1      37.334  22.423  25.533  1.00  0.00     0.041 A 
ATOM     40  C   UNL A   1      38.387  21.522  25.493  1.00  0.00     0.123 A 
ATOM     41  F   UNL A   1      39.631  21.935  25.769  1.00  0.00    -0.207 F 
ENDBRANCH  33  35
ENDBRANCH  30  31
ENDBRANCH  28  30
ENDBRANCH   9  23
ENDBRANCH   3   6
ENDBRANCH   1   2
BRANCH   1  42
ATOM     42  C   UNL A   1      34.931  32.487  28.650  1.00  0.00     0.042 C 
BRANCH  42  43
ATOM     43  C   UNL A   1      35.012  32.380  30.156  1.00  0.00     0.118 C 
BRANCH  43  44
ATOM     44  N   UNL A   1      34.014  33.164  30.884  1.00  0.00    -0.352 N 
ATOM     45  C   UNL A   1      34.172  33.773  32.125  1.00  0.00     0.251 C 
ATOM     46  H   UNL A   1      33.136  33.273  30.449  1.00  0.00     0.163 HD
ATOM     47  O   UNL A   1      33.296  34.445  32.629  1.00  0.00    -0.269 OA
BRANCH  45  48
ATOM     48  C   UNL A   1      35.519  33.677  32.743  1.00  0.00     0.039 A 
ATOM     49  C   UNL A   1      36.489  34.540  32.234  1.00  0.00     0.014 A 
ATOM     50  C   UNL A   1      35.869  32.497  33.395  1.00  0.00     0.014 A 
ATOM     51  C   UNL A   1      37.791  34.073  32.100  1.00  0.00     0.010 A 
ATOM     52  C   UNL A   1      37.138  31.994  33.172  1.00  0.00     0.010 A 
ATOM     53  C   UNL A   1      38.070  32.749  32.447  1.00  0.00    -0.014 A 
BRANCH  53  54
ATOM     54  C   UNL A   1      39.279  32.069  31.991  1.00  0.00     0.031 A 
ATOM     55  C   UNL A   1      39.161  30.838  31.191  1.00  0.00     0.074 A 
ATOM     56  C   UNL A   1      40.512  32.520  32.314  1.00  0.00     0.049 A 
ATOM     57  N   UNL A   1      40.021  29.876  31.203  1.00  0.00    -0.248 NA
ATOM     58  C   UNL A   1      38.006  30.577  30.347  1.00  0.00     0.031 C 
ATOM     59  C   UNL A   1      41.792  32.028  31.810  1.00  0.00     0.029 A 
ATOM     60  N   UNL A   1      40.860  33.374  33.367  1.00  0.00    -0.354 N 
ATOM     61  C   UNL A   1      39.697  29.019  30.177  1.00  0.00     0.074 A 
ATOM     62  C   UNL A   1      38.391  29.455  29.737  1.00  0.00     0.031 C 
ATOM     63  C   UNL A   1      42.747  32.311  32.708  1.00  0.00     0.029 A 
ATOM     64  C   UNL A   1      42.102  32.908  33.861  1.00  0.00     0.049 A 
ATOM     65  H   UNL A   1      40.344  34.145  33.697  1.00  0.00     0.167 HD
ATOM     66  C   UNL A   1      40.631  28.130  29.728  1.00  0.00     0.037 A 
ATOM     67  C   UNL A   1      42.224  32.490  35.154  1.00  0.00     0.037 A 
ATOM     68  C   UNL A   1      41.851  28.162  30.545  1.00  0.00     0.049 A 
ATOM     69  C   UNL A   1      42.566  31.022  35.305  1.00  0.00     0.074 A 
ATOM     70  C   UNL A   1      43.118  28.700  30.379  1.00  0.00     0.029 A 
ATOM     71  N   UNL A   1      41.775  27.800  31.880  1.00  0.00    -0.354 N 
ATOM     72  N   UNL A   1      42.789  30.202  34.315  1.00  0.00    -0.248 NA
ATOM     73  C   UNL A   1      42.570  30.340  36.602  1.00  0.00     0.031 C 
ATOM     74  C   UNL A   1      43.800  28.646  31.629  1.00  0.00     0.029 A 
ATOM     75  C   UNL A   1      42.947  28.081  32.558  1.00  0.00     0.049 A 
ATOM     76  H   UNL A   1      40.981  27.391  32.297  1.00  0.00     0.167 HD
ATOM     77  C   UNL A   1      42.880  28.921  34.799  1.00  0.00     0.074 A 
ATOM     78  C   UNL A   1      42.740  29.060  36.235  1.00  0.00     0.031 C 
ATOM     79  C   UNL A   1      43.011  27.828  33.989  1.00  0.00     0.037 A 
BRANCH  66  80
ATOM     80  C   UNL A   1      40.539  27.449  28.375  1.00  0.00     0.057 A 
ATOM     81  C   UNL A   1      39.877  26.215  28.229  1.00  0.00     0.134 A 
ATOM     82  C   UNL A   1      41.143  27.911  27.192  1.00  0.00     0.134 A 
ATOM     83  F   UNL A   1      39.117  25.702  29.204  1.00  0.00    -0.206 F 
ATOM     84  C   UNL A   1      39.952  25.439  27.062  1.00  0.00     0.040 A 
ATOM     85  C   UNL A   1      41.282  27.122  26.040  1.00  0.00     0.040 A 
ATOM     86  F   UNL A   1      41.556  29.176  27.061  1.00  0.00    -0.206 F 
ATOM     87  C   UNL A   1      40.703  25.867  25.980  1.00  0.00     0.006 A 
ENDBRANCH  66  80
BRANCH  67  88
ATOM     88  C   UNL A   1      41.365  33.277  36.077  1.00  0.00     0.057 A 
ATOM     89  C   UNL A   1      41.836  34.530  36.516  1.00  0.00     0.134 A 
ATOM     90  C   UNL A   1      39.996  33.035  36.193  1.00  0.00     0.134 A 
ATOM     91  F   UNL A   1      43.145  34.825  36.441  1.00  0.00    -0.206 F 
ATOM     92  C   UNL A   1      40.964  35.549  36.900  1.00  0.00     0.040 A 
ATOM     93  C   UNL A   1      39.117  34.041  36.603  1.00  0.00     0.040 A 
ATOM     94  F   UNL A   1      39.469  31.870  35.787  1.00  0.00    -0.206 F 
ATOM     95  C   UNL A   1      39.594  35.316  36.905  1.00  0.00     0.006 A 
ENDBRANCH  67  88
BRANCH  79  96
ATOM     96  C   UNL A   1      43.187  26.423  34.508  1.00  0.00     0.057 A 
ATOM     97  C   UNL A   1      44.409  25.736  34.441  1.00  0.00     0.134 A 
ATOM     98  C   UNL A   1      42.101  25.669  34.993  1.00  0.00     0.134 A 
ATOM     99  F   UNL A   1      45.497  26.307  33.903  1.00  0.00    -0.206 F 
ATOM    100  C   UNL A   1      44.558  24.420  34.897  1.00  0.00     0.040 A 
ATOM    101  C   UNL A   1      42.225  24.337  35.403  1.00  0.00     0.040 A 
ATOM    102  F   UNL A   1      40.872  26.191  35.106  1.00  0.00    -0.206 F 
ATOM    103  C   UNL A   1      43.462  23.714  35.375  1.00  0.00     0.006 A 
ENDBRANCH  79  96
ENDBRANCH  53  54
ENDBRANCH  45  48
ENDBRANCH  43  44
ENDBRANCH  42  43
ENDBRANCH   1  42
TORSDOF 16
ENDMDL
MODEL 3
REMARK VINA RESULT:     -14.0      2.645      4.202
REMARK SMILES Cc1ccccc1C(=O)Nc1cc(C(=O)NCCCNC(=O)c2ccc(-c3c4nc(c(-c5c(F)cccc5F)c5ccc([nH]5)c(-c5c(F)cccc5F)c5nc(c(-c6c(F)cccc6F)c6ccc3[nH]6)C=C5)C=C4)cc2)ccc1N1CC[NH+](CC(=O)Nc2ccc(F)cc2)CC1
REMARK SMILES IDX 17 1 16 2 14 3 15 4 13 6 11 7 12 8 79 9 78 10 77 11 10 12
REMARK SMILES IDX 8 13 9 14 7 16 1 17 2 18 3 19 4 20 6 21 5 22 80 23 81 24
REMARK SMILES IDX 96 25 82 26 95 27 83 28 84 30 85 31 86 32 87 33 88 35 89 36
REMARK SMILES IDX 94 37 90 38 93 39 91 40 92 41 18 42 19 43 20 44 21 45 22 47
REMARK SMILES IDX 23 48 24 49 76 50 25 51 75 52 26 53 27 54 28 55 69 56 29 57
REMARK SMILES IDX 74 58 68 59 70 60 30 61 73 62 67 63 66 64 31 66 57 67 40 68
REMARK SMILES IDX 56 69 41 70 44 71 55 72 71 73 42 74 43 75 54 77 72 78 45 79
REMARK SMILES IDX 32 80 33 81 38 82 34 83 35 84 37 85 39 86 36 87 58 88 59 89
REMARK SMILES IDX 64 90 60 91 61 92 63 93 65 94 62 95 46 96 47 97 52 98 48 99
REMARK SMILES IDX 49 100 51 101 53 102 50 103
REMARK H PARENT 16 5 10 15 83 29 87 34 20 46 70 65 44 76
REMARK Flexibility Score: inf
ROOT
ATOM      1  C   UNL A   1      34.367  31.426  27.828  1.00  0.00     0.118 C 
ENDROOT
BRANCH   1   2
ATOM      2  N   UNL A   1      33.106  31.852  27.216  1.00  0.00    -0.352 N 
ATOM      3  C   UNL A   1      32.011  31.178  26.706  1.00  0.00     0.251 C 
ATOM      4  O   UNL A   1      31.020  31.854  26.425  1.00  0.00    -0.269 OA
ATOM      5  H   UNL A   1      33.020  32.830  27.152  1.00  0.00     0.163 HD
BRANCH   3   6
ATOM      6  C   UNL A   1      31.950  29.705  26.465  1.00  0.00     0.042 A 
ATOM      7  C   UNL A   1      31.943  27.787  24.975  1.00  0.00     0.065 A 
ATOM      8  C   UNL A   1      32.002  29.154  25.205  1.00  0.00     0.042 A 
ATOM      9  C   UNL A   1      31.797  26.853  26.030  1.00  0.00     0.061 A 
ATOM     10  C   UNL A   1      31.726  27.413  27.317  1.00  0.00     0.029 A 
ATOM     11  C   UNL A   1      31.815  28.810  27.534  1.00  0.00     0.016 A 
BRANCH   7  12
ATOM     12  N   UNL A   1      32.000  27.375  23.636  1.00  0.00    -0.320 N 
ATOM     13  C   UNL A   1      31.151  27.641  22.578  1.00  0.00     0.255 C 
ATOM     14  O   UNL A   1      31.520  27.281  21.456  1.00  0.00    -0.269 OA
ATOM     15  H   UNL A   1      32.770  26.803  23.413  1.00  0.00     0.170 HD
BRANCH  13  16
ATOM     16  C   UNL A   1      29.823  28.327  22.685  1.00  0.00     0.043 A 
ATOM     17  C   UNL A   1      28.448  26.515  23.940  1.00  0.00     0.045 C 
ATOM     18  C   UNL A   1      28.623  27.837  23.245  1.00  0.00    -0.038 A 
ATOM     19  C   UNL A   1      27.464  28.644  23.183  1.00  0.00     0.004 A 
ATOM     20  C   UNL A   1      27.504  29.940  22.673  1.00  0.00     0.000 A 
ATOM     21  C   UNL A   1      29.846  29.656  22.211  1.00  0.00     0.014 A 
ATOM     22  C   UNL A   1      28.704  30.458  22.208  1.00  0.00     0.001 A 
ENDBRANCH  13  16
ENDBRANCH   7  12
BRANCH   9  23
ATOM     23  N   UNL A   1      31.792  25.480  25.817  1.00  0.00    -0.359 N 
ATOM     24  C   UNL A   1      30.876  24.514  26.485  1.00  0.00     0.178 C 
ATOM     25  C   UNL A   1      33.015  24.813  25.381  1.00  0.00     0.178 C 
ATOM     26  C   UNL A   1      30.851  23.091  25.777  1.00  0.00     0.284 C 
ATOM     27  C   UNL A   1      32.606  23.799  24.314  1.00  0.00     0.284 C 
ATOM     28  N   UNL A   1      32.001  22.639  24.953  1.00  0.00    -0.324 N 
ATOM     29  H   UNL A   1      31.592  22.008  24.264  1.00  0.00     0.348 HD
BRANCH  28  30
ATOM     30  C   UNL A   1      32.994  21.716  25.554  1.00  0.00     0.364 C 
BRANCH  30  31
ATOM     31  C   UNL A   1      34.132  21.205  24.671  1.00  0.00     0.279 C 
ATOM     32  O   UNL A   1      34.786  22.015  23.996  1.00  0.00    -0.268 OA
ATOM     33  N   UNL A   1      34.543  19.900  24.586  1.00  0.00    -0.321 N 
ATOM     34  H   UNL A   1      35.459  19.844  24.230  1.00  0.00     0.170 HD
BRANCH  33  35
ATOM     35  C   UNL A   1      34.029  18.613  24.865  1.00  0.00     0.041 A 
ATOM     36  C   UNL A   1      34.860  17.530  24.525  1.00  0.00     0.029 A 
ATOM     37  C   UNL A   1      32.751  18.316  25.325  1.00  0.00     0.029 A 
ATOM     38  C   UNL A   1      34.405  16.206  24.585  1.00  0.00     0.041 A 
ATOM     39  C   UNL A   1      32.264  16.997  25.329  1.00  0.00     0.041 A 
ATOM     40  C   UNL A   1      33.096  15.953  24.958  1.00  0.00     0.123 A 
ATOM     41  F   UNL A   1      32.636  14.695  24.967  1.00  0.00    -0.207 F 
ENDBRANCH  33  35
ENDBRANCH  30  31
ENDBRANCH  28  30
ENDBRANCH   9  23
ENDBRANCH   3   6
ENDBRANCH   1   2
BRANCH   1  42
ATOM     42  C   UNL A   1      35.085  32.528  28.624  1.00  0.00     0.042 C 
BRANCH  42  43
ATOM     43  C   UNL A   1      35.176  32.262  30.110  1.00  0.00     0.118 C 
BRANCH  43  44
ATOM     44  N   UNL A   1      34.147  32.917  30.917  1.00  0.00    -0.352 N 
ATOM     45  C   UNL A   1      34.316  33.514  32.162  1.00  0.00     0.251 C 
ATOM     46  H   UNL A   1      33.237  32.937  30.540  1.00  0.00     0.163 HD
ATOM     47  O   UNL A   1      33.406  34.076  32.736  1.00  0.00    -0.269 OA
BRANCH  45  48
ATOM     48  C   UNL A   1      35.702  33.554  32.695  1.00  0.00     0.039 A 
ATOM     49  C   UNL A   1      36.598  34.374  32.008  1.00  0.00     0.014 A 
ATOM     50  C   UNL A   1      36.145  32.490  33.476  1.00  0.00     0.014 A 
ATOM     51  C   UNL A   1      37.909  33.941  31.852  1.00  0.00     0.010 A 
ATOM     52  C   UNL A   1      37.420  32.008  33.237  1.00  0.00     0.010 A 
ATOM     53  C   UNL A   1      38.269  32.689  32.355  1.00  0.00    -0.014 A 
BRANCH  53  54
ATOM     54  C   UNL A   1      39.477  31.997  31.915  1.00  0.00     0.031 A 
ATOM     55  C   UNL A   1      39.358  30.787  31.083  1.00  0.00     0.074 A 
ATOM     56  C   UNL A   1      40.710  32.418  32.281  1.00  0.00     0.049 A 
ATOM     57  N   UNL A   1      40.200  29.810  31.095  1.00  0.00    -0.248 NA
ATOM     58  C   UNL A   1      38.222  30.567  30.203  1.00  0.00     0.031 C 
ATOM     59  C   UNL A   1      41.994  31.913  31.799  1.00  0.00     0.029 A 
ATOM     60  N   UNL A   1      41.045  33.240  33.362  1.00  0.00    -0.354 N 
ATOM     61  C   UNL A   1      39.889  28.983  30.041  1.00  0.00     0.074 A 
ATOM     62  C   UNL A   1      38.603  29.453  29.578  1.00  0.00     0.031 C 
ATOM     63  C   UNL A   1      42.929  32.158  32.729  1.00  0.00     0.029 A 
ATOM     64  C   UNL A   1      42.264  32.739  33.878  1.00  0.00     0.049 A 
ATOM     65  H   UNL A   1      40.534  34.013  33.697  1.00  0.00     0.167 HD
ATOM     66  C   UNL A   1      40.818  28.087  29.596  1.00  0.00     0.037 A 
ATOM     67  C   UNL A   1      42.344  32.289  35.163  1.00  0.00     0.037 A 
ATOM     68  C   UNL A   1      42.016  28.077  30.445  1.00  0.00     0.049 A 
ATOM     69  C   UNL A   1      42.655  30.812  35.289  1.00  0.00     0.074 A 
ATOM     70  C   UNL A   1      43.296  28.595  30.326  1.00  0.00     0.029 A 
ATOM     71  N   UNL A   1      41.897  27.686  31.769  1.00  0.00    -0.354 N 
ATOM     72  N   UNL A   1      42.890  30.011  34.286  1.00  0.00    -0.248 NA
ATOM     73  C   UNL A   1      42.613  30.100  36.569  1.00  0.00     0.031 C 
ATOM     74  C   UNL A   1      43.944  28.499  31.592  1.00  0.00     0.029 A 
ATOM     75  C   UNL A   1      43.056  27.929  32.484  1.00  0.00     0.049 A 
ATOM     76  H   UNL A   1      41.086  27.282  32.155  1.00  0.00     0.167 HD
ATOM     77  C   UNL A   1      42.945  28.717  34.741  1.00  0.00     0.074 A 
ATOM     78  C   UNL A   1      42.769  28.826  36.176  1.00  0.00     0.031 C 
ATOM     79  C   UNL A   1      43.077  27.642  33.909  1.00  0.00     0.037 A 
BRANCH  66  80
ATOM     80  C   UNL A   1      40.750  27.440  28.225  1.00  0.00     0.057 A 
ATOM     81  C   UNL A   1      40.062  26.227  28.031  1.00  0.00     0.134 A 
ATOM     82  C   UNL A   1      41.400  27.912  27.072  1.00  0.00     0.134 A 
ATOM     83  F   UNL A   1      39.259  25.712  28.971  1.00  0.00    -0.206 F 
ATOM     84  C   UNL A   1      40.152  25.476  26.849  1.00  0.00     0.040 A 
ATOM     85  C   UNL A   1      41.555  27.146  25.907  1.00  0.00     0.040 A 
ATOM     86  F   UNL A   1      41.850  29.169  26.982  1.00  0.00    -0.206 F 
ATOM     87  C   UNL A   1      40.946  25.909  25.800  1.00  0.00     0.006 A 
ENDBRANCH  66  80
BRANCH  67  88
ATOM     88  C   UNL A   1      41.476  33.071  36.082  1.00  0.00     0.057 A 
ATOM     89  C   UNL A   1      40.214  32.541  36.415  1.00  0.00     0.134 A 
ATOM     90  C   UNL A   1      41.996  34.056  36.923  1.00  0.00     0.134 A 
ATOM     91  F   UNL A   1      39.652  31.597  35.642  1.00  0.00    -0.206 F 
ATOM     92  C   UNL A   1      39.575  32.862  37.614  1.00  0.00     0.040 A 
ATOM     93  C   UNL A   1      41.350  34.404  38.113  1.00  0.00     0.040 A 
ATOM     94  F   UNL A   1      43.196  34.602  36.680  1.00  0.00    -0.206 F 
ATOM     95  C   UNL A   1      40.167  33.768  38.487  1.00  0.00     0.006 A 
ENDBRANCH  67  88
BRANCH  79  96
ATOM     96  C   UNL A   1      43.214  26.222  34.400  1.00  0.00     0.057 A 
ATOM     97  C   UNL A   1      44.386  25.469  34.228  1.00  0.00     0.134 A 
ATOM     98  C   UNL A   1      42.128  25.523  34.963  1.00  0.00     0.134 A 
ATOM     99  F   UNL A   1      45.458  25.985  33.610  1.00  0.00    -0.206 F 
ATOM    100  C   UNL A   1      44.495  24.140  34.659  1.00  0.00     0.040 A 
ATOM    101  C   UNL A   1      42.209  24.181  35.349  1.00  0.00     0.040 A 
ATOM    102  F   UNL A   1      40.944  26.112  35.180  1.00  0.00    -0.206 F 
ATOM    103  C   UNL A   1      43.403  23.489  35.216  1.00  0.00     0.006 A 
ENDBRANCH  79  96
ENDBRANCH  53  54
ENDBRANCH  45  48
ENDBRANCH  43  44
ENDBRANCH  42  43
ENDBRANCH   1  42
TORSDOF 16
ENDMDL
