MODEL 1
REMARK VINA RESULT:     -12.2      0.000      0.000
REMARK SMILES CS(=O)(=O)c1cc(F)ccc1N1CCC[C@@H](C(=O)NCCCNC(=O)c2ccc(-c3c4nc(c(-c5c(F)cccc5F)c5ccc([nH]5)c(-c5c(F)cccc5F)c5nc(c(-c6c(F)cccc6F)c6ccc3[nH]6)C=C5)C=C4)cc2)C1
REMARK SMILES IDX 21 1 20 2 19 3 17 4 18 5 16 7 12 8 13 9 80 10 14 11 15 12
REMARK SMILES IDX 11 13 5 14 6 15 7 16 10 17 8 18 9 19 2 20 1 21 3 22 4 23
REMARK SMILES IDX 22 24 23 25 24 26 25 28 26 29 27 30 79 31 28 32 78 33 29 34
REMARK SMILES IDX 30 35 31 36 72 37 32 38 77 39 71 40 73 41 33 42 76 43 70 44
REMARK SMILES IDX 69 45 34 47 60 48 43 49 59 50 44 51 47 52 58 53 74 54 45 55
REMARK SMILES IDX 46 56 57 58 75 59 48 60 35 61 36 62 41 63 37 64 38 65 40 66
REMARK SMILES IDX 42 67 39 68 61 69 62 70 67 71 63 72 64 73 66 74 68 75 65 76
REMARK SMILES IDX 49 77 50 78 55 79 51 80 52 81 54 82 56 83 53 84
REMARK H PARENT 19 6 23 27 73 46 47 57
REMARK Flexibility Score: inf
ROOT
ATOM      1  C   UNL A   1      32.244  27.932  27.085  1.00  0.00     0.042 C 
ENDROOT
BRANCH   1   2
ATOM      2  C   UNL A   1      32.192  26.671  26.224  1.00  0.00     0.117 C 
BRANCH   2   3
ATOM      3  N   UNL A   1      31.578  25.565  26.938  1.00  0.00    -0.356 N 
ATOM      4  C   UNL A   1      31.394  24.271  26.554  1.00  0.00     0.224 C 
ATOM      5  O   UNL A   1      30.698  23.552  27.270  1.00  0.00    -0.275 OA
ATOM      6  H   UNL A   1      31.243  25.785  27.837  1.00  0.00     0.163 HD
BRANCH   4   7
ATOM      7  C   UNL A   1      32.126  23.732  25.339  1.00  0.00     0.098 C 
ATOM      8  N   UNL A   1      33.129  21.655  24.517  1.00  0.00    -0.370 N 
ATOM      9  C   UNL A   1      32.365  21.639  23.269  1.00  0.00     0.116 C 
ATOM     10  C   UNL A   1      32.515  22.291  25.674  1.00  0.00     0.130 C 
ATOM     11  C   UNL A   1      31.955  23.070  22.911  1.00  0.00     0.022 C 
ATOM     12  C   UNL A   1      31.250  23.765  24.079  1.00  0.00     0.017 C 
BRANCH   8  13
ATOM     13  C   UNL A   1      34.334  20.995  24.597  1.00  0.00     0.056 A 
ATOM     14  C   UNL A   1      34.513  19.605  24.719  1.00  0.00     0.093 A 
ATOM     15  C   UNL A   1      35.805  19.059  24.852  1.00  0.00     0.061 A 
ATOM     16  C   UNL A   1      36.915  19.889  24.850  1.00  0.00     0.124 A 
ATOM     17  C   UNL A   1      35.495  21.798  24.580  1.00  0.00     0.030 A 
ATOM     18  F   UNL A   1      38.139  19.360  24.976  1.00  0.00    -0.207 F 
ATOM     19  C   UNL A   1      36.775  21.257  24.705  1.00  0.00     0.041 A 
BRANCH  14  20
ATOM     20  S   UNL A   1      33.184  18.424  24.539  1.00  0.00     0.177 S 
ATOM     21  C   UNL A   1      33.860  16.869  25.054  1.00  0.00     0.164 C 
ATOM     22  O   UNL A   1      32.923  18.299  23.113  1.00  0.00    -0.224 OA
ATOM     23  O   UNL A   1      32.098  18.784  25.431  1.00  0.00    -0.224 OA
ENDBRANCH  14  20
ENDBRANCH   8  13
ENDBRANCH   4   7
ENDBRANCH   2   3
ENDBRANCH   1   2
BRANCH   1  24
ATOM     24  C   UNL A   1      33.645  28.529  27.236  1.00  0.00     0.118 C 
BRANCH  24  25
ATOM     25  N   UNL A   1      33.622  29.929  27.630  1.00  0.00    -0.352 N 
ATOM     26  C   UNL A   1      34.585  30.695  28.241  1.00  0.00     0.251 C 
ATOM     27  H   UNL A   1      32.784  30.404  27.426  1.00  0.00     0.163 HD
ATOM     28  O   UNL A   1      34.300  31.824  28.630  1.00  0.00    -0.269 OA
BRANCH  26  29
ATOM     29  C   UNL A   1      35.951  30.171  28.455  1.00  0.00     0.039 A 
ATOM     30  C   UNL A   1      36.846  30.182  27.380  1.00  0.00     0.014 A 
ATOM     31  C   UNL A   1      36.343  29.631  29.685  1.00  0.00     0.014 A 
ATOM     32  C   UNL A   1      38.150  29.712  27.553  1.00  0.00     0.010 A 
ATOM     33  C   UNL A   1      37.660  29.210  29.870  1.00  0.00     0.010 A 
ATOM     34  C   UNL A   1      38.576  29.251  28.809  1.00  0.00    -0.014 A 
BRANCH  34  35
ATOM     35  C   UNL A   1      39.980  28.823  29.032  1.00  0.00     0.031 A 
ATOM     36  C   UNL A   1      40.971  29.756  29.665  1.00  0.00     0.074 A 
ATOM     37  C   UNL A   1      40.376  27.605  28.613  1.00  0.00     0.049 A 
ATOM     38  N   UNL A   1      42.254  29.588  29.861  1.00  0.00    -0.248 NA
ATOM     39  C   UNL A   1      40.457  31.056  30.124  1.00  0.00     0.031 C 
ATOM     40  C   UNL A   1      39.516  26.614  27.964  1.00  0.00     0.029 A 
ATOM     41  N   UNL A   1      41.604  26.997  28.667  1.00  0.00    -0.354 N 
ATOM     42  C   UNL A   1      42.704  30.762  30.450  1.00  0.00     0.074 A 
ATOM     43  C   UNL A   1      41.564  31.648  30.550  1.00  0.00     0.031 C 
ATOM     44  C   UNL A   1      40.238  25.512  27.704  1.00  0.00     0.029 A 
ATOM     45  C   UNL A   1      41.617  25.732  28.132  1.00  0.00     0.049 A 
ATOM     46  H   UNL A   1      42.402  27.427  29.053  1.00  0.00     0.167 HD
ATOM     47  C   UNL A   1      43.950  31.067  30.883  1.00  0.00     0.037 A 
ATOM     48  C   UNL A   1      42.625  24.851  27.997  1.00  0.00     0.037 A 
ATOM     49  C   UNL A   1      45.079  30.178  30.811  1.00  0.00     0.049 A 
ATOM     50  C   UNL A   1      43.999  25.215  28.476  1.00  0.00     0.074 A 
ATOM     51  C   UNL A   1      46.372  30.389  31.260  1.00  0.00     0.029 A 
ATOM     52  N   UNL A   1      45.049  28.907  30.259  1.00  0.00    -0.354 N 
ATOM     53  N   UNL A   1      44.405  26.323  29.047  1.00  0.00    -0.248 NA
ATOM     54  C   UNL A   1      45.056  24.212  28.289  1.00  0.00     0.031 C 
ATOM     55  C   UNL A   1      47.131  29.253  30.958  1.00  0.00     0.029 A 
ATOM     56  C   UNL A   1      46.302  28.324  30.348  1.00  0.00     0.049 A 
ATOM     57  H   UNL A   1      44.255  28.482  29.864  1.00  0.00     0.167 HD
ATOM     58  C   UNL A   1      45.757  26.145  29.304  1.00  0.00     0.074 A 
ATOM     59  C   UNL A   1      46.103  24.819  28.834  1.00  0.00     0.031 C 
ATOM     60  C   UNL A   1      46.632  27.004  29.879  1.00  0.00     0.037 A 
BRANCH  47  61
ATOM     61  C   UNL A   1      44.159  32.424  31.485  1.00  0.00     0.057 A 
ATOM     62  C   UNL A   1      43.956  32.640  32.852  1.00  0.00     0.134 A 
ATOM     63  C   UNL A   1      44.514  33.527  30.698  1.00  0.00     0.134 A 
ATOM     64  F   UNL A   1      43.610  31.626  33.659  1.00  0.00    -0.206 F 
ATOM     65  C   UNL A   1      44.095  33.910  33.418  1.00  0.00     0.040 A 
ATOM     66  C   UNL A   1      44.676  34.796  31.255  1.00  0.00     0.040 A 
ATOM     67  F   UNL A   1      44.734  33.380  29.383  1.00  0.00    -0.206 F 
ATOM     68  C   UNL A   1      44.458  34.992  32.617  1.00  0.00     0.006 A 
ENDBRANCH  47  61
BRANCH  48  69
ATOM     69  C   UNL A   1      42.357  23.519  27.404  1.00  0.00     0.057 A 
ATOM     70  C   UNL A   1      42.012  22.418  28.196  1.00  0.00     0.134 A 
ATOM     71  C   UNL A   1      42.466  23.316  26.024  1.00  0.00     0.134 A 
ATOM     72  F   UNL A   1      41.898  22.550  29.526  1.00  0.00    -0.206 F 
ATOM     73  C   UNL A   1      41.798  21.158  27.638  1.00  0.00     0.040 A 
ATOM     74  C   UNL A   1      42.240  22.065  25.450  1.00  0.00     0.040 A 
ATOM     75  F   UNL A   1      42.778  24.340  25.215  1.00  0.00    -0.206 F 
ATOM     76  C   UNL A   1      41.910  20.979  26.261  1.00  0.00     0.006 A 
ENDBRANCH  48  69
BRANCH  60  77
ATOM     77  C   UNL A   1      48.044  26.537  30.051  1.00  0.00     0.057 A 
ATOM     78  C   UNL A   1      48.442  25.883  31.224  1.00  0.00     0.134 A 
ATOM     79  C   UNL A   1      49.024  26.795  29.085  1.00  0.00     0.134 A 
ATOM     80  F   UNL A   1      47.549  25.613  32.188  1.00  0.00    -0.206 F 
ATOM     81  C   UNL A   1      49.769  25.509  31.433  1.00  0.00     0.040 A 
ATOM     82  C   UNL A   1      50.352  26.411  29.277  1.00  0.00     0.040 A 
ATOM     83  F   UNL A   1      48.701  27.409  27.937  1.00  0.00    -0.206 F 
ATOM     84  C   UNL A   1      50.729  25.772  30.458  1.00  0.00     0.006 A 
ENDBRANCH  60  77
ENDBRANCH  34  35
ENDBRANCH  26  29
ENDBRANCH  24  25
ENDBRANCH   1  24
TORSDOF 12
ENDMDL
MODEL 2
REMARK VINA RESULT:     -11.8      1.170      2.038
REMARK SMILES CS(=O)(=O)c1cc(F)ccc1N1CCC[C@@H](C(=O)NCCCNC(=O)c2ccc(-c3c4nc(c(-c5c(F)cccc5F)c5ccc([nH]5)c(-c5c(F)cccc5F)c5nc(c(-c6c(F)cccc6F)c6ccc3[nH]6)C=C5)C=C4)cc2)C1
REMARK SMILES IDX 21 1 20 2 19 3 17 4 18 5 16 7 12 8 13 9 80 10 14 11 15 12
REMARK SMILES IDX 11 13 5 14 6 15 7 16 10 17 8 18 9 19 2 20 1 21 3 22 4 23
REMARK SMILES IDX 22 24 23 25 24 26 25 28 26 29 27 30 79 31 28 32 78 33 29 34
REMARK SMILES IDX 30 35 31 36 72 37 32 38 77 39 71 40 73 41 33 42 76 43 70 44
REMARK SMILES IDX 69 45 34 47 60 48 43 49 59 50 44 51 47 52 58 53 74 54 45 55
REMARK SMILES IDX 46 56 57 58 75 59 48 60 35 61 36 62 41 63 37 64 38 65 40 66
REMARK SMILES IDX 42 67 39 68 61 69 62 70 67 71 63 72 64 73 66 74 68 75 65 76
REMARK SMILES IDX 49 77 50 78 55 79 51 80 52 81 54 82 56 83 53 84
REMARK H PARENT 19 6 23 27 73 46 47 57
REMARK Flexibility Score: inf
ROOT
ATOM      1  C   UNL A   1      32.711  27.805  26.768  1.00  0.00     0.042 C 
ENDROOT
BRANCH   1   2
ATOM      2  C   UNL A   1      32.830  26.404  26.170  1.00  0.00     0.117 C 
BRANCH   2   3
ATOM      3  N   UNL A   1      31.986  25.453  26.871  1.00  0.00    -0.356 N 
ATOM      4  C   UNL A   1      31.573  24.209  26.497  1.00  0.00     0.224 C 
ATOM      5  O   UNL A   1      30.722  23.653  27.191  1.00  0.00    -0.275 OA
ATOM      6  H   UNL A   1      31.661  25.753  27.751  1.00  0.00     0.163 HD
BRANCH   4   7
ATOM      7  C   UNL A   1      32.238  23.513  25.325  1.00  0.00     0.098 C 
ATOM      8  N   UNL A   1      32.312  21.321  24.236  1.00  0.00    -0.370 N 
ATOM      9  C   UNL A   1      31.964  21.833  22.911  1.00  0.00     0.116 C 
ATOM     10  C   UNL A   1      31.807  22.046  25.393  1.00  0.00     0.130 C 
ATOM     11  C   UNL A   1      32.378  23.304  22.814  1.00  0.00     0.022 C 
ATOM     12  C   UNL A   1      31.821  24.126  23.981  1.00  0.00     0.017 C 
BRANCH   8  13
ATOM     13  C   UNL A   1      33.002  20.137  24.359  1.00  0.00     0.056 A 
ATOM     14  C   UNL A   1      34.382  19.999  24.598  1.00  0.00     0.093 A 
ATOM     15  C   UNL A   1      34.976  18.723  24.644  1.00  0.00     0.061 A 
ATOM     16  C   UNL A   1      34.202  17.587  24.468  1.00  0.00     0.124 A 
ATOM     17  C   UNL A   1      32.251  18.951  24.207  1.00  0.00     0.030 A 
ATOM     18  F   UNL A   1      34.777  16.378  24.515  1.00  0.00    -0.207 F 
ATOM     19  C   UNL A   1      32.839  17.686  24.260  1.00  0.00     0.041 A 
BRANCH  14  20
ATOM     20  S   UNL A   1      35.445  21.369  25.031  1.00  0.00     0.177 S 
ATOM     21  C   UNL A   1      37.091  20.715  25.006  1.00  0.00     0.164 C 
ATOM     22  O   UNL A   1      35.161  21.697  26.420  1.00  0.00    -0.224 OA
ATOM     23  O   UNL A   1      35.332  22.402  24.020  1.00  0.00    -0.224 OA
ENDBRANCH  14  20
ENDBRANCH   8  13
ENDBRANCH   4   7
ENDBRANCH   2   3
ENDBRANCH   1   2
BRANCH   1  24
ATOM     24  C   UNL A   1      34.032  28.575  26.825  1.00  0.00     0.118 C 
BRANCH  24  25
ATOM     25  N   UNL A   1      33.917  29.839  27.537  1.00  0.00    -0.352 N 
ATOM     26  C   UNL A   1      34.816  30.483  28.351  1.00  0.00     0.251 C 
ATOM     27  H   UNL A   1      33.059  30.307  27.416  1.00  0.00     0.163 HD
ATOM     28  O   UNL A   1      34.456  31.472  28.983  1.00  0.00    -0.269 OA
BRANCH  26  29
ATOM     29  C   UNL A   1      36.204  29.991  28.493  1.00  0.00     0.039 A 
ATOM     30  C   UNL A   1      37.078  30.138  27.410  1.00  0.00     0.014 A 
ATOM     31  C   UNL A   1      36.637  29.349  29.657  1.00  0.00     0.014 A 
ATOM     32  C   UNL A   1      38.400  29.701  27.517  1.00  0.00     0.010 A 
ATOM     33  C   UNL A   1      37.971  28.959  29.781  1.00  0.00     0.010 A 
ATOM     34  C   UNL A   1      38.865  29.136  28.715  1.00  0.00    -0.014 A 
BRANCH  34  35
ATOM     35  C   UNL A   1      40.287  28.739  28.874  1.00  0.00     0.031 A 
ATOM     36  C   UNL A   1      41.292  29.707  29.427  1.00  0.00     0.074 A 
ATOM     37  C   UNL A   1      40.683  27.517  28.468  1.00  0.00     0.049 A 
ATOM     38  N   UNL A   1      42.587  29.567  29.558  1.00  0.00    -0.248 NA
ATOM     39  C   UNL A   1      40.779  31.010  29.877  1.00  0.00     0.031 C 
ATOM     40  C   UNL A   1      39.810  26.493  27.893  1.00  0.00     0.029 A 
ATOM     41  N   UNL A   1      41.924  26.933  28.472  1.00  0.00    -0.354 N 
ATOM     42  C   UNL A   1      43.045  30.766  30.090  1.00  0.00     0.074 A 
ATOM     43  C   UNL A   1      41.895  31.634  30.227  1.00  0.00     0.031 C 
ATOM     44  C   UNL A   1      40.538  25.397  27.624  1.00  0.00     0.029 A 
ATOM     45  C   UNL A   1      41.932  25.654  27.972  1.00  0.00     0.049 A 
ATOM     46  H   UNL A   1      42.733  27.387  28.803  1.00  0.00     0.167 HD
ATOM     47  C   UNL A   1      44.306  31.104  30.447  1.00  0.00     0.037 A 
ATOM     48  C   UNL A   1      42.948  24.787  27.807  1.00  0.00     0.037 A 
ATOM     49  C   UNL A   1      45.446  30.234  30.338  1.00  0.00     0.049 A 
ATOM     50  C   UNL A   1      44.339  25.189  28.201  1.00  0.00     0.074 A 
ATOM     51  C   UNL A   1      46.757  30.480  30.712  1.00  0.00     0.029 A 
ATOM     52  N   UNL A   1      45.411  28.947  29.824  1.00  0.00    -0.354 N 
ATOM     53  N   UNL A   1      44.753  26.319  28.719  1.00  0.00    -0.248 NA
ATOM     54  C   UNL A   1      45.404  24.200  27.985  1.00  0.00     0.031 C 
ATOM     55  C   UNL A   1      47.520  29.349  30.400  1.00  0.00     0.029 A 
ATOM     56  C   UNL A   1      46.679  28.390  29.861  1.00  0.00     0.049 A 
ATOM     57  H   UNL A   1      44.605  28.497  29.483  1.00  0.00     0.167 HD
ATOM     58  C   UNL A   1      46.120  26.172  28.908  1.00  0.00     0.074 A 
ATOM     59  C   UNL A   1      46.466  24.840  28.456  1.00  0.00     0.031 C 
ATOM     60  C   UNL A   1      47.008  27.063  29.412  1.00  0.00     0.037 A 
BRANCH  47  61
ATOM     61  C   UNL A   1      44.521  32.481  31.000  1.00  0.00     0.057 A 
ATOM     62  C   UNL A   1      44.849  33.549  30.157  1.00  0.00     0.134 A 
ATOM     63  C   UNL A   1      44.450  32.737  32.376  1.00  0.00     0.134 A 
ATOM     64  F   UNL A   1      44.937  33.368  28.831  1.00  0.00    -0.206 F 
ATOM     65  C   UNL A   1      45.105  34.825  30.663  1.00  0.00     0.040 A 
ATOM     66  C   UNL A   1      44.684  34.012  32.891  1.00  0.00     0.040 A 
ATOM     67  F   UNL A   1      44.129  31.757  33.232  1.00  0.00    -0.206 F 
ATOM     68  C   UNL A   1      45.020  35.059  32.035  1.00  0.00     0.006 A 
ENDBRANCH  47  61
BRANCH  48  69
ATOM     69  C   UNL A   1      42.675  23.434  27.265  1.00  0.00     0.057 A 
ATOM     70  C   UNL A   1      42.734  23.166  25.893  1.00  0.00     0.134 A 
ATOM     71  C   UNL A   1      42.321  22.382  28.117  1.00  0.00     0.134 A 
ATOM     72  F   UNL A   1      43.061  24.137  25.028  1.00  0.00    -0.206 F 
ATOM     73  C   UNL A   1      42.438  21.901  25.385  1.00  0.00     0.040 A 
ATOM     74  C   UNL A   1      42.038  21.108  27.624  1.00  0.00     0.040 A 
ATOM     75  F   UNL A   1      42.265  22.578  29.443  1.00  0.00    -0.206 F 
ATOM     76  C   UNL A   1      42.091  20.868  26.252  1.00  0.00     0.006 A 
ENDBRANCH  48  69
BRANCH  60  77
ATOM     77  C   UNL A   1      48.436  26.626  29.520  1.00  0.00     0.057 A 
ATOM     78  C   UNL A   1      48.892  25.953  30.660  1.00  0.00     0.134 A 
ATOM     79  C   UNL A   1      49.373  26.930  28.526  1.00  0.00     0.134 A 
ATOM     80  F   UNL A   1      48.043  25.639  31.650  1.00  0.00    -0.206 F 
ATOM     81  C   UNL A   1      50.235  25.607  30.812  1.00  0.00     0.040 A 
ATOM     82  C   UNL A   1      50.716  26.574  28.659  1.00  0.00     0.040 A 
ATOM     83  F   UNL A   1      48.994  27.564  27.406  1.00  0.00    -0.206 F 
ATOM     84  C   UNL A   1      51.151  25.916  29.809  1.00  0.00     0.006 A 
ENDBRANCH  60  77
ENDBRANCH  34  35
ENDBRANCH  26  29
ENDBRANCH  24  25
ENDBRANCH   1  24
TORSDOF 12
ENDMDL
MODEL 3
REMARK VINA RESULT:     -11.8      1.972      2.550
REMARK SMILES CS(=O)(=O)c1cc(F)ccc1N1CCC[C@@H](C(=O)NCCCNC(=O)c2ccc(-c3c4nc(c(-c5c(F)cccc5F)c5ccc([nH]5)c(-c5c(F)cccc5F)c5nc(c(-c6c(F)cccc6F)c6ccc3[nH]6)C=C5)C=C4)cc2)C1
REMARK SMILES IDX 21 1 20 2 19 3 17 4 18 5 16 7 12 8 13 9 80 10 14 11 15 12
REMARK SMILES IDX 11 13 5 14 6 15 7 16 10 17 8 18 9 19 2 20 1 21 3 22 4 23
REMARK SMILES IDX 22 24 23 25 24 26 25 28 26 29 27 30 79 31 28 32 78 33 29 34
REMARK SMILES IDX 30 35 31 36 72 37 32 38 77 39 71 40 73 41 33 42 76 43 70 44
REMARK SMILES IDX 69 45 34 47 60 48 43 49 59 50 44 51 47 52 58 53 74 54 45 55
REMARK SMILES IDX 46 56 57 58 75 59 48 60 35 61 36 62 41 63 37 64 38 65 40 66
REMARK SMILES IDX 42 67 39 68 61 69 62 70 67 71 63 72 64 73 66 74 68 75 65 76
REMARK SMILES IDX 49 77 50 78 55 79 51 80 52 81 54 82 56 83 53 84
REMARK H PARENT 19 6 23 27 73 46 47 57
REMARK Flexibility Score: inf
ROOT
ATOM      1  C   UNL A   1      33.160  27.921  26.859  1.00  0.00     0.042 C 
ENDROOT
BRANCH   1   2
ATOM      2  C   UNL A   1      31.754  27.900  26.262  1.00  0.00     0.117 C 
BRANCH   2   3
ATOM      3  N   UNL A   1      31.011  26.728  26.691  1.00  0.00    -0.356 N 
ATOM      4  C   UNL A   1      30.913  25.496  26.115  1.00  0.00     0.224 C 
ATOM      5  O   UNL A   1      30.089  24.709  26.579  1.00  0.00    -0.275 OA
ATOM      6  H   UNL A   1      30.500  26.840  27.525  1.00  0.00     0.163 HD
BRANCH   4   7
ATOM      7  C   UNL A   1      31.878  25.098  25.014  1.00  0.00     0.098 C 
ATOM      8  N   UNL A   1      32.961  23.104  24.094  1.00  0.00    -0.370 N 
ATOM      9  C   UNL A   1      32.495  23.335  22.727  1.00  0.00     0.116 C 
ATOM     10  C   UNL A   1      32.128  23.598  25.182  1.00  0.00     0.130 C 
ATOM     11  C   UNL A   1      32.229  24.830  22.530  1.00  0.00     0.022 C 
ATOM     12  C   UNL A   1      31.307  25.388  23.619  1.00  0.00     0.017 C 
BRANCH   8  13
ATOM     13  C   UNL A   1      34.091  22.353  24.322  1.00  0.00     0.056 A 
ATOM     14  C   UNL A   1      34.132  20.971  24.582  1.00  0.00     0.093 A 
ATOM     15  C   UNL A   1      35.356  20.331  24.857  1.00  0.00     0.061 A 
ATOM     16  C   UNL A   1      36.537  21.056  24.858  1.00  0.00     0.124 A 
ATOM     17  C   UNL A   1      35.321  23.046  24.314  1.00  0.00     0.030 A 
ATOM     18  F   UNL A   1      37.696  20.438  25.120  1.00  0.00    -0.207 F 
ATOM     19  C   UNL A   1      36.534  22.411  24.579  1.00  0.00     0.041 A 
BRANCH  14  20
ATOM     20  S   UNL A   1      32.712  19.898  24.418  1.00  0.00     0.177 S 
ATOM     21  C   UNL A   1      33.308  18.268  24.776  1.00  0.00     0.164 C 
ATOM     22  O   UNL A   1      32.350  19.895  23.008  1.00  0.00    -0.224 OA
ATOM     23  O   UNL A   1      31.717  20.264  25.406  1.00  0.00    -0.224 OA
ENDBRANCH  14  20
ENDBRANCH   8  13
ENDBRANCH   4   7
ENDBRANCH   2   3
ENDBRANCH   1   2
BRANCH   1  24
ATOM     24  C   UNL A   1      34.095  28.951  26.222  1.00  0.00     0.118 C 
BRANCH  24  25
ATOM     25  N   UNL A   1      33.857  30.303  26.706  1.00  0.00    -0.352 N 
ATOM     26  C   UNL A   1      34.536  31.041  27.644  1.00  0.00     0.251 C 
ATOM     27  H   UNL A   1      33.087  30.761  26.296  1.00  0.00     0.163 HD
ATOM     28  O   UNL A   1      34.069  32.113  28.020  1.00  0.00    -0.269 OA
BRANCH  26  29
ATOM     29  C   UNL A   1      35.808  30.555  28.220  1.00  0.00     0.039 A 
ATOM     30  C   UNL A   1      35.759  29.763  29.372  1.00  0.00     0.014 A 
ATOM     31  C   UNL A   1      37.043  30.908  27.667  1.00  0.00     0.014 A 
ATOM     32  C   UNL A   1      36.941  29.273  29.933  1.00  0.00     0.010 A 
ATOM     33  C   UNL A   1      38.219  30.375  28.197  1.00  0.00     0.010 A 
ATOM     34  C   UNL A   1      38.179  29.549  29.330  1.00  0.00    -0.014 A 
BRANCH  34  35
ATOM     35  C   UNL A   1      39.436  28.971  29.865  1.00  0.00     0.031 A 
ATOM     36  C   UNL A   1      40.089  29.559  31.083  1.00  0.00     0.074 A 
ATOM     37  C   UNL A   1      40.021  27.943  29.220  1.00  0.00     0.049 A 
ATOM     38  N   UNL A   1      41.229  29.243  31.642  1.00  0.00    -0.248 NA
ATOM     39  C   UNL A   1      39.376  30.658  31.751  1.00  0.00     0.031 C 
ATOM     40  C   UNL A   1      39.500  27.297  28.014  1.00  0.00     0.029 A 
ATOM     41  N   UNL A   1      41.184  27.267  29.485  1.00  0.00    -0.354 N 
ATOM     42  C   UNL A   1      41.378  30.111  32.715  1.00  0.00     0.074 A 
ATOM     43  C   UNL A   1      40.228  30.989  32.710  1.00  0.00     0.031 C 
ATOM     44  C   UNL A   1      40.328  26.300  27.660  1.00  0.00     0.029 A 
ATOM     45  C   UNL A   1      41.454  26.262  28.589  1.00  0.00     0.049 A 
ATOM     46  H   UNL A   1      41.771  27.481  30.247  1.00  0.00     0.167 HD
ATOM     47  C   UNL A   1      42.374  30.160  33.631  1.00  0.00     0.037 A 
ATOM     48  C   UNL A   1      42.493  25.409  28.518  1.00  0.00     0.037 A 
ATOM     49  C   UNL A   1      43.505  29.270  33.655  1.00  0.00     0.049 A 
ATOM     50  C   UNL A   1      43.590  25.489  29.539  1.00  0.00     0.074 A 
ATOM     51  C   UNL A   1      44.544  29.222  34.569  1.00  0.00     0.029 A 
ATOM     52  N   UNL A   1      43.740  28.268  32.727  1.00  0.00    -0.354 N 
ATOM     53  N   UNL A   1      43.707  26.304  30.558  1.00  0.00    -0.248 NA
ATOM     54  C   UNL A   1      44.699  24.536  29.399  1.00  0.00     0.031 C 
ATOM     55  C   UNL A   1      45.423  28.205  34.179  1.00  0.00     0.029 A 
ATOM     56  C   UNL A   1      44.914  27.602  33.040  1.00  0.00     0.049 A 
ATOM     57  H   UNL A   1      43.160  28.061  31.960  1.00  0.00     0.167 HD
ATOM     58  C   UNL A   1      44.891  25.953  31.191  1.00  0.00     0.074 A 
ATOM     59  C   UNL A   1      45.453  24.845  30.446  1.00  0.00     0.031 C 
ATOM     60  C   UNL A   1      45.460  26.500  32.293  1.00  0.00     0.037 A 
BRANCH  47  61
ATOM     61  C   UNL A   1      42.283  31.212  34.695  1.00  0.00     0.057 A 
ATOM     62  C   UNL A   1      41.603  30.964  35.892  1.00  0.00     0.134 A 
ATOM     63  C   UNL A   1      42.829  32.490  34.510  1.00  0.00     0.134 A 
ATOM     64  F   UNL A   1      41.054  29.763  36.128  1.00  0.00    -0.206 F 
ATOM     65  C   UNL A   1      41.464  31.952  36.870  1.00  0.00     0.040 A 
ATOM     66  C   UNL A   1      42.714  33.478  35.487  1.00  0.00     0.040 A 
ATOM     67  F   UNL A   1      43.502  32.784  33.388  1.00  0.00    -0.206 F 
ATOM     68  C   UNL A   1      42.023  33.213  36.668  1.00  0.00     0.006 A 
ENDBRANCH  47  61
BRANCH  48  69
ATOM     69  C   UNL A   1      42.524  24.381  27.450  1.00  0.00     0.057 A 
ATOM     70  C   UNL A   1      42.042  23.085  27.664  1.00  0.00     0.134 A 
ATOM     71  C   UNL A   1      43.065  24.673  26.193  1.00  0.00     0.134 A 
ATOM     72  F   UNL A   1      41.519  22.745  28.851  1.00  0.00    -0.206 F 
ATOM     73  C   UNL A   1      42.110  22.110  26.669  1.00  0.00     0.040 A 
ATOM     74  C   UNL A   1      43.123  23.713  25.183  1.00  0.00     0.040 A 
ATOM     75  F   UNL A   1      43.526  25.905  25.927  1.00  0.00    -0.206 F 
ATOM     76  C   UNL A   1      42.650  22.424  25.423  1.00  0.00     0.006 A 
ENDBRANCH  48  69
BRANCH  60  77
ATOM     77  C   UNL A   1      46.745  25.902  32.773  1.00  0.00     0.057 A 
ATOM     78  C   UNL A   1      47.970  26.313  32.232  1.00  0.00     0.134 A 
ATOM     79  C   UNL A   1      46.765  24.874  33.723  1.00  0.00     0.134 A 
ATOM     80  F   UNL A   1      48.014  27.290  31.314  1.00  0.00    -0.206 F 
ATOM     81  C   UNL A   1      49.171  25.714  32.613  1.00  0.00     0.040 A 
ATOM     82  C   UNL A   1      47.962  24.278  34.123  1.00  0.00     0.040 A 
ATOM     83  F   UNL A   1      45.625  24.444  34.284  1.00  0.00    -0.206 F 
ATOM     84  C   UNL A   1      49.169  24.694  33.562  1.00  0.00     0.006 A 
ENDBRANCH  60  77
ENDBRANCH  34  35
ENDBRANCH  26  29
ENDBRANCH  24  25
ENDBRANCH   1  24
TORSDOF 12
ENDMDL
