MODEL 1
REMARK VINA RESULT:     -10.9      0.000      0.000
REMARK SMILES C[C@@H](NC(=O)N1CC[N@@H+]2CCCC[C@H]2C1)C(=O)NCCCNC(=O)c1ccc(-c2c3nc(c(-c4c(F)cccc4F)c4ccc([nH]4)c(-c4c(F)cccc4F)c4nc(c(-c5c(F)cccc5F)c5ccc2[nH]5)C=C4)C=C3)cc1
REMARK SMILES IDX 20 1 19 2 18 3 16 4 17 5 2 7 1 8 3 9 4 10 5 12 6 13 7 14
REMARK SMILES IDX 15 15 8 16 14 17 9 18 13 19 10 20 12 22 11 23 21 24 22 25
REMARK SMILES IDX 23 26 24 28 25 29 26 30 78 31 27 32 77 33 28 34 29 35 30 36
REMARK SMILES IDX 71 37 31 38 76 39 70 40 72 41 32 42 75 43 69 44 68 45 33 47
REMARK SMILES IDX 59 48 42 49 58 50 43 51 46 52 57 53 73 54 44 55 45 56 56 58
REMARK SMILES IDX 74 59 47 60 34 61 35 62 40 63 36 64 37 65 39 66 41 67 38 68
REMARK SMILES IDX 60 69 61 70 66 71 62 72 63 73 65 74 67 75 64 76 48 77 49 78
REMARK SMILES IDX 54 79 50 80 51 81 53 82 55 83 52 84
REMARK H PARENT 18 6 3 11 9 21 22 27 72 46 46 57
REMARK Flexibility Score: inf
ROOT
ATOM      1  C   UNL A   1      40.868  20.742  27.215  1.00  0.00     0.042 C 
ENDROOT
BRANCH   1   2
ATOM      2  C   UNL A   1      42.330  20.326  27.315  1.00  0.00     0.117 C 
BRANCH   2   3
ATOM      3  N   UNL A   1      42.640  19.196  26.457  1.00  0.00    -0.354 N 
ATOM      4  C   UNL A   1      43.682  19.030  25.595  1.00  0.00     0.242 C 
ATOM      5  O   UNL A   1      43.686  17.998  24.915  1.00  0.00    -0.273 OA
ATOM      6  H   UNL A   1      42.008  18.443  26.506  1.00  0.00     0.163 HD
BRANCH   4   7
ATOM      7  C   UNL A   1      44.714  20.141  25.314  1.00  0.00     0.170 C 
ATOM      8  C   UNL A   1      46.089  19.465  25.299  1.00  0.00     0.041 C 
BRANCH   7   9
ATOM      9  N   UNL A   1      44.533  20.918  24.093  1.00  0.00    -0.326 N 
ATOM     10  C   UNL A   1      44.618  22.234  23.810  1.00  0.00     0.318 C 
ATOM     11  H   UNL A   1      44.301  20.365  23.311  1.00  0.00     0.166 HD
ATOM     12  O   UNL A   1      44.287  22.563  22.669  1.00  0.00    -0.249 OA
BRANCH  10  13
ATOM     13  N   UNL A   1      44.853  23.147  24.790  1.00  0.00    -0.313 N 
ATOM     14  C   UNL A   1      46.024  24.009  24.943  1.00  0.00     0.183 C 
ATOM     15  C   UNL A   1      43.732  23.566  25.631  1.00  0.00     0.186 C 
ATOM     16  C   UNL A   1      46.441  24.169  26.423  1.00  0.00     0.284 C 
ATOM     17  C   UNL A   1      44.176  23.543  27.109  1.00  0.00     0.203 C 
ATOM     18  N   UNL A   1      45.327  24.446  27.362  1.00  0.00    -0.330 N 
ATOM     19  C   UNL A   1      43.009  23.912  28.032  1.00  0.00     0.067 C 
ATOM     20  C   UNL A   1      45.798  24.300  28.750  1.00  0.00     0.262 C 
ATOM     21  H   UNL A   1      45.010  25.404  27.213  1.00  0.00     0.348 HD
ATOM     22  C   UNL A   1      43.433  23.785  29.491  1.00  0.00     0.012 C 
ATOM     23  C   UNL A   1      44.692  24.598  29.764  1.00  0.00     0.062 C 
ENDBRANCH  10  13
ENDBRANCH   7   9
ENDBRANCH   4   7
ENDBRANCH   2   3
ENDBRANCH   1   2
BRANCH   1  24
ATOM     24  C   UNL A   1      40.584  21.715  26.076  1.00  0.00     0.118 C 
BRANCH  24  25
ATOM     25  N   UNL A   1      39.175  22.060  25.933  1.00  0.00    -0.352 N 
ATOM     26  C   UNL A   1      38.570  23.261  26.236  1.00  0.00     0.251 C 
ATOM     27  H   UNL A   1      38.588  21.355  25.579  1.00  0.00     0.163 HD
ATOM     28  O   UNL A   1      37.358  23.405  26.121  1.00  0.00    -0.269 OA
BRANCH  26  29
ATOM     29  C   UNL A   1      39.404  24.360  26.764  1.00  0.00     0.039 A 
ATOM     30  C   UNL A   1      40.127  25.145  25.862  1.00  0.00     0.014 A 
ATOM     31  C   UNL A   1      39.372  24.682  28.122  1.00  0.00     0.014 A 
ATOM     32  C   UNL A   1      40.723  26.326  26.306  1.00  0.00     0.010 A 
ATOM     33  C   UNL A   1      39.922  25.881  28.554  1.00  0.00     0.010 A 
ATOM     34  C   UNL A   1      40.570  26.729  27.642  1.00  0.00    -0.014 A 
BRANCH  34  35
ATOM     35  C   UNL A   1      40.992  28.071  28.101  1.00  0.00     0.031 A 
ATOM     36  C   UNL A   1      42.447  28.413  28.196  1.00  0.00     0.074 A 
ATOM     37  C   UNL A   1      40.055  28.926  28.555  1.00  0.00     0.049 A 
ATOM     38  N   UNL A   1      43.012  29.480  28.697  1.00  0.00    -0.248 NA
ATOM     39  C   UNL A   1      43.393  27.408  27.688  1.00  0.00     0.031 C 
ATOM     40  C   UNL A   1      38.612  28.670  28.573  1.00  0.00     0.029 A 
ATOM     41  N   UNL A   1      40.177  30.171  29.118  1.00  0.00    -0.354 N 
ATOM     42  C   UNL A   1      44.379  29.270  28.582  1.00  0.00     0.074 A 
ATOM     43  C   UNL A   1      44.558  27.958  27.997  1.00  0.00     0.031 C 
ATOM     44  C   UNL A   1      37.984  29.727  29.114  1.00  0.00     0.029 A 
ATOM     45  C   UNL A   1      38.979  30.718  29.508  1.00  0.00     0.049 A 
ATOM     46  H   UNL A   1      41.041  30.628  29.232  1.00  0.00     0.167 HD
ATOM     47  C   UNL A   1      45.389  30.103  28.923  1.00  0.00     0.037 A 
ATOM     48  C   UNL A   1      38.714  31.886  30.122  1.00  0.00     0.037 A 
ATOM     49  C   UNL A   1      45.200  31.413  29.487  1.00  0.00     0.049 A 
ATOM     50  C   UNL A   1      39.851  32.806  30.463  1.00  0.00     0.074 A 
ATOM     51  C   UNL A   1      46.155  32.360  29.814  1.00  0.00     0.029 A 
ATOM     52  N   UNL A   1      43.966  31.961  29.807  1.00  0.00    -0.354 N 
ATOM     53  N   UNL A   1      41.137  32.624  30.285  1.00  0.00    -0.248 NA
ATOM     54  C   UNL A   1      39.503  34.093  31.079  1.00  0.00     0.031 C 
ATOM     55  C   UNL A   1      45.500  33.471  30.354  1.00  0.00     0.029 A 
ATOM     56  C   UNL A   1      44.136  33.229  30.334  1.00  0.00     0.049 A 
ATOM     57  H   UNL A   1      43.099  31.513  29.677  1.00  0.00     0.167 HD
ATOM     58  C   UNL A   1      41.750  33.784  30.737  1.00  0.00     0.074 A 
ATOM     59  C   UNL A   1      40.695  34.663  31.197  1.00  0.00     0.031 C 
ATOM     60  C   UNL A   1      43.069  34.094  30.766  1.00  0.00     0.037 A 
BRANCH  47  61
ATOM     61  C   UNL A   1      46.788  29.620  28.686  1.00  0.00     0.057 A 
ATOM     62  C   UNL A   1      47.446  29.842  27.468  1.00  0.00     0.134 A 
ATOM     63  C   UNL A   1      47.494  28.946  29.690  1.00  0.00     0.134 A 
ATOM     64  F   UNL A   1      46.818  30.469  26.462  1.00  0.00    -0.206 F 
ATOM     65  C   UNL A   1      48.747  29.388  27.249  1.00  0.00     0.040 A 
ATOM     66  C   UNL A   1      48.804  28.508  29.491  1.00  0.00     0.040 A 
ATOM     67  F   UNL A   1      46.924  28.705  30.880  1.00  0.00    -0.206 F 
ATOM     68  C   UNL A   1      49.432  28.723  28.265  1.00  0.00     0.006 A 
ENDBRANCH  47  61
BRANCH  48  69
ATOM     69  C   UNL A   1      37.312  32.264  30.420  1.00  0.00     0.057 A 
ATOM     70  C   UNL A   1      36.710  31.893  31.627  1.00  0.00     0.134 A 
ATOM     71  C   UNL A   1      36.547  33.015  29.519  1.00  0.00     0.134 A 
ATOM     72  F   UNL A   1      37.389  31.162  32.522  1.00  0.00    -0.206 F 
ATOM     73  C   UNL A   1      35.391  32.242  31.924  1.00  0.00     0.040 A 
ATOM     74  C   UNL A   1      35.234  33.387  29.811  1.00  0.00     0.040 A 
ATOM     75  F   UNL A   1      37.072  33.410  28.350  1.00  0.00    -0.206 F 
ATOM     76  C   UNL A   1      34.651  32.996  31.015  1.00  0.00     0.006 A 
ENDBRANCH  48  69
BRANCH  60  77
ATOM     77  C   UNL A   1      43.440  35.455  31.268  1.00  0.00     0.057 A 
ATOM     78  C   UNL A   1      43.639  36.531  30.396  1.00  0.00     0.134 A 
ATOM     79  C   UNL A   1      43.546  35.699  32.643  1.00  0.00     0.134 A 
ATOM     80  F   UNL A   1      43.564  36.354  29.069  1.00  0.00    -0.206 F 
ATOM     81  C   UNL A   1      43.942  37.806  30.877  1.00  0.00     0.040 A 
ATOM     82  C   UNL A   1      43.830  36.972  33.135  1.00  0.00     0.040 A 
ATOM     83  F   UNL A   1      43.362  34.706  33.527  1.00  0.00    -0.206 F 
ATOM     84  C   UNL A   1      44.030  38.030  32.250  1.00  0.00     0.006 A 
ENDBRANCH  60  77
ENDBRANCH  34  35
ENDBRANCH  26  29
ENDBRANCH  24  25
ENDBRANCH   1  24
TORSDOF 12
ENDMDL
MODEL 2
REMARK VINA RESULT:     -10.8      3.691      9.292
REMARK SMILES C[C@@H](NC(=O)N1CC[N@@H+]2CCCC[C@H]2C1)C(=O)NCCCNC(=O)c1ccc(-c2c3nc(c(-c4c(F)cccc4F)c4ccc([nH]4)c(-c4c(F)cccc4F)c4nc(c(-c5c(F)cccc5F)c5ccc2[nH]5)C=C4)C=C3)cc1
REMARK SMILES IDX 20 1 19 2 18 3 16 4 17 5 2 7 1 8 3 9 4 10 5 12 6 13 7 14
REMARK SMILES IDX 15 15 8 16 14 17 9 18 13 19 10 20 12 22 11 23 21 24 22 25
REMARK SMILES IDX 23 26 24 28 25 29 26 30 78 31 27 32 77 33 28 34 29 35 30 36
REMARK SMILES IDX 71 37 31 38 76 39 70 40 72 41 32 42 75 43 69 44 68 45 33 47
REMARK SMILES IDX 59 48 42 49 58 50 43 51 46 52 57 53 73 54 44 55 45 56 56 58
REMARK SMILES IDX 74 59 47 60 34 61 35 62 40 63 36 64 37 65 39 66 41 67 38 68
REMARK SMILES IDX 60 69 61 70 66 71 62 72 63 73 65 74 67 75 64 76 48 77 49 78
REMARK SMILES IDX 54 79 50 80 51 81 53 82 55 83 52 84
REMARK H PARENT 18 6 3 11 9 21 22 27 72 46 46 57
REMARK Flexibility Score: inf
ROOT
ATOM      1  C   UNL A   1      37.352  21.702  24.683  1.00  0.00     0.042 C 
ENDROOT
BRANCH   1   2
ATOM      2  C   UNL A   1      36.211  22.599  25.145  1.00  0.00     0.117 C 
BRANCH   2   3
ATOM      3  N   UNL A   1      35.627  22.148  26.395  1.00  0.00    -0.354 N 
ATOM      4  C   UNL A   1      34.390  21.627  26.629  1.00  0.00     0.242 C 
ATOM      5  O   UNL A   1      34.099  21.384  27.806  1.00  0.00    -0.273 OA
ATOM      6  H   UNL A   1      36.208  22.229  27.185  1.00  0.00     0.163 HD
BRANCH   4   7
ATOM      7  C   UNL A   1      33.313  21.518  25.532  1.00  0.00     0.170 C 
ATOM      8  C   UNL A   1      33.601  20.223  24.764  1.00  0.00     0.041 C 
BRANCH   7   9
ATOM      9  N   UNL A   1      31.921  21.532  25.969  1.00  0.00    -0.326 N 
ATOM     10  C   UNL A   1      30.913  22.417  25.825  1.00  0.00     0.318 C 
ATOM     11  H   UNL A   1      31.663  20.726  26.473  1.00  0.00     0.166 HD
ATOM     12  O   UNL A   1      29.873  22.152  26.431  1.00  0.00    -0.249 OA
BRANCH  10  13
ATOM     13  N   UNL A   1      31.117  23.619  25.223  1.00  0.00    -0.313 N 
ATOM     14  C   UNL A   1      31.036  23.926  23.795  1.00  0.00     0.183 C 
ATOM     15  C   UNL A   1      31.127  24.821  26.056  1.00  0.00     0.186 C 
ATOM     16  C   UNL A   1      32.126  24.928  23.352  1.00  0.00     0.284 C 
ATOM     17  C   UNL A   1      32.338  25.694  25.667  1.00  0.00     0.203 C 
ATOM     18  N   UNL A   1      32.297  26.103  24.241  1.00  0.00    -0.330 N 
ATOM     19  C   UNL A   1      32.424  26.934  26.565  1.00  0.00     0.067 C 
ATOM     20  C   UNL A   1      33.529  26.826  23.879  1.00  0.00     0.262 C 
ATOM     21  H   UNL A   1      31.495  26.721  24.116  1.00  0.00     0.348 HD
ATOM     22  C   UNL A   1      33.681  27.732  26.237  1.00  0.00     0.012 C 
ATOM     23  C   UNL A   1      33.743  28.064  24.752  1.00  0.00     0.062 C 
ENDBRANCH  10  13
ENDBRANCH   7   9
ENDBRANCH   4   7
ENDBRANCH   2   3
ENDBRANCH   1   2
BRANCH   1  24
ATOM     24  C   UNL A   1      38.429  21.487  25.741  1.00  0.00     0.118 C 
BRANCH  24  25
ATOM     25  N   UNL A   1      39.160  20.235  25.591  1.00  0.00    -0.352 N 
ATOM     26  C   UNL A   1      40.462  19.974  25.959  1.00  0.00     0.251 C 
ATOM     27  H   UNL A   1      38.667  19.489  25.180  1.00  0.00     0.163 HD
ATOM     28  O   UNL A   1      40.980  18.886  25.726  1.00  0.00    -0.269 OA
BRANCH  26  29
ATOM     29  C   UNL A   1      41.250  21.053  26.589  1.00  0.00     0.039 A 
ATOM     30  C   UNL A   1      41.930  21.954  25.765  1.00  0.00     0.014 A 
ATOM     31  C   UNL A   1      41.214  21.239  27.972  1.00  0.00     0.014 A 
ATOM     32  C   UNL A   1      42.476  23.112  26.320  1.00  0.00     0.010 A 
ATOM     33  C   UNL A   1      41.714  22.414  28.518  1.00  0.00     0.010 A 
ATOM     34  C   UNL A   1      42.315  23.375  27.691  1.00  0.00    -0.014 A 
BRANCH  34  35
ATOM     35  C   UNL A   1      42.681  24.684  28.277  1.00  0.00     0.031 A 
ATOM     36  C   UNL A   1      41.640  25.743  28.468  1.00  0.00     0.074 A 
ATOM     37  C   UNL A   1      43.981  24.950  28.510  1.00  0.00     0.049 A 
ATOM     38  N   UNL A   1      41.788  26.988  28.838  1.00  0.00    -0.248 NA
ATOM     39  C   UNL A   1      40.251  25.360  28.172  1.00  0.00     0.031 C 
ATOM     40  C   UNL A   1      45.089  24.014  28.296  1.00  0.00     0.029 A 
ATOM     41  N   UNL A   1      44.596  26.095  28.949  1.00  0.00    -0.354 N 
ATOM     42  C   UNL A   1      40.517  27.544  28.804  1.00  0.00     0.074 A 
ATOM     43  C   UNL A   1      39.615  26.510  28.341  1.00  0.00     0.031 C 
ATOM     44  C   UNL A   1      46.245  24.621  28.609  1.00  0.00     0.029 A 
ATOM     45  C   UNL A   1      45.964  25.994  29.015  1.00  0.00     0.049 A 
ATOM     46  H   UNL A   1      44.103  26.911  29.192  1.00  0.00     0.167 HD
ATOM     47  C   UNL A   1      40.139  28.799  29.141  1.00  0.00     0.037 A 
ATOM     48  C   UNL A   1      46.889  26.911  29.356  1.00  0.00     0.037 A 
ATOM     49  C   UNL A   1      41.041  29.813  29.617  1.00  0.00     0.049 A 
ATOM     50  C   UNL A   1      46.441  28.286  29.754  1.00  0.00     0.074 A 
ATOM     51  C   UNL A   1      40.750  31.098  30.040  1.00  0.00     0.029 A 
ATOM     52  N   UNL A   1      42.414  29.653  29.734  1.00  0.00    -0.354 N 
ATOM     53  N   UNL A   1      45.226  28.780  29.784  1.00  0.00    -0.248 NA
ATOM     54  C   UNL A   1      47.484  29.231  30.174  1.00  0.00     0.031 C 
ATOM     55  C   UNL A   1      41.952  31.724  30.390  1.00  0.00     0.029 A 
ATOM     56  C   UNL A   1      42.985  30.818  30.215  1.00  0.00     0.049 A 
ATOM     57  H   UNL A   1      42.908  28.832  29.508  1.00  0.00     0.167 HD
ATOM     58  C   UNL A   1      45.355  30.079  30.255  1.00  0.00     0.074 A 
ATOM     59  C   UNL A   1      46.766  30.298  30.498  1.00  0.00     0.031 C 
ATOM     60  C   UNL A   1      44.391  31.006  30.468  1.00  0.00     0.037 A 
BRANCH  47  61
ATOM     61  C   UNL A   1      38.685  29.136  29.010  1.00  0.00     0.057 A 
ATOM     62  C   UNL A   1      37.808  29.043  30.100  1.00  0.00     0.134 A 
ATOM     63  C   UNL A   1      38.157  29.580  27.791  1.00  0.00     0.134 A 
ATOM     64  F   UNL A   1      38.249  28.610  31.291  1.00  0.00    -0.206 F 
ATOM     65  C   UNL A   1      36.454  29.355  29.975  1.00  0.00     0.040 A 
ATOM     66  C   UNL A   1      36.810  29.917  27.660  1.00  0.00     0.040 A 
ATOM     67  F   UNL A   1      38.943  29.696  26.711  1.00  0.00    -0.206 F 
ATOM     68  C   UNL A   1      35.952  29.799  28.753  1.00  0.00     0.006 A 
ENDBRANCH  47  61
BRANCH  48  69
ATOM     69  C   UNL A   1      48.325  26.542  29.370  1.00  0.00     0.057 A 
ATOM     70  C   UNL A   1      49.144  26.808  28.268  1.00  0.00     0.134 A 
ATOM     71  C   UNL A   1      48.916  25.934  30.484  1.00  0.00     0.134 A 
ATOM     72  F   UNL A   1      48.631  27.376  27.168  1.00  0.00    -0.206 F 
ATOM     73  C   UNL A   1      50.499  26.470  28.265  1.00  0.00     0.040 A 
ATOM     74  C   UNL A   1      50.273  25.607  30.502  1.00  0.00     0.040 A 
ATOM     75  F   UNL A   1      48.185  25.664  31.575  1.00  0.00    -0.206 F 
ATOM     76  C   UNL A   1      51.068  25.871  29.388  1.00  0.00     0.006 A 
ENDBRANCH  48  69
BRANCH  60  77
ATOM     77  C   UNL A   1      44.822  32.322  31.035  1.00  0.00     0.057 A 
ATOM     78  C   UNL A   1      45.164  33.401  30.213  1.00  0.00     0.134 A 
ATOM     79  C   UNL A   1      44.844  32.525  32.421  1.00  0.00     0.134 A 
ATOM     80  F   UNL A   1      45.175  33.263  28.879  1.00  0.00    -0.206 F 
ATOM     81  C   UNL A   1      45.522  34.638  30.752  1.00  0.00     0.040 A 
ATOM     82  C   UNL A   1      45.182  33.760  32.970  1.00  0.00     0.040 A 
ATOM     83  F   UNL A   1      44.522  31.527  33.260  1.00  0.00    -0.206 F 
ATOM     84  C   UNL A   1      45.524  34.822  32.133  1.00  0.00     0.006 A 
ENDBRANCH  60  77
ENDBRANCH  34  35
ENDBRANCH  26  29
ENDBRANCH  24  25
ENDBRANCH   1  24
TORSDOF 12
ENDMDL
MODEL 3
REMARK VINA RESULT:     -10.8      5.433      9.511
REMARK SMILES C[C@@H](NC(=O)N1CC[N@@H+]2CCCC[C@H]2C1)C(=O)NCCCNC(=O)c1ccc(-c2c3nc(c(-c4c(F)cccc4F)c4ccc([nH]4)c(-c4c(F)cccc4F)c4nc(c(-c5c(F)cccc5F)c5ccc2[nH]5)C=C4)C=C3)cc1
REMARK SMILES IDX 20 1 19 2 18 3 16 4 17 5 2 7 1 8 3 9 4 10 5 12 6 13 7 14
REMARK SMILES IDX 15 15 8 16 14 17 9 18 13 19 10 20 12 22 11 23 21 24 22 25
REMARK SMILES IDX 23 26 24 28 25 29 26 30 78 31 27 32 77 33 28 34 29 35 30 36
REMARK SMILES IDX 71 37 31 38 76 39 70 40 72 41 32 42 75 43 69 44 68 45 33 47
REMARK SMILES IDX 59 48 42 49 58 50 43 51 46 52 57 53 73 54 44 55 45 56 56 58
REMARK SMILES IDX 74 59 47 60 34 61 35 62 40 63 36 64 37 65 39 66 41 67 38 68
REMARK SMILES IDX 60 69 61 70 66 71 62 72 63 73 65 74 67 75 64 76 48 77 49 78
REMARK SMILES IDX 54 79 50 80 51 81 53 82 55 83 52 84
REMARK H PARENT 18 6 3 11 9 21 22 27 72 46 46 57
REMARK Flexibility Score: inf
ROOT
ATOM      1  C   UNL A   1      31.035  31.132  25.797  1.00  0.00     0.042 C 
ENDROOT
BRANCH   1   2
ATOM      2  C   UNL A   1      31.273  29.860  24.994  1.00  0.00     0.117 C 
BRANCH   2   3
ATOM      3  N   UNL A   1      30.719  29.942  23.655  1.00  0.00    -0.354 N 
ATOM      4  C   UNL A   1      30.575  28.960  22.720  1.00  0.00     0.242 C 
ATOM      5  O   UNL A   1      30.137  29.301  21.615  1.00  0.00    -0.273 OA
ATOM      6  H   UNL A   1      30.402  30.833  23.383  1.00  0.00     0.163 HD
BRANCH   4   7
ATOM      7  C   UNL A   1      31.105  27.528  22.931  1.00  0.00     0.170 C 
ATOM      8  C   UNL A   1      29.909  26.684  23.386  1.00  0.00     0.041 C 
BRANCH   7   9
ATOM      9  N   UNL A   1      31.754  26.889  21.792  1.00  0.00    -0.326 N 
ATOM     10  C   UNL A   1      32.532  25.795  21.663  1.00  0.00     0.318 C 
ATOM     11  H   UNL A   1      31.588  27.352  20.939  1.00  0.00     0.166 HD
ATOM     12  O   UNL A   1      33.010  25.603  20.543  1.00  0.00    -0.249 OA
BRANCH  10  13
ATOM     13  N   UNL A   1      32.924  25.081  22.753  1.00  0.00    -0.313 N 
ATOM     14  C   UNL A   1      33.903  25.469  23.767  1.00  0.00     0.183 C 
ATOM     15  C   UNL A   1      32.105  23.943  23.168  1.00  0.00     0.186 C 
ATOM     16  C   UNL A   1      34.768  24.273  24.228  1.00  0.00     0.284 C 
ATOM     17  C   UNL A   1      33.025  22.738  23.453  1.00  0.00     0.203 C 
ATOM     18  N   UNL A   1      34.014  23.030  24.522  1.00  0.00    -0.330 N 
ATOM     19  C   UNL A   1      32.201  21.501  23.827  1.00  0.00     0.067 C 
ATOM     20  C   UNL A   1      34.951  21.904  24.676  1.00  0.00     0.262 C 
ATOM     21  H   UNL A   1      33.501  23.162  25.394  1.00  0.00     0.348 HD
ATOM     22  C   UNL A   1      33.116  20.295  24.005  1.00  0.00     0.012 C 
ATOM     23  C   UNL A   1      34.227  20.597  25.003  1.00  0.00     0.062 C 
ENDBRANCH  10  13
ENDBRANCH   7   9
ENDBRANCH   4   7
ENDBRANCH   2   3
ENDBRANCH   1   2
BRANCH   1  24
ATOM     24  C   UNL A   1      32.205  31.520  26.694  1.00  0.00     0.118 C 
BRANCH  24  25
ATOM     25  N   UNL A   1      32.132  32.883  27.202  1.00  0.00    -0.352 N 
ATOM     26  C   UNL A   1      33.096  33.570  27.907  1.00  0.00     0.251 C 
ATOM     27  H   UNL A   1      31.297  33.371  27.020  1.00  0.00     0.163 HD
ATOM     28  O   UNL A   1      32.887  34.703  28.327  1.00  0.00    -0.269 OA
BRANCH  26  29
ATOM     29  C   UNL A   1      34.374  32.891  28.203  1.00  0.00     0.039 A 
ATOM     30  C   UNL A   1      35.559  33.628  28.121  1.00  0.00     0.014 A 
ATOM     31  C   UNL A   1      34.384  31.575  28.672  1.00  0.00     0.014 A 
ATOM     32  C   UNL A   1      36.741  33.082  28.624  1.00  0.00     0.010 A 
ATOM     33  C   UNL A   1      35.549  31.052  29.217  1.00  0.00     0.010 A 
ATOM     34  C   UNL A   1      36.726  31.816  29.230  1.00  0.00    -0.014 A 
BRANCH  34  35
ATOM     35  C   UNL A   1      37.899  31.295  29.969  1.00  0.00     0.031 A 
ATOM     36  C   UNL A   1      38.803  30.284  29.334  1.00  0.00     0.074 A 
ATOM     37  C   UNL A   1      38.059  31.645  31.260  1.00  0.00     0.049 A 
ATOM     38  N   UNL A   1      39.793  29.616  29.865  1.00  0.00    -0.248 NA
ATOM     39  C   UNL A   1      38.537  29.957  27.926  1.00  0.00     0.031 C 
ATOM     40  C   UNL A   1      37.197  32.572  32.000  1.00  0.00     0.029 A 
ATOM     41  N   UNL A   1      38.983  31.240  32.188  1.00  0.00    -0.354 N 
ATOM     42  C   UNL A   1      40.260  28.778  28.862  1.00  0.00     0.074 A 
ATOM     43  C   UNL A   1      39.419  28.994  27.704  1.00  0.00     0.031 C 
ATOM     44  C   UNL A   1      37.638  32.667  33.266  1.00  0.00     0.029 A 
ATOM     45  C   UNL A   1      38.790  31.788  33.433  1.00  0.00     0.049 A 
ATOM     46  H   UNL A   1      39.715  30.616  31.983  1.00  0.00     0.167 HD
ATOM     47  C   UNL A   1      41.303  27.916  28.905  1.00  0.00     0.037 A 
ATOM     48  C   UNL A   1      39.462  31.595  34.583  1.00  0.00     0.037 A 
ATOM     49  C   UNL A   1      42.143  27.722  30.056  1.00  0.00     0.049 A 
ATOM     50  C   UNL A   1      40.633  30.657  34.596  1.00  0.00     0.074 A 
ATOM     51  C   UNL A   1      43.261  26.916  30.184  1.00  0.00     0.029 A 
ATOM     52  N   UNL A   1      41.956  28.345  31.281  1.00  0.00    -0.354 N 
ATOM     53  N   UNL A   1      41.107  29.920  33.620  1.00  0.00    -0.248 NA
ATOM     54  C   UNL A   1      41.368  30.527  35.861  1.00  0.00     0.031 C 
ATOM     55  C   UNL A   1      43.735  27.033  31.495  1.00  0.00     0.029 A 
ATOM     56  C   UNL A   1      42.932  27.936  32.172  1.00  0.00     0.049 A 
ATOM     57  H   UNL A   1      41.235  28.984  31.485  1.00  0.00     0.167 HD
ATOM     58  C   UNL A   1      42.213  29.264  34.143  1.00  0.00     0.074 A 
ATOM     59  C   UNL A   1      42.339  29.690  35.522  1.00  0.00     0.031 C 
ATOM     60  C   UNL A   1      43.050  28.390  33.534  1.00  0.00     0.037 A 
BRANCH  47  61
ATOM     61  C   UNL A   1      41.591  27.126  27.664  1.00  0.00     0.057 A 
ATOM     62  C   UNL A   1      42.407  27.633  26.644  1.00  0.00     0.134 A 
ATOM     63  C   UNL A   1      41.069  25.838  27.496  1.00  0.00     0.134 A 
ATOM     64  F   UNL A   1      42.926  28.867  26.739  1.00  0.00    -0.206 F 
ATOM     65  C   UNL A   1      42.673  26.897  25.489  1.00  0.00     0.040 A 
ATOM     66  C   UNL A   1      41.346  25.083  26.355  1.00  0.00     0.040 A 
ATOM     67  F   UNL A   1      40.285  25.292  28.437  1.00  0.00    -0.206 F 
ATOM     68  C   UNL A   1      42.145  25.614  25.344  1.00  0.00     0.006 A 
ENDBRANCH  47  61
BRANCH  48  69
ATOM     69  C   UNL A   1      39.063  32.335  35.805  1.00  0.00     0.057 A 
ATOM     70  C   UNL A   1      39.502  33.645  36.025  1.00  0.00     0.134 A 
ATOM     71  C   UNL A   1      38.225  31.762  36.770  1.00  0.00     0.134 A 
ATOM     72  F   UNL A   1      40.317  34.240  35.143  1.00  0.00    -0.206 F 
ATOM     73  C   UNL A   1      39.135  34.357  37.169  1.00  0.00     0.040 A 
ATOM     74  C   UNL A   1      37.835  32.469  37.908  1.00  0.00     0.040 A 
ATOM     75  F   UNL A   1      37.763  30.514  36.609  1.00  0.00    -0.206 F 
ATOM     76  C   UNL A   1      38.294  33.769  38.113  1.00  0.00     0.006 A 
ENDBRANCH  48  69
BRANCH  60  77
ATOM     77  C   UNL A   1      44.202  27.873  34.339  1.00  0.00     0.057 A 
ATOM     78  C   UNL A   1      45.419  28.559  34.406  1.00  0.00     0.134 A 
ATOM     79  C   UNL A   1      44.069  26.703  35.097  1.00  0.00     0.134 A 
ATOM     80  F   UNL A   1      45.609  29.679  33.692  1.00  0.00    -0.206 F 
ATOM     81  C   UNL A   1      46.472  28.093  35.195  1.00  0.00     0.040 A 
ATOM     82  C   UNL A   1      45.107  26.237  35.902  1.00  0.00     0.040 A 
ATOM     83  F   UNL A   1      42.923  26.004  35.075  1.00  0.00    -0.206 F 
ATOM     84  C   UNL A   1      46.314  26.933  35.951  1.00  0.00     0.006 A 
ENDBRANCH  60  77
ENDBRANCH  34  35
ENDBRANCH  26  29
ENDBRANCH  24  25
ENDBRANCH   1  24
TORSDOF 12
ENDMDL
