MODEL 1
REMARK VINA RESULT:     -10.7      0.000      0.000
REMARK SMILES COc1ccc(C(=O)C[C@H](C)CC(=O)NCCCNC(=O)c2ccc(-c3c4nc(c(-c5c(F)cccc5F)c5ccc([nH]5)c(-c5c(F)cccc5F)c5nc(c(-c6c(F)cccc6F)c6ccc3[nH]6)C=C5)C=C4)cc2)c(OC)c1
REMARK SMILES IDX 13 1 14 2 15 3 12 5 10 6 11 7 9 8 7 9 8 10 6 11 3 12 4 13
REMARK SMILES IDX 79 14 5 15 76 16 2 17 1 18 77 19 78 20 16 21 17 22 18 23
REMARK SMILES IDX 19 24 20 25 21 27 22 28 23 29 75 30 24 31 74 32 25 33 26 34
REMARK SMILES IDX 27 35 68 36 28 37 73 38 67 39 69 40 29 41 72 42 66 43 65 44
REMARK SMILES IDX 30 46 56 47 39 48 55 49 40 50 43 51 54 52 70 53 41 54 42 55
REMARK SMILES IDX 53 57 71 58 44 59 31 60 32 61 37 62 33 63 34 64 36 65 38 66
REMARK SMILES IDX 35 67 57 68 58 69 63 70 59 71 60 72 62 73 64 74 61 75 45 76
REMARK SMILES IDX 46 77 51 78 47 79 48 80 50 81 52 82 49 83
REMARK H PARENT 15 4 19 26 69 45 43 56
REMARK Flexibility Score: inf
ROOT
ATOM      1  C   UNL A   1      30.380  29.458  23.341  1.00  0.00     0.220 C 
ATOM      2  O   UNL A   1      29.592  29.599  22.405  1.00  0.00    -0.275 OA
ATOM      3  N   UNL A   1      30.450  30.441  24.288  1.00  0.00    -0.356 N 
ATOM      4  H   UNL A   1      29.804  31.174  24.168  1.00  0.00     0.163 HD
ENDROOT
BRANCH   1   5
ATOM      5  C   UNL A   1      31.267  28.233  23.451  1.00  0.00     0.103 C 
BRANCH   5   6
ATOM      6  C   UNL A   1      30.513  26.894  23.372  1.00  0.00     0.003 C 
ATOM      7  C   UNL A   1      31.253  25.811  22.585  1.00  0.00     0.008 C 
BRANCH   6   8
ATOM      8  C   UNL A   1      30.048  26.322  24.735  1.00  0.00     0.085 C 
BRANCH   8   9
ATOM      9  C   UNL A   1      31.015  26.348  25.911  1.00  0.00     0.166 C 
ATOM     10  O   UNL A   1      30.993  27.304  26.690  1.00  0.00    -0.294 OA
BRANCH   9  11
ATOM     11  C   UNL A   1      32.044  25.277  26.138  1.00  0.00     0.060 A 
ATOM     12  C   UNL A   1      34.110  23.389  26.273  1.00  0.00     0.122 A 
ATOM     13  C   UNL A   1      34.369  24.645  25.743  1.00  0.00     0.047 A 
ATOM     14  C   UNL A   1      32.851  23.087  26.794  1.00  0.00     0.093 A 
ATOM     15  C   UNL A   1      33.339  25.579  25.670  1.00  0.00     0.019 A 
ATOM     16  C   UNL A   1      31.804  24.023  26.732  1.00  0.00     0.133 A 
BRANCH  12  17
ATOM     17  O   UNL A   1      35.151  22.506  26.342  1.00  0.00    -0.497 OA
ATOM     18  C   UNL A   1      36.355  23.064  25.814  1.00  0.00     0.278 C 
ENDBRANCH  12  17
BRANCH  16  19
ATOM     19  O   UNL A   1      30.561  23.787  27.248  1.00  0.00    -0.496 OA
ATOM     20  C   UNL A   1      29.905  22.573  26.897  1.00  0.00     0.278 C 
ENDBRANCH  16  19
ENDBRANCH   9  11
ENDBRANCH   8   9
ENDBRANCH   6   8
ENDBRANCH   5   6
ENDBRANCH   1   5
BRANCH   3  21
ATOM     21  C   UNL A   1      31.324  30.581  25.443  1.00  0.00     0.117 C 
BRANCH  21  22
ATOM     22  C   UNL A   1      31.127  31.920  26.149  1.00  0.00     0.042 C 
BRANCH  22  23
ATOM     23  C   UNL A   1      32.318  32.345  26.997  1.00  0.00     0.118 C 
BRANCH  23  24
ATOM     24  N   UNL A   1      32.248  33.752  27.362  1.00  0.00    -0.352 N 
ATOM     25  C   UNL A   1      32.935  34.464  28.313  1.00  0.00     0.251 C 
ATOM     26  H   UNL A   1      31.601  34.279  26.841  1.00  0.00     0.163 HD
ATOM     27  O   UNL A   1      32.520  35.583  28.625  1.00  0.00    -0.269 OA
BRANCH  25  28
ATOM     28  C   UNL A   1      34.144  33.925  28.984  1.00  0.00     0.039 A 
ATOM     29  C   UNL A   1      35.404  34.334  28.527  1.00  0.00     0.014 A 
ATOM     30  C   UNL A   1      34.068  32.965  29.996  1.00  0.00     0.014 A 
ATOM     31  C   UNL A   1      36.568  33.821  29.110  1.00  0.00     0.010 A 
ATOM     32  C   UNL A   1      35.226  32.521  30.637  1.00  0.00     0.010 A 
ATOM     33  C   UNL A   1      36.491  32.929  30.190  1.00  0.00    -0.014 A 
BRANCH  33  34
ATOM     34  C   UNL A   1      37.714  32.375  30.834  1.00  0.00     0.031 A 
ATOM     35  C   UNL A   1      38.397  31.167  30.246  1.00  0.00     0.074 A 
ATOM     36  C   UNL A   1      38.183  32.916  31.975  1.00  0.00     0.049 A 
ATOM     37  N   UNL A   1      39.397  30.467  30.720  1.00  0.00    -0.248 NA
ATOM     38  C   UNL A   1      37.864  30.660  28.971  1.00  0.00     0.031 C 
ATOM     39  C   UNL A   1      37.601  34.062  32.674  1.00  0.00     0.029 A 
ATOM     40  N   UNL A   1      39.255  32.561  32.758  1.00  0.00    -0.354 N 
ATOM     41  C   UNL A   1      39.597  29.429  29.819  1.00  0.00     0.074 A 
ATOM     42  C   UNL A   1      38.586  29.563  28.792  1.00  0.00     0.031 C 
ATOM     43  C   UNL A   1      38.328  34.324  33.773  1.00  0.00     0.029 A 
ATOM     44  C   UNL A   1      39.404  33.344  33.877  1.00  0.00     0.049 A 
ATOM     45  H   UNL A   1      39.857  31.814  32.539  1.00  0.00     0.167 HD
ATOM     46  C   UNL A   1      40.548  28.464  29.828  1.00  0.00     0.037 A 
ATOM     47  C   UNL A   1      40.299  33.275  34.880  1.00  0.00     0.037 A 
ATOM     48  C   UNL A   1      41.582  28.350  30.821  1.00  0.00     0.049 A 
ATOM     49  C   UNL A   1      41.360  32.209  34.856  1.00  0.00     0.074 A 
ATOM     50  C   UNL A   1      42.614  27.430  30.891  1.00  0.00     0.029 A 
ATOM     51  N   UNL A   1      41.723  29.194  31.912  1.00  0.00    -0.354 N 
ATOM     52  N   UNL A   1      41.552  31.255  33.978  1.00  0.00    -0.248 NA
ATOM     53  C   UNL A   1      42.331  32.214  35.960  1.00  0.00     0.031 C 
ATOM     54  C   UNL A   1      43.369  27.704  32.037  1.00  0.00     0.029 A 
ATOM     55  C   UNL A   1      42.825  28.814  32.661  1.00  0.00     0.049 A 
ATOM     56  H   UNL A   1      41.130  29.951  32.123  1.00  0.00     0.167 HD
ATOM     57  C   UNL A   1      42.676  30.563  34.409  1.00  0.00     0.074 A 
ATOM     58  C   UNL A   1      43.132  31.214  35.620  1.00  0.00     0.031 C 
ATOM     59  C   UNL A   1      43.274  29.482  33.855  1.00  0.00     0.037 A 
BRANCH  46  60
ATOM     60  C   UNL A   1      40.525  27.459  28.714  1.00  0.00     0.057 A 
ATOM     61  C   UNL A   1      39.715  26.317  28.772  1.00  0.00     0.134 A 
ATOM     62  C   UNL A   1      41.287  27.654  27.556  1.00  0.00     0.134 A 
ATOM     63  F   UNL A   1      38.972  26.066  29.861  1.00  0.00    -0.206 F 
ATOM     64  C   UNL A   1      39.681  25.393  27.727  1.00  0.00     0.040 A 
ATOM     65  C   UNL A   1      41.242  26.750  26.494  1.00  0.00     0.040 A 
ATOM     66  F   UNL A   1      42.079  28.731  27.434  1.00  0.00    -0.206 F 
ATOM     67  C   UNL A   1      40.441  25.613  26.579  1.00  0.00     0.006 A 
ENDBRANCH  46  60
BRANCH  47  68
ATOM     68  C   UNL A   1      40.245  34.254  35.993  1.00  0.00     0.057 A 
ATOM     69  C   UNL A   1      39.560  33.962  37.179  1.00  0.00     0.134 A 
ATOM     70  C   UNL A   1      40.860  35.507  35.894  1.00  0.00     0.134 A 
ATOM     71  F   UNL A   1      38.936  32.785  37.323  1.00  0.00    -0.206 F 
ATOM     72  C   UNL A   1      39.470  34.889  38.218  1.00  0.00     0.040 A 
ATOM     73  C   UNL A   1      40.798  36.436  36.934  1.00  0.00     0.040 A 
ATOM     74  F   UNL A   1      41.537  35.844  34.786  1.00  0.00    -0.206 F 
ATOM     75  C   UNL A   1      40.094  36.129  38.099  1.00  0.00     0.006 A 
ENDBRANCH  47  68
BRANCH  59  76
ATOM     76  C   UNL A   1      44.505  28.957  34.529  1.00  0.00     0.057 A 
ATOM     77  C   UNL A   1      45.780  29.445  34.217  1.00  0.00     0.134 A 
ATOM     78  C   UNL A   1      44.409  27.978  35.527  1.00  0.00     0.134 A 
ATOM     79  F   UNL A   1      45.938  30.372  33.262  1.00  0.00    -0.206 F 
ATOM     80  C   UNL A   1      46.920  28.964  34.864  1.00  0.00     0.040 A 
ATOM     81  C   UNL A   1      45.539  27.506  36.194  1.00  0.00     0.040 A 
ATOM     82  F   UNL A   1      43.215  27.476  35.875  1.00  0.00    -0.206 F 
ATOM     83  C   UNL A   1      46.800  27.997  35.860  1.00  0.00     0.006 A 
ENDBRANCH  59  76
ENDBRANCH  33  34
ENDBRANCH  25  28
ENDBRANCH  23  24
ENDBRANCH  22  23
ENDBRANCH  21  22
ENDBRANCH   3  21
TORSDOF 16
ENDMDL
MODEL 2
REMARK VINA RESULT:     -10.6      1.537      3.493
REMARK SMILES COc1ccc(C(=O)C[C@H](C)CC(=O)NCCCNC(=O)c2ccc(-c3c4nc(c(-c5c(F)cccc5F)c5ccc([nH]5)c(-c5c(F)cccc5F)c5nc(c(-c6c(F)cccc6F)c6ccc3[nH]6)C=C5)C=C4)cc2)c(OC)c1
REMARK SMILES IDX 13 1 14 2 15 3 12 5 10 6 11 7 9 8 7 9 8 10 6 11 3 12 4 13
REMARK SMILES IDX 79 14 5 15 76 16 2 17 1 18 77 19 78 20 16 21 17 22 18 23
REMARK SMILES IDX 19 24 20 25 21 27 22 28 23 29 75 30 24 31 74 32 25 33 26 34
REMARK SMILES IDX 27 35 68 36 28 37 73 38 67 39 69 40 29 41 72 42 66 43 65 44
REMARK SMILES IDX 30 46 56 47 39 48 55 49 40 50 43 51 54 52 70 53 41 54 42 55
REMARK SMILES IDX 53 57 71 58 44 59 31 60 32 61 37 62 33 63 34 64 36 65 38 66
REMARK SMILES IDX 35 67 57 68 58 69 63 70 59 71 60 72 62 73 64 74 61 75 45 76
REMARK SMILES IDX 46 77 51 78 47 79 48 80 50 81 52 82 49 83
REMARK H PARENT 15 4 19 26 69 45 43 56
REMARK Flexibility Score: inf
ROOT
ATOM      1  C   UNL A   1      32.871  28.849  26.089  1.00  0.00     0.220 C 
ATOM      2  O   UNL A   1      34.080  28.616  26.102  1.00  0.00    -0.275 OA
ATOM      3  N   UNL A   1      32.441  30.028  25.550  1.00  0.00    -0.356 N 
ATOM      4  H   UNL A   1      33.151  30.583  25.154  1.00  0.00     0.163 HD
ENDROOT
BRANCH   1   5
ATOM      5  C   UNL A   1      31.869  27.866  26.663  1.00  0.00     0.103 C 
BRANCH   5   6
ATOM      6  C   UNL A   1      31.727  26.562  25.859  1.00  0.00     0.003 C 
ATOM      7  C   UNL A   1      32.418  25.358  26.501  1.00  0.00     0.008 C 
BRANCH   6   8
ATOM      8  C   UNL A   1      30.274  26.184  25.474  1.00  0.00     0.085 C 
BRANCH   8   9
ATOM      9  C   UNL A   1      29.835  26.334  24.024  1.00  0.00     0.166 C 
ATOM     10  O   UNL A   1      29.597  25.323  23.357  1.00  0.00    -0.294 OA
BRANCH   9  11
ATOM     11  C   UNL A   1      29.730  27.669  23.343  1.00  0.00     0.060 A 
ATOM     12  C   UNL A   1      29.211  30.077  22.008  1.00  0.00     0.122 A 
ATOM     13  C   UNL A   1      28.203  29.478  22.749  1.00  0.00     0.047 A 
ATOM     14  C   UNL A   1      30.492  29.522  21.979  1.00  0.00     0.093 A 
ATOM     15  C   UNL A   1      28.460  28.277  23.405  1.00  0.00     0.019 A 
ATOM     16  C   UNL A   1      30.767  28.314  22.643  1.00  0.00     0.133 A 
BRANCH  12  17
ATOM     17  O   UNL A   1      28.923  31.262  21.391  1.00  0.00    -0.497 OA
ATOM     18  C   UNL A   1      28.027  32.059  22.167  1.00  0.00     0.278 C 
ENDBRANCH  12  17
BRANCH  16  19
ATOM     19  O   UNL A   1      32.008  27.741  22.665  1.00  0.00    -0.496 OA
ATOM     20  C   UNL A   1      33.138  28.569  22.407  1.00  0.00     0.278 C 
ENDBRANCH  16  19
ENDBRANCH   9  11
ENDBRANCH   8   9
ENDBRANCH   6   8
ENDBRANCH   5   6
ENDBRANCH   1   5
BRANCH   3  21
ATOM     21  C   UNL A   1      31.105  30.599  25.466  1.00  0.00     0.117 C 
BRANCH  21  22
ATOM     22  C   UNL A   1      31.027  31.971  26.130  1.00  0.00     0.042 C 
BRANCH  22  23
ATOM     23  C   UNL A   1      32.283  32.347  26.905  1.00  0.00     0.118 C 
BRANCH  23  24
ATOM     24  N   UNL A   1      32.302  33.760  27.251  1.00  0.00    -0.352 N 
ATOM     25  C   UNL A   1      33.015  34.437  28.209  1.00  0.00     0.251 C 
ATOM     26  H   UNL A   1      31.706  34.324  26.708  1.00  0.00     0.163 HD
ATOM     27  O   UNL A   1      32.671  35.585  28.499  1.00  0.00    -0.269 OA
BRANCH  25  28
ATOM     28  C   UNL A   1      34.168  33.824  28.916  1.00  0.00     0.039 A 
ATOM     29  C   UNL A   1      35.447  34.350  28.694  1.00  0.00     0.014 A 
ATOM     30  C   UNL A   1      34.029  32.695  29.727  1.00  0.00     0.014 A 
ATOM     31  C   UNL A   1      36.564  33.779  29.313  1.00  0.00     0.010 A 
ATOM     32  C   UNL A   1      35.130  32.180  30.414  1.00  0.00     0.010 A 
ATOM     33  C   UNL A   1      36.413  32.703  30.202  1.00  0.00    -0.014 A 
BRANCH  33  34
ATOM     34  C   UNL A   1      37.584  32.082  30.880  1.00  0.00     0.031 A 
ATOM     35  C   UNL A   1      38.397  31.028  30.173  1.00  0.00     0.074 A 
ATOM     36  C   UNL A   1      37.888  32.417  32.150  1.00  0.00     0.049 A 
ATOM     37  N   UNL A   1      39.375  30.288  30.633  1.00  0.00    -0.248 NA
ATOM     38  C   UNL A   1      38.044  30.749  28.772  1.00  0.00     0.031 C 
ATOM     39  C   UNL A   1      37.165  33.393  32.967  1.00  0.00     0.029 A 
ATOM     40  N   UNL A   1      38.881  31.960  32.982  1.00  0.00    -0.354 N 
ATOM     41  C   UNL A   1      39.735  29.443  29.590  1.00  0.00     0.074 A 
ATOM     42  C   UNL A   1      38.843  29.731  28.487  1.00  0.00     0.031 C 
ATOM     43  C   UNL A   1      37.745  33.471  34.176  1.00  0.00     0.029 A 
ATOM     44  C   UNL A   1      38.856  32.526  34.233  1.00  0.00     0.049 A 
ATOM     45  H   UNL A   1      39.546  31.288  32.707  1.00  0.00     0.167 HD
ATOM     46  C   UNL A   1      40.732  28.527  29.542  1.00  0.00     0.037 A 
ATOM     47  C   UNL A   1      39.633  32.303  35.310  1.00  0.00     0.037 A 
ATOM     48  C   UNL A   1      41.651  28.267  30.618  1.00  0.00     0.049 A 
ATOM     49  C   UNL A   1      40.749  31.297  35.224  1.00  0.00     0.074 A 
ATOM     50  C   UNL A   1      42.718  27.386  30.647  1.00  0.00     0.029 A 
ATOM     51  N   UNL A   1      41.617  28.897  31.852  1.00  0.00    -0.354 N 
ATOM     52  N   UNL A   1      41.094  30.531  34.219  1.00  0.00    -0.248 NA
ATOM     53  C   UNL A   1      41.585  31.130  36.422  1.00  0.00     0.031 C 
ATOM     54  C   UNL A   1      43.320  27.468  31.908  1.00  0.00     0.029 A 
ATOM     55  C   UNL A   1      42.646  28.423  32.650  1.00  0.00     0.049 A 
ATOM     56  H   UNL A   1      40.962  29.580  32.121  1.00  0.00     0.167 HD
ATOM     57  C   UNL A   1      42.198  29.809  34.653  1.00  0.00     0.074 A 
ATOM     58  C   UNL A   1      42.475  30.239  36.008  1.00  0.00     0.031 C 
ATOM     59  C   UNL A   1      42.916  28.872  33.991  1.00  0.00     0.037 A 
BRANCH  46  60
ATOM     60  C   UNL A   1      40.894  27.747  28.271  1.00  0.00     0.057 A 
ATOM     61  C   UNL A   1      40.259  26.513  28.081  1.00  0.00     0.134 A 
ATOM     62  C   UNL A   1      41.658  28.251  27.211  1.00  0.00     0.134 A 
ATOM     63  F   UNL A   1      39.523  25.969  29.063  1.00  0.00    -0.206 F 
ATOM     64  C   UNL A   1      40.395  25.797  26.890  1.00  0.00     0.040 A 
ATOM     65  C   UNL A   1      41.782  27.556  26.007  1.00  0.00     0.040 A 
ATOM     66  F   UNL A   1      42.288  29.430  27.326  1.00  0.00    -0.206 F 
ATOM     67  C   UNL A   1      41.153  26.324  25.846  1.00  0.00     0.006 A 
ENDBRANCH  46  60
BRANCH  47  68
ATOM     68  C   UNL A   1      39.396  33.055  36.566  1.00  0.00     0.057 A 
ATOM     69  C   UNL A   1      38.482  32.595  37.522  1.00  0.00     0.134 A 
ATOM     70  C   UNL A   1      40.063  34.256  36.835  1.00  0.00     0.134 A 
ATOM     71  F   UNL A   1      37.801  31.460  37.310  1.00  0.00    -0.206 F 
ATOM     72  C   UNL A   1      38.223  33.312  38.690  1.00  0.00     0.040 A 
ATOM     73  C   UNL A   1      39.830  34.973  38.009  1.00  0.00     0.040 A 
ATOM     74  F   UNL A   1      40.955  34.745  35.962  1.00  0.00    -0.206 F 
ATOM     75  C   UNL A   1      38.902  34.504  38.938  1.00  0.00     0.006 A 
ENDBRANCH  47  68
BRANCH  59  76
ATOM     76  C   UNL A   1      44.090  28.274  34.706  1.00  0.00     0.057 A 
ATOM     77  C   UNL A   1      43.973  27.098  35.456  1.00  0.00     0.134 A 
ATOM     78  C   UNL A   1      45.358  28.862  34.611  1.00  0.00     0.134 A 
ATOM     79  F   UNL A   1      42.784  26.495  35.596  1.00  0.00    -0.206 F 
ATOM     80  C   UNL A   1      45.075  26.537  36.104  1.00  0.00     0.040 A 
ATOM     81  C   UNL A   1      46.470  28.299  35.237  1.00  0.00     0.040 A 
ATOM     82  F   UNL A   1      45.535  29.987  33.901  1.00  0.00    -0.206 F 
ATOM     83  C   UNL A   1      46.329  27.134  35.990  1.00  0.00     0.006 A 
ENDBRANCH  59  76
ENDBRANCH  33  34
ENDBRANCH  25  28
ENDBRANCH  23  24
ENDBRANCH  22  23
ENDBRANCH  21  22
ENDBRANCH   3  21
TORSDOF 16
ENDMDL
MODEL 3
REMARK VINA RESULT:     -10.6      0.937      6.372
REMARK SMILES COc1ccc(C(=O)C[C@H](C)CC(=O)NCCCNC(=O)c2ccc(-c3c4nc(c(-c5c(F)cccc5F)c5ccc([nH]5)c(-c5c(F)cccc5F)c5nc(c(-c6c(F)cccc6F)c6ccc3[nH]6)C=C5)C=C4)cc2)c(OC)c1
REMARK SMILES IDX 13 1 14 2 15 3 12 5 10 6 11 7 9 8 7 9 8 10 6 11 3 12 4 13
REMARK SMILES IDX 79 14 5 15 76 16 2 17 1 18 77 19 78 20 16 21 17 22 18 23
REMARK SMILES IDX 19 24 20 25 21 27 22 28 23 29 75 30 24 31 74 32 25 33 26 34
REMARK SMILES IDX 27 35 68 36 28 37 73 38 67 39 69 40 29 41 72 42 66 43 65 44
REMARK SMILES IDX 30 46 56 47 39 48 55 49 40 50 43 51 54 52 70 53 41 54 42 55
REMARK SMILES IDX 53 57 71 58 44 59 31 60 32 61 37 62 33 63 34 64 36 65 38 66
REMARK SMILES IDX 35 67 57 68 58 69 63 70 59 71 60 72 62 73 64 74 61 75 45 76
REMARK SMILES IDX 46 77 51 78 47 79 48 80 50 81 52 82 49 83
REMARK H PARENT 15 4 19 26 69 45 43 56
REMARK Flexibility Score: inf
ROOT
ATOM      1  C   UNL A   1      30.272  29.183  23.172  1.00  0.00     0.220 C 
ATOM      2  O   UNL A   1      29.530  29.313  22.198  1.00  0.00    -0.275 OA
ATOM      3  N   UNL A   1      30.313  30.186  24.099  1.00  0.00    -0.356 N 
ATOM      4  H   UNL A   1      29.685  30.925  23.933  1.00  0.00     0.163 HD
ENDROOT
BRANCH   1   5
ATOM      5  C   UNL A   1      31.134  27.948  23.351  1.00  0.00     0.103 C 
BRANCH   5   6
ATOM      6  C   UNL A   1      30.344  26.655  23.618  1.00  0.00     0.003 C 
ATOM      7  C   UNL A   1      30.972  25.404  22.999  1.00  0.00     0.008 C 
BRANCH   6   8
ATOM      8  C   UNL A   1      30.010  26.387  25.107  1.00  0.00     0.085 C 
BRANCH   8   9
ATOM      9  C   UNL A   1      31.127  26.473  26.139  1.00  0.00     0.166 C 
ATOM     10  O   UNL A   1      31.117  27.389  26.966  1.00  0.00    -0.294 OA
BRANCH   9  11
ATOM     11  C   UNL A   1      32.284  25.515  26.161  1.00  0.00     0.060 A 
ATOM     12  C   UNL A   1      34.543  23.876  25.911  1.00  0.00     0.122 A 
ATOM     13  C   UNL A   1      34.601  25.188  25.465  1.00  0.00     0.047 A 
ATOM     14  C   UNL A   1      33.393  23.392  26.538  1.00  0.00     0.093 A 
ATOM     15  C   UNL A   1      33.476  25.999  25.582  1.00  0.00     0.019 A 
ATOM     16  C   UNL A   1      32.251  24.203  26.669  1.00  0.00     0.133 A 
BRANCH  12  17
ATOM     17  O   UNL A   1      35.674  23.117  25.791  1.00  0.00    -0.497 OA
ATOM     18  C   UNL A   1      36.421  23.461  24.624  1.00  0.00     0.278 C 
ENDBRANCH  12  17
BRANCH  16  19
ATOM     19  O   UNL A   1      31.110  23.787  27.294  1.00  0.00    -0.496 OA
ATOM     20  C   UNL A   1      30.300  22.814  26.642  1.00  0.00     0.278 C 
ENDBRANCH  16  19
ENDBRANCH   9  11
ENDBRANCH   8   9
ENDBRANCH   6   8
ENDBRANCH   5   6
ENDBRANCH   1   5
BRANCH   3  21
ATOM     21  C   UNL A   1      31.136  30.341  25.289  1.00  0.00     0.117 C 
BRANCH  21  22
ATOM     22  C   UNL A   1      31.022  31.742  25.884  1.00  0.00     0.042 C 
BRANCH  22  23
ATOM     23  C   UNL A   1      32.088  32.053  26.926  1.00  0.00     0.118 C 
BRANCH  23  24
ATOM     24  N   UNL A   1      32.138  33.472  27.242  1.00  0.00    -0.352 N 
ATOM     25  C   UNL A   1      32.957  34.170  28.094  1.00  0.00     0.251 C 
ATOM     26  H   UNL A   1      31.475  34.022  26.767  1.00  0.00     0.163 HD
ATOM     27  O   UNL A   1      32.641  35.322  28.403  1.00  0.00    -0.269 OA
BRANCH  25  28
ATOM     28  C   UNL A   1      34.192  33.578  28.665  1.00  0.00     0.039 A 
ATOM     29  C   UNL A   1      35.416  33.846  28.039  1.00  0.00     0.014 A 
ATOM     30  C   UNL A   1      34.164  32.699  29.751  1.00  0.00     0.014 A 
ATOM     31  C   UNL A   1      36.599  33.278  28.524  1.00  0.00     0.010 A 
ATOM     32  C   UNL A   1      35.353  32.203  30.289  1.00  0.00     0.010 A 
ATOM     33  C   UNL A   1      36.583  32.471  29.673  1.00  0.00    -0.014 A 
BRANCH  33  34
ATOM     34  C   UNL A   1      37.828  31.862  30.215  1.00  0.00     0.031 A 
ATOM     35  C   UNL A   1      38.521  32.483  31.400  1.00  0.00     0.074 A 
ATOM     36  C   UNL A   1      38.372  30.784  29.616  1.00  0.00     0.049 A 
ATOM     37  N   UNL A   1      39.671  32.174  31.945  1.00  0.00    -0.248 NA
ATOM     38  C   UNL A   1      37.844  33.624  32.039  1.00  0.00     0.031 C 
ATOM     39  C   UNL A   1      37.829  30.102  28.440  1.00  0.00     0.029 A 
ATOM     40  N   UNL A   1      39.515  30.081  29.908  1.00  0.00    -0.354 N 
ATOM     41  C   UNL A   1      39.866  33.092  32.970  1.00  0.00     0.074 A 
ATOM     42  C   UNL A   1      38.738  33.999  32.943  1.00  0.00     0.031 C 
ATOM     43  C   UNL A   1      38.631  29.073  28.119  1.00  0.00     0.029 A 
ATOM     44  C   UNL A   1      39.761  29.044  29.041  1.00  0.00     0.049 A 
ATOM     45  H   UNL A   1      40.103  30.301  30.666  1.00  0.00     0.167 HD
ATOM     46  C   UNL A   1      40.878  33.164  33.867  1.00  0.00     0.037 A 
ATOM     47  C   UNL A   1      40.787  28.172  28.988  1.00  0.00     0.037 A 
ATOM     48  C   UNL A   1      41.980  32.241  33.927  1.00  0.00     0.049 A 
ATOM     49  C   UNL A   1      41.887  28.258  30.010  1.00  0.00     0.074 A 
ATOM     50  C   UNL A   1      43.031  32.210  34.827  1.00  0.00     0.029 A 
ATOM     51  N   UNL A   1      42.165  31.177  33.058  1.00  0.00    -0.354 N 
ATOM     52  N   UNL A   1      42.038  29.115  30.991  1.00  0.00    -0.248 NA
ATOM     53  C   UNL A   1      42.956  27.253  29.920  1.00  0.00     0.031 C 
ATOM     54  C   UNL A   1      43.866  31.138  34.490  1.00  0.00     0.029 A 
ATOM     55  C   UNL A   1      43.314  30.484  33.400  1.00  0.00     0.049 A 
ATOM     56  H   UNL A   1      41.568  30.948  32.310  1.00  0.00     0.167 HD
ATOM     57  C   UNL A   1      43.203  28.739  31.647  1.00  0.00     0.074 A 
ATOM     58  C   UNL A   1      43.712  27.568  30.962  1.00  0.00     0.031 C 
ATOM     59  C   UNL A   1      43.799  29.314  32.718  1.00  0.00     0.037 A 
BRANCH  46  60
ATOM     60  C   UNL A   1      40.831  34.275  34.875  1.00  0.00     0.057 A 
ATOM     61  C   UNL A   1      40.241  34.100  36.133  1.00  0.00     0.134 A 
ATOM     62  C   UNL A   1      41.418  35.516  34.602  1.00  0.00     0.134 A 
ATOM     63  F   UNL A   1      39.650  32.938  36.451  1.00  0.00    -0.206 F 
ATOM     64  C   UNL A   1      40.216  35.128  37.077  1.00  0.00     0.040 A 
ATOM     65  C   UNL A   1      41.421  36.544  35.546  1.00  0.00     0.040 A 
ATOM     66  F   UNL A   1      42.006  35.748  33.418  1.00  0.00    -0.206 F 
ATOM     67  C   UNL A   1      40.814  36.353  36.786  1.00  0.00     0.006 A 
ENDBRANCH  46  60
BRANCH  47  68
ATOM     68  C   UNL A   1      40.822  27.129  27.934  1.00  0.00     0.057 A 
ATOM     69  C   UNL A   1      41.554  27.316  26.756  1.00  0.00     0.134 A 
ATOM     70  C   UNL A   1      40.112  25.930  28.071  1.00  0.00     0.134 A 
ATOM     71  F   UNL A   1      42.238  28.453  26.562  1.00  0.00    -0.206 F 
ATOM     72  C   UNL A   1      41.565  26.358  25.742  1.00  0.00     0.040 A 
ATOM     73  C   UNL A   1      40.131  24.953  27.075  1.00  0.00     0.040 A 
ATOM     74  F   UNL A   1      39.397  25.689  29.179  1.00  0.00    -0.206 F 
ATOM     75  C   UNL A   1      40.854  25.169  25.902  1.00  0.00     0.006 A 
ENDBRANCH  47  68
BRANCH  59  76
ATOM     76  C   UNL A   1      45.048  28.667  33.238  1.00  0.00     0.057 A 
ATOM     77  C   UNL A   1      45.003  27.641  34.189  1.00  0.00     0.134 A 
ATOM     78  C   UNL A   1      46.304  29.052  32.754  1.00  0.00     0.134 A 
ATOM     79  F   UNL A   1      43.831  27.238  34.701  1.00  0.00    -0.206 F 
ATOM     80  C   UNL A   1      46.169  27.031  34.654  1.00  0.00     0.040 A 
ATOM     81  C   UNL A   1      47.474  28.435  33.196  1.00  0.00     0.040 A 
ATOM     82  F   UNL A   1      46.412  30.025  31.836  1.00  0.00    -0.206 F 
ATOM     83  C   UNL A   1      47.409  27.423  34.152  1.00  0.00     0.006 A 
ENDBRANCH  59  76
ENDBRANCH  33  34
ENDBRANCH  25  28
ENDBRANCH  23  24
ENDBRANCH  22  23
ENDBRANCH  21  22
ENDBRANCH   3  21
TORSDOF 16
ENDMDL
