MODEL 1
REMARK VINA RESULT:     -11.8      0.000      0.000
REMARK SMILES O=C(C[C@@H]([NH2+]Cc1ccccc1)C(=O)/N=c1/[nH]c(-c2ccccc2)cs1)NCCCNC(=O)c1ccc(-c2c3nc(c(-c4c(F)cccc4F)c4ccc([nH]4)c(-c4c(F)cccc4F)c4nc(c(-c5c(F)cccc5F)c5ccc2[nH]5)C=C4)C=C3)cc1
REMARK SMILES IDX 28 1 27 2 1 3 2 4 3 6 4 7 5 8 6 11 7 12 8 13 12 14 9 15
REMARK SMILES IDX 11 16 10 17 13 18 14 19 15 20 16 21 17 22 26 23 18 24 25 26
REMARK SMILES IDX 19 27 20 28 24 29 21 30 23 31 22 32 29 33 30 34 31 35 32 36
REMARK SMILES IDX 33 38 34 39 35 40 87 41 36 42 86 43 37 44 38 45 39 46 80 47
REMARK SMILES IDX 40 48 85 49 79 50 81 51 41 52 84 53 78 54 77 55 42 57 68 58
REMARK SMILES IDX 51 59 67 60 52 61 55 62 66 63 82 64 53 65 54 66 65 68 83 69
REMARK SMILES IDX 56 70 43 71 44 72 49 73 45 74 46 75 48 76 50 77 47 78 69 79
REMARK SMILES IDX 70 80 75 81 71 82 72 83 74 84 76 85 73 86 57 87 58 88 63 89
REMARK SMILES IDX 59 90 60 91 62 92 64 93 61 94
REMARK H PARENT 27 5 5 9 5 10 17 25 31 37 81 56 55 67
REMARK Flexibility Score: inf
ROOT
ATOM      1  C   UNL A   1      37.640  21.662  24.929  1.00  0.00     0.117 C 
ENDROOT
BRANCH   1   2
ATOM      2  N   UNL A   1      36.278  21.631  24.450  1.00  0.00    -0.356 N 
ATOM      3  O   UNL A   1      36.466  23.352  22.936  1.00  0.00    -0.275 OA
ATOM      4  C   UNL A   1      35.790  22.527  23.529  1.00  0.00     0.226 C 
ATOM      5  H   UNL A   1      35.673  20.938  24.799  1.00  0.00     0.163 HD
BRANCH   4   6
ATOM      6  C   UNL A   1      34.299  22.430  23.383  1.00  0.00     0.175 C 
BRANCH   6   7
ATOM      7  C   UNL A   1      33.541  23.674  23.837  1.00  0.00     0.284 C 
BRANCH   7   8
ATOM      8  N   UNL A   1      34.418  24.643  24.565  1.00  0.00    -0.332 N 
ATOM      9  H   UNL A   1      34.410  25.530  24.063  1.00  0.00     0.347 HD
ATOM     10  H   UNL A   1      35.353  24.239  24.606  1.00  0.00     0.347 HD
BRANCH   8  11
ATOM     11  C   UNL A   1      33.975  24.882  25.954  1.00  0.00     0.297 C 
BRANCH  11  12
ATOM     12  C   UNL A   1      33.268  26.211  26.104  1.00  0.00     0.006 A 
ATOM     13  C   UNL A   1      33.995  27.411  26.096  1.00  0.00     0.009 A 
ATOM     14  C   UNL A   1      31.886  26.261  26.341  1.00  0.00     0.009 A 
ATOM     15  C   UNL A   1      33.357  28.626  26.353  1.00  0.00     0.001 A 
ATOM     16  C   UNL A   1      31.258  27.472  26.632  1.00  0.00     0.001 A 
ATOM     17  C   UNL A   1      31.994  28.653  26.642  1.00  0.00     0.000 A 
ENDBRANCH  11  12
ENDBRANCH   8  11
ENDBRANCH   7   8
BRANCH   7  18
ATOM     18  C   UNL A   1      32.859  24.301  22.588  1.00  0.00     0.307 C 
ATOM     19  O   UNL A   1      33.355  24.168  21.473  1.00  0.00    -0.265 OA
BRANCH  18  20
ATOM     20  N   UNL A   1      31.665  24.959  22.794  1.00  0.00    -0.180 NA
ATOM     21  C   UNL A   1      31.659  26.246  22.733  1.00  0.00     0.190 A 
ATOM     22  N   UNL A   1      30.562  27.052  22.913  1.00  0.00    -0.330 N 
ATOM     23  S   UNL A   1      33.060  27.326  22.483  1.00  0.00    -0.105 S 
ATOM     24  C   UNL A   1      30.799  28.411  23.000  1.00  0.00     0.058 A 
ATOM     25  H   UNL A   1      29.653  26.680  22.976  1.00  0.00     0.169 HD
ATOM     26  C   UNL A   1      32.102  28.725  22.878  1.00  0.00     0.095 A 
BRANCH  24  27
ATOM     27  C   UNL A   1      29.716  29.398  23.147  1.00  0.00    -0.001 A 
ATOM     28  C   UNL A   1      29.925  30.655  23.729  1.00  0.00     0.010 A 
ATOM     29  C   UNL A   1      28.407  29.052  22.770  1.00  0.00     0.010 A 
ATOM     30  C   UNL A   1      28.850  31.525  23.949  1.00  0.00     0.001 A 
ATOM     31  C   UNL A   1      27.337  29.921  22.981  1.00  0.00     0.001 A 
ATOM     32  C   UNL A   1      27.558  31.155  23.581  1.00  0.00     0.000 A 
ENDBRANCH  24  27
ENDBRANCH  18  20
ENDBRANCH   7  18
ENDBRANCH   6   7
ENDBRANCH   4   6
ENDBRANCH   1   2
BRANCH   1  33
ATOM     33  C   UNL A   1      38.311  20.308  24.735  1.00  0.00     0.042 C 
BRANCH  33  34
ATOM     34  C   UNL A   1      38.847  19.682  26.021  1.00  0.00     0.118 C 
BRANCH  34  35
ATOM     35  N   UNL A   1      40.135  19.033  25.842  1.00  0.00    -0.352 N 
ATOM     36  C   UNL A   1      41.403  19.543  25.963  1.00  0.00     0.251 C 
ATOM     37  H   UNL A   1      40.092  18.080  25.596  1.00  0.00     0.163 HD
ATOM     38  O   UNL A   1      42.365  18.871  25.603  1.00  0.00    -0.269 OA
BRANCH  36  39
ATOM     39  C   UNL A   1      41.616  20.904  26.502  1.00  0.00     0.039 A 
ATOM     40  C   UNL A   1      41.568  21.086  27.886  1.00  0.00     0.014 A 
ATOM     41  C   UNL A   1      41.837  21.996  25.660  1.00  0.00     0.014 A 
ATOM     42  C   UNL A   1      41.794  22.354  28.426  1.00  0.00     0.010 A 
ATOM     43  C   UNL A   1      42.146  23.242  26.203  1.00  0.00     0.010 A 
ATOM     44  C   UNL A   1      42.119  23.437  27.591  1.00  0.00    -0.014 A 
BRANCH  44  45
ATOM     45  C   UNL A   1      42.433  24.770  28.167  1.00  0.00     0.031 A 
ATOM     46  C   UNL A   1      43.834  25.105  28.602  1.00  0.00     0.074 A 
ATOM     47  C   UNL A   1      41.445  25.671  28.330  1.00  0.00     0.049 A 
ATOM     48  N   UNL A   1      44.292  26.215  29.128  1.00  0.00    -0.248 NA
ATOM     49  C   UNL A   1      44.849  24.052  28.452  1.00  0.00     0.031 C 
ATOM     50  C   UNL A   1      40.036  25.451  27.997  1.00  0.00     0.029 A 
ATOM     51  N   UNL A   1      41.474  26.955  28.814  1.00  0.00    -0.354 N 
ATOM     52  C   UNL A   1      45.641  25.990  29.373  1.00  0.00     0.074 A 
ATOM     53  C   UNL A   1      45.914  24.619  28.998  1.00  0.00     0.031 C 
ATOM     54  C   UNL A   1      39.344  26.572  28.252  1.00  0.00     0.029 A 
ATOM     55  C   UNL A   1      40.248  27.576  28.804  1.00  0.00     0.049 A 
ATOM     56  H   UNL A   1      42.295  27.391  29.139  1.00  0.00     0.167 HD
ATOM     57  C   UNL A   1      46.574  26.852  29.842  1.00  0.00     0.037 A 
ATOM     58  C   UNL A   1      39.891  28.814  29.195  1.00  0.00     0.037 A 
ATOM     59  C   UNL A   1      46.304  28.220  30.201  1.00  0.00     0.049 A 
ATOM     60  C   UNL A   1      40.944  29.749  29.725  1.00  0.00     0.074 A 
ATOM     61  C   UNL A   1      47.192  29.189  30.635  1.00  0.00     0.029 A 
ATOM     62  N   UNL A   1      45.050  28.812  30.175  1.00  0.00    -0.354 N 
ATOM     63  N   UNL A   1      42.230  29.545  29.879  1.00  0.00    -0.248 NA
ATOM     64  C   UNL A   1      40.496  31.089  30.125  1.00  0.00     0.031 C 
ATOM     65  C   UNL A   1      46.468  30.350  30.924  1.00  0.00     0.029 A 
ATOM     66  C   UNL A   1      45.137  30.126  30.611  1.00  0.00     0.049 A 
ATOM     67  H   UNL A   1      44.220  28.366  29.889  1.00  0.00     0.167 HD
ATOM     68  C   UNL A   1      42.748  30.740  30.364  1.00  0.00     0.074 A 
ATOM     69  C   UNL A   1      41.640  31.667  30.459  1.00  0.00     0.031 C 
ATOM     70  C   UNL A   1      44.027  31.041  30.699  1.00  0.00     0.037 A 
BRANCH  57  71
ATOM     71  C   UNL A   1      47.979  26.341  29.992  1.00  0.00     0.057 A 
ATOM     72  C   UNL A   1      48.431  25.752  31.182  1.00  0.00     0.134 A 
ATOM     73  C   UNL A   1      48.882  26.403  28.923  1.00  0.00     0.134 A 
ATOM     74  F   UNL A   1      47.623  25.670  32.249  1.00  0.00    -0.206 F 
ATOM     75  C   UNL A   1      49.735  25.271  31.311  1.00  0.00     0.040 A 
ATOM     76  C   UNL A   1      50.179  25.897  29.031  1.00  0.00     0.040 A 
ATOM     77  F   UNL A   1      48.516  26.947  27.753  1.00  0.00    -0.206 F 
ATOM     78  C   UNL A   1      50.611  25.335  30.230  1.00  0.00     0.006 A 
ENDBRANCH  57  71
BRANCH  58  79
ATOM     79  C   UNL A   1      38.477  29.254  29.080  1.00  0.00     0.057 A 
ATOM     80  C   UNL A   1      37.958  29.713  27.863  1.00  0.00     0.134 A 
ATOM     81  C   UNL A   1      37.615  29.240  30.183  1.00  0.00     0.134 A 
ATOM     82  F   UNL A   1      38.739  29.767  26.773  1.00  0.00    -0.206 F 
ATOM     83  C   UNL A   1      36.642  30.166  27.752  1.00  0.00     0.040 A 
ATOM     84  C   UNL A   1      36.288  29.663  30.080  1.00  0.00     0.040 A 
ATOM     85  F   UNL A   1      38.047  28.803  31.375  1.00  0.00    -0.206 F 
ATOM     86  C   UNL A   1      35.802  30.138  28.863  1.00  0.00     0.006 A 
ENDBRANCH  58  79
BRANCH  70  87
ATOM     87  C   UNL A   1      44.303  32.443  31.163  1.00  0.00     0.057 A 
ATOM     88  C   UNL A   1      44.277  32.798  32.519  1.00  0.00     0.134 A 
ATOM     89  C   UNL A   1      44.622  33.448  30.241  1.00  0.00     0.134 A 
ATOM     90  F   UNL A   1      43.967  31.886  33.454  1.00  0.00    -0.206 F 
ATOM     91  C   UNL A   1      44.524  34.106  32.936  1.00  0.00     0.040 A 
ATOM     92  C   UNL A   1      44.902  34.753  30.648  1.00  0.00     0.040 A 
ATOM     93  F   UNL A   1      44.676  33.176  28.928  1.00  0.00    -0.206 F 
ATOM     94  C   UNL A   1      44.845  35.087  31.999  1.00  0.00     0.006 A 
ENDBRANCH  70  87
ENDBRANCH  44  45
ENDBRANCH  36  39
ENDBRANCH  34  35
ENDBRANCH  33  34
ENDBRANCH   1  33
TORSDOF 17
ENDMDL
MODEL 2
REMARK VINA RESULT:     -11.7      3.591      8.982
REMARK SMILES O=C(C[C@@H]([NH2+]Cc1ccccc1)C(=O)/N=c1/[nH]c(-c2ccccc2)cs1)NCCCNC(=O)c1ccc(-c2c3nc(c(-c4c(F)cccc4F)c4ccc([nH]4)c(-c4c(F)cccc4F)c4nc(c(-c5c(F)cccc5F)c5ccc2[nH]5)C=C4)C=C3)cc1
REMARK SMILES IDX 28 1 27 2 1 3 2 4 3 6 4 7 5 8 6 11 7 12 8 13 12 14 9 15
REMARK SMILES IDX 11 16 10 17 13 18 14 19 15 20 16 21 17 22 26 23 18 24 25 26
REMARK SMILES IDX 19 27 20 28 24 29 21 30 23 31 22 32 29 33 30 34 31 35 32 36
REMARK SMILES IDX 33 38 34 39 35 40 87 41 36 42 86 43 37 44 38 45 39 46 80 47
REMARK SMILES IDX 40 48 85 49 79 50 81 51 41 52 84 53 78 54 77 55 42 57 68 58
REMARK SMILES IDX 51 59 67 60 52 61 55 62 66 63 82 64 53 65 54 66 65 68 83 69
REMARK SMILES IDX 56 70 43 71 44 72 49 73 45 74 46 75 48 76 50 77 47 78 69 79
REMARK SMILES IDX 70 80 75 81 71 82 72 83 74 84 76 85 73 86 57 87 58 88 63 89
REMARK SMILES IDX 59 90 60 91 62 92 64 93 61 94
REMARK H PARENT 27 5 5 9 5 10 17 25 31 37 81 56 55 67
REMARK Flexibility Score: inf
ROOT
ATOM      1  C   UNL A   1      32.501  30.229  27.095  1.00  0.00     0.117 C 
ENDROOT
BRANCH   1   2
ATOM      2  N   UNL A   1      31.759  29.255  26.329  1.00  0.00    -0.356 N 
ATOM      3  O   UNL A   1      31.545  27.684  27.996  1.00  0.00    -0.275 OA
ATOM      4  C   UNL A   1      31.395  28.030  26.835  1.00  0.00     0.226 C 
ATOM      5  H   UNL A   1      31.504  29.478  25.405  1.00  0.00     0.163 HD
BRANCH   4   6
ATOM      6  C   UNL A   1      30.850  27.120  25.772  1.00  0.00     0.175 C 
BRANCH   6   7
ATOM      7  C   UNL A   1      31.731  25.913  25.466  1.00  0.00     0.284 C 
BRANCH   7   8
ATOM      8  N   UNL A   1      33.028  25.950  26.209  1.00  0.00    -0.332 N 
ATOM      9  H   UNL A   1      33.146  25.066  26.703  1.00  0.00     0.347 HD
ATOM     10  H   UNL A   1      32.991  26.741  26.853  1.00  0.00     0.347 HD
BRANCH   8  11
ATOM     11  C   UNL A   1      34.191  26.153  25.321  1.00  0.00     0.297 C 
BRANCH  11  12
ATOM     12  C   UNL A   1      34.790  24.843  24.861  1.00  0.00     0.006 A 
ATOM     13  C   UNL A   1      35.806  24.223  25.603  1.00  0.00     0.009 A 
ATOM     14  C   UNL A   1      34.401  24.270  23.640  1.00  0.00     0.009 A 
ATOM     15  C   UNL A   1      36.440  23.078  25.116  1.00  0.00     0.001 A 
ATOM     16  C   UNL A   1      35.059  23.147  23.140  1.00  0.00     0.001 A 
ATOM     17  C   UNL A   1      36.080  22.553  23.876  1.00  0.00     0.000 A 
ENDBRANCH  11  12
ENDBRANCH   8  11
ENDBRANCH   7   8
BRANCH   7  18
ATOM     18  C   UNL A   1      30.904  24.630  25.761  1.00  0.00     0.307 C 
ATOM     19  O   UNL A   1      30.127  24.593  26.711  1.00  0.00    -0.265 OA
BRANCH  18  20
ATOM     20  N   UNL A   1      31.055  23.576  24.885  1.00  0.00    -0.180 NA
ATOM     21  C   UNL A   1      31.784  22.578  25.250  1.00  0.00     0.190 A 
ATOM     22  N   UNL A   1      32.036  21.454  24.504  1.00  0.00    -0.330 N 
ATOM     23  S   UNL A   1      32.716  22.414  26.765  1.00  0.00    -0.105 S 
ATOM     24  C   UNL A   1      32.996  20.587  24.993  1.00  0.00     0.058 A 
ATOM     25  H   UNL A   1      31.557  21.274  23.663  1.00  0.00     0.169 HD
ATOM     26  C   UNL A   1      33.528  20.998  26.158  1.00  0.00     0.095 A 
BRANCH  24  27
ATOM     27  C   UNL A   1      33.339  19.322  24.323  1.00  0.00    -0.001 A 
ATOM     28  C   UNL A   1      32.504  18.734  23.364  1.00  0.00     0.010 A 
ATOM     29  C   UNL A   1      34.498  18.626  24.706  1.00  0.00     0.010 A 
ATOM     30  C   UNL A   1      32.810  17.478  22.826  1.00  0.00     0.001 A 
ATOM     31  C   UNL A   1      34.809  17.378  24.165  1.00  0.00     0.001 A 
ATOM     32  C   UNL A   1      33.958  16.800  23.232  1.00  0.00     0.000 A 
ENDBRANCH  24  27
ENDBRANCH  18  20
ENDBRANCH   7  18
ENDBRANCH   6   7
ENDBRANCH   4   6
ENDBRANCH   1   2
BRANCH   1  33
ATOM     33  C   UNL A   1      31.756  31.558  27.142  1.00  0.00     0.042 C 
BRANCH  33  34
ATOM     34  C   UNL A   1      32.583  32.759  26.690  1.00  0.00     0.118 C 
BRANCH  34  35
ATOM     35  N   UNL A   1      32.379  33.934  27.523  1.00  0.00    -0.352 N 
ATOM     36  C   UNL A   1      33.092  34.380  28.606  1.00  0.00     0.251 C 
ATOM     37  H   UNL A   1      31.611  34.496  27.271  1.00  0.00     0.163 HD
ATOM     38  O   UNL A   1      32.656  35.309  29.280  1.00  0.00    -0.269 OA
BRANCH  36  39
ATOM     39  C   UNL A   1      34.371  33.738  28.980  1.00  0.00     0.039 A 
ATOM     40  C   UNL A   1      35.526  34.099  28.283  1.00  0.00     0.014 A 
ATOM     41  C   UNL A   1      34.434  32.772  29.987  1.00  0.00     0.014 A 
ATOM     42  C   UNL A   1      36.752  33.530  28.633  1.00  0.00     0.010 A 
ATOM     43  C   UNL A   1      35.670  32.268  30.391  1.00  0.00     0.010 A 
ATOM     44  C   UNL A   1      36.840  32.635  29.713  1.00  0.00    -0.014 A 
BRANCH  44  45
ATOM     45  C   UNL A   1      38.155  32.086  30.135  1.00  0.00     0.031 A 
ATOM     46  C   UNL A   1      38.639  30.764  29.603  1.00  0.00     0.074 A 
ATOM     47  C   UNL A   1      38.902  32.765  31.027  1.00  0.00     0.049 A 
ATOM     48  N   UNL A   1      39.756  30.129  29.861  1.00  0.00    -0.248 NA
ATOM     49  C   UNL A   1      37.745  30.049  28.680  1.00  0.00     0.031 C 
ATOM     50  C   UNL A   1      38.524  34.031  31.657  1.00  0.00     0.029 A 
ATOM     51  N   UNL A   1      40.138  32.487  31.557  1.00  0.00    -0.354 N 
ATOM     52  C   UNL A   1      39.694  28.944  29.139  1.00  0.00     0.074 A 
ATOM     53  C   UNL A   1      38.404  28.918  28.482  1.00  0.00     0.031 C 
ATOM     54  C   UNL A   1      39.520  34.438  32.459  1.00  0.00     0.029 A 
ATOM     55  C   UNL A   1      40.589  33.446  32.432  1.00  0.00     0.049 A 
ATOM     56  H   UNL A   1      40.652  31.679  31.332  1.00  0.00     0.167 HD
ATOM     57  C   UNL A   1      40.634  27.977  29.011  1.00  0.00     0.037 A 
ATOM     58  C   UNL A   1      41.735  33.517  33.136  1.00  0.00     0.037 A 
ATOM     59  C   UNL A   1      41.923  28.011  29.653  1.00  0.00     0.049 A 
ATOM     60  C   UNL A   1      42.758  32.425  32.987  1.00  0.00     0.074 A 
ATOM     61  C   UNL A   1      42.964  27.106  29.544  1.00  0.00     0.029 A 
ATOM     62  N   UNL A   1      42.343  28.999  30.531  1.00  0.00    -0.354 N 
ATOM     63  N   UNL A   1      42.716  31.347  32.241  1.00  0.00    -0.248 NA
ATOM     64  C   UNL A   1      43.992  32.564  33.771  1.00  0.00     0.031 C 
ATOM     65  C   UNL A   1      43.994  27.517  30.397  1.00  0.00     0.029 A 
ATOM     66  C   UNL A   1      43.619  28.712  30.991  1.00  0.00     0.049 A 
ATOM     67  H   UNL A   1      41.814  29.789  30.789  1.00  0.00     0.167 HD
ATOM     68  C   UNL A   1      43.928  30.698  32.441  1.00  0.00     0.074 A 
ATOM     69  C   UNL A   1      44.690  31.513  33.364  1.00  0.00     0.031 C 
ATOM     70  C   UNL A   1      44.369  29.532  31.908  1.00  0.00     0.037 A 
BRANCH  57  71
ATOM     71  C   UNL A   1      40.304  26.797  28.140  1.00  0.00     0.057 A 
ATOM     72  C   UNL A   1      39.436  25.781  28.566  1.00  0.00     0.134 A 
ATOM     73  C   UNL A   1      40.829  26.694  26.845  1.00  0.00     0.134 A 
ATOM     74  F   UNL A   1      38.906  25.812  29.797  1.00  0.00    -0.206 F 
ATOM     75  C   UNL A   1      39.127  24.694  27.747  1.00  0.00     0.040 A 
ATOM     76  C   UNL A   1      40.503  25.626  26.007  1.00  0.00     0.040 A 
ATOM     77  F   UNL A   1      41.660  27.633  26.370  1.00  0.00    -0.206 F 
ATOM     78  C   UNL A   1      39.654  24.618  26.460  1.00  0.00     0.006 A 
ENDBRANCH  57  71
BRANCH  58  79
ATOM     79  C   UNL A   1      41.991  34.677  34.028  1.00  0.00     0.057 A 
ATOM     80  C   UNL A   1      42.566  35.856  33.538  1.00  0.00     0.134 A 
ATOM     81  C   UNL A   1      41.681  34.631  35.393  1.00  0.00     0.134 A 
ATOM     82  F   UNL A   1      42.902  35.955  32.243  1.00  0.00    -0.206 F 
ATOM     83  C   UNL A   1      42.848  36.937  34.375  1.00  0.00     0.040 A 
ATOM     84  C   UNL A   1      41.931  35.716  36.237  1.00  0.00     0.040 A 
ATOM     85  F   UNL A   1      41.120  33.535  35.924  1.00  0.00    -0.206 F 
ATOM     86  C   UNL A   1      42.525  36.869  35.729  1.00  0.00     0.006 A 
ENDBRANCH  58  79
BRANCH  70  87
ATOM     87  C   UNL A   1      45.756  29.089  32.281  1.00  0.00     0.057 A 
ATOM     88  C   UNL A   1      46.885  29.484  31.551  1.00  0.00     0.134 A 
ATOM     89  C   UNL A   1      45.965  28.273  33.400  1.00  0.00     0.134 A 
ATOM     90  F   UNL A   1      46.755  30.257  30.461  1.00  0.00    -0.206 F 
ATOM     91  C   UNL A   1      48.167  29.056  31.901  1.00  0.00     0.040 A 
ATOM     92  C   UNL A   1      47.245  27.864  33.778  1.00  0.00     0.040 A 
ATOM     93  F   UNL A   1      44.929  27.866  34.150  1.00  0.00    -0.206 F 
ATOM     94  C   UNL A   1      48.350  28.249  33.022  1.00  0.00     0.006 A 
ENDBRANCH  70  87
ENDBRANCH  44  45
ENDBRANCH  36  39
ENDBRANCH  34  35
ENDBRANCH  33  34
ENDBRANCH   1  33
TORSDOF 17
ENDMDL
MODEL 3
REMARK VINA RESULT:     -11.6      3.624      9.155
REMARK SMILES O=C(C[C@@H]([NH2+]Cc1ccccc1)C(=O)/N=c1/[nH]c(-c2ccccc2)cs1)NCCCNC(=O)c1ccc(-c2c3nc(c(-c4c(F)cccc4F)c4ccc([nH]4)c(-c4c(F)cccc4F)c4nc(c(-c5c(F)cccc5F)c5ccc2[nH]5)C=C4)C=C3)cc1
REMARK SMILES IDX 28 1 27 2 1 3 2 4 3 6 4 7 5 8 6 11 7 12 8 13 12 14 9 15
REMARK SMILES IDX 11 16 10 17 13 18 14 19 15 20 16 21 17 22 26 23 18 24 25 26
REMARK SMILES IDX 19 27 20 28 24 29 21 30 23 31 22 32 29 33 30 34 31 35 32 36
REMARK SMILES IDX 33 38 34 39 35 40 87 41 36 42 86 43 37 44 38 45 39 46 80 47
REMARK SMILES IDX 40 48 85 49 79 50 81 51 41 52 84 53 78 54 77 55 42 57 68 58
REMARK SMILES IDX 51 59 67 60 52 61 55 62 66 63 82 64 53 65 54 66 65 68 83 69
REMARK SMILES IDX 56 70 43 71 44 72 49 73 45 74 46 75 48 76 50 77 47 78 69 79
REMARK SMILES IDX 70 80 75 81 71 82 72 83 74 84 76 85 73 86 57 87 58 88 63 89
REMARK SMILES IDX 59 90 60 91 62 92 64 93 61 94
REMARK H PARENT 27 5 5 9 5 10 17 25 31 37 81 56 55 67
REMARK Flexibility Score: inf
ROOT
ATOM      1  C   UNL A   1      31.504  30.813  25.748  1.00  0.00     0.117 C 
ENDROOT
BRANCH   1   2
ATOM      2  N   UNL A   1      31.646  29.468  26.255  1.00  0.00    -0.356 N 
ATOM      3  O   UNL A   1      30.945  28.372  24.358  1.00  0.00    -0.275 OA
ATOM      4  C   UNL A   1      31.293  28.357  25.528  1.00  0.00     0.226 C 
ATOM      5  H   UNL A   1      32.009  29.343  27.161  1.00  0.00     0.163 HD
BRANCH   4   6
ATOM      6  C   UNL A   1      31.311  27.108  26.362  1.00  0.00     0.175 C 
BRANCH   6   7
ATOM      7  C   UNL A   1      31.937  25.900  25.672  1.00  0.00     0.284 C 
BRANCH   7   8
ATOM      8  N   UNL A   1      33.358  25.680  26.083  1.00  0.00    -0.332 N 
ATOM      9  H   UNL A   1      33.430  24.768  26.531  1.00  0.00     0.347 HD
ATOM     10  H   UNL A   1      33.613  26.436  26.719  1.00  0.00     0.347 HD
BRANCH   8  11
ATOM     11  C   UNL A   1      34.295  25.722  24.942  1.00  0.00     0.297 C 
BRANCH  11  12
ATOM     12  C   UNL A   1      35.069  24.431  24.795  1.00  0.00     0.006 A 
ATOM     13  C   UNL A   1      36.012  24.049  25.761  1.00  0.00     0.009 A 
ATOM     14  C   UNL A   1      34.920  23.636  23.648  1.00  0.00     0.009 A 
ATOM     15  C   UNL A   1      36.809  22.920  25.564  1.00  0.00     0.001 A 
ATOM     16  C   UNL A   1      35.742  22.529  23.438  1.00  0.00     0.001 A 
ATOM     17  C   UNL A   1      36.688  22.173  24.394  1.00  0.00     0.000 A 
ENDBRANCH  11  12
ENDBRANCH   8  11
ENDBRANCH   7   8
BRANCH   7  18
ATOM     18  C   UNL A   1      31.031  24.667  25.952  1.00  0.00     0.307 C 
ATOM     19  O   UNL A   1      30.243  24.671  26.894  1.00  0.00    -0.265 OA
BRANCH  18  20
ATOM     20  N   UNL A   1      31.128  23.610  25.072  1.00  0.00    -0.180 NA
ATOM     21  C   UNL A   1      31.843  22.594  25.414  1.00  0.00     0.190 A 
ATOM     22  N   UNL A   1      32.043  21.464  24.660  1.00  0.00    -0.330 N 
ATOM     23  S   UNL A   1      32.818  22.405  26.899  1.00  0.00    -0.105 S 
ATOM     24  C   UNL A   1      32.996  20.574  25.118  1.00  0.00     0.058 A 
ATOM     25  H   UNL A   1      31.534  21.297  23.834  1.00  0.00     0.169 HD
ATOM     26  C   UNL A   1      33.574  20.970  26.267  1.00  0.00     0.095 A 
BRANCH  24  27
ATOM     27  C   UNL A   1      33.285  19.301  24.438  1.00  0.00    -0.001 A 
ATOM     28  C   UNL A   1      34.428  18.542  24.725  1.00  0.00     0.010 A 
ATOM     29  C   UNL A   1      32.440  18.859  23.405  1.00  0.00     0.010 A 
ATOM     30  C   UNL A   1      34.724  17.392  23.984  1.00  0.00     0.001 A 
ATOM     31  C   UNL A   1      32.730  17.709  22.671  1.00  0.00     0.001 A 
ATOM     32  C   UNL A   1      33.879  16.981  22.955  1.00  0.00     0.000 A 
ENDBRANCH  24  27
ENDBRANCH  18  20
ENDBRANCH   7  18
ENDBRANCH   6   7
ENDBRANCH   4   6
ENDBRANCH   1   2
BRANCH   1  33
ATOM     33  C   UNL A   1      31.484  31.821  26.891  1.00  0.00     0.042 C 
BRANCH  33  34
ATOM     34  C   UNL A   1      32.729  32.700  26.976  1.00  0.00     0.118 C 
BRANCH  34  35
ATOM     35  N   UNL A   1      32.487  33.962  27.658  1.00  0.00    -0.352 N 
ATOM     36  C   UNL A   1      33.186  34.562  28.675  1.00  0.00     0.251 C 
ATOM     37  H   UNL A   1      31.701  34.463  27.342  1.00  0.00     0.163 HD
ATOM     38  O   UNL A   1      32.719  35.551  29.231  1.00  0.00    -0.269 OA
BRANCH  36  39
ATOM     39  C   UNL A   1      34.485  34.012  29.120  1.00  0.00     0.039 A 
ATOM     40  C   UNL A   1      34.491  33.077  30.157  1.00  0.00     0.014 A 
ATOM     41  C   UNL A   1      35.688  34.427  28.544  1.00  0.00     0.014 A 
ATOM     42  C   UNL A   1      35.700  32.519  30.579  1.00  0.00     0.010 A 
ATOM     43  C   UNL A   1      36.883  33.808  28.909  1.00  0.00     0.010 A 
ATOM     44  C   UNL A   1      36.903  32.854  29.935  1.00  0.00    -0.014 A 
BRANCH  44  45
ATOM     45  C   UNL A   1      38.180  32.207  30.333  1.00  0.00     0.031 A 
ATOM     46  C   UNL A   1      39.088  32.858  31.341  1.00  0.00     0.074 A 
ATOM     47  C   UNL A   1      38.540  31.042  29.759  1.00  0.00     0.049 A 
ATOM     48  N   UNL A   1      40.240  32.442  31.807  1.00  0.00    -0.248 NA
ATOM     49  C   UNL A   1      38.661  34.158  31.881  1.00  0.00     0.031 C 
ATOM     50  C   UNL A   1      37.775  30.334  28.731  1.00  0.00     0.029 A 
ATOM     51  N   UNL A   1      39.641  30.246  29.960  1.00  0.00    -0.354 N 
ATOM     52  C   UNL A   1      40.673  33.427  32.685  1.00  0.00     0.074 A 
ATOM     53  C   UNL A   1      39.693  34.490  32.641  1.00  0.00     0.031 C 
ATOM     54  C   UNL A   1      38.409  29.194  28.418  1.00  0.00     0.029 A 
ATOM     55  C   UNL A   1      39.644  29.107  29.192  1.00  0.00     0.049 A 
ATOM     56  H   UNL A   1      40.359  30.470  30.594  1.00  0.00     0.167 HD
ATOM     57  C   UNL A   1      41.772  33.435  33.477  1.00  0.00     0.037 A 
ATOM     58  C   UNL A   1      40.541  28.106  29.116  1.00  0.00     0.037 A 
ATOM     59  C   UNL A   1      42.739  32.369  33.529  1.00  0.00     0.049 A 
ATOM     60  C   UNL A   1      41.760  28.144  29.996  1.00  0.00     0.074 A 
ATOM     61  C   UNL A   1      43.858  32.260  34.337  1.00  0.00     0.029 A 
ATOM     62  N   UNL A   1      42.707  31.232  32.737  1.00  0.00    -0.354 N 
ATOM     63  N   UNL A   1      42.117  29.047  30.877  1.00  0.00    -0.248 NA
ATOM     64  C   UNL A   1      42.696  27.019  29.877  1.00  0.00     0.031 C 
ATOM     65  C   UNL A   1      44.532  31.083  33.996  1.00  0.00     0.029 A 
ATOM     66  C   UNL A   1      43.801  30.428  33.018  1.00  0.00     0.049 A 
ATOM     67  H   UNL A   1      42.010  31.025  32.072  1.00  0.00     0.167 HD
ATOM     68  C   UNL A   1      43.300  28.584  31.439  1.00  0.00     0.074 A 
ATOM     69  C   UNL A   1      43.589  27.311  30.812  1.00  0.00     0.031 C 
ATOM     70  C   UNL A   1      44.077  29.160  32.389  1.00  0.00     0.037 A 
BRANCH  57  71
ATOM     71  C   UNL A   1      41.988  34.636  34.354  1.00  0.00     0.057 A 
ATOM     72  C   UNL A   1      41.520  34.683  35.675  1.00  0.00     0.134 A 
ATOM     73  C   UNL A   1      42.705  35.745  33.886  1.00  0.00     0.134 A 
ATOM     74  F   UNL A   1      40.817  33.661  36.183  1.00  0.00    -0.206 F 
ATOM     75  C   UNL A   1      41.733  35.798  36.486  1.00  0.00     0.040 A 
ATOM     76  C   UNL A   1      42.950  36.854  34.699  1.00  0.00     0.040 A 
ATOM     77  F   UNL A   1      43.188  35.766  32.635  1.00  0.00    -0.206 F 
ATOM     78  C   UNL A   1      42.457  36.884  36.002  1.00  0.00     0.006 A 
ENDBRANCH  57  71
BRANCH  58  79
ATOM     79  C   UNL A   1      40.311  26.967  28.191  1.00  0.00     0.057 A 
ATOM     80  C   UNL A   1      39.515  25.877  28.566  1.00  0.00     0.134 A 
ATOM     81  C   UNL A   1      40.890  26.932  26.917  1.00  0.00     0.134 A 
ATOM     82  F   UNL A   1      38.946  25.844  29.781  1.00  0.00    -0.206 F 
ATOM     83  C   UNL A   1      39.325  24.783  27.720  1.00  0.00     0.040 A 
ATOM     84  C   UNL A   1      40.685  25.857  26.049  1.00  0.00     0.040 A 
ATOM     85  F   UNL A   1      41.656  27.948  26.492  1.00  0.00    -0.206 F 
ATOM     86  C   UNL A   1      39.908  24.774  26.455  1.00  0.00     0.006 A 
ENDBRANCH  58  79
BRANCH  70  87
ATOM     87  C   UNL A   1      45.293  28.400  32.836  1.00  0.00     0.057 A 
ATOM     88  C   UNL A   1      46.555  28.610  32.264  1.00  0.00     0.134 A 
ATOM     89  C   UNL A   1      45.204  27.459  33.870  1.00  0.00     0.134 A 
ATOM     90  F   UNL A   1      46.709  29.489  31.261  1.00  0.00    -0.206 F 
ATOM     91  C   UNL A   1      47.675  27.889  32.681  1.00  0.00     0.040 A 
ATOM     92  C   UNL A   1      46.322  26.754  34.317  1.00  0.00     0.040 A 
ATOM     93  F   UNL A   1      44.028  27.215  34.470  1.00  0.00    -0.206 F 
ATOM     94  C   UNL A   1      47.562  26.962  33.715  1.00  0.00     0.006 A 
ENDBRANCH  70  87
ENDBRANCH  44  45
ENDBRANCH  36  39
ENDBRANCH  34  35
ENDBRANCH  33  34
ENDBRANCH   1  33
TORSDOF 17
ENDMDL
