MODEL 1
REMARK VINA RESULT:     -10.6      0.000      0.000
REMARK SMILES CCCC1(CCC)C[NH+]([C@H]2C=C[C@@H](C(=O)NCCCNC(=O)c3ccc(-c4c5nc(c(-c6c(F)cccc6F)c6ccc([nH]6)c(-c6c(F)cccc6F)c6nc(c(-c7c(F)cccc7F)c7ccc4[nH]7)C=C6)C=C5)cc3)C2)C1
REMARK SMILES IDX 17 1 16 2 14 3 15 4 13 6 10 7 11 8 77 9 12 10 9 11 4 12 8 13
REMARK SMILES IDX 78 14 3 16 2 17 1 18 5 19 6 20 7 21 18 22 19 23 20 24 21 25
REMARK SMILES IDX 22 27 23 28 24 29 76 30 25 31 75 32 26 33 27 34 28 35 69 36
REMARK SMILES IDX 29 37 74 38 68 39 70 40 30 41 73 42 67 43 66 44 31 46 57 47
REMARK SMILES IDX 40 48 56 49 41 50 44 51 55 52 71 53 42 54 43 55 54 57 72 58
REMARK SMILES IDX 45 59 32 60 33 61 38 62 34 63 35 64 37 65 39 66 36 67 58 68
REMARK SMILES IDX 59 69 64 70 60 71 61 72 63 73 65 74 62 75 46 76 47 77 52 78
REMARK SMILES IDX 48 79 49 80 51 81 53 82 50 83
REMARK H PARENT 16 5 9 15 20 26 70 45 44 56
REMARK Flexibility Score: inf
ROOT
ATOM      1  C   UNL A   1      34.479  21.316  24.905  1.00  0.00     0.117 C 
ENDROOT
BRANCH   1   2
ATOM      2  N   UNL A   1      34.664  22.451  24.010  1.00  0.00    -0.356 N 
ATOM      3  C   UNL A   1      33.833  23.270  23.316  1.00  0.00     0.227 C 
ATOM      4  O   UNL A   1      34.407  24.138  22.641  1.00  0.00    -0.274 OA
ATOM      5  H   UNL A   1      35.613  22.677  23.879  1.00  0.00     0.163 HD
BRANCH   3   6
ATOM      6  C   UNL A   1      32.289  23.226  23.296  1.00  0.00     0.107 C 
ATOM      7  C   UNL A   1      30.933  24.202  25.159  1.00  0.00     0.208 C 
ATOM      8  C   UNL A   1      30.688  24.868  23.828  1.00  0.00     0.033 C 
ATOM      9  C   UNL A   1      31.719  22.949  24.707  1.00  0.00     0.087 C 
ATOM     10  C   UNL A   1      31.432  24.356  22.839  1.00  0.00    -0.012 C 
BRANCH   7  11
ATOM     11  N   UNL A   1      31.477  25.174  26.119  1.00  0.00    -0.328 N 
ATOM     12  C   UNL A   1      32.940  26.743  25.832  1.00  0.00     0.068 C 
ATOM     13  C   UNL A   1      32.935  25.213  26.228  1.00  0.00     0.275 C 
ATOM     14  C   UNL A   1      31.407  26.552  25.675  1.00  0.00     0.275 C 
ATOM     15  H   UNL A   1      30.941  24.882  26.936  1.00  0.00     0.348 HD
BRANCH  12  16
ATOM     16  C   UNL A   1      33.227  27.890  26.827  1.00  0.00     0.018 C 
BRANCH  16  17
ATOM     17  C   UNL A   1      34.274  28.910  26.405  1.00  0.00    -0.002 C 
ATOM     18  C   UNL A   1      35.188  29.277  27.567  1.00  0.00     0.004 C 
ENDBRANCH  16  17
ENDBRANCH  12  16
BRANCH  12  19
ATOM     19  C   UNL A   1      33.765  26.942  24.530  1.00  0.00     0.018 C 
BRANCH  19  20
ATOM     20  C   UNL A   1      33.070  27.717  23.408  1.00  0.00    -0.002 C 
ATOM     21  C   UNL A   1      33.986  28.254  22.320  1.00  0.00     0.004 C 
ENDBRANCH  19  20
ENDBRANCH  12  19
ENDBRANCH   7  11
ENDBRANCH   3   6
ENDBRANCH   1   2
BRANCH   1  22
ATOM     22  C   UNL A   1      35.693  20.372  24.990  1.00  0.00     0.042 C 
BRANCH  22  23
ATOM     23  C   UNL A   1      37.069  21.044  25.001  1.00  0.00     0.118 C 
BRANCH  23  24
ATOM     24  N   UNL A   1      38.113  20.099  25.357  1.00  0.00    -0.352 N 
ATOM     25  C   UNL A   1      39.375  20.261  25.869  1.00  0.00     0.251 C 
ATOM     26  H   UNL A   1      37.865  19.159  25.202  1.00  0.00     0.163 HD
ATOM     27  O   UNL A   1      40.133  19.293  25.823  1.00  0.00    -0.269 OA
BRANCH  25  28
ATOM     28  C   UNL A   1      39.871  21.525  26.482  1.00  0.00     0.039 A 
ATOM     29  C   UNL A   1      39.454  22.728  25.895  1.00  0.00     0.014 A 
ATOM     30  C   UNL A   1      40.838  21.574  27.490  1.00  0.00     0.014 A 
ATOM     31  C   UNL A   1      39.996  23.954  26.301  1.00  0.00     0.010 A 
ATOM     32  C   UNL A   1      41.343  22.810  27.937  1.00  0.00     0.010 A 
ATOM     33  C   UNL A   1      40.951  24.013  27.328  1.00  0.00    -0.014 A 
BRANCH  33  34
ATOM     34  C   UNL A   1      41.550  25.327  27.710  1.00  0.00     0.031 A 
ATOM     35  C   UNL A   1      42.940  25.710  27.263  1.00  0.00     0.074 A 
ATOM     36  C   UNL A   1      40.834  26.214  28.430  1.00  0.00     0.049 A 
ATOM     37  N   UNL A   1      43.577  26.846  27.421  1.00  0.00    -0.248 NA
ATOM     38  C   UNL A   1      43.721  24.682  26.560  1.00  0.00     0.031 C 
ATOM     39  C   UNL A   1      39.492  25.981  28.963  1.00  0.00     0.029 A 
ATOM     40  N   UNL A   1      41.131  27.496  28.826  1.00  0.00    -0.354 N 
ATOM     41  C   UNL A   1      44.827  26.670  26.841  1.00  0.00     0.074 A 
ATOM     42  C   UNL A   1      44.877  25.302  26.369  1.00  0.00     0.031 C 
ATOM     43  C   UNL A   1      39.068  27.094  29.585  1.00  0.00     0.029 A 
ATOM     44  C   UNL A   1      40.114  28.113  29.512  1.00  0.00     0.049 A 
ATOM     45  H   UNL A   1      41.994  27.932  28.635  1.00  0.00     0.167 HD
ATOM     46  C   UNL A   1      45.835  27.565  26.689  1.00  0.00     0.037 A 
ATOM     47  C   UNL A   1      40.019  29.360  30.014  1.00  0.00     0.037 A 
ATOM     48  C   UNL A   1      45.795  28.935  27.130  1.00  0.00     0.049 A 
ATOM     49  C   UNL A   1      41.149  30.336  29.831  1.00  0.00     0.074 A 
ATOM     50  C   UNL A   1      46.752  29.924  26.960  1.00  0.00     0.029 A 
ATOM     51  N   UNL A   1      44.749  29.514  27.828  1.00  0.00    -0.354 N 
ATOM     52  N   UNL A   1      42.291  30.173  29.212  1.00  0.00    -0.248 NA
ATOM     53  C   UNL A   1      40.967  31.677  30.411  1.00  0.00     0.031 C 
ATOM     54  C   UNL A   1      46.299  31.090  27.588  1.00  0.00     0.029 A 
ATOM     55  C   UNL A   1      45.045  30.838  28.115  1.00  0.00     0.049 A 
ATOM     56  H   UNL A   1      43.917  29.053  28.083  1.00  0.00     0.167 HD
ATOM     57  C   UNL A   1      42.951  31.391  29.306  1.00  0.00     0.074 A 
ATOM     58  C   UNL A   1      42.078  32.291  30.029  1.00  0.00     0.031 C 
ATOM     59  C   UNL A   1      44.175  31.733  28.832  1.00  0.00     0.037 A 
BRANCH  46  60
ATOM     60  C   UNL A   1      47.082  27.091  26.002  1.00  0.00     0.057 A 
ATOM     61  C   UNL A   1      47.285  27.289  24.631  1.00  0.00     0.134 A 
ATOM     62  C   UNL A   1      48.113  26.479  26.728  1.00  0.00     0.134 A 
ATOM     63  F   UNL A   1      46.334  27.863  23.879  1.00  0.00    -0.206 F 
ATOM     64  C   UNL A   1      48.460  26.877  24.001  1.00  0.00     0.040 A 
ATOM     65  C   UNL A   1      49.302  26.084  26.113  1.00  0.00     0.040 A 
ATOM     66  F   UNL A   1      47.987  26.270  28.047  1.00  0.00    -0.206 F 
ATOM     67  C   UNL A   1      49.476  26.279  24.744  1.00  0.00     0.006 A 
ENDBRANCH  46  60
BRANCH  47  68
ATOM     68  C   UNL A   1      38.782  29.780  30.717  1.00  0.00     0.057 A 
ATOM     69  C   UNL A   1      38.592  29.496  32.074  1.00  0.00     0.134 A 
ATOM     70  C   UNL A   1      37.756  30.453  30.044  1.00  0.00     0.134 A 
ATOM     71  F   UNL A   1      39.531  28.832  32.763  1.00  0.00    -0.206 F 
ATOM     72  C   UNL A   1      37.416  29.854  32.736  1.00  0.00     0.040 A 
ATOM     73  C   UNL A   1      36.585  30.835  30.700  1.00  0.00     0.040 A 
ATOM     74  F   UNL A   1      37.881  30.752  28.744  1.00  0.00    -0.206 F 
ATOM     75  C   UNL A   1      36.410  30.530  32.049  1.00  0.00     0.006 A 
ENDBRANCH  47  68
BRANCH  59  76
ATOM     76  C   UNL A   1      44.634  33.143  29.059  1.00  0.00     0.057 A 
ATOM     77  C   UNL A   1      44.357  34.165  28.140  1.00  0.00     0.134 A 
ATOM     78  C   UNL A   1      45.339  33.490  30.219  1.00  0.00     0.134 A 
ATOM     79  F   UNL A   1      43.698  33.897  27.004  1.00  0.00    -0.206 F 
ATOM     80  C   UNL A   1      44.785  35.476  28.358  1.00  0.00     0.040 A 
ATOM     81  C   UNL A   1      45.752  34.801  30.457  1.00  0.00     0.040 A 
ATOM     82  F   UNL A   1      45.630  32.561  31.141  1.00  0.00    -0.206 F 
ATOM     83  C   UNL A   1      45.481  35.799  29.522  1.00  0.00     0.006 A 
ENDBRANCH  59  76
ENDBRANCH  33  34
ENDBRANCH  25  28
ENDBRANCH  23  24
ENDBRANCH  22  23
ENDBRANCH   1  22
TORSDOF 15
ENDMDL
MODEL 2
REMARK VINA RESULT:     -10.6      2.142      2.795
REMARK SMILES CCCC1(CCC)C[NH+]([C@H]2C=C[C@@H](C(=O)NCCCNC(=O)c3ccc(-c4c5nc(c(-c6c(F)cccc6F)c6ccc([nH]6)c(-c6c(F)cccc6F)c6nc(c(-c7c(F)cccc7F)c7ccc4[nH]7)C=C6)C=C5)cc3)C2)C1
REMARK SMILES IDX 17 1 16 2 14 3 15 4 13 6 10 7 11 8 77 9 12 10 9 11 4 12 8 13
REMARK SMILES IDX 78 14 3 16 2 17 1 18 5 19 6 20 7 21 18 22 19 23 20 24 21 25
REMARK SMILES IDX 22 27 23 28 24 29 76 30 25 31 75 32 26 33 27 34 28 35 69 36
REMARK SMILES IDX 29 37 74 38 68 39 70 40 30 41 73 42 67 43 66 44 31 46 57 47
REMARK SMILES IDX 40 48 56 49 41 50 44 51 55 52 71 53 42 54 43 55 54 57 72 58
REMARK SMILES IDX 45 59 32 60 33 61 38 62 34 63 35 64 37 65 39 66 36 67 58 68
REMARK SMILES IDX 59 69 64 70 60 71 61 72 63 73 65 74 62 75 46 76 47 77 52 78
REMARK SMILES IDX 48 79 49 80 51 81 53 82 50 83
REMARK H PARENT 16 5 9 15 20 26 70 45 44 56
REMARK Flexibility Score: inf
ROOT
ATOM      1  C   UNL A   1      36.365  20.286  24.633  1.00  0.00     0.117 C 
ENDROOT
BRANCH   1   2
ATOM      2  N   UNL A   1      35.523  20.637  25.769  1.00  0.00    -0.356 N 
ATOM      3  C   UNL A   1      34.271  21.143  25.915  1.00  0.00     0.227 C 
ATOM      4  O   UNL A   1      33.914  21.310  27.091  1.00  0.00    -0.274 OA
ATOM      5  H   UNL A   1      35.964  20.468  26.633  1.00  0.00     0.163 HD
BRANCH   3   6
ATOM      6  C   UNL A   1      33.281  21.511  24.787  1.00  0.00     0.107 C 
ATOM      7  C   UNL A   1      31.655  23.397  25.046  1.00  0.00     0.208 C 
ATOM      8  C   UNL A   1      32.635  23.602  23.918  1.00  0.00     0.033 C 
ATOM      9  C   UNL A   1      31.899  21.902  25.363  1.00  0.00     0.087 C 
ATOM     10  C   UNL A   1      33.517  22.601  23.799  1.00  0.00    -0.012 C 
BRANCH   7  11
ATOM     11  N   UNL A   1      31.812  24.455  26.054  1.00  0.00    -0.328 N 
ATOM     12  C   UNL A   1      31.814  26.607  25.823  1.00  0.00     0.068 C 
ATOM     13  C   UNL A   1      32.870  25.431  25.791  1.00  0.00     0.275 C 
ATOM     14  C   UNL A   1      30.777  25.469  26.019  1.00  0.00     0.275 C 
ATOM     15  H   UNL A   1      31.902  23.857  26.875  1.00  0.00     0.348 HD
BRANCH  12  16
ATOM     16  C   UNL A   1      31.697  27.629  26.975  1.00  0.00     0.018 C 
BRANCH  16  17
ATOM     17  C   UNL A   1      32.931  28.471  27.266  1.00  0.00    -0.002 C 
ATOM     18  C   UNL A   1      32.633  29.958  27.121  1.00  0.00     0.004 C 
ENDBRANCH  16  17
ENDBRANCH  12  16
BRANCH  12  19
ATOM     19  C   UNL A   1      31.810  27.339  24.452  1.00  0.00     0.018 C 
BRANCH  19  20
ATOM     20  C   UNL A   1      30.582  28.206  24.159  1.00  0.00    -0.002 C 
ATOM     21  C   UNL A   1      29.796  27.825  22.916  1.00  0.00     0.004 C 
ENDBRANCH  19  20
ENDBRANCH  12  19
ENDBRANCH   7  11
ENDBRANCH   3   6
ENDBRANCH   1   2
BRANCH   1  22
ATOM     22  C   UNL A   1      37.596  19.436  24.997  1.00  0.00     0.042 C 
BRANCH  22  23
ATOM     23  C   UNL A   1      38.788  20.195  25.588  1.00  0.00     0.118 C 
BRANCH  23  24
ATOM     24  N   UNL A   1      39.939  19.324  25.748  1.00  0.00    -0.352 N 
ATOM     25  C   UNL A   1      41.259  19.573  26.026  1.00  0.00     0.251 C 
ATOM     26  H   UNL A   1      39.731  18.368  25.634  1.00  0.00     0.163 HD
ATOM     27  O   UNL A   1      42.059  18.657  25.840  1.00  0.00    -0.269 OA
BRANCH  25  28
ATOM     28  C   UNL A   1      41.771  20.871  26.546  1.00  0.00     0.039 A 
ATOM     29  C   UNL A   1      41.686  21.086  27.929  1.00  0.00     0.014 A 
ATOM     30  C   UNL A   1      42.175  21.932  25.730  1.00  0.00     0.014 A 
ATOM     31  C   UNL A   1      41.992  22.334  28.486  1.00  0.00     0.010 A 
ATOM     32  C   UNL A   1      42.536  23.171  26.294  1.00  0.00     0.010 A 
ATOM     33  C   UNL A   1      42.421  23.396  27.675  1.00  0.00    -0.014 A 
BRANCH  33  34
ATOM     34  C   UNL A   1      42.694  24.732  28.286  1.00  0.00     0.031 A 
ATOM     35  C   UNL A   1      44.093  25.138  28.681  1.00  0.00     0.074 A 
ATOM     36  C   UNL A   1      41.691  25.616  28.456  1.00  0.00     0.049 A 
ATOM     37  N   UNL A   1      44.524  26.292  29.134  1.00  0.00    -0.248 NA
ATOM     38  C   UNL A   1      45.141  24.114  28.567  1.00  0.00     0.031 C 
ATOM     39  C   UNL A   1      40.282  25.363  28.154  1.00  0.00     0.029 A 
ATOM     40  N   UNL A   1      41.706  26.914  28.910  1.00  0.00    -0.354 N 
ATOM     41  C   UNL A   1      45.886  26.133  29.357  1.00  0.00     0.074 A 
ATOM     42  C   UNL A   1      46.202  24.757  29.036  1.00  0.00     0.031 C 
ATOM     43  C   UNL A   1      39.574  26.479  28.398  1.00  0.00     0.029 A 
ATOM     44  C   UNL A   1      40.474  27.521  28.890  1.00  0.00     0.049 A 
ATOM     45  H   UNL A   1      42.524  27.366  29.220  1.00  0.00     0.167 HD
ATOM     46  C   UNL A   1      46.799  27.048  29.767  1.00  0.00     0.037 A 
ATOM     47  C   UNL A   1      40.105  28.775  29.215  1.00  0.00     0.037 A 
ATOM     48  C   UNL A   1      46.509  28.426  30.068  1.00  0.00     0.049 A 
ATOM     49  C   UNL A   1      41.136  29.773  29.665  1.00  0.00     0.074 A 
ATOM     50  C   UNL A   1      47.390  29.433  30.431  1.00  0.00     0.029 A 
ATOM     51  N   UNL A   1      45.247  28.995  30.043  1.00  0.00    -0.354 N 
ATOM     52  N   UNL A   1      42.431  29.624  29.796  1.00  0.00    -0.248 NA
ATOM     53  C   UNL A   1      40.650  31.122  30.003  1.00  0.00     0.031 C 
ATOM     54  C   UNL A   1      46.654  30.601  30.663  1.00  0.00     0.029 A 
ATOM     55  C   UNL A   1      45.321  30.331  30.406  1.00  0.00     0.049 A 
ATOM     56  H   UNL A   1      44.418  28.519  29.804  1.00  0.00     0.167 HD
ATOM     57  C   UNL A   1      42.915  30.860  30.205  1.00  0.00     0.074 A 
ATOM     58  C   UNL A   1      41.780  31.754  30.288  1.00  0.00     0.031 C 
ATOM     59  C   UNL A   1      44.192  31.220  30.486  1.00  0.00     0.037 A 
BRANCH  46  60
ATOM     60  C   UNL A   1      48.221  26.589  29.910  1.00  0.00     0.057 A 
ATOM     61  C   UNL A   1      48.679  25.976  31.082  1.00  0.00     0.134 A 
ATOM     62  C   UNL A   1      49.125  26.712  28.847  1.00  0.00     0.134 A 
ATOM     63  F   UNL A   1      47.865  25.835  32.139  1.00  0.00    -0.206 F 
ATOM     64  C   UNL A   1      49.993  25.519  31.201  1.00  0.00     0.040 A 
ATOM     65  C   UNL A   1      50.434  26.238  28.945  1.00  0.00     0.040 A 
ATOM     66  F   UNL A   1      48.746  27.279  27.692  1.00  0.00    -0.206 F 
ATOM     67  C   UNL A   1      50.873  25.644  30.127  1.00  0.00     0.006 A 
ENDBRANCH  46  60
BRANCH  47  68
ATOM     68  C   UNL A   1      38.683  29.181  29.093  1.00  0.00     0.057 A 
ATOM     69  C   UNL A   1      37.818  29.119  30.192  1.00  0.00     0.134 A 
ATOM     70  C   UNL A   1      38.153  29.617  27.873  1.00  0.00     0.134 A 
ATOM     71  F   UNL A   1      38.265  28.685  31.379  1.00  0.00    -0.206 F 
ATOM     72  C   UNL A   1      36.471  29.463  30.079  1.00  0.00     0.040 A 
ATOM     73  C   UNL A   1      36.812  29.984  27.753  1.00  0.00     0.040 A 
ATOM     74  F   UNL A   1      38.932  29.697  26.787  1.00  0.00    -0.206 F 
ATOM     75  C   UNL A   1      35.965  29.901  28.857  1.00  0.00     0.006 A 
ENDBRANCH  47  68
BRANCH  59  76
ATOM     76  C   UNL A   1      44.435  32.645  30.887  1.00  0.00     0.057 A 
ATOM     77  C   UNL A   1      44.684  33.646  29.938  1.00  0.00     0.134 A 
ATOM     78  C   UNL A   1      44.394  33.028  32.234  1.00  0.00     0.134 A 
ATOM     79  F   UNL A   1      44.750  33.343  28.633  1.00  0.00    -0.206 F 
ATOM     80  C   UNL A   1      44.907  34.971  30.317  1.00  0.00     0.040 A 
ATOM     81  C   UNL A   1      44.593  34.353  32.623  1.00  0.00     0.040 A 
ATOM     82  F   UNL A   1      44.153  32.120  33.192  1.00  0.00    -0.206 F 
ATOM     83  C   UNL A   1      44.857  35.329  31.663  1.00  0.00     0.006 A 
ENDBRANCH  59  76
ENDBRANCH  33  34
ENDBRANCH  25  28
ENDBRANCH  23  24
ENDBRANCH  22  23
ENDBRANCH   1  22
TORSDOF 15
ENDMDL
MODEL 3
REMARK VINA RESULT:     -10.5      4.019      9.307
REMARK SMILES CCCC1(CCC)C[NH+]([C@H]2C=C[C@@H](C(=O)NCCCNC(=O)c3ccc(-c4c5nc(c(-c6c(F)cccc6F)c6ccc([nH]6)c(-c6c(F)cccc6F)c6nc(c(-c7c(F)cccc7F)c7ccc4[nH]7)C=C6)C=C5)cc3)C2)C1
REMARK SMILES IDX 17 1 16 2 14 3 15 4 13 6 10 7 11 8 77 9 12 10 9 11 4 12 8 13
REMARK SMILES IDX 78 14 3 16 2 17 1 18 5 19 6 20 7 21 18 22 19 23 20 24 21 25
REMARK SMILES IDX 22 27 23 28 24 29 76 30 25 31 75 32 26 33 27 34 28 35 69 36
REMARK SMILES IDX 29 37 74 38 68 39 70 40 30 41 73 42 67 43 66 44 31 46 57 47
REMARK SMILES IDX 40 48 56 49 41 50 44 51 55 52 71 53 42 54 43 55 54 57 72 58
REMARK SMILES IDX 45 59 32 60 33 61 38 62 34 63 35 64 37 65 39 66 36 67 58 68
REMARK SMILES IDX 59 69 64 70 60 71 61 72 63 73 65 74 62 75 46 76 47 77 52 78
REMARK SMILES IDX 48 79 49 80 51 81 53 82 50 83
REMARK H PARENT 16 5 9 15 20 26 70 45 44 56
REMARK Flexibility Score: inf
ROOT
ATOM      1  C   UNL A   1      31.183  28.932  24.808  1.00  0.00     0.117 C 
ENDROOT
BRANCH   1   2
ATOM      2  N   UNL A   1      31.130  27.767  25.681  1.00  0.00    -0.356 N 
ATOM      3  C   UNL A   1      31.965  26.732  25.951  1.00  0.00     0.227 C 
ATOM      4  O   UNL A   1      31.530  25.917  26.778  1.00  0.00    -0.274 OA
ATOM      5  H   UNL A   1      30.292  27.720  26.197  1.00  0.00     0.163 HD
BRANCH   3   6
ATOM      6  C   UNL A   1      33.367  26.488  25.348  1.00  0.00     0.107 C 
ATOM      7  C   UNL A   1      34.124  24.193  24.697  1.00  0.00     0.208 C 
ATOM      8  C   UNL A   1      34.060  25.154  23.536  1.00  0.00     0.033 C 
ATOM      9  C   UNL A   1      33.986  25.175  25.884  1.00  0.00     0.087 C 
ATOM     10  C   UNL A   1      33.634  26.375  23.887  1.00  0.00    -0.012 C 
BRANCH   7  11
ATOM     11  N   UNL A   1      33.193  23.076  24.481  1.00  0.00    -0.328 N 
ATOM     12  C   UNL A   1      33.531  20.941  24.595  1.00  0.00     0.068 C 
ATOM     13  C   UNL A   1      33.614  22.077  23.499  1.00  0.00     0.275 C 
ATOM     14  C   UNL A   1      33.169  22.105  25.556  1.00  0.00     0.275 C 
ATOM     15  H   UNL A   1      32.357  23.625  24.281  1.00  0.00     0.348 HD
BRANCH  12  16
ATOM     16  C   UNL A   1      32.425  19.863  24.636  1.00  0.00     0.018 C 
BRANCH  16  17
ATOM     17  C   UNL A   1      32.868  18.426  24.407  1.00  0.00    -0.002 C 
ATOM     18  C   UNL A   1      32.594  17.985  22.975  1.00  0.00     0.004 C 
ENDBRANCH  16  17
ENDBRANCH  12  16
BRANCH  12  19
ATOM     19  C   UNL A   1      34.928  20.285  24.772  1.00  0.00     0.018 C 
BRANCH  19  20
ATOM     20  C   UNL A   1      35.977  21.131  25.499  1.00  0.00    -0.002 C 
ATOM     21  C   UNL A   1      37.101  21.667  24.628  1.00  0.00     0.004 C 
ENDBRANCH  19  20
ENDBRANCH  12  19
ENDBRANCH   7  11
ENDBRANCH   3   6
ENDBRANCH   1   2
BRANCH   1  22
ATOM     22  C   UNL A   1      32.101  30.060  25.311  1.00  0.00     0.042 C 
BRANCH  22  23
ATOM     23  C   UNL A   1      31.879  30.514  26.758  1.00  0.00     0.118 C 
BRANCH  23  24
ATOM     24  N   UNL A   1      31.979  31.958  26.876  1.00  0.00    -0.352 N 
ATOM     25  C   UNL A   1      32.896  32.778  27.482  1.00  0.00     0.251 C 
ATOM     26  H   UNL A   1      31.244  32.444  26.434  1.00  0.00     0.163 HD
ATOM     27  O   UNL A   1      32.582  33.956  27.646  1.00  0.00    -0.269 OA
BRANCH  25  28
ATOM     28  C   UNL A   1      34.242  32.331  27.937  1.00  0.00     0.039 A 
ATOM     29  C   UNL A   1      34.358  31.009  28.391  1.00  0.00     0.014 A 
ATOM     30  C   UNL A   1      35.337  33.186  28.086  1.00  0.00     0.014 A 
ATOM     31  C   UNL A   1      35.541  30.552  28.987  1.00  0.00     0.010 A 
ATOM     32  C   UNL A   1      36.545  32.712  28.634  1.00  0.00     0.010 A 
ATOM     33  C   UNL A   1      36.652  31.399  29.119  1.00  0.00    -0.014 A 
BRANCH  33  34
ATOM     34  C   UNL A   1      37.885  30.904  29.802  1.00  0.00     0.031 A 
ATOM     35  C   UNL A   1      38.174  31.254  31.241  1.00  0.00     0.074 A 
ATOM     36  C   UNL A   1      38.743  30.095  29.147  1.00  0.00     0.049 A 
ATOM     37  N   UNL A   1      39.145  30.833  32.017  1.00  0.00    -0.248 NA
ATOM     38  C   UNL A   1      37.265  32.210  31.889  1.00  0.00     0.031 C 
ATOM     39  C   UNL A   1      38.621  29.691  27.747  1.00  0.00     0.029 A 
ATOM     40  N   UNL A   1      39.880  29.456  29.580  1.00  0.00    -0.354 N 
ATOM     41  C   UNL A   1      38.964  31.470  33.238  1.00  0.00     0.074 A 
ATOM     42  C   UNL A   1      37.819  32.343  33.087  1.00  0.00     0.031 C 
ATOM     43  C   UNL A   1      39.622  28.847  27.445  1.00  0.00     0.029 A 
ATOM     44  C   UNL A   1      40.466  28.663  28.624  1.00  0.00     0.049 A 
ATOM     45  H   UNL A   1      40.241  29.557  30.491  1.00  0.00     0.167 HD
ATOM     46  C   UNL A   1      39.666  31.329  34.390  1.00  0.00     0.037 A 
ATOM     47  C   UNL A   1      41.550  27.865  28.685  1.00  0.00     0.037 A 
ATOM     48  C   UNL A   1      40.792  30.449  34.568  1.00  0.00     0.049 A 
ATOM     49  C   UNL A   1      42.311  27.722  29.974  1.00  0.00     0.074 A 
ATOM     50  C   UNL A   1      41.520  30.202  35.722  1.00  0.00     0.029 A 
ATOM     51  N   UNL A   1      41.356  29.671  33.571  1.00  0.00    -0.354 N 
ATOM     52  N   UNL A   1      42.078  28.274  31.139  1.00  0.00    -0.248 NA
ATOM     53  C   UNL A   1      43.484  26.831  29.957  1.00  0.00     0.031 C 
ATOM     54  C   UNL A   1      42.548  29.304  35.412  1.00  0.00     0.029 A 
ATOM     55  C   UNL A   1      42.436  28.962  34.076  1.00  0.00     0.049 A 
ATOM     56  H   UNL A   1      41.038  29.629  32.640  1.00  0.00     0.167 HD
ATOM     57  C   UNL A   1      43.055  27.781  31.995  1.00  0.00     0.074 A 
ATOM     58  C   UNL A   1      43.876  26.874  31.222  1.00  0.00     0.031 C 
ATOM     59  C   UNL A   1      43.251  28.059  33.308  1.00  0.00     0.037 A 
BRANCH  46  60
ATOM     60  C   UNL A   1      39.230  32.147  35.570  1.00  0.00     0.057 A 
ATOM     61  C   UNL A   1      38.386  31.621  36.556  1.00  0.00     0.134 A 
ATOM     62  C   UNL A   1      39.701  33.454  35.751  1.00  0.00     0.134 A 
ATOM     63  F   UNL A   1      37.894  30.378  36.437  1.00  0.00    -0.206 F 
ATOM     64  C   UNL A   1      38.008  32.373  37.669  1.00  0.00     0.040 A 
ATOM     65  C   UNL A   1      39.349  34.207  36.872  1.00  0.00     0.040 A 
ATOM     66  F   UNL A   1      40.523  34.013  34.850  1.00  0.00    -0.206 F 
ATOM     67  C   UNL A   1      38.495  33.668  37.833  1.00  0.00     0.006 A 
ENDBRANCH  46  60
BRANCH  47  68
ATOM     68  C   UNL A   1      41.970  27.097  27.486  1.00  0.00     0.057 A 
ATOM     69  C   UNL A   1      42.813  27.666  26.525  1.00  0.00     0.134 A 
ATOM     70  C   UNL A   1      41.522  25.790  27.265  1.00  0.00     0.134 A 
ATOM     71  F   UNL A   1      43.254  28.924  26.673  1.00  0.00    -0.206 F 
ATOM     72  C   UNL A   1      43.184  26.967  25.376  1.00  0.00     0.040 A 
ATOM     73  C   UNL A   1      41.903  25.073  26.130  1.00  0.00     0.040 A 
ATOM     74  F   UNL A   1      40.712  25.193  28.150  1.00  0.00    -0.206 F 
ATOM     75  C   UNL A   1      42.732  25.664  25.179  1.00  0.00     0.006 A 
ENDBRANCH  47  68
BRANCH  59  76
ATOM     76  C   UNL A   1      44.382  27.357  33.999  1.00  0.00     0.057 A 
ATOM     77  C   UNL A   1      45.661  27.925  34.084  1.00  0.00     0.134 A 
ATOM     78  C   UNL A   1      44.187  26.111  34.609  1.00  0.00     0.134 A 
ATOM     79  F   UNL A   1      45.918  29.109  33.510  1.00  0.00    -0.206 F 
ATOM     80  C   UNL A   1      46.709  27.267  34.731  1.00  0.00     0.040 A 
ATOM     81  C   UNL A   1      45.221  25.455  35.278  1.00  0.00     0.040 A 
ATOM     82  F   UNL A   1      42.986  25.516  34.570  1.00  0.00    -0.206 F 
ATOM     83  C   UNL A   1      46.490  26.030  35.335  1.00  0.00     0.006 A 
ENDBRANCH  59  76
ENDBRANCH  33  34
ENDBRANCH  25  28
ENDBRANCH  23  24
ENDBRANCH  22  23
ENDBRANCH   1  22
TORSDOF 15
ENDMDL
