MODEL 1
REMARK VINA RESULT:     -13.3      0.000      0.000
REMARK SMILES Cc1cccc(S(=O)(=O)Nc2cc(C(=O)NCCCNC(=O)c3ccc(-c4c5nc(c(-c6c(F)cccc6F)c6ccc([nH]6)c(-c6c(F)cccc6F)c6nc(c(-c7c(F)cccc7F)c7ccc4[nH]7)C=C6)C=C5)cc3)ccc2N2CCC[C@H](C[NH+]3CCCC3)C2)c1
REMARK SMILES IDX 17 1 16 2 14 3 15 4 13 6 11 7 12 8 79 9 78 10 77 11 10 12
REMARK SMILES IDX 7 14 8 15 9 16 6 17 1 18 2 19 3 20 92 21 4 22 5 23 80 24
REMARK SMILES IDX 81 25 91 26 82 27 84 28 83 29 85 30 86 31 87 32 90 33 88 35
REMARK SMILES IDX 89 36 18 37 19 38 20 39 21 40 22 42 23 43 24 44 76 45 25 46
REMARK SMILES IDX 75 47 26 48 27 49 28 50 69 51 29 52 74 53 68 54 70 55 30 56
REMARK SMILES IDX 73 57 67 58 66 59 31 61 57 62 40 63 56 64 41 65 44 66 55 67
REMARK SMILES IDX 71 68 42 69 43 70 54 72 72 73 45 74 32 75 33 76 38 77 34 78
REMARK SMILES IDX 35 79 37 80 39 81 36 82 58 83 59 84 64 85 60 86 61 87 63 88
REMARK SMILES IDX 65 89 62 90 46 91 47 92 52 93 48 94 49 95 51 96 53 97 50 98
REMARK H PARENT 16 5 10 13 86 34 20 41 70 60 44 71
REMARK Flexibility Score: inf
ROOT
ATOM      1  C   UNL A   1      34.848  30.887  27.955  1.00  0.00     0.118 C 
ENDROOT
BRANCH   1   2
ATOM      2  N   UNL A   1      33.585  31.468  27.515  1.00  0.00    -0.352 N 
ATOM      3  C   UNL A   1      32.443  30.907  26.986  1.00  0.00     0.251 C 
ATOM      4  O   UNL A   1      31.463  31.638  26.843  1.00  0.00    -0.269 OA
ATOM      5  H   UNL A   1      33.540  32.447  27.616  1.00  0.00     0.163 HD
BRANCH   3   6
ATOM      6  C   UNL A   1      32.317  29.466  26.619  1.00  0.00     0.042 A 
ATOM      7  C   UNL A   1      32.668  27.585  25.130  1.00  0.00     0.073 A 
ATOM      8  C   UNL A   1      32.660  28.952  25.375  1.00  0.00     0.042 A 
ATOM      9  C   UNL A   1      32.145  26.678  26.064  1.00  0.00     0.061 A 
ATOM     10  C   UNL A   1      31.712  27.202  27.290  1.00  0.00     0.029 A 
ATOM     11  C   UNL A   1      31.826  28.570  27.578  1.00  0.00     0.016 A 
BRANCH   7  12
ATOM     12  N   UNL A   1      33.213  27.117  23.903  1.00  0.00    -0.277 N 
ATOM     13  H   UNL A   1      33.989  26.512  23.935  1.00  0.00     0.180 HD
BRANCH  12  14
ATOM     14  S   UNL A   1      32.592  27.551  22.394  1.00  0.00     0.261 S 
ATOM     15  O   UNL A   1      32.511  26.290  21.657  1.00  0.00    -0.201 OA
ATOM     16  O   UNL A   1      33.428  28.618  21.925  1.00  0.00    -0.201 OA
BRANCH  14  17
ATOM     17  C   UNL A   1      30.918  28.186  22.418  1.00  0.00     0.088 A 
ATOM     18  C   UNL A   1      28.908  31.396  22.055  1.00  0.00     0.044 C 
ATOM     19  C   UNL A   1      29.255  29.951  22.277  1.00  0.00    -0.050 A 
ATOM     20  C   UNL A   1      28.312  29.112  22.886  1.00  0.00     0.003 A 
ATOM     21  C   UNL A   1      30.537  29.453  21.972  1.00  0.00     0.025 A 
ATOM     22  C   UNL A   1      28.653  27.807  23.232  1.00  0.00     0.002 A 
ATOM     23  C   UNL A   1      29.956  27.356  23.024  1.00  0.00     0.022 A 
ENDBRANCH  14  17
ENDBRANCH  12  14
ENDBRANCH   7  12
BRANCH   9  24
ATOM     24  N   UNL A   1      32.018  25.322  25.819  1.00  0.00    -0.369 N 
ATOM     25  C   UNL A   1      30.781  24.671  26.249  1.00  0.00     0.116 C 
ATOM     26  C   UNL A   1      32.871  24.605  24.874  1.00  0.00     0.126 C 
ATOM     27  C   UNL A   1      31.107  23.297  26.826  1.00  0.00     0.022 C 
ATOM     28  C   UNL A   1      33.275  23.245  25.469  1.00  0.00     0.064 C 
ATOM     29  C   UNL A   1      31.991  22.491  25.873  1.00  0.00     0.013 C 
BRANCH  28  30
ATOM     30  C   UNL A   1      34.309  23.479  26.600  1.00  0.00     0.267 C 
BRANCH  30  31
ATOM     31  N   UNL A   1      35.632  22.855  26.524  1.00  0.00    -0.335 N 
ATOM     32  C   UNL A   1      36.704  23.711  26.025  1.00  0.00     0.262 C 
ATOM     33  C   UNL A   1      35.702  21.582  25.813  1.00  0.00     0.262 C 
ATOM     34  H   UNL A   1      35.785  22.675  27.517  1.00  0.00     0.348 HD
ATOM     35  C   UNL A   1      36.919  23.280  24.588  1.00  0.00     0.067 C 
ATOM     36  C   UNL A   1      36.606  21.796  24.604  1.00  0.00     0.067 C 
ENDBRANCH  30  31
ENDBRANCH  28  30
ENDBRANCH   9  24
ENDBRANCH   3   6
ENDBRANCH   1   2
BRANCH   1  37
ATOM     37  C   UNL A   1      35.192  31.238  29.403  1.00  0.00     0.042 C 
BRANCH  37  38
ATOM     38  C   UNL A   1      35.269  32.723  29.670  1.00  0.00     0.118 C 
BRANCH  38  39
ATOM     39  N   UNL A   1      34.237  33.232  30.570  1.00  0.00    -0.352 N 
ATOM     40  C   UNL A   1      34.394  33.593  31.899  1.00  0.00     0.251 C 
ATOM     41  H   UNL A   1      33.333  33.330  30.191  1.00  0.00     0.163 HD
ATOM     42  O   UNL A   1      33.469  34.051  32.556  1.00  0.00    -0.269 OA
BRANCH  40  43
ATOM     43  C   UNL A   1      35.765  33.535  32.458  1.00  0.00     0.039 A 
ATOM     44  C   UNL A   1      36.712  34.382  31.881  1.00  0.00     0.014 A 
ATOM     45  C   UNL A   1      36.149  32.411  33.185  1.00  0.00     0.014 A 
ATOM     46  C   UNL A   1      38.026  33.941  31.780  1.00  0.00     0.010 A 
ATOM     47  C   UNL A   1      37.425  31.920  32.984  1.00  0.00     0.010 A 
ATOM     48  C   UNL A   1      38.339  32.652  32.217  1.00  0.00    -0.014 A 
BRANCH  48  49
ATOM     49  C   UNL A   1      39.577  31.979  31.839  1.00  0.00     0.031 A 
ATOM     50  C   UNL A   1      39.518  30.816  30.935  1.00  0.00     0.074 A 
ATOM     51  C   UNL A   1      40.772  32.400  32.313  1.00  0.00     0.049 A 
ATOM     52  N   UNL A   1      40.351  29.832  30.958  1.00  0.00    -0.248 NA
ATOM     53  C   UNL A   1      38.458  30.656  29.949  1.00  0.00     0.031 C 
ATOM     54  C   UNL A   1      42.097  31.945  31.897  1.00  0.00     0.029 A 
ATOM     55  N   UNL A   1      41.015  33.192  33.441  1.00  0.00    -0.354 N 
ATOM     56  C   UNL A   1      40.114  29.062  29.842  1.00  0.00     0.074 A 
ATOM     57  C   UNL A   1      38.887  29.582  29.283  1.00  0.00     0.031 C 
ATOM     58  C   UNL A   1      42.973  32.205  32.881  1.00  0.00     0.029 A 
ATOM     59  C   UNL A   1      42.225  32.730  34.007  1.00  0.00     0.049 A 
ATOM     60  H   UNL A   1      40.453  33.927  33.775  1.00  0.00     0.167 HD
ATOM     61  C   UNL A   1      41.053  28.161  29.435  1.00  0.00     0.037 A 
ATOM     62  C   UNL A   1      42.270  32.247  35.282  1.00  0.00     0.037 A 
ATOM     63  C   UNL A   1      42.176  28.103  30.369  1.00  0.00     0.049 A 
ATOM     64  C   UNL A   1      42.674  30.792  35.365  1.00  0.00     0.074 A 
ATOM     65  C   UNL A   1      43.420  28.714  30.371  1.00  0.00     0.029 A 
ATOM     66  N   UNL A   1      41.982  27.612  31.657  1.00  0.00    -0.354 N 
ATOM     67  N   UNL A   1      42.728  29.994  34.335  1.00  0.00    -0.248 NA
ATOM     68  C   UNL A   1      42.994  30.107  36.617  1.00  0.00     0.031 C 
ATOM     69  C   UNL A   1      43.940  28.655  31.687  1.00  0.00     0.029 A 
ATOM     70  C   UNL A   1      43.024  27.991  32.484  1.00  0.00     0.049 A 
ATOM     71  H   UNL A   1      41.210  27.071  31.940  1.00  0.00     0.167 HD
ATOM     72  C   UNL A   1      43.004  28.721  34.758  1.00  0.00     0.074 A 
ATOM     73  C   UNL A   1      43.200  28.850  36.190  1.00  0.00     0.031 C 
ATOM     74  C   UNL A   1      43.021  27.659  33.900  1.00  0.00     0.037 A 
BRANCH  61  75
ATOM     75  C   UNL A   1      41.083  27.613  28.024  1.00  0.00     0.057 A 
ATOM     76  C   UNL A   1      40.398  26.429  27.689  1.00  0.00     0.134 A 
ATOM     77  C   UNL A   1      41.836  28.161  26.971  1.00  0.00     0.134 A 
ATOM     78  F   UNL A   1      39.535  25.849  28.532  1.00  0.00    -0.206 F 
ATOM     79  C   UNL A   1      40.568  25.772  26.463  1.00  0.00     0.040 A 
ATOM     80  C   UNL A   1      42.066  27.486  25.764  1.00  0.00     0.040 A 
ATOM     81  F   UNL A   1      42.345  29.398  27.051  1.00  0.00    -0.206 F 
ATOM     82  C   UNL A   1      41.443  26.273  25.512  1.00  0.00     0.006 A 
ENDBRANCH  61  75
BRANCH  62  83
ATOM     83  C   UNL A   1      41.296  32.923  36.179  1.00  0.00     0.057 A 
ATOM     84  C   UNL A   1      41.639  34.190  36.689  1.00  0.00     0.134 A 
ATOM     85  C   UNL A   1      39.942  32.581  36.176  1.00  0.00     0.134 A 
ATOM     86  F   UNL A   1      42.925  34.573  36.735  1.00  0.00    -0.206 F 
ATOM     87  C   UNL A   1      40.668  35.138  37.021  1.00  0.00     0.040 A 
ATOM     88  C   UNL A   1      38.963  33.516  36.531  1.00  0.00     0.040 A 
ATOM     89  F   UNL A   1      39.537  31.394  35.705  1.00  0.00    -0.206 F 
ATOM     90  C   UNL A   1      39.322  34.812  36.900  1.00  0.00     0.006 A 
ENDBRANCH  62  83
BRANCH  74  91
ATOM     91  C   UNL A   1      43.128  26.220  34.325  1.00  0.00     0.057 A 
ATOM     92  C   UNL A   1      42.113  25.526  34.997  1.00  0.00     0.134 A 
ATOM     93  C   UNL A   1      44.244  25.445  33.946  1.00  0.00     0.134 A 
ATOM     94  F   UNL A   1      40.952  26.118  35.310  1.00  0.00    -0.206 F 
ATOM     95  C   UNL A   1      42.229  24.172  35.336  1.00  0.00     0.040 A 
ATOM     96  C   UNL A   1      44.351  24.083  34.236  1.00  0.00     0.040 A 
ATOM     97  F   UNL A   1      45.269  25.981  33.265  1.00  0.00    -0.206 F 
ATOM     98  C   UNL A   1      43.349  23.444  34.951  1.00  0.00     0.006 A 
ENDBRANCH  74  91
ENDBRANCH  48  49
ENDBRANCH  40  43
ENDBRANCH  38  39
ENDBRANCH  37  38
ENDBRANCH   1  37
TORSDOF 16
ENDMDL
MODEL 2
REMARK VINA RESULT:     -13.3      4.056      9.259
REMARK SMILES Cc1cccc(S(=O)(=O)Nc2cc(C(=O)NCCCNC(=O)c3ccc(-c4c5nc(c(-c6c(F)cccc6F)c6ccc([nH]6)c(-c6c(F)cccc6F)c6nc(c(-c7c(F)cccc7F)c7ccc4[nH]7)C=C6)C=C5)cc3)ccc2N2CCC[C@H](C[NH+]3CCCC3)C2)c1
REMARK SMILES IDX 17 1 16 2 14 3 15 4 13 6 11 7 12 8 79 9 78 10 77 11 10 12
REMARK SMILES IDX 7 14 8 15 9 16 6 17 1 18 2 19 3 20 92 21 4 22 5 23 80 24
REMARK SMILES IDX 81 25 91 26 82 27 84 28 83 29 85 30 86 31 87 32 90 33 88 35
REMARK SMILES IDX 89 36 18 37 19 38 20 39 21 40 22 42 23 43 24 44 76 45 25 46
REMARK SMILES IDX 75 47 26 48 27 49 28 50 69 51 29 52 74 53 68 54 70 55 30 56
REMARK SMILES IDX 73 57 67 58 66 59 31 61 57 62 40 63 56 64 41 65 44 66 55 67
REMARK SMILES IDX 71 68 42 69 43 70 54 72 72 73 45 74 32 75 33 76 38 77 34 78
REMARK SMILES IDX 35 79 37 80 39 81 36 82 58 83 59 84 64 85 60 86 61 87 63 88
REMARK SMILES IDX 65 89 62 90 46 91 47 92 52 93 48 94 49 95 51 96 53 97 50 98
REMARK H PARENT 16 5 10 13 86 34 20 41 70 60 44 71
REMARK Flexibility Score: inf
ROOT
ATOM      1  C   UNL A   1      39.619  22.305  26.504  1.00  0.00     0.118 C 
ENDROOT
BRANCH   1   2
ATOM      2  N   UNL A   1      39.196  21.046  25.902  1.00  0.00    -0.352 N 
ATOM      3  C   UNL A   1      38.093  20.706  25.149  1.00  0.00     0.251 C 
ATOM      4  O   UNL A   1      38.073  19.583  24.645  1.00  0.00    -0.269 OA
ATOM      5  H   UNL A   1      39.815  20.298  26.066  1.00  0.00     0.163 HD
BRANCH   3   6
ATOM      6  C   UNL A   1      36.953  21.630  24.878  1.00  0.00     0.042 A 
ATOM      7  C   UNL A   1      34.632  22.300  25.073  1.00  0.00     0.073 A 
ATOM      8  C   UNL A   1      35.634  21.347  25.208  1.00  0.00     0.042 A 
ATOM      9  C   UNL A   1      34.871  23.517  24.418  1.00  0.00     0.061 A 
ATOM     10  C   UNL A   1      36.184  23.770  24.000  1.00  0.00     0.029 A 
ATOM     11  C   UNL A   1      37.219  22.856  24.254  1.00  0.00     0.016 A 
BRANCH   7  12
ATOM     12  N   UNL A   1      33.347  22.014  25.609  1.00  0.00    -0.277 N 
ATOM     13  H   UNL A   1      33.145  22.308  26.526  1.00  0.00     0.180 HD
BRANCH  12  14
ATOM     14  S   UNL A   1      32.150  21.194  24.745  1.00  0.00     0.261 S 
ATOM     15  O   UNL A   1      32.025  21.943  23.494  1.00  0.00    -0.201 OA
ATOM     16  O   UNL A   1      31.036  21.079  25.641  1.00  0.00    -0.201 OA
BRANCH  14  17
ATOM     17  C   UNL A   1      32.580  19.528  24.250  1.00  0.00     0.088 A 
ATOM     18  C   UNL A   1      34.906  16.638  25.098  1.00  0.00     0.044 C 
ATOM     19  C   UNL A   1      33.855  17.467  24.415  1.00  0.00    -0.050 A 
ATOM     20  C   UNL A   1      33.437  17.104  23.127  1.00  0.00     0.003 A 
ATOM     21  C   UNL A   1      33.357  18.645  25.004  1.00  0.00     0.025 A 
ATOM     22  C   UNL A   1      32.570  17.927  22.413  1.00  0.00     0.002 A 
ATOM     23  C   UNL A   1      32.166  19.145  22.961  1.00  0.00     0.022 A 
ENDBRANCH  14  17
ENDBRANCH  12  14
ENDBRANCH   7  12
BRANCH   9  24
ATOM     24  N   UNL A   1      33.880  24.445  24.150  1.00  0.00    -0.369 N 
ATOM     25  C   UNL A   1      33.619  24.770  22.748  1.00  0.00     0.116 C 
ATOM     26  C   UNL A   1      32.878  24.838  25.137  1.00  0.00     0.126 C 
ATOM     27  C   UNL A   1      33.362  26.268  22.617  1.00  0.00     0.022 C 
ATOM     28  C   UNL A   1      32.657  26.360  25.073  1.00  0.00     0.064 C 
ATOM     29  C   UNL A   1      32.308  26.739  23.620  1.00  0.00     0.013 C 
BRANCH  28  30
ATOM     30  C   UNL A   1      33.891  27.072  25.684  1.00  0.00     0.267 C 
BRANCH  30  31
ATOM     31  N   UNL A   1      33.739  27.906  26.878  1.00  0.00    -0.335 N 
ATOM     32  C   UNL A   1      32.363  28.225  27.252  1.00  0.00     0.262 C 
ATOM     33  C   UNL A   1      34.511  29.145  26.900  1.00  0.00     0.262 C 
ATOM     34  H   UNL A   1      34.133  27.272  27.573  1.00  0.00     0.348 HD
ATOM     35  C   UNL A   1      32.145  29.650  26.783  1.00  0.00     0.067 C 
ATOM     36  C   UNL A   1      33.511  30.294  26.935  1.00  0.00     0.067 C 
ENDBRANCH  30  31
ENDBRANCH  28  30
ENDBRANCH   9  24
ENDBRANCH   3   6
ENDBRANCH   1   2
BRANCH   1  37
ATOM     37  C   UNL A   1      40.691  22.119  27.579  1.00  0.00     0.042 C 
BRANCH  37  38
ATOM     38  C   UNL A   1      41.518  23.355  27.839  1.00  0.00     0.118 C 
BRANCH  38  39
ATOM     39  N   UNL A   1      42.340  23.784  26.710  1.00  0.00    -0.352 N 
ATOM     40  C   UNL A   1      42.208  24.955  25.980  1.00  0.00     0.251 C 
ATOM     41  H   UNL A   1      43.066  23.177  26.440  1.00  0.00     0.163 HD
ATOM     42  O   UNL A   1      42.980  25.240  25.074  1.00  0.00    -0.269 OA
BRANCH  40  43
ATOM     43  C   UNL A   1      41.178  25.919  26.429  1.00  0.00     0.039 A 
ATOM     44  C   UNL A   1      41.216  27.190  25.854  1.00  0.00     0.014 A 
ATOM     45  C   UNL A   1      40.527  25.694  27.640  1.00  0.00     0.014 A 
ATOM     46  C   UNL A   1      40.863  28.285  26.634  1.00  0.00     0.010 A 
ATOM     47  C   UNL A   1      40.287  26.785  28.453  1.00  0.00     0.010 A 
ATOM     48  C   UNL A   1      40.528  28.077  27.973  1.00  0.00    -0.014 A 
BRANCH  48  49
ATOM     49  C   UNL A   1      40.489  29.164  28.945  1.00  0.00     0.031 A 
ATOM     50  C   UNL A   1      39.350  30.100  28.934  1.00  0.00     0.074 A 
ATOM     51  C   UNL A   1      41.484  29.330  29.847  1.00  0.00     0.049 A 
ATOM     52  N   UNL A   1      39.422  31.339  29.285  1.00  0.00    -0.248 NA
ATOM     53  C   UNL A   1      38.028  29.705  28.468  1.00  0.00     0.031 C 
ATOM     54  C   UNL A   1      41.506  30.252  30.980  1.00  0.00     0.029 A 
ATOM     55  N   UNL A   1      42.789  28.828  29.783  1.00  0.00    -0.354 N 
ATOM     56  C   UNL A   1      38.135  31.825  29.355  1.00  0.00     0.074 A 
ATOM     57  C   UNL A   1      37.312  30.788  28.777  1.00  0.00     0.031 C 
ATOM     58  C   UNL A   1      42.781  30.481  31.329  1.00  0.00     0.029 A 
ATOM     59  C   UNL A   1      43.628  29.806  30.363  1.00  0.00     0.049 A 
ATOM     60  H   UNL A   1      43.068  27.962  29.407  1.00  0.00     0.167 HD
ATOM     61  C   UNL A   1      37.892  32.991  30.021  1.00  0.00     0.037 A 
ATOM     62  C   UNL A   1      44.635  30.388  29.650  1.00  0.00     0.037 A 
ATOM     63  C   UNL A   1      39.133  33.604  30.491  1.00  0.00     0.049 A 
ATOM     64  C   UNL A   1      44.463  31.879  29.464  1.00  0.00     0.074 A 
ATOM     65  C   UNL A   1      39.784  33.572  31.714  1.00  0.00     0.029 A 
ATOM     66  N   UNL A   1      40.056  34.094  29.571  1.00  0.00    -0.354 N 
ATOM     67  N   UNL A   1      43.357  32.520  29.725  1.00  0.00    -0.248 NA
ATOM     68  C   UNL A   1      45.499  32.755  28.921  1.00  0.00     0.031 C 
ATOM     69  C   UNL A   1      41.127  33.973  31.511  1.00  0.00     0.029 A 
ATOM     70  C   UNL A   1      41.291  34.269  30.169  1.00  0.00     0.049 A 
ATOM     71  H   UNL A   1      39.857  34.289  28.627  1.00  0.00     0.167 HD
ATOM     72  C   UNL A   1      43.486  33.827  29.337  1.00  0.00     0.074 A 
ATOM     73  C   UNL A   1      44.857  33.935  28.875  1.00  0.00     0.031 C 
ATOM     74  C   UNL A   1      42.445  34.709  29.400  1.00  0.00     0.037 A 
BRANCH  61  75
ATOM     75  C   UNL A   1      36.511  33.358  30.520  1.00  0.00     0.057 A 
ATOM     76  C   UNL A   1      35.560  33.944  29.663  1.00  0.00     0.134 A 
ATOM     77  C   UNL A   1      36.087  33.235  31.854  1.00  0.00     0.134 A 
ATOM     78  F   UNL A   1      35.751  34.017  28.340  1.00  0.00    -0.206 F 
ATOM     79  C   UNL A   1      34.355  34.493  30.124  1.00  0.00     0.040 A 
ATOM     80  C   UNL A   1      34.916  33.833  32.342  1.00  0.00     0.040 A 
ATOM     81  F   UNL A   1      36.768  32.489  32.735  1.00  0.00    -0.206 F 
ATOM     82  C   UNL A   1      34.051  34.484  31.476  1.00  0.00     0.006 A 
ENDBRANCH  61  75
BRANCH  62  83
ATOM     83  C   UNL A   1      45.233  29.460  28.654  1.00  0.00     0.057 A 
ATOM     84  C   UNL A   1      46.142  28.491  29.120  1.00  0.00     0.134 A 
ATOM     85  C   UNL A   1      44.627  29.224  27.419  1.00  0.00     0.134 A 
ATOM     86  F   UNL A   1      46.773  28.666  30.293  1.00  0.00    -0.206 F 
ATOM     87  C   UNL A   1      46.311  27.266  28.470  1.00  0.00     0.040 A 
ATOM     88  C   UNL A   1      44.808  28.009  26.748  1.00  0.00     0.040 A 
ATOM     89  F   UNL A   1      43.748  30.099  26.910  1.00  0.00    -0.206 F 
ATOM     90  C   UNL A   1      45.606  27.007  27.300  1.00  0.00     0.006 A 
ENDBRANCH  62  83
BRANCH  74  91
ATOM     91  C   UNL A   1      42.464  36.095  28.818  1.00  0.00     0.057 A 
ATOM     92  C   UNL A   1      43.009  37.210  29.471  1.00  0.00     0.134 A 
ATOM     93  C   UNL A   1      42.027  36.321  27.496  1.00  0.00     0.134 A 
ATOM     94  F   UNL A   1      43.564  37.104  30.687  1.00  0.00    -0.206 F 
ATOM     95  C   UNL A   1      43.051  38.478  28.880  1.00  0.00     0.040 A 
ATOM     96  C   UNL A   1      42.108  37.571  26.878  1.00  0.00     0.040 A 
ATOM     97  F   UNL A   1      41.519  35.330  26.748  1.00  0.00    -0.206 F 
ATOM     98  C   UNL A   1      42.604  38.662  27.577  1.00  0.00     0.006 A 
ENDBRANCH  74  91
ENDBRANCH  48  49
ENDBRANCH  40  43
ENDBRANCH  38  39
ENDBRANCH  37  38
ENDBRANCH   1  37
TORSDOF 16
ENDMDL
MODEL 3
REMARK VINA RESULT:     -13.3      2.408      3.686
REMARK SMILES Cc1cccc(S(=O)(=O)Nc2cc(C(=O)NCCCNC(=O)c3ccc(-c4c5nc(c(-c6c(F)cccc6F)c6ccc([nH]6)c(-c6c(F)cccc6F)c6nc(c(-c7c(F)cccc7F)c7ccc4[nH]7)C=C6)C=C5)cc3)ccc2N2CCC[C@H](C[NH+]3CCCC3)C2)c1
REMARK SMILES IDX 17 1 16 2 14 3 15 4 13 6 11 7 12 8 79 9 78 10 77 11 10 12
REMARK SMILES IDX 7 14 8 15 9 16 6 17 1 18 2 19 3 20 92 21 4 22 5 23 80 24
REMARK SMILES IDX 81 25 91 26 82 27 84 28 83 29 85 30 86 31 87 32 90 33 88 35
REMARK SMILES IDX 89 36 18 37 19 38 20 39 21 40 22 42 23 43 24 44 76 45 25 46
REMARK SMILES IDX 75 47 26 48 27 49 28 50 69 51 29 52 74 53 68 54 70 55 30 56
REMARK SMILES IDX 73 57 67 58 66 59 31 61 57 62 40 63 56 64 41 65 44 66 55 67
REMARK SMILES IDX 71 68 42 69 43 70 54 72 72 73 45 74 32 75 33 76 38 77 34 78
REMARK SMILES IDX 35 79 37 80 39 81 36 82 58 83 59 84 64 85 60 86 61 87 63 88
REMARK SMILES IDX 65 89 62 90 46 91 47 92 52 93 48 94 49 95 51 96 53 97 50 98
REMARK H PARENT 16 5 10 13 86 34 20 41 70 60 44 71
REMARK Flexibility Score: inf
ROOT
ATOM      1  C   UNL A   1      34.400  31.365  27.769  1.00  0.00     0.118 C 
ENDROOT
BRANCH   1   2
ATOM      2  N   UNL A   1      33.120  31.858  27.273  1.00  0.00    -0.352 N 
ATOM      3  C   UNL A   1      32.027  31.214  26.736  1.00  0.00     0.251 C 
ATOM      4  O   UNL A   1      31.013  31.883  26.537  1.00  0.00    -0.269 OA
ATOM      5  H   UNL A   1      33.019  32.836  27.333  1.00  0.00     0.163 HD
BRANCH   3   6
ATOM      6  C   UNL A   1      31.991  29.755  26.424  1.00  0.00     0.042 A 
ATOM      7  C   UNL A   1      31.971  27.883  24.884  1.00  0.00     0.073 A 
ATOM      8  C   UNL A   1      31.847  29.243  25.141  1.00  0.00     0.042 A 
ATOM      9  C   UNL A   1      32.051  26.951  25.929  1.00  0.00     0.061 A 
ATOM     10  C   UNL A   1      32.105  27.459  27.234  1.00  0.00     0.029 A 
ATOM     11  C   UNL A   1      32.108  28.841  27.479  1.00  0.00     0.016 A 
BRANCH   7  12
ATOM     12  N   UNL A   1      32.006  27.448  23.531  1.00  0.00    -0.277 N 
ATOM     13  H   UNL A   1      32.883  27.302  23.108  1.00  0.00     0.180 HD
BRANCH  12  14
ATOM     14  S   UNL A   1      30.616  27.169  22.615  1.00  0.00     0.261 S 
ATOM     15  O   UNL A   1      29.944  26.064  23.299  1.00  0.00    -0.201 OA
ATOM     16  O   UNL A   1      31.067  27.023  21.261  1.00  0.00    -0.201 OA
BRANCH  14  17
ATOM     17  C   UNL A   1      29.428  28.509  22.615  1.00  0.00     0.088 A 
ATOM     18  C   UNL A   1      29.159  32.297  22.385  1.00  0.00     0.044 C 
ATOM     19  C   UNL A   1      28.783  30.849  22.525  1.00  0.00    -0.050 A 
ATOM     20  C   UNL A   1      27.521  30.522  23.041  1.00  0.00     0.003 A 
ATOM     21  C   UNL A   1      29.706  29.825  22.239  1.00  0.00     0.025 A 
ATOM     22  C   UNL A   1      27.196  29.196  23.312  1.00  0.00     0.002 A 
ATOM     23  C   UNL A   1      28.154  28.199  23.127  1.00  0.00     0.022 A 
ENDBRANCH  14  17
ENDBRANCH  12  14
ENDBRANCH   7  12
BRANCH   9  24
ATOM     24  N   UNL A   1      32.052  25.582  25.730  1.00  0.00    -0.369 N 
ATOM     25  C   UNL A   1      30.948  24.815  26.304  1.00  0.00     0.116 C 
ATOM     26  C   UNL A   1      32.878  24.931  24.716  1.00  0.00     0.126 C 
ATOM     27  C   UNL A   1      31.484  23.505  26.874  1.00  0.00     0.022 C 
ATOM     28  C   UNL A   1      33.492  23.644  25.295  1.00  0.00     0.064 C 
ATOM     29  C   UNL A   1      32.350  22.768  25.850  1.00  0.00     0.013 C 
BRANCH  28  30
ATOM     30  C   UNL A   1      34.605  24.029  26.303  1.00  0.00     0.267 C 
BRANCH  30  31
ATOM     31  N   UNL A   1      35.814  23.210  26.407  1.00  0.00    -0.335 N 
ATOM     32  C   UNL A   1      36.968  23.692  25.653  1.00  0.00     0.262 C 
ATOM     33  C   UNL A   1      35.653  21.786  26.126  1.00  0.00     0.262 C 
ATOM     34  H   UNL A   1      36.001  23.318  27.405  1.00  0.00     0.348 HD
ATOM     35  C   UNL A   1      37.028  22.815  24.418  1.00  0.00     0.067 C 
ATOM     36  C   UNL A   1      36.502  21.476  24.899  1.00  0.00     0.067 C 
ENDBRANCH  30  31
ENDBRANCH  28  30
ENDBRANCH   9  24
ENDBRANCH   3   6
ENDBRANCH   1   2
BRANCH   1  37
ATOM     37  C   UNL A   1      35.449  32.470  27.907  1.00  0.00     0.042 C 
BRANCH  37  38
ATOM     38  C   UNL A   1      36.639  32.082  28.751  1.00  0.00     0.118 C 
BRANCH  38  39
ATOM     39  N   UNL A   1      36.337  31.871  30.165  1.00  0.00    -0.352 N 
ATOM     40  C   UNL A   1      36.548  30.714  30.900  1.00  0.00     0.251 C 
ATOM     41  H   UNL A   1      35.940  32.633  30.648  1.00  0.00     0.163 HD
ATOM     42  O   UNL A   1      36.297  30.657  32.096  1.00  0.00    -0.269 OA
BRANCH  40  43
ATOM     43  C   UNL A   1      37.223  29.591  30.211  1.00  0.00     0.039 A 
ATOM     44  C   UNL A   1      37.528  28.472  30.988  1.00  0.00     0.014 A 
ATOM     45  C   UNL A   1      37.882  29.836  29.009  1.00  0.00     0.014 A 
ATOM     46  C   UNL A   1      38.693  27.766  30.712  1.00  0.00     0.010 A 
ATOM     47  C   UNL A   1      39.097  29.211  28.803  1.00  0.00     0.010 A 
ATOM     48  C   UNL A   1      39.535  28.229  29.699  1.00  0.00    -0.014 A 
BRANCH  48  49
ATOM     49  C   UNL A   1      40.918  27.782  29.569  1.00  0.00     0.031 A 
ATOM     50  C   UNL A   1      41.195  26.459  28.980  1.00  0.00     0.074 A 
ATOM     51  C   UNL A   1      41.944  28.557  29.989  1.00  0.00     0.049 A 
ATOM     52  N   UNL A   1      42.204  25.719  29.293  1.00  0.00    -0.248 NA
ATOM     53  C   UNL A   1      40.303  25.843  28.007  1.00  0.00     0.031 C 
ATOM     54  C   UNL A   1      43.371  28.327  29.774  1.00  0.00     0.029 A 
ATOM     55  N   UNL A   1      41.897  29.621  30.898  1.00  0.00    -0.354 N 
ATOM     56  C   UNL A   1      42.250  24.680  28.391  1.00  0.00     0.074 A 
ATOM     57  C   UNL A   1      41.012  24.769  27.653  1.00  0.00     0.031 C 
ATOM     58  C   UNL A   1      44.064  28.996  30.710  1.00  0.00     0.029 A 
ATOM     59  C   UNL A   1      43.107  29.585  31.627  1.00  0.00     0.049 A 
ATOM     60  H   UNL A   1      41.164  30.268  31.007  1.00  0.00     0.167 HD
ATOM     61  C   UNL A   1      43.393  23.943  28.273  1.00  0.00     0.037 A 
ATOM     62  C   UNL A   1      43.111  29.431  32.983  1.00  0.00     0.037 A 
ATOM     63  C   UNL A   1      44.396  24.355  29.254  1.00  0.00     0.049 A 
ATOM     64  C   UNL A   1      43.791  28.162  33.446  1.00  0.00     0.074 A 
ATOM     65  C   UNL A   1      45.481  25.212  29.174  1.00  0.00     0.029 A 
ATOM     66  N   UNL A   1      44.167  24.142  30.610  1.00  0.00    -0.354 N 
ATOM     67  N   UNL A   1      44.118  27.182  32.651  1.00  0.00    -0.248 NA
ATOM     68  C   UNL A   1      44.106  27.873  34.845  1.00  0.00     0.031 C 
ATOM     69  C   UNL A   1      45.857  25.575  30.489  1.00  0.00     0.029 A 
ATOM     70  C   UNL A   1      45.014  24.925  31.374  1.00  0.00     0.049 A 
ATOM     71  H   UNL A   1      43.495  23.522  30.976  1.00  0.00     0.167 HD
ATOM     72  C   UNL A   1      44.600  26.135  33.391  1.00  0.00     0.074 A 
ATOM     73  C   UNL A   1      44.609  26.630  34.755  1.00  0.00     0.031 C 
ATOM     74  C   UNL A   1      44.926  24.935  32.826  1.00  0.00     0.037 A 
BRANCH  61  75
ATOM     75  C   UNL A   1      43.686  23.106  27.047  1.00  0.00     0.057 A 
ATOM     76  C   UNL A   1      43.031  21.879  26.830  1.00  0.00     0.134 A 
ATOM     77  C   UNL A   1      44.662  23.417  26.084  1.00  0.00     0.134 A 
ATOM     78  F   UNL A   1      41.989  21.492  27.576  1.00  0.00    -0.206 F 
ATOM     79  C   UNL A   1      43.419  20.974  25.832  1.00  0.00     0.040 A 
ATOM     80  C   UNL A   1      45.104  22.499  25.120  1.00  0.00     0.040 A 
ATOM     81  F   UNL A   1      45.200  24.642  26.008  1.00  0.00    -0.206 F 
ATOM     82  C   UNL A   1      44.492  21.261  25.003  1.00  0.00     0.006 A 
ENDBRANCH  61  75
BRANCH  62  83
ATOM     83  C   UNL A   1      41.928  30.060  33.628  1.00  0.00     0.057 A 
ATOM     84  C   UNL A   1      41.940  31.456  33.808  1.00  0.00     0.134 A 
ATOM     85  C   UNL A   1      40.686  29.423  33.652  1.00  0.00     0.134 A 
ATOM     86  F   UNL A   1      43.104  32.126  33.812  1.00  0.00    -0.206 F 
ATOM     87  C   UNL A   1      40.761  32.204  33.838  1.00  0.00     0.040 A 
ATOM     88  C   UNL A   1      39.499  30.163  33.707  1.00  0.00     0.040 A 
ATOM     89  F   UNL A   1      40.593  28.097  33.486  1.00  0.00    -0.206 F 
ATOM     90  C   UNL A   1      39.535  31.557  33.743  1.00  0.00     0.006 A 
ENDBRANCH  62  83
BRANCH  74  91
ATOM     91  C   UNL A   1      45.278  23.694  33.599  1.00  0.00     0.057 A 
ATOM     92  C   UNL A   1      46.555  23.430  34.115  1.00  0.00     0.134 A 
ATOM     93  C   UNL A   1      44.277  22.767  33.956  1.00  0.00     0.134 A 
ATOM     94  F   UNL A   1      47.568  24.292  33.946  1.00  0.00    -0.206 F 
ATOM     95  C   UNL A   1      46.835  22.285  34.870  1.00  0.00     0.040 A 
ATOM     96  C   UNL A   1      44.533  21.647  34.749  1.00  0.00     0.040 A 
ATOM     97  F   UNL A   1      43.004  22.924  33.559  1.00  0.00    -0.206 F 
ATOM     98  C   UNL A   1      45.822  21.391  35.195  1.00  0.00     0.006 A 
ENDBRANCH  74  91
ENDBRANCH  48  49
ENDBRANCH  40  43
ENDBRANCH  38  39
ENDBRANCH  37  38
ENDBRANCH   1  37
TORSDOF 16
ENDMDL
