MODEL 1
REMARK VINA RESULT:     -12.2      0.000      0.000
REMARK SMILES O=C(NCCCNC(=O)[C@H]1CS[C@@H](c2cccc(OCc3ccc(Cl)cc3Cl)c2)[NH2+]1)c1ccc(-c2c3nc(c(-c4c(F)cccc4F)c4ccc([nH]4)c(-c4c(F)cccc4F)c4nc(c(-c5c(F)cccc5F)c5ccc2[nH]5)C=C4)C=C3)cc1
REMARK SMILES IDX 6 1 5 2 4 3 3 4 1 5 2 6 31 8 32 9 84 10 33 11 83 12 34 13
REMARK SMILES IDX 35 14 36 15 77 16 37 17 82 18 76 19 78 20 38 21 81 22 75 23
REMARK SMILES IDX 74 24 39 26 65 27 48 28 64 29 49 30 52 31 63 32 79 33 50 34
REMARK SMILES IDX 51 35 62 37 80 38 53 39 40 40 41 41 46 42 42 43 43 44 45 45
REMARK SMILES IDX 47 46 44 47 66 48 67 49 72 50 68 51 69 52 71 53 73 54 70 55
REMARK SMILES IDX 54 56 55 57 60 58 56 59 57 60 59 61 61 62 58 63 7 64 8 65
REMARK SMILES IDX 9 67 10 68 11 69 30 70 12 71 13 72 14 75 15 76 29 77 16 78
REMARK SMILES IDX 18 79 17 80 19 81 20 82 21 83 22 84 27 85 23 86 26 87 28 88
REMARK SMILES IDX 24 89 25 90
REMARK H PARENT 3 7 78 25 52 36 7 66 30 73 30 74
REMARK Flexibility Score: inf
ROOT
ATOM      1  C   UNL A   1      30.995  30.744  25.923  1.00  0.00     0.118 C 
ENDROOT
BRANCH   1   2
ATOM      2  C   UNL A   1      31.312  32.228  26.061  1.00  0.00     0.042 C 
BRANCH   2   3
ATOM      3  C   UNL A   1      32.367  32.519  27.121  1.00  0.00     0.118 C 
BRANCH   3   4
ATOM      4  N   UNL A   1      32.349  33.913  27.543  1.00  0.00    -0.352 N 
ATOM      5  O   UNL A   1      32.753  35.677  28.878  1.00  0.00    -0.269 OA
ATOM      6  C   UNL A   1      33.099  34.560  28.491  1.00  0.00     0.251 C 
ATOM      7  H   UNL A   1      31.694  34.480  27.075  1.00  0.00     0.163 HD
BRANCH   6   8
ATOM      8  C   UNL A   1      34.309  33.933  29.060  1.00  0.00     0.039 A 
ATOM      9  C   UNL A   1      35.586  34.311  28.635  1.00  0.00     0.014 A 
ATOM     10  C   UNL A   1      34.167  32.998  30.089  1.00  0.00     0.014 A 
ATOM     11  C   UNL A   1      36.710  33.664  29.142  1.00  0.00     0.010 A 
ATOM     12  C   UNL A   1      35.299  32.411  30.657  1.00  0.00     0.010 A 
ATOM     13  C   UNL A   1      36.578  32.721  30.170  1.00  0.00    -0.014 A 
BRANCH  13  14
ATOM     14  C   UNL A   1      37.782  32.101  30.774  1.00  0.00     0.031 A 
ATOM     15  C   UNL A   1      38.513  30.999  30.065  1.00  0.00     0.074 A 
ATOM     16  C   UNL A   1      38.193  32.516  31.988  1.00  0.00     0.049 A 
ATOM     17  N   UNL A   1      39.520  30.275  30.480  1.00  0.00    -0.248 NA
ATOM     18  C   UNL A   1      38.043  30.660  28.714  1.00  0.00     0.031 C 
ATOM     19  C   UNL A   1      37.563  33.577  32.774  1.00  0.00     0.029 A 
ATOM     20  N   UNL A   1      39.229  32.086  32.778  1.00  0.00    -0.354 N 
ATOM     21  C   UNL A   1      39.787  29.376  29.456  1.00  0.00     0.074 A 
ATOM     22  C   UNL A   1      38.822  29.632  28.408  1.00  0.00     0.031 C 
ATOM     23  C   UNL A   1      38.228  33.722  33.930  1.00  0.00     0.029 A 
ATOM     24  C   UNL A   1      39.288  32.723  33.992  1.00  0.00     0.049 A 
ATOM     25  H   UNL A   1      39.866  31.388  32.501  1.00  0.00     0.167 HD
ATOM     26  C   UNL A   1      40.752  28.426  29.398  1.00  0.00     0.037 A 
ATOM     27  C   UNL A   1      40.083  32.505  35.056  1.00  0.00     0.037 A 
ATOM     28  C   UNL A   1      41.711  28.184  30.445  1.00  0.00     0.049 A 
ATOM     29  C   UNL A   1      41.120  31.423  34.986  1.00  0.00     0.074 A 
ATOM     30  C   UNL A   1      42.752  27.272  30.468  1.00  0.00     0.029 A 
ATOM     31  N   UNL A   1      41.740  28.853  31.661  1.00  0.00    -0.354 N 
ATOM     32  N   UNL A   1      41.385  30.600  34.001  1.00  0.00    -0.248 NA
ATOM     33  C   UNL A   1      41.967  31.238  36.170  1.00  0.00     0.031 C 
ATOM     34  C   UNL A   1      43.379  27.354  31.716  1.00  0.00     0.029 A 
ATOM     35  C   UNL A   1      42.764  28.356  32.451  1.00  0.00     0.049 A 
ATOM     36  H   UNL A   1      41.123  29.574  31.923  1.00  0.00     0.167 HD
ATOM     37  C   UNL A   1      42.445  29.816  34.434  1.00  0.00     0.074 A 
ATOM     38  C   UNL A   1      42.775  30.265  35.771  1.00  0.00     0.031 C 
ATOM     39  C   UNL A   1      43.088  28.821  33.777  1.00  0.00     0.037 A 
BRANCH  26  40
ATOM     40  C   UNL A   1      40.791  27.555  28.175  1.00  0.00     0.057 A 
ATOM     41  C   UNL A   1      40.096  26.341  28.102  1.00  0.00     0.134 A 
ATOM     42  C   UNL A   1      41.526  27.944  27.048  1.00  0.00     0.134 A 
ATOM     43  F   UNL A   1      39.379  25.902  29.149  1.00  0.00    -0.206 F 
ATOM     44  C   UNL A   1      40.159  25.529  26.967  1.00  0.00     0.040 A 
ATOM     45  C   UNL A   1      41.576  27.154  25.898  1.00  0.00     0.040 A 
ATOM     46  F   UNL A   1      42.208  29.099  27.044  1.00  0.00    -0.206 F 
ATOM     47  C   UNL A   1      40.899  25.937  25.859  1.00  0.00     0.006 A 
ENDBRANCH  26  40
BRANCH  27  48
ATOM     48  C   UNL A   1      39.905  33.332  36.275  1.00  0.00     0.057 A 
ATOM     49  C   UNL A   1      40.613  34.525  36.448  1.00  0.00     0.134 A 
ATOM     50  C   UNL A   1      38.981  32.975  37.265  1.00  0.00     0.134 A 
ATOM     51  F   UNL A   1      41.520  34.911  35.540  1.00  0.00    -0.206 F 
ATOM     52  C   UNL A   1      40.410  35.335  37.567  1.00  0.00     0.040 A 
ATOM     53  C   UNL A   1      38.751  33.789  38.375  1.00  0.00     0.040 A 
ATOM     54  F   UNL A   1      38.263  31.849  37.147  1.00  0.00    -0.206 F 
ATOM     55  C   UNL A   1      39.470  34.972  38.529  1.00  0.00     0.006 A 
ENDBRANCH  27  48
BRANCH  39  56
ATOM     56  C   UNL A   1      44.250  28.174  34.472  1.00  0.00     0.057 A 
ATOM     57  C   UNL A   1      45.546  28.696  34.391  1.00  0.00     0.134 A 
ATOM     58  C   UNL A   1      44.051  27.053  35.288  1.00  0.00     0.134 A 
ATOM     59  F   UNL A   1      45.805  29.759  33.615  1.00  0.00    -0.206 F 
ATOM     60  C   UNL A   1      46.607  28.118  35.091  1.00  0.00     0.040 A 
ATOM     61  C   UNL A   1      45.097  26.482  36.012  1.00  0.00     0.040 A 
ATOM     62  F   UNL A   1      42.830  26.510  35.413  1.00  0.00    -0.206 F 
ATOM     63  C   UNL A   1      46.382  27.014  35.913  1.00  0.00     0.006 A 
ENDBRANCH  39  56
ENDBRANCH  13  14
ENDBRANCH   6   8
ENDBRANCH   3   4
ENDBRANCH   2   3
ENDBRANCH   1   2
BRANCH   1  64
ATOM     64  N   UNL A   1      31.668  30.144  24.782  1.00  0.00    -0.351 N 
ATOM     65  C   UNL A   1      32.497  29.066  24.670  1.00  0.00     0.279 C 
ATOM     66  H   UNL A   1      31.493  30.603  23.929  1.00  0.00     0.163 HD
ATOM     67  O   UNL A   1      33.020  28.880  23.566  1.00  0.00    -0.268 OA
BRANCH  65  68
ATOM     68  C   UNL A   1      32.780  28.111  25.848  1.00  0.00     0.283 C 
ATOM     69  C   UNL A   1      31.534  27.409  26.360  1.00  0.00     0.151 C 
ATOM     70  N   UNL A   1      33.873  27.190  25.512  1.00  0.00    -0.321 N 
ATOM     71  S   UNL A   1      31.859  25.635  26.246  1.00  0.00    -0.088 SA
ATOM     72  C   UNL A   1      33.638  25.842  26.024  1.00  0.00     0.274 C 
ATOM     73  H   UNL A   1      34.739  27.548  25.914  1.00  0.00     0.348 HD
ATOM     74  H   UNL A   1      33.931  27.132  24.495  1.00  0.00     0.348 HD
BRANCH  72  75
ATOM     75  C   UNL A   1      34.349  24.851  25.104  1.00  0.00     0.024 A 
ATOM     76  C   UNL A   1      35.609  24.294  25.349  1.00  0.00     0.011 A 
ATOM     77  C   UNL A   1      33.610  24.359  24.000  1.00  0.00     0.057 A 
ATOM     78  C   UNL A   1      36.087  23.255  24.547  1.00  0.00     0.004 A 
ATOM     79  C   UNL A   1      34.029  23.260  23.258  1.00  0.00     0.120 A 
ATOM     80  C   UNL A   1      35.292  22.730  23.523  1.00  0.00     0.046 A 
BRANCH  79  81
ATOM     81  O   UNL A   1      33.309  22.617  22.289  1.00  0.00    -0.489 OA
BRANCH  81  82
ATOM     82  C   UNL A   1      32.074  21.961  22.621  1.00  0.00     0.267 C 
BRANCH  82  83
ATOM     83  C   UNL A   1      32.288  20.555  23.151  1.00  0.00     0.008 A 
ATOM     84  C   UNL A   1      32.197  19.473  22.253  1.00  0.00     0.010 A 
ATOM     85  C   UNL A   1      32.573  20.258  24.493  1.00  0.00     0.049 A 
ATOM     86  C   UNL A   1      32.434  18.160  22.676  1.00  0.00     0.021 A 
ATOM     87  C   UNL A   1      32.900  18.960  24.899  1.00  0.00     0.041 A 
ATOM     88  Cl  UNL A   1      32.379  21.406  25.761  1.00  0.00    -0.084 Cl
ATOM     89  C   UNL A   1      32.825  17.915  23.988  1.00  0.00     0.042 A 
ATOM     90  Cl  UNL A   1      33.171  16.311  24.502  1.00  0.00    -0.084 Cl
ENDBRANCH  82  83
ENDBRANCH  81  82
ENDBRANCH  79  81
ENDBRANCH  72  75
ENDBRANCH  65  68
ENDBRANCH   1  64
TORSDOF 14
ENDMDL
MODEL 2
REMARK VINA RESULT:     -12.2      5.353     10.160
REMARK SMILES O=C(NCCCNC(=O)[C@H]1CS[C@@H](c2cccc(OCc3ccc(Cl)cc3Cl)c2)[NH2+]1)c1ccc(-c2c3nc(c(-c4c(F)cccc4F)c4ccc([nH]4)c(-c4c(F)cccc4F)c4nc(c(-c5c(F)cccc5F)c5ccc2[nH]5)C=C4)C=C3)cc1
REMARK SMILES IDX 6 1 5 2 4 3 3 4 1 5 2 6 31 8 32 9 84 10 33 11 83 12 34 13
REMARK SMILES IDX 35 14 36 15 77 16 37 17 82 18 76 19 78 20 38 21 81 22 75 23
REMARK SMILES IDX 74 24 39 26 65 27 48 28 64 29 49 30 52 31 63 32 79 33 50 34
REMARK SMILES IDX 51 35 62 37 80 38 53 39 40 40 41 41 46 42 42 43 43 44 45 45
REMARK SMILES IDX 47 46 44 47 66 48 67 49 72 50 68 51 69 52 71 53 73 54 70 55
REMARK SMILES IDX 54 56 55 57 60 58 56 59 57 60 59 61 61 62 58 63 7 64 8 65
REMARK SMILES IDX 9 67 10 68 11 69 30 70 12 71 13 72 14 75 15 76 29 77 16 78
REMARK SMILES IDX 18 79 17 80 19 81 20 82 21 83 22 84 27 85 23 86 26 87 28 88
REMARK SMILES IDX 24 89 25 90
REMARK H PARENT 3 7 78 25 52 36 7 66 30 73 30 74
REMARK Flexibility Score: inf
ROOT
ATOM      1  C   UNL A   1      34.066  34.822  29.918  1.00  0.00     0.118 C 
ENDROOT
BRANCH   1   2
ATOM      2  C   UNL A   1      34.053  33.861  28.735  1.00  0.00     0.042 C 
BRANCH   2   3
ATOM      3  C   UNL A   1      34.725  32.528  29.038  1.00  0.00     0.118 C 
BRANCH   3   4
ATOM      4  N   UNL A   1      34.076  31.419  28.353  1.00  0.00    -0.352 N 
ATOM      5  O   UNL A   1      33.925  29.601  27.038  1.00  0.00    -0.269 OA
ATOM      6  C   UNL A   1      34.612  30.288  27.795  1.00  0.00     0.251 C 
ATOM      7  H   UNL A   1      33.097  31.494  28.278  1.00  0.00     0.163 HD
BRANCH   6   8
ATOM      8  C   UNL A   1      36.004  29.886  28.081  1.00  0.00     0.039 A 
ATOM      9  C   UNL A   1      37.028  30.116  27.158  1.00  0.00     0.014 A 
ATOM     10  C   UNL A   1      36.305  29.330  29.329  1.00  0.00     0.014 A 
ATOM     11  C   UNL A   1      38.321  29.674  27.425  1.00  0.00     0.010 A 
ATOM     12  C   UNL A   1      37.618  28.964  29.629  1.00  0.00     0.010 A 
ATOM     13  C   UNL A   1      38.631  29.111  28.670  1.00  0.00    -0.014 A 
BRANCH  13  14
ATOM     14  C   UNL A   1      40.028  28.726  28.988  1.00  0.00     0.031 A 
ATOM     15  C   UNL A   1      40.951  29.691  29.672  1.00  0.00     0.074 A 
ATOM     16  C   UNL A   1      40.471  27.508  28.622  1.00  0.00     0.049 A 
ATOM     17  N   UNL A   1      42.226  29.567  29.939  1.00  0.00    -0.248 NA
ATOM     18  C   UNL A   1      40.366  30.969  30.102  1.00  0.00     0.031 C 
ATOM     19  C   UNL A   1      39.667  26.485  27.952  1.00  0.00     0.029 A 
ATOM     20  N   UNL A   1      41.708  26.928  28.752  1.00  0.00    -0.354 N 
ATOM     21  C   UNL A   1      42.603  30.759  30.544  1.00  0.00     0.074 A 
ATOM     22  C   UNL A   1      41.427  31.602  30.584  1.00  0.00     0.031 C 
ATOM     23  C   UNL A   1      40.427  25.402  27.733  1.00  0.00     0.029 A 
ATOM     24  C   UNL A   1      41.783  25.677  28.192  1.00  0.00     0.049 A 
ATOM     25  H   UNL A   1      42.465  27.367  29.201  1.00  0.00     0.167 HD
ATOM     26  C   UNL A   1      43.820  31.113  31.022  1.00  0.00     0.037 A 
ATOM     27  C   UNL A   1      42.836  24.855  28.029  1.00  0.00     0.037 A 
ATOM     28  C   UNL A   1      44.983  30.263  30.983  1.00  0.00     0.049 A 
ATOM     29  C   UNL A   1      44.184  25.281  28.531  1.00  0.00     0.074 A 
ATOM     30  C   UNL A   1      46.252  30.512  31.476  1.00  0.00     0.029 A 
ATOM     31  N   UNL A   1      45.019  29.000  30.409  1.00  0.00    -0.354 N 
ATOM     32  N   UNL A   1      44.523  26.398  29.130  1.00  0.00    -0.248 NA
ATOM     33  C   UNL A   1      45.293  24.340  28.339  1.00  0.00     0.031 C 
ATOM     34  C   UNL A   1      47.068  29.423  31.154  1.00  0.00     0.029 A 
ATOM     35  C   UNL A   1      46.294  28.469  30.511  1.00  0.00     0.049 A 
ATOM     36  H   UNL A   1      44.251  28.548  29.990  1.00  0.00     0.167 HD
ATOM     37  C   UNL A   1      45.878  26.284  29.409  1.00  0.00     0.074 A 
ATOM     38  C   UNL A   1      46.297  24.987  28.915  1.00  0.00     0.031 C 
ATOM     39  C   UNL A   1      46.695  27.172  30.024  1.00  0.00     0.037 A 
BRANCH  26  40
ATOM     40  C   UNL A   1      43.961  32.493  31.596  1.00  0.00     0.057 A 
ATOM     41  C   UNL A   1      43.726  32.766  32.950  1.00  0.00     0.134 A 
ATOM     42  C   UNL A   1      44.351  33.566  30.783  1.00  0.00     0.134 A 
ATOM     43  F   UNL A   1      43.340  31.788  33.784  1.00  0.00    -0.206 F 
ATOM     44  C   UNL A   1      43.838  34.059  33.467  1.00  0.00     0.040 A 
ATOM     45  C   UNL A   1      44.492  34.858  31.293  1.00  0.00     0.040 A 
ATOM     46  F   UNL A   1      44.601  33.377  29.479  1.00  0.00    -0.206 F 
ATOM     47  C   UNL A   1      44.225  35.109  32.637  1.00  0.00     0.006 A 
ENDBRANCH  26  40
BRANCH  27  48
ATOM     48  C   UNL A   1      42.640  23.553  27.346  1.00  0.00     0.057 A 
ATOM     49  C   UNL A   1      42.841  23.422  25.968  1.00  0.00     0.134 A 
ATOM     50  C   UNL A   1      42.303  22.399  28.065  1.00  0.00     0.134 A 
ATOM     51  F   UNL A   1      43.152  24.494  25.226  1.00  0.00    -0.206 F 
ATOM     52  C   UNL A   1      42.711  22.188  25.328  1.00  0.00     0.040 A 
ATOM     53  C   UNL A   1      42.195  21.155  27.441  1.00  0.00     0.040 A 
ATOM     54  F   UNL A   1      42.111  22.459  29.390  1.00  0.00    -0.206 F 
ATOM     55  C   UNL A   1      42.397  21.049  26.066  1.00  0.00     0.006 A 
ENDBRANCH  27  48
BRANCH  39  56
ATOM     56  C   UNL A   1      48.119  26.758  30.247  1.00  0.00     0.057 A 
ATOM     57  C   UNL A   1      48.509  26.010  31.364  1.00  0.00     0.134 A 
ATOM     58  C   UNL A   1      49.099  27.057  29.292  1.00  0.00     0.134 A 
ATOM     59  F   UNL A   1      47.621  25.705  32.322  1.00  0.00    -0.206 F 
ATOM     60  C   UNL A   1      49.828  25.582  31.528  1.00  0.00     0.040 A 
ATOM     61  C   UNL A   1      50.414  26.614  29.432  1.00  0.00     0.040 A 
ATOM     62  F   UNL A   1      48.788  27.764  28.195  1.00  0.00    -0.206 F 
ATOM     63  C   UNL A   1      50.782  25.875  30.555  1.00  0.00     0.006 A 
ENDBRANCH  39  56
ENDBRANCH  13  14
ENDBRANCH   6   8
ENDBRANCH   3   4
ENDBRANCH   2   3
ENDBRANCH   1   2
BRANCH   1  64
ATOM     64  N   UNL A   1      33.625  34.183  31.147  1.00  0.00    -0.351 N 
ATOM     65  C   UNL A   1      34.295  33.801  32.273  1.00  0.00     0.279 C 
ATOM     66  H   UNL A   1      32.661  33.988  31.172  1.00  0.00     0.163 HD
ATOM     67  O   UNL A   1      33.654  33.156  33.109  1.00  0.00    -0.268 OA
BRANCH  65  68
ATOM     68  C   UNL A   1      35.778  34.150  32.514  1.00  0.00     0.283 C 
ATOM     69  C   UNL A   1      36.035  34.750  33.887  1.00  0.00     0.151 C 
ATOM     70  N   UNL A   1      36.633  32.994  32.214  1.00  0.00    -0.321 N 
ATOM     71  S   UNL A   1      37.265  33.697  34.688  1.00  0.00    -0.088 SA
ATOM     72  C   UNL A   1      37.740  32.864  33.159  1.00  0.00     0.274 C 
ATOM     73  H   UNL A   1      37.014  33.105  31.274  1.00  0.00     0.348 HD
ATOM     74  H   UNL A   1      36.060  32.154  32.287  1.00  0.00     0.348 HD
BRANCH  72  75
ATOM     75  C   UNL A   1      38.114  31.386  33.254  1.00  0.00     0.024 A 
ATOM     76  C   UNL A   1      37.285  30.324  32.876  1.00  0.00     0.011 A 
ATOM     77  C   UNL A   1      39.451  31.087  33.616  1.00  0.00     0.057 A 
ATOM     78  C   UNL A   1      37.789  29.023  32.820  1.00  0.00     0.004 A 
ATOM     79  C   UNL A   1      39.991  29.813  33.468  1.00  0.00     0.120 A 
ATOM     80  C   UNL A   1      39.137  28.775  33.094  1.00  0.00     0.046 A 
BRANCH  79  81
ATOM     81  O   UNL A   1      41.304  29.469  33.632  1.00  0.00    -0.489 OA
BRANCH  81  82
ATOM     82  C   UNL A   1      41.705  28.650  34.743  1.00  0.00     0.267 C 
BRANCH  82  83
ATOM     83  C   UNL A   1      42.482  27.421  34.307  1.00  0.00     0.008 A 
ATOM     84  C   UNL A   1      43.311  27.513  33.172  1.00  0.00     0.010 A 
ATOM     85  C   UNL A   1      42.427  26.183  34.968  1.00  0.00     0.049 A 
ATOM     86  C   UNL A   1      44.088  26.426  32.753  1.00  0.00     0.021 A 
ATOM     87  C   UNL A   1      43.271  25.127  34.608  1.00  0.00     0.041 A 
ATOM     88  Cl  UNL A   1      41.224  25.807  36.139  1.00  0.00    -0.084 Cl
ATOM     89  C   UNL A   1      44.095  25.252  33.499  1.00  0.00     0.042 A 
ATOM     90  Cl  UNL A   1      45.089  23.932  33.022  1.00  0.00    -0.084 Cl
ENDBRANCH  82  83
ENDBRANCH  81  82
ENDBRANCH  79  81
ENDBRANCH  72  75
ENDBRANCH  65  68
ENDBRANCH   1  64
TORSDOF 14
ENDMDL
MODEL 3
REMARK VINA RESULT:     -12.0      4.952     10.105
REMARK SMILES O=C(NCCCNC(=O)[C@H]1CS[C@@H](c2cccc(OCc3ccc(Cl)cc3Cl)c2)[NH2+]1)c1ccc(-c2c3nc(c(-c4c(F)cccc4F)c4ccc([nH]4)c(-c4c(F)cccc4F)c4nc(c(-c5c(F)cccc5F)c5ccc2[nH]5)C=C4)C=C3)cc1
REMARK SMILES IDX 6 1 5 2 4 3 3 4 1 5 2 6 31 8 32 9 84 10 33 11 83 12 34 13
REMARK SMILES IDX 35 14 36 15 77 16 37 17 82 18 76 19 78 20 38 21 81 22 75 23
REMARK SMILES IDX 74 24 39 26 65 27 48 28 64 29 49 30 52 31 63 32 79 33 50 34
REMARK SMILES IDX 51 35 62 37 80 38 53 39 40 40 41 41 46 42 42 43 43 44 45 45
REMARK SMILES IDX 47 46 44 47 66 48 67 49 72 50 68 51 69 52 71 53 73 54 70 55
REMARK SMILES IDX 54 56 55 57 60 58 56 59 57 60 59 61 61 62 58 63 7 64 8 65
REMARK SMILES IDX 9 67 10 68 11 69 30 70 12 71 13 72 14 75 15 76 29 77 16 78
REMARK SMILES IDX 18 79 17 80 19 81 20 82 21 83 22 84 27 85 23 86 26 87 28 88
REMARK SMILES IDX 24 89 25 90
REMARK H PARENT 3 7 78 25 52 36 7 66 30 73 30 74
REMARK Flexibility Score: inf
ROOT
ATOM      1  C   UNL A   1      37.729  21.125  24.607  1.00  0.00     0.118 C 
ENDROOT
BRANCH   1   2
ATOM      2  C   UNL A   1      38.300  19.747  24.918  1.00  0.00     0.042 C 
BRANCH   2   3
ATOM      3  C   UNL A   1      39.159  19.725  26.176  1.00  0.00     0.118 C 
BRANCH   3   4
ATOM      4  N   UNL A   1      40.369  18.933  26.000  1.00  0.00    -0.352 N 
ATOM      5  O   UNL A   1      42.538  18.536  25.560  1.00  0.00    -0.269 OA
ATOM      6  C   UNL A   1      41.683  19.318  25.979  1.00  0.00     0.251 C 
ATOM      7  H   UNL A   1      40.218  17.967  25.876  1.00  0.00     0.163 HD
BRANCH   6   8
ATOM      8  C   UNL A   1      42.089  20.660  26.444  1.00  0.00     0.039 A 
ATOM      9  C   UNL A   1      42.254  20.935  27.804  1.00  0.00     0.014 A 
ATOM     10  C   UNL A   1      42.378  21.645  25.495  1.00  0.00     0.014 A 
ATOM     11  C   UNL A   1      42.578  22.224  28.221  1.00  0.00     0.010 A 
ATOM     12  C   UNL A   1      42.785  22.914  25.911  1.00  0.00     0.010 A 
ATOM     13  C   UNL A   1      42.865  23.220  27.278  1.00  0.00    -0.014 A 
BRANCH  13  14
ATOM     14  C   UNL A   1      43.300  24.566  27.723  1.00  0.00     0.031 A 
ATOM     15  C   UNL A   1      42.293  25.600  28.131  1.00  0.00     0.074 A 
ATOM     16  C   UNL A   1      44.614  24.862  27.722  1.00  0.00     0.049 A 
ATOM     17  N   UNL A   1      42.480  26.855  28.452  1.00  0.00    -0.248 NA
ATOM     18  C   UNL A   1      40.887  25.170  28.174  1.00  0.00     0.031 C 
ATOM     19  C   UNL A   1      45.686  23.939  27.345  1.00  0.00     0.029 A 
ATOM     20  N   UNL A   1      45.270  26.026  28.036  1.00  0.00    -0.354 N 
ATOM     21  C   UNL A   1      41.217  27.373  28.708  1.00  0.00     0.074 A 
ATOM     22  C   UNL A   1      40.270  26.302  28.484  1.00  0.00     0.031 C 
ATOM     23  C   UNL A   1      46.865  24.568  27.456  1.00  0.00     0.029 A 
ATOM     24  C   UNL A   1      46.628  25.952  27.850  1.00  0.00     0.049 A 
ATOM     25  H   UNL A   1      44.812  26.833  28.362  1.00  0.00     0.167 HD
ATOM     26  C   UNL A   1      40.883  28.627  29.096  1.00  0.00     0.037 A 
ATOM     27  C   UNL A   1      47.576  26.901  27.947  1.00  0.00     0.037 A 
ATOM     28  C   UNL A   1      41.836  29.684  29.322  1.00  0.00     0.049 A 
ATOM     29  C   UNL A   1      47.181  28.294  28.341  1.00  0.00     0.074 A 
ATOM     30  C   UNL A   1      41.604  30.978  29.754  1.00  0.00     0.029 A 
ATOM     31  N   UNL A   1      43.205  29.569  29.124  1.00  0.00    -0.354 N 
ATOM     32  N   UNL A   1      45.988  28.765  28.612  1.00  0.00    -0.248 NA
ATOM     33  C   UNL A   1      48.258  29.286  28.444  1.00  0.00     0.031 C 
ATOM     34  C   UNL A   1      42.825  31.660  29.769  1.00  0.00     0.029 A 
ATOM     35  C   UNL A   1      43.827  30.776  29.399  1.00  0.00     0.049 A 
ATOM     36  H   UNL A   1      43.667  28.750  28.831  1.00  0.00     0.167 HD
ATOM     37  C   UNL A   1      46.171  30.100  28.942  1.00  0.00     0.074 A 
ATOM     38  C   UNL A   1      47.593  30.363  28.840  1.00  0.00     0.031 C 
ATOM     39  C   UNL A   1      45.245  31.020  29.304  1.00  0.00     0.037 A 
BRANCH  26  40
ATOM     40  C   UNL A   1      39.423  28.932  29.265  1.00  0.00     0.057 A 
ATOM     41  C   UNL A   1      38.770  28.795  30.497  1.00  0.00     0.134 A 
ATOM     42  C   UNL A   1      38.659  29.379  28.179  1.00  0.00     0.134 A 
ATOM     43  F   UNL A   1      39.438  28.361  31.577  1.00  0.00    -0.206 F 
ATOM     44  C   UNL A   1      37.405  29.059  30.635  1.00  0.00     0.040 A 
ATOM     45  C   UNL A   1      37.300  29.672  28.311  1.00  0.00     0.040 A 
ATOM     46  F   UNL A   1      39.220  29.542  26.972  1.00  0.00    -0.206 F 
ATOM     47  C   UNL A   1      36.667  29.502  29.540  1.00  0.00     0.006 A 
ENDBRANCH  26  40
BRANCH  27  48
ATOM     48  C   UNL A   1      48.987  26.550  27.650  1.00  0.00     0.057 A 
ATOM     49  C   UNL A   1      49.856  26.132  28.663  1.00  0.00     0.134 A 
ATOM     50  C   UNL A   1      49.479  26.569  26.339  1.00  0.00     0.134 A 
ATOM     51  F   UNL A   1      49.445  26.106  29.938  1.00  0.00    -0.206 F 
ATOM     52  C   UNL A   1      51.168  25.748  28.382  1.00  0.00     0.040 A 
ATOM     53  C   UNL A   1      50.781  26.163  26.042  1.00  0.00     0.040 A 
ATOM     54  F   UNL A   1      48.688  26.947  25.325  1.00  0.00    -0.206 F 
ATOM     55  C   UNL A   1      51.631  25.753  27.067  1.00  0.00     0.006 A 
ENDBRANCH  27  48
BRANCH  39  56
ATOM     56  C   UNL A   1      45.738  32.390  29.665  1.00  0.00     0.057 A 
ATOM     57  C   UNL A   1      46.164  32.707  30.960  1.00  0.00     0.134 A 
ATOM     58  C   UNL A   1      45.849  33.382  28.684  1.00  0.00     0.134 A 
ATOM     59  F   UNL A   1      46.070  31.804  31.948  1.00  0.00    -0.206 F 
ATOM     60  C   UNL A   1      46.676  33.969  31.268  1.00  0.00     0.040 A 
ATOM     61  C   UNL A   1      46.382  34.639  28.973  1.00  0.00     0.040 A 
ATOM     62  F   UNL A   1      45.464  33.138  27.422  1.00  0.00    -0.206 F 
ATOM     63  C   UNL A   1      46.796  34.935  30.270  1.00  0.00     0.006 A 
ENDBRANCH  39  56
ENDBRANCH  13  14
ENDBRANCH   6   8
ENDBRANCH   3   4
ENDBRANCH   2   3
ENDBRANCH   1   2
BRANCH   1  64
ATOM     64  N   UNL A   1      36.917  21.640  25.697  1.00  0.00    -0.351 N 
ATOM     65  C   UNL A   1      35.596  21.977  25.776  1.00  0.00     0.279 C 
ATOM     66  H   UNL A   1      37.412  21.770  26.538  1.00  0.00     0.163 HD
ATOM     67  O   UNL A   1      35.223  22.514  26.823  1.00  0.00    -0.268 OA
BRANCH  65  68
ATOM     68  C   UNL A   1      34.601  21.707  24.630  1.00  0.00     0.283 C 
ATOM     69  C   UNL A   1      33.944  20.339  24.719  1.00  0.00     0.151 C 
ATOM     70  N   UNL A   1      33.639  22.810  24.513  1.00  0.00    -0.321 N 
ATOM     71  S   UNL A   1      32.160  20.627  24.760  1.00  0.00    -0.088 SA
ATOM     72  C   UNL A   1      32.291  22.339  24.203  1.00  0.00     0.274 C 
ATOM     73  H   UNL A   1      33.948  23.435  23.769  1.00  0.00     0.348 HD
ATOM     74  H   UNL A   1      33.604  23.290  25.412  1.00  0.00     0.348 HD
BRANCH  72  75
ATOM     75  C   UNL A   1      31.292  23.341  24.779  1.00  0.00     0.024 A 
ATOM     76  C   UNL A   1      30.878  23.380  26.115  1.00  0.00     0.011 A 
ATOM     77  C   UNL A   1      30.872  24.389  23.924  1.00  0.00     0.057 A 
ATOM     78  C   UNL A   1      30.112  24.450  26.584  1.00  0.00     0.004 A 
ATOM     79  C   UNL A   1      30.196  25.508  24.400  1.00  0.00     0.120 A 
ATOM     80  C   UNL A   1      29.793  25.515  25.736  1.00  0.00     0.046 A 
BRANCH  79  81
ATOM     81  O   UNL A   1      29.900  26.637  23.687  1.00  0.00    -0.489 OA
BRANCH  81  82
ATOM     82  C   UNL A   1      30.952  27.424  23.107  1.00  0.00     0.267 C 
BRANCH  82  83
ATOM     83  C   UNL A   1      31.735  28.204  24.148  1.00  0.00     0.008 A 
ATOM     84  C   UNL A   1      31.206  29.422  24.618  1.00  0.00     0.010 A 
ATOM     85  C   UNL A   1      32.966  27.786  24.679  1.00  0.00     0.049 A 
ATOM     86  C   UNL A   1      31.860  30.158  25.613  1.00  0.00     0.021 A 
ATOM     87  C   UNL A   1      33.573  28.470  25.737  1.00  0.00     0.041 A 
ATOM     88  Cl  UNL A   1      33.901  26.524  23.976  1.00  0.00    -0.084 Cl
ATOM     89  C   UNL A   1      33.019  29.657  26.197  1.00  0.00     0.042 A 
ATOM     90  Cl  UNL A   1      33.798  30.528  27.458  1.00  0.00    -0.084 Cl
ENDBRANCH  82  83
ENDBRANCH  81  82
ENDBRANCH  79  81
ENDBRANCH  72  75
ENDBRANCH  65  68
ENDBRANCH   1  64
TORSDOF 14
ENDMDL
