MODEL 1
REMARK VINA RESULT:     -12.1      0.000      0.000
REMARK SMILES CCCc1nn2c(=O)cc(CSc3ccccc3C(=O)NCCCNC(=O)c3ccc(-c4c5nc(c(-c6c(F)cccc6F)c6ccc([nH]6)c(-c6c(F)cccc6F)c6nc(c(-c7c(F)cccc7F)c7ccc4[nH]7)C=C6)C=C5)cc3)nc2s1
REMARK SMILES IDX 19 1 20 2 21 3 18 5 13 6 14 7 15 8 17 9 16 10 12 11 11 12
REMARK SMILES IDX 10 13 4 14 5 15 84 16 6 17 83 18 7 19 82 20 8 21 9 22 3 23
REMARK SMILES IDX 2 24 1 25 22 26 23 27 24 28 25 29 26 30 27 32 28 33 29 34
REMARK SMILES IDX 81 35 30 36 80 37 31 38 32 39 33 40 74 41 34 42 79 43 73 44
REMARK SMILES IDX 75 45 35 46 78 47 72 48 71 49 36 51 62 52 45 53 61 54 46 55
REMARK SMILES IDX 49 56 60 57 76 58 47 59 48 60 59 62 77 63 50 64 37 65 38 66
REMARK SMILES IDX 43 67 39 68 40 69 42 70 44 71 41 72 63 73 64 74 69 75 65 76
REMARK SMILES IDX 66 77 68 78 70 79 67 80 51 81 52 82 57 83 53 84 54 85 56 86
REMARK SMILES IDX 58 87 55 88
REMARK H PARENT 21 4 25 31 75 50 49 61
REMARK Flexibility Score: inf
ROOT
ATOM      1  C   UNL A   1      34.543  21.501  26.408  1.00  0.00     0.252 C 
ATOM      2  O   UNL A   1      33.918  21.473  27.469  1.00  0.00    -0.269 OA
ATOM      3  N   UNL A   1      35.790  22.064  26.392  1.00  0.00    -0.352 N 
ATOM      4  H   UNL A   1      36.106  22.404  27.260  1.00  0.00     0.163 HD
ENDROOT
BRANCH   1   5
ATOM      5  C   UNL A   1      33.864  21.060  25.176  1.00  0.00     0.053 A 
ATOM      6  C   UNL A   1      33.405  21.854  24.113  1.00  0.00     0.020 A 
ATOM      7  C   UNL A   1      32.534  21.222  23.194  1.00  0.00     0.016 A 
ATOM      8  C   UNL A   1      32.223  19.856  23.263  1.00  0.00     0.001 A 
ATOM      9  C   UNL A   1      33.622  19.664  25.187  1.00  0.00     0.015 A 
ATOM     10  C   UNL A   1      32.804  19.065  24.239  1.00  0.00     0.001 A 
BRANCH   6  11
ATOM     11  S   UNL A   1      33.538  23.621  23.836  1.00  0.00    -0.119 SA
BRANCH  11  12
ATOM     12  C   UNL A   1      33.139  24.597  25.323  1.00  0.00     0.131 C 
BRANCH  12  13
ATOM     13  C   UNL A   1      32.610  25.998  25.191  1.00  0.00     0.060 A 
ATOM     14  C   UNL A   1      30.177  29.547  23.684  1.00  0.00     0.117 A 
ATOM     15  N   UNL A   1      30.960  29.684  24.708  1.00  0.00    -0.156 NA
ATOM     16  S   UNL A   1      30.352  28.080  22.749  1.00  0.00    -0.079 S 
ATOM     17  N   UNL A   1      31.669  28.515  24.882  1.00  0.00    -0.167 N 
ATOM     18  C   UNL A   1      31.435  27.511  23.983  1.00  0.00     0.215 A 
ATOM     19  C   UNL A   1      32.475  28.313  25.978  1.00  0.00     0.275 A 
ATOM     20  N   UNL A   1      31.896  26.302  24.044  1.00  0.00    -0.223 NA
ATOM     21  O   UNL A   1      32.823  29.146  26.809  1.00  0.00    -0.267 OA
ATOM     22  C   UNL A   1      32.944  26.916  26.114  1.00  0.00     0.098 A 
BRANCH  14  23
ATOM     23  C   UNL A   1      29.082  30.533  23.375  1.00  0.00     0.069 C 
BRANCH  23  24
ATOM     24  C   UNL A   1      28.033  30.088  22.359  1.00  0.00     0.004 C 
ATOM     25  C   UNL A   1      28.073  30.888  21.062  1.00  0.00     0.004 C 
ENDBRANCH  23  24
ENDBRANCH  14  23
ENDBRANCH  12  13
ENDBRANCH  11  12
ENDBRANCH   6  11
ENDBRANCH   1   5
BRANCH   3  26
ATOM     26  C   UNL A   1      36.716  22.235  25.292  1.00  0.00     0.118 C 
BRANCH  26  27
ATOM     27  C   UNL A   1      37.608  21.031  25.066  1.00  0.00     0.042 C 
BRANCH  27  28
ATOM     28  C   UNL A   1      38.932  21.098  25.823  1.00  0.00     0.118 C 
BRANCH  28  29
ATOM     29  N   UNL A   1      39.787  19.922  25.690  1.00  0.00    -0.352 N 
ATOM     30  C   UNL A   1      41.119  19.782  26.028  1.00  0.00     0.251 C 
ATOM     31  H   UNL A   1      39.357  19.123  25.308  1.00  0.00     0.163 HD
ATOM     32  O   UNL A   1      41.720  18.737  25.831  1.00  0.00    -0.269 OA
BRANCH  30  33
ATOM     33  C   UNL A   1      41.829  20.955  26.584  1.00  0.00     0.039 A 
ATOM     34  C   UNL A   1      42.395  21.880  25.705  1.00  0.00     0.014 A 
ATOM     35  C   UNL A   1      41.810  21.200  27.959  1.00  0.00     0.014 A 
ATOM     36  C   UNL A   1      42.825  23.115  26.195  1.00  0.00     0.010 A 
ATOM     37  C   UNL A   1      42.149  22.464  28.429  1.00  0.00     0.010 A 
ATOM     38  C   UNL A   1      42.636  23.443  27.549  1.00  0.00    -0.014 A 
BRANCH  38  39
ATOM     39  C   UNL A   1      42.890  24.818  28.056  1.00  0.00     0.031 A 
ATOM     40  C   UNL A   1      44.276  25.232  28.459  1.00  0.00     0.074 A 
ATOM     41  C   UNL A   1      41.856  25.663  28.243  1.00  0.00     0.049 A 
ATOM     42  N   UNL A   1      44.678  26.348  29.012  1.00  0.00    -0.248 NA
ATOM     43  C   UNL A   1      45.347  24.247  28.244  1.00  0.00     0.031 C 
ATOM     44  C   UNL A   1      40.450  25.365  27.956  1.00  0.00     0.029 A 
ATOM     45  N   UNL A   1      41.827  26.947  28.729  1.00  0.00    -0.354 N 
ATOM     46  C   UNL A   1      46.040  26.190  29.232  1.00  0.00     0.074 A 
ATOM     47  C   UNL A   1      46.385  24.851  28.804  1.00  0.00     0.031 C 
ATOM     48  C   UNL A   1      39.704  26.446  28.236  1.00  0.00     0.029 A 
ATOM     49  C   UNL A   1      40.568  27.499  28.758  1.00  0.00     0.049 A 
ATOM     50  H   UNL A   1      42.632  27.427  29.029  1.00  0.00     0.167 HD
ATOM     51  C   UNL A   1      46.930  27.085  29.722  1.00  0.00     0.037 A 
ATOM     52  C   UNL A   1      40.157  28.717  29.158  1.00  0.00     0.037 A 
ATOM     53  C   UNL A   1      46.597  28.428  30.113  1.00  0.00     0.049 A 
ATOM     54  C   UNL A   1      41.166  29.702  29.678  1.00  0.00     0.074 A 
ATOM     55  C   UNL A   1      47.439  29.430  30.563  1.00  0.00     0.029 A 
ATOM     56  N   UNL A   1      45.316  28.960  30.096  1.00  0.00    -0.354 N 
ATOM     57  N   UNL A   1      42.461  29.558  29.824  1.00  0.00    -0.248 NA
ATOM     58  C   UNL A   1      40.657  31.019  30.086  1.00  0.00     0.031 C 
ATOM     59  C   UNL A   1      46.663  30.561  30.844  1.00  0.00     0.029 A 
ATOM     60  C   UNL A   1      45.343  30.273  30.536  1.00  0.00     0.049 A 
ATOM     61  H   UNL A   1      44.507  28.475  29.814  1.00  0.00     0.167 HD
ATOM     62  C   UNL A   1      42.925  30.772  30.314  1.00  0.00     0.074 A 
ATOM     63  C   UNL A   1      41.774  31.644  30.431  1.00  0.00     0.031 C 
ATOM     64  C   UNL A   1      44.191  31.130  30.637  1.00  0.00     0.037 A 
BRANCH  51  65
ATOM     65  C   UNL A   1      48.354  26.632  29.848  1.00  0.00     0.057 A 
ATOM     66  C   UNL A   1      48.819  25.977  30.996  1.00  0.00     0.134 A 
ATOM     67  C   UNL A   1      49.270  26.845  28.810  1.00  0.00     0.134 A 
ATOM     68  F   UNL A   1      47.996  25.755  32.033  1.00  0.00    -0.206 F 
ATOM     69  C   UNL A   1      50.152  25.581  31.122  1.00  0.00     0.040 A 
ATOM     70  C   UNL A   1      50.598  26.430  28.914  1.00  0.00     0.040 A 
ATOM     71  F   UNL A   1      48.889  27.463  27.682  1.00  0.00    -0.206 F 
ATOM     72  C   UNL A   1      51.044  25.804  30.077  1.00  0.00     0.006 A 
ENDBRANCH  51  65
BRANCH  52  73
ATOM     73  C   UNL A   1      38.726  29.094  29.044  1.00  0.00     0.057 A 
ATOM     74  C   UNL A   1      38.198  29.533  27.824  1.00  0.00     0.134 A 
ATOM     75  C   UNL A   1      37.858  29.031  30.139  1.00  0.00     0.134 A 
ATOM     76  F   UNL A   1      38.988  29.633  26.745  1.00  0.00    -0.206 F 
ATOM     77  C   UNL A   1      36.860  29.912  27.701  1.00  0.00     0.040 A 
ATOM     78  C   UNL A   1      36.513  29.388  30.025  1.00  0.00     0.040 A 
ATOM     79  F   UNL A   1      38.302  28.612  31.333  1.00  0.00    -0.206 F 
ATOM     80  C   UNL A   1      36.012  29.835  28.803  1.00  0.00     0.006 A 
ENDBRANCH  52  73
BRANCH  64  81
ATOM     81  C   UNL A   1      44.402  32.536  31.114  1.00  0.00     0.057 A 
ATOM     82  C   UNL A   1      44.662  33.585  30.224  1.00  0.00     0.134 A 
ATOM     83  C   UNL A   1      44.310  32.846  32.477  1.00  0.00     0.134 A 
ATOM     84  F   UNL A   1      44.776  33.348  28.909  1.00  0.00    -0.206 F 
ATOM     85  C   UNL A   1      44.840  34.894  30.675  1.00  0.00     0.040 A 
ATOM     86  C   UNL A   1      44.463  34.154  32.937  1.00  0.00     0.040 A 
ATOM     87  F   UNL A   1      44.058  31.886  33.379  1.00  0.00    -0.206 F 
ATOM     88  C   UNL A   1      44.733  35.182  32.035  1.00  0.00     0.006 A 
ENDBRANCH  64  81
ENDBRANCH  38  39
ENDBRANCH  30  33
ENDBRANCH  28  29
ENDBRANCH  27  28
ENDBRANCH  26  27
ENDBRANCH   3  26
TORSDOF 15
ENDMDL
MODEL 2
REMARK VINA RESULT:     -12.0      2.855      8.918
REMARK SMILES CCCc1nn2c(=O)cc(CSc3ccccc3C(=O)NCCCNC(=O)c3ccc(-c4c5nc(c(-c6c(F)cccc6F)c6ccc([nH]6)c(-c6c(F)cccc6F)c6nc(c(-c7c(F)cccc7F)c7ccc4[nH]7)C=C6)C=C5)cc3)nc2s1
REMARK SMILES IDX 19 1 20 2 21 3 18 5 13 6 14 7 15 8 17 9 16 10 12 11 11 12
REMARK SMILES IDX 10 13 4 14 5 15 84 16 6 17 83 18 7 19 82 20 8 21 9 22 3 23
REMARK SMILES IDX 2 24 1 25 22 26 23 27 24 28 25 29 26 30 27 32 28 33 29 34
REMARK SMILES IDX 81 35 30 36 80 37 31 38 32 39 33 40 74 41 34 42 79 43 73 44
REMARK SMILES IDX 75 45 35 46 78 47 72 48 71 49 36 51 62 52 45 53 61 54 46 55
REMARK SMILES IDX 49 56 60 57 76 58 47 59 48 60 59 62 77 63 50 64 37 65 38 66
REMARK SMILES IDX 43 67 39 68 40 69 42 70 44 71 41 72 63 73 64 74 69 75 65 76
REMARK SMILES IDX 66 77 68 78 70 79 67 80 51 81 52 82 57 83 53 84 54 85 56 86
REMARK SMILES IDX 58 87 55 88
REMARK H PARENT 21 4 25 31 75 50 49 61
REMARK Flexibility Score: inf
ROOT
ATOM      1  C   UNL A   1      31.990  28.968  23.897  1.00  0.00     0.252 C 
ATOM      2  O   UNL A   1      32.777  28.688  22.990  1.00  0.00    -0.269 OA
ATOM      3  N   UNL A   1      32.220  30.092  24.644  1.00  0.00    -0.352 N 
ATOM      4  H   UNL A   1      33.015  30.612  24.384  1.00  0.00     0.163 HD
ENDROOT
BRANCH   1   5
ATOM      5  C   UNL A   1      30.924  28.008  24.230  1.00  0.00     0.053 A 
ATOM      6  C   UNL A   1      30.978  26.941  25.141  1.00  0.00     0.020 A 
ATOM      7  C   UNL A   1      29.925  25.999  25.060  1.00  0.00     0.016 A 
ATOM      8  C   UNL A   1      28.827  26.163  24.203  1.00  0.00     0.001 A 
ATOM      9  C   UNL A   1      29.770  28.216  23.435  1.00  0.00     0.015 A 
ATOM     10  C   UNL A   1      28.729  27.299  23.418  1.00  0.00     0.001 A 
BRANCH   6  11
ATOM     11  S   UNL A   1      32.288  26.419  26.249  1.00  0.00    -0.119 SA
BRANCH  11  12
ATOM     12  C   UNL A   1      33.792  25.896  25.360  1.00  0.00     0.131 C 
BRANCH  12  13
ATOM     13  C   UNL A   1      34.205  24.450  25.356  1.00  0.00     0.060 A 
ATOM     14  C   UNL A   1      33.990  19.922  24.868  1.00  0.00     0.117 A 
ATOM     15  N   UNL A   1      35.114  20.490  25.175  1.00  0.00    -0.156 NA
ATOM     16  S   UNL A   1      32.552  20.911  24.976  1.00  0.00    -0.079 S 
ATOM     17  N   UNL A   1      34.889  21.833  25.385  1.00  0.00    -0.167 N 
ATOM     18  C   UNL A   1      33.598  22.270  25.256  1.00  0.00     0.215 A 
ATOM     19  C   UNL A   1      35.921  22.719  25.586  1.00  0.00     0.275 A 
ATOM     20  N   UNL A   1      33.198  23.501  25.285  1.00  0.00    -0.223 NA
ATOM     21  O   UNL A   1      37.101  22.451  25.792  1.00  0.00    -0.267 OA
ATOM     22  C   UNL A   1      35.499  24.136  25.537  1.00  0.00     0.098 A 
BRANCH  14  23
ATOM     23  C   UNL A   1      33.922  18.520  24.324  1.00  0.00     0.069 C 
BRANCH  23  24
ATOM     24  C   UNL A   1      32.558  18.046  23.830  1.00  0.00     0.004 C 
ATOM     25  C   UNL A   1      32.372  18.207  22.326  1.00  0.00     0.004 C 
ENDBRANCH  23  24
ENDBRANCH  14  23
ENDBRANCH  12  13
ENDBRANCH  11  12
ENDBRANCH   6  11
ENDBRANCH   1   5
BRANCH   3  26
ATOM     26  C   UNL A   1      31.472  30.632  25.760  1.00  0.00     0.118 C 
BRANCH  26  27
ATOM     27  C   UNL A   1      32.224  30.564  27.074  1.00  0.00     0.042 C 
BRANCH  27  28
ATOM     28  C   UNL A   1      33.229  31.697  27.265  1.00  0.00     0.118 C 
BRANCH  28  29
ATOM     29  N   UNL A   1      32.652  32.992  27.609  1.00  0.00    -0.352 N 
ATOM     30  C   UNL A   1      33.179  33.987  28.411  1.00  0.00     0.251 C 
ATOM     31  H   UNL A   1      31.769  33.183  27.218  1.00  0.00     0.163 HD
ATOM     32  O   UNL A   1      32.565  35.018  28.635  1.00  0.00    -0.269 OA
BRANCH  30  33
ATOM     33  C   UNL A   1      34.494  33.750  29.049  1.00  0.00     0.039 A 
ATOM     34  C   UNL A   1      34.542  33.035  30.246  1.00  0.00     0.014 A 
ATOM     35  C   UNL A   1      35.669  34.115  28.390  1.00  0.00     0.014 A 
ATOM     36  C   UNL A   1      35.773  32.571  30.717  1.00  0.00     0.010 A 
ATOM     37  C   UNL A   1      36.880  33.572  28.807  1.00  0.00     0.010 A 
ATOM     38  C   UNL A   1      36.941  32.774  29.960  1.00  0.00    -0.014 A 
BRANCH  38  39
ATOM     39  C   UNL A   1      38.224  32.118  30.326  1.00  0.00     0.031 A 
ATOM     40  C   UNL A   1      39.180  32.796  31.264  1.00  0.00     0.074 A 
ATOM     41  C   UNL A   1      38.571  30.954  29.739  1.00  0.00     0.049 A 
ATOM     42  N   UNL A   1      40.385  32.431  31.624  1.00  0.00    -0.248 NA
ATOM     43  C   UNL A   1      38.738  34.072  31.848  1.00  0.00     0.031 C 
ATOM     44  C   UNL A   1      37.766  30.222  28.758  1.00  0.00     0.029 A 
ATOM     45  N   UNL A   1      39.701  30.187  29.874  1.00  0.00    -0.354 N 
ATOM     46  C   UNL A   1      40.851  33.441  32.455  1.00  0.00     0.074 A 
ATOM     47  C   UNL A   1      39.824  34.459  32.502  1.00  0.00     0.031 C 
ATOM     48  C   UNL A   1      38.409  29.096  28.411  1.00  0.00     0.029 A 
ATOM     49  C   UNL A   1      39.689  29.043  29.111  1.00  0.00     0.049 A 
ATOM     50  H   UNL A   1      40.451  30.431  30.463  1.00  0.00     0.167 HD
ATOM     51  C   UNL A   1      42.018  33.506  33.139  1.00  0.00     0.037 A 
ATOM     52  C   UNL A   1      40.602  28.062  28.991  1.00  0.00     0.037 A 
ATOM     53  C   UNL A   1      43.025  32.479  33.125  1.00  0.00     0.049 A 
ATOM     54  C   UNL A   1      41.880  28.145  29.776  1.00  0.00     0.074 A 
ATOM     55  C   UNL A   1      44.212  32.424  33.833  1.00  0.00     0.029 A 
ATOM     56  N   UNL A   1      42.958  31.321  32.365  1.00  0.00    -0.354 N 
ATOM     57  N   UNL A   1      42.281  29.078  30.605  1.00  0.00    -0.248 NA
ATOM     58  C   UNL A   1      42.832  27.037  29.612  1.00  0.00     0.031 C 
ATOM     59  C   UNL A   1      44.878  31.244  33.480  1.00  0.00     0.029 A 
ATOM     60  C   UNL A   1      44.088  30.549  32.579  1.00  0.00     0.049 A 
ATOM     61  H   UNL A   1      42.218  31.083  31.761  1.00  0.00     0.167 HD
ATOM     62  C   UNL A   1      43.516  28.658  31.081  1.00  0.00     0.074 A 
ATOM     63  C   UNL A   1      43.794  27.381  30.457  1.00  0.00     0.031 C 
ATOM     64  C   UNL A   1      44.345  29.276  31.957  1.00  0.00     0.037 A 
BRANCH  51  65
ATOM     65  C   UNL A   1      42.254  34.732  33.971  1.00  0.00     0.057 A 
ATOM     66  C   UNL A   1      41.910  34.777  35.328  1.00  0.00     0.134 A 
ATOM     67  C   UNL A   1      42.837  35.877  33.414  1.00  0.00     0.134 A 
ATOM     68  F   UNL A   1      41.334  33.718  35.920  1.00  0.00    -0.206 F 
ATOM     69  C   UNL A   1      42.105  35.928  36.094  1.00  0.00     0.040 A 
ATOM     70  C   UNL A   1      43.062  37.024  34.175  1.00  0.00     0.040 A 
ATOM     71  F   UNL A   1      43.195  35.898  32.121  1.00  0.00    -0.206 F 
ATOM     72  C   UNL A   1      42.686  37.055  35.518  1.00  0.00     0.006 A 
ENDBRANCH  51  65
BRANCH  52  73
ATOM     73  C   UNL A   1      40.326  26.890  28.122  1.00  0.00     0.057 A 
ATOM     74  C   UNL A   1      39.501  25.850  28.567  1.00  0.00     0.134 A 
ATOM     75  C   UNL A   1      40.876  26.777  26.841  1.00  0.00     0.134 A 
ATOM     76  F   UNL A   1      38.962  25.895  29.793  1.00  0.00    -0.206 F 
ATOM     77  C   UNL A   1      39.246  24.730  27.774  1.00  0.00     0.040 A 
ATOM     78  C   UNL A   1      40.613  25.672  26.030  1.00  0.00     0.040 A 
ATOM     79  F   UNL A   1      41.670  27.743  26.356  1.00  0.00    -0.206 F 
ATOM     80  C   UNL A   1      39.799  24.641  26.499  1.00  0.00     0.006 A 
ENDBRANCH  52  73
BRANCH  64  81
ATOM     81  C   UNL A   1      45.612  28.561  32.319  1.00  0.00     0.057 A 
ATOM     82  C   UNL A   1      46.805  28.775  31.619  1.00  0.00     0.134 A 
ATOM     83  C   UNL A   1      45.645  27.676  33.404  1.00  0.00     0.134 A 
ATOM     84  F   UNL A   1      46.834  29.600  30.562  1.00  0.00    -0.206 F 
ATOM     85  C   UNL A   1      47.985  28.119  31.974  1.00  0.00     0.040 A 
ATOM     86  C   UNL A   1      46.822  27.032  33.783  1.00  0.00     0.040 A 
ATOM     87  F   UNL A   1      44.536  27.433  34.120  1.00  0.00    -0.206 F 
ATOM     88  C   UNL A   1      47.997  27.250  33.064  1.00  0.00     0.006 A 
ENDBRANCH  64  81
ENDBRANCH  38  39
ENDBRANCH  30  33
ENDBRANCH  28  29
ENDBRANCH  27  28
ENDBRANCH  26  27
ENDBRANCH   3  26
TORSDOF 15
ENDMDL
MODEL 3
REMARK VINA RESULT:     -11.9      3.835      9.784
REMARK SMILES CCCc1nn2c(=O)cc(CSc3ccccc3C(=O)NCCCNC(=O)c3ccc(-c4c5nc(c(-c6c(F)cccc6F)c6ccc([nH]6)c(-c6c(F)cccc6F)c6nc(c(-c7c(F)cccc7F)c7ccc4[nH]7)C=C6)C=C5)cc3)nc2s1
REMARK SMILES IDX 19 1 20 2 21 3 18 5 13 6 14 7 15 8 17 9 16 10 12 11 11 12
REMARK SMILES IDX 10 13 4 14 5 15 84 16 6 17 83 18 7 19 82 20 8 21 9 22 3 23
REMARK SMILES IDX 2 24 1 25 22 26 23 27 24 28 25 29 26 30 27 32 28 33 29 34
REMARK SMILES IDX 81 35 30 36 80 37 31 38 32 39 33 40 74 41 34 42 79 43 73 44
REMARK SMILES IDX 75 45 35 46 78 47 72 48 71 49 36 51 62 52 45 53 61 54 46 55
REMARK SMILES IDX 49 56 60 57 76 58 47 59 48 60 59 62 77 63 50 64 37 65 38 66
REMARK SMILES IDX 43 67 39 68 40 69 42 70 44 71 41 72 63 73 64 74 69 75 65 76
REMARK SMILES IDX 66 77 68 78 70 79 67 80 51 81 52 82 57 83 53 84 54 85 56 86
REMARK SMILES IDX 58 87 55 88
REMARK H PARENT 21 4 25 31 75 50 49 61
REMARK Flexibility Score: inf
ROOT
ATOM      1  C   UNL A   1      32.864  29.091  24.395  1.00  0.00     0.252 C 
ATOM      2  O   UNL A   1      33.631  28.998  23.435  1.00  0.00    -0.269 OA
ATOM      3  N   UNL A   1      33.255  29.827  25.481  1.00  0.00    -0.352 N 
ATOM      4  H   UNL A   1      34.142  30.248  25.403  1.00  0.00     0.163 HD
ENDROOT
BRANCH   1   5
ATOM      5  C   UNL A   1      31.628  28.291  24.393  1.00  0.00     0.053 A 
ATOM      6  C   UNL A   1      31.374  27.094  25.083  1.00  0.00     0.020 A 
ATOM      7  C   UNL A   1      30.220  26.377  24.684  1.00  0.00     0.016 A 
ATOM      8  C   UNL A   1      29.314  26.870  23.734  1.00  0.00     0.001 A 
ATOM      9  C   UNL A   1      30.663  28.825  23.505  1.00  0.00     0.015 A 
ATOM     10  C   UNL A   1      29.514  28.120  23.174  1.00  0.00     0.001 A 
BRANCH   6  11
ATOM     11  S   UNL A   1      32.394  26.175  26.238  1.00  0.00    -0.119 SA
BRANCH  11  12
ATOM     12  C   UNL A   1      32.156  24.372  26.103  1.00  0.00     0.131 C 
BRANCH  12  13
ATOM     13  C   UNL A   1      33.324  23.475  25.797  1.00  0.00     0.060 A 
ATOM     14  C   UNL A   1      37.610  21.947  25.518  1.00  0.00     0.117 A 
ATOM     15  N   UNL A   1      36.624  21.187  25.155  1.00  0.00    -0.156 NA
ATOM     16  S   UNL A   1      37.244  23.635  25.791  1.00  0.00    -0.079 S 
ATOM     17  N   UNL A   1      35.457  21.917  25.215  1.00  0.00    -0.167 N 
ATOM     18  C   UNL A   1      35.566  23.225  25.604  1.00  0.00     0.215 A 
ATOM     19  C   UNL A   1      34.226  21.334  25.026  1.00  0.00     0.275 A 
ATOM     20  N   UNL A   1      34.588  24.038  25.846  1.00  0.00    -0.223 NA
ATOM     21  O   UNL A   1      33.996  20.203  24.608  1.00  0.00    -0.267 OA
ATOM     22  C   UNL A   1      33.094  22.218  25.380  1.00  0.00     0.098 A 
BRANCH  14  23
ATOM     23  C   UNL A   1      38.979  21.396  25.815  1.00  0.00     0.069 C 
BRANCH  23  24
ATOM     24  C   UNL A   1      39.870  22.239  26.724  1.00  0.00     0.004 C 
ATOM     25  C   UNL A   1      41.333  22.241  26.299  1.00  0.00     0.004 C 
ENDBRANCH  23  24
ENDBRANCH  14  23
ENDBRANCH  12  13
ENDBRANCH  11  12
ENDBRANCH   6  11
ENDBRANCH   1   5
BRANCH   3  26
ATOM     26  C   UNL A   1      32.563  30.081  26.727  1.00  0.00     0.118 C 
BRANCH  26  27
ATOM     27  C   UNL A   1      32.023  31.493  26.835  1.00  0.00     0.042 C 
BRANCH  27  28
ATOM     28  C   UNL A   1      33.016  32.485  27.436  1.00  0.00     0.118 C 
BRANCH  28  29
ATOM     29  N   UNL A   1      32.493  33.828  27.669  1.00  0.00    -0.352 N 
ATOM     30  C   UNL A   1      32.991  34.816  28.497  1.00  0.00     0.251 C 
ATOM     31  H   UNL A   1      31.677  34.060  27.170  1.00  0.00     0.163 HD
ATOM     32  O   UNL A   1      32.427  35.892  28.616  1.00  0.00    -0.269 OA
BRANCH  30  33
ATOM     33  C   UNL A   1      34.203  34.519  29.293  1.00  0.00     0.039 A 
ATOM     34  C   UNL A   1      34.053  33.996  30.579  1.00  0.00     0.014 A 
ATOM     35  C   UNL A   1      35.468  34.629  28.713  1.00  0.00     0.014 A 
ATOM     36  C   UNL A   1      35.166  33.462  31.233  1.00  0.00     0.010 A 
ATOM     37  C   UNL A   1      36.554  34.011  29.324  1.00  0.00     0.010 A 
ATOM     38  C   UNL A   1      36.409  33.399  30.579  1.00  0.00    -0.014 A 
BRANCH  38  39
ATOM     39  C   UNL A   1      37.554  32.653  31.163  1.00  0.00     0.031 A 
ATOM     40  C   UNL A   1      38.176  33.108  32.452  1.00  0.00     0.074 A 
ATOM     41  C   UNL A   1      38.097  31.621  30.484  1.00  0.00     0.049 A 
ATOM     42  N   UNL A   1      39.238  32.650  33.065  1.00  0.00    -0.248 NA
ATOM     43  C   UNL A   1      37.540  34.253  33.122  1.00  0.00     0.031 C 
ATOM     44  C   UNL A   1      37.634  31.118  29.188  1.00  0.00     0.029 A 
ATOM     45  N   UNL A   1      39.166  30.815  30.786  1.00  0.00    -0.354 N 
ATOM     46  C   UNL A   1      39.410  33.464  34.178  1.00  0.00     0.074 A 
ATOM     47  C   UNL A   1      38.377  34.477  34.125  1.00  0.00     0.031 C 
ATOM     48  C   UNL A   1      38.388  30.068  28.827  1.00  0.00     0.029 A 
ATOM     49  C   UNL A   1      39.413  29.846  29.843  1.00  0.00     0.049 A 
ATOM     50  H   UNL A   1      39.705  30.920  31.603  1.00  0.00     0.167 HD
ATOM     51  C   UNL A   1      40.328  33.364  35.168  1.00  0.00     0.037 A 
ATOM     52  C   UNL A   1      40.357  28.887  29.801  1.00  0.00     0.037 A 
ATOM     53  C   UNL A   1      41.331  32.336  35.244  1.00  0.00     0.049 A 
ATOM     54  C   UNL A   1      41.351  28.782  30.922  1.00  0.00     0.074 A 
ATOM     55  C   UNL A   1      42.266  32.113  36.239  1.00  0.00     0.029 A 
ATOM     56  N   UNL A   1      41.526  31.354  34.284  1.00  0.00    -0.354 N 
ATOM     57  N   UNL A   1      41.464  29.522  31.998  1.00  0.00    -0.248 NA
ATOM     58  C   UNL A   1      42.347  27.706  30.825  1.00  0.00     0.031 C 
ATOM     59  C   UNL A   1      43.046  31.012  35.869  1.00  0.00     0.029 A 
ATOM     60  C   UNL A   1      42.573  30.528  34.660  1.00  0.00     0.049 A 
ATOM     61  H   UNL A   1      41.000  31.258  33.458  1.00  0.00     0.167 HD
ATOM     62  C   UNL A   1      42.523  28.986  32.719  1.00  0.00     0.074 A 
ATOM     63  C   UNL A   1      43.014  27.853  31.962  1.00  0.00     0.031 C 
ATOM     64  C   UNL A   1      43.042  29.398  33.900  1.00  0.00     0.037 A 
BRANCH  51  65
ATOM     65  C   UNL A   1      40.271  34.394  36.257  1.00  0.00     0.057 A 
ATOM     66  C   UNL A   1      40.979  35.601  36.164  1.00  0.00     0.134 A 
ATOM     67  C   UNL A   1      39.499  34.185  37.406  1.00  0.00     0.134 A 
ATOM     68  F   UNL A   1      41.749  35.857  35.096  1.00  0.00    -0.206 F 
ATOM     69  C   UNL A   1      40.947  36.546  37.190  1.00  0.00     0.040 A 
ATOM     70  C   UNL A   1      39.439  35.134  38.426  1.00  0.00     0.040 A 
ATOM     71  F   UNL A   1      38.794  33.053  37.555  1.00  0.00    -0.206 F 
ATOM     72  C   UNL A   1      40.172  36.315  38.324  1.00  0.00     0.006 A 
ENDBRANCH  51  65
BRANCH  52  73
ATOM     73  C   UNL A   1      40.383  27.918  28.676  1.00  0.00     0.057 A 
ATOM     74  C   UNL A   1      41.108  28.198  27.511  1.00  0.00     0.134 A 
ATOM     75  C   UNL A   1      39.691  26.704  28.732  1.00  0.00     0.134 A 
ATOM     76  F   UNL A   1      41.775  29.354  27.393  1.00  0.00    -0.206 F 
ATOM     77  C   UNL A   1      41.129  27.310  26.434  1.00  0.00     0.040 A 
ATOM     78  C   UNL A   1      39.720  25.799  27.670  1.00  0.00     0.040 A 
ATOM     79  F   UNL A   1      38.984  26.377  29.824  1.00  0.00    -0.206 F 
ATOM     80  C   UNL A   1      40.437  26.105  26.514  1.00  0.00     0.006 A 
ENDBRANCH  52  73
BRANCH  64  81
ATOM     81  C   UNL A   1      44.176  28.596  34.465  1.00  0.00     0.057 A 
ATOM     82  C   UNL A   1      45.512  28.923  34.204  1.00  0.00     0.134 A 
ATOM     83  C   UNL A   1      43.925  27.506  35.308  1.00  0.00     0.134 A 
ATOM     84  F   UNL A   1      45.815  29.947  33.393  1.00  0.00    -0.206 F 
ATOM     85  C   UNL A   1      46.562  28.181  34.749  1.00  0.00     0.040 A 
ATOM     86  C   UNL A   1      44.966  26.771  35.876  1.00  0.00     0.040 A 
ATOM     87  F   UNL A   1      42.667  27.146  35.601  1.00  0.00    -0.206 F 
ATOM     88  C   UNL A   1      46.289  27.106  35.594  1.00  0.00     0.006 A 
ENDBRANCH  64  81
ENDBRANCH  38  39
ENDBRANCH  30  33
ENDBRANCH  28  29
ENDBRANCH  27  28
ENDBRANCH  26  27
ENDBRANCH   3  26
TORSDOF 15
ENDMDL
