MODEL 1
REMARK VINA RESULT:     -12.5      0.000      0.000
REMARK SMILES C=C1C[C@@]23CC[C@H]4[C@@](C)(CCC[C@@]4(C)C(=O)NCCCNC(=O)c4ccc(-c5c6nc(c(-c7c(F)cccc7F)c7ccc([nH]7)c(-c7c(F)cccc7F)c7nc(c(-c8c(F)cccc8F)c8ccc5[nH]8)C=C7)C=C6)cc4)[C@H]2CC[C@]1(O)C3
REMARK SMILES IDX 19 1 18 2 17 3 15 4 16 5 13 7 1 8 2 9 3 10 81 11 4 12 80 13
REMARK SMILES IDX 83 14 5 15 78 16 79 17 6 18 8 19 7 20 9 21 10 22 11 23 12 24
REMARK SMILES IDX 14 25 82 26 20 28 21 29 22 30 23 32 24 33 25 34 77 35 26 36
REMARK SMILES IDX 76 37 27 38 28 39 29 40 70 41 30 42 75 43 69 44 71 45 31 46
REMARK SMILES IDX 74 47 68 48 67 49 32 51 58 52 41 53 57 54 42 55 45 56 56 57
REMARK SMILES IDX 72 58 43 59 44 60 55 62 73 63 46 64 33 65 34 66 39 67 35 68
REMARK SMILES IDX 36 69 38 70 40 71 37 72 59 73 60 74 65 75 61 76 62 77 64 78
REMARK SMILES IDX 66 79 63 80 47 81 48 82 53 83 49 84 50 85 52 86 54 87 51 88
REMARK H PARENT 17 6 82 27 21 31 71 50 45 61
REMARK Flexibility Score: inf
ROOT
ATOM      1  C   UNL A   1      36.230  23.992  26.096  1.00  0.00     0.042 C 
ENDROOT
BRANCH   1   2
ATOM      2  C   UNL A   1      35.166  22.926  26.246  1.00  0.00     0.117 C 
BRANCH   2   3
ATOM      3  N   UNL A   1      34.640  22.521  24.959  1.00  0.00    -0.356 N 
ATOM      4  C   UNL A   1      33.437  22.678  24.363  1.00  0.00     0.226 C 
ATOM      5  O   UNL A   1      33.383  22.255  23.203  1.00  0.00    -0.274 OA
ATOM      6  H   UNL A   1      35.291  22.034  24.405  1.00  0.00     0.163 HD
BRANCH   4   7
ATOM      7  C   UNL A   1      32.204  23.264  25.071  1.00  0.00     0.050 C 
ATOM      8  C   UNL A   1      31.773  31.292  26.664  1.00  0.00     0.011 C 
ATOM      9  C   UNL A   1      32.184  30.063  26.324  1.00  0.00    -0.045 C 
ATOM     10  C   UNL A   1      31.381  29.076  25.492  1.00  0.00     0.040 C 
ATOM     11  C   UNL A   1      33.346  29.321  26.930  1.00  0.00     0.086 C 
ATOM     12  C   UNL A   1      31.910  27.694  25.980  1.00  0.00    -0.020 C 
ATOM     13  C   UNL A   1      34.468  29.006  25.919  1.00  0.00     0.040 C 
ATOM     14  C   UNL A   1      32.597  28.064  27.317  1.00  0.00     0.047 C 
ATOM     15  C   UNL A   1      30.815  26.703  26.292  1.00  0.00     0.008 C 
ATOM     16  C   UNL A   1      33.027  27.071  25.074  1.00  0.00     0.002 C 
ATOM     17  C   UNL A   1      34.037  28.178  24.662  1.00  0.00     0.008 C 
ATOM     18  C   UNL A   1      31.480  25.347  26.613  1.00  0.00     0.006 C 
ATOM     19  C   UNL A   1      32.692  25.750  24.208  1.00  0.00    -0.025 C 
ATOM     20  C   UNL A   1      32.065  24.784  25.289  1.00  0.00     0.010 C 
ATOM     21  C   UNL A   1      34.027  25.465  23.472  1.00  0.00     0.012 C 
ATOM     22  C   UNL A   1      31.653  25.548  23.022  1.00  0.00     0.007 C 
ATOM     23  C   UNL A   1      30.907  24.098  22.940  1.00  0.00     0.002 C 
ATOM     24  C   UNL A   1      31.001  23.014  24.104  1.00  0.00     0.017 C 
ATOM     25  C   UNL A   1      32.086  22.482  26.396  1.00  0.00     0.022 C 
BRANCH  11  26
ATOM     26  O   UNL A   1      33.870  29.937  28.089  1.00  0.00    -0.386 OA
ATOM     27  H   UNL A   1      33.159  30.399  28.560  1.00  0.00     0.211 HD
ENDBRANCH  11  26
ENDBRANCH   4   7
ENDBRANCH   2   3
ENDBRANCH   1   2
BRANCH   1  28
ATOM     28  C   UNL A   1      37.235  23.681  24.991  1.00  0.00     0.118 C 
BRANCH  28  29
ATOM     29  N   UNL A   1      38.278  22.740  25.390  1.00  0.00    -0.352 N 
ATOM     30  C   UNL A   1      39.385  22.960  26.186  1.00  0.00     0.251 C 
ATOM     31  H   UNL A   1      38.178  21.823  25.045  1.00  0.00     0.163 HD
ATOM     32  O   UNL A   1      40.244  22.115  26.316  1.00  0.00    -0.269 OA
BRANCH  30  33
ATOM     33  C   UNL A   1      39.510  24.273  26.853  1.00  0.00     0.039 A 
ATOM     34  C   UNL A   1      39.031  24.419  28.155  1.00  0.00     0.014 A 
ATOM     35  C   UNL A   1      40.167  25.325  26.211  1.00  0.00     0.014 A 
ATOM     36  C   UNL A   1      39.288  25.604  28.846  1.00  0.00     0.010 A 
ATOM     37  C   UNL A   1      40.512  26.458  26.934  1.00  0.00     0.010 A 
ATOM     38  C   UNL A   1      40.069  26.612  28.256  1.00  0.00    -0.014 A 
BRANCH  38  39
ATOM     39  C   UNL A   1      40.425  27.845  28.999  1.00  0.00     0.031 A 
ATOM     40  C   UNL A   1      41.782  27.968  29.635  1.00  0.00     0.074 A 
ATOM     41  C   UNL A   1      39.509  28.821  29.155  1.00  0.00     0.049 A 
ATOM     42  N   UNL A   1      42.264  28.936  30.372  1.00  0.00    -0.248 NA
ATOM     43  C   UNL A   1      42.710  26.842  29.443  1.00  0.00     0.031 C 
ATOM     44  C   UNL A   1      38.140  28.793  28.634  1.00  0.00     0.029 A 
ATOM     45  N   UNL A   1      39.590  30.028  29.802  1.00  0.00    -0.354 N 
ATOM     46  C   UNL A   1      43.541  28.528  30.737  1.00  0.00     0.074 A 
ATOM     47  C   UNL A   1      43.732  27.199  30.203  1.00  0.00     0.031 C 
ATOM     48  C   UNL A   1      37.524  29.942  28.952  1.00  0.00     0.029 A 
ATOM     49  C   UNL A   1      38.436  30.771  29.732  1.00  0.00     0.049 A 
ATOM     50  H   UNL A   1      40.400  30.333  30.272  1.00  0.00     0.167 HD
ATOM     51  C   UNL A   1      44.482  29.212  31.430  1.00  0.00     0.037 A 
ATOM     52  C   UNL A   1      38.148  31.983  30.245  1.00  0.00     0.037 A 
ATOM     53  C   UNL A   1      44.294  30.543  31.941  1.00  0.00     0.049 A 
ATOM     54  C   UNL A   1      39.207  32.716  31.022  1.00  0.00     0.074 A 
ATOM     55  C   UNL A   1      45.201  31.346  32.610  1.00  0.00     0.029 A 
ATOM     56  N   UNL A   1      43.115  31.267  31.839  1.00  0.00    -0.354 N 
ATOM     57  N   UNL A   1      40.434  32.349  31.298  1.00  0.00    -0.248 NA
ATOM     58  C   UNL A   1      38.842  34.037  31.551  1.00  0.00     0.031 C 
ATOM     59  C   UNL A   1      44.555  32.537  32.956  1.00  0.00     0.029 A 
ATOM     60  C   UNL A   1      43.265  32.500  32.453  1.00  0.00     0.049 A 
ATOM     61  H   UNL A   1      42.295  30.952  31.396  1.00  0.00     0.167 HD
ATOM     62  C   UNL A   1      40.998  33.403  32.005  1.00  0.00     0.074 A 
ATOM     63  C   UNL A   1      39.982  34.431  32.100  1.00  0.00     0.031 C 
ATOM     64  C   UNL A   1      42.244  33.514  32.528  1.00  0.00     0.037 A 
BRANCH  51  65
ATOM     65  C   UNL A   1      45.800  28.532  31.662  1.00  0.00     0.057 A 
ATOM     66  C   UNL A   1      46.037  27.747  32.800  1.00  0.00     0.134 A 
ATOM     67  C   UNL A   1      46.836  28.638  30.726  1.00  0.00     0.134 A 
ATOM     68  F   UNL A   1      45.092  27.616  33.744  1.00  0.00    -0.206 F 
ATOM     69  C   UNL A   1      47.264  27.118  33.013  1.00  0.00     0.040 A 
ATOM     70  C   UNL A   1      48.058  27.987  30.913  1.00  0.00     0.040 A 
ATOM     71  F   UNL A   1      46.677  29.369  29.613  1.00  0.00    -0.206 F 
ATOM     72  C   UNL A   1      48.277  27.231  32.062  1.00  0.00     0.006 A 
ENDBRANCH  51  65
BRANCH  52  73
ATOM     73  C   UNL A   1      36.813  32.592  30.020  1.00  0.00     0.057 A 
ATOM     74  C   UNL A   1      36.591  33.473  28.954  1.00  0.00     0.134 A 
ATOM     75  C   UNL A   1      35.732  32.328  30.871  1.00  0.00     0.134 A 
ATOM     76  F   UNL A   1      37.591  33.780  28.114  1.00  0.00    -0.206 F 
ATOM     77  C   UNL A   1      35.354  34.088  28.757  1.00  0.00     0.040 A 
ATOM     78  C   UNL A   1      34.482  32.915  30.670  1.00  0.00     0.040 A 
ATOM     79  F   UNL A   1      35.874  31.486  31.905  1.00  0.00    -0.206 F 
ATOM     80  C   UNL A   1      34.293  33.805  29.614  1.00  0.00     0.006 A 
ENDBRANCH  52  73
BRANCH  64  81
ATOM     81  C   UNL A   1      42.590  34.804  33.211  1.00  0.00     0.057 A 
ATOM     82  C   UNL A   1      43.192  35.869  32.527  1.00  0.00     0.134 A 
ATOM     83  C   UNL A   1      42.280  34.997  34.564  1.00  0.00     0.134 A 
ATOM     84  F   UNL A   1      43.525  35.743  31.234  1.00  0.00    -0.206 F 
ATOM     85  C   UNL A   1      43.498  37.067  33.172  1.00  0.00     0.040 A 
ATOM     86  C   UNL A   1      42.555  36.203  35.210  1.00  0.00     0.040 A 
ATOM     87  F   UNL A   1      41.694  34.023  35.275  1.00  0.00    -0.206 F 
ATOM     88  C   UNL A   1      43.172  37.239  34.516  1.00  0.00     0.006 A 
ENDBRANCH  64  81
ENDBRANCH  38  39
ENDBRANCH  30  33
ENDBRANCH  28  29
ENDBRANCH   1  28
TORSDOF 11
ENDMDL
MODEL 2
REMARK VINA RESULT:     -12.4      1.575      2.241
REMARK SMILES C=C1C[C@@]23CC[C@H]4[C@@](C)(CCC[C@@]4(C)C(=O)NCCCNC(=O)c4ccc(-c5c6nc(c(-c7c(F)cccc7F)c7ccc([nH]7)c(-c7c(F)cccc7F)c7nc(c(-c8c(F)cccc8F)c8ccc5[nH]8)C=C7)C=C6)cc4)[C@H]2CC[C@]1(O)C3
REMARK SMILES IDX 19 1 18 2 17 3 15 4 16 5 13 7 1 8 2 9 3 10 81 11 4 12 80 13
REMARK SMILES IDX 83 14 5 15 78 16 79 17 6 18 8 19 7 20 9 21 10 22 11 23 12 24
REMARK SMILES IDX 14 25 82 26 20 28 21 29 22 30 23 32 24 33 25 34 77 35 26 36
REMARK SMILES IDX 76 37 27 38 28 39 29 40 70 41 30 42 75 43 69 44 71 45 31 46
REMARK SMILES IDX 74 47 68 48 67 49 32 51 58 52 41 53 57 54 42 55 45 56 56 57
REMARK SMILES IDX 72 58 43 59 44 60 55 62 73 63 46 64 33 65 34 66 39 67 35 68
REMARK SMILES IDX 36 69 38 70 40 71 37 72 59 73 60 74 65 75 61 76 62 77 64 78
REMARK SMILES IDX 66 79 63 80 47 81 48 82 53 83 49 84 50 85 52 86 54 87 51 88
REMARK H PARENT 17 6 82 27 21 31 71 50 45 61
REMARK Flexibility Score: inf
ROOT
ATOM      1  C   UNL A   1      36.398  23.974  25.938  1.00  0.00     0.042 C 
ENDROOT
BRANCH   1   2
ATOM      2  C   UNL A   1      35.136  23.175  26.184  1.00  0.00     0.117 C 
BRANCH   2   3
ATOM      3  N   UNL A   1      34.596  22.648  24.949  1.00  0.00    -0.356 N 
ATOM      4  C   UNL A   1      33.374  22.712  24.374  1.00  0.00     0.226 C 
ATOM      5  O   UNL A   1      33.309  22.193  23.254  1.00  0.00    -0.274 OA
ATOM      6  H   UNL A   1      35.252  22.141  24.418  1.00  0.00     0.163 HD
BRANCH   4   7
ATOM      7  C   UNL A   1      32.137  23.307  25.066  1.00  0.00     0.050 C 
ATOM      8  C   UNL A   1      31.748  31.339  26.651  1.00  0.00     0.011 C 
ATOM      9  C   UNL A   1      32.154  30.106  26.316  1.00  0.00    -0.045 C 
ATOM     10  C   UNL A   1      31.354  29.126  25.474  1.00  0.00     0.040 C 
ATOM     11  C   UNL A   1      33.302  29.355  26.938  1.00  0.00     0.086 C 
ATOM     12  C   UNL A   1      31.865  27.740  25.970  1.00  0.00    -0.020 C 
ATOM     13  C   UNL A   1      34.434  29.032  25.942  1.00  0.00     0.040 C 
ATOM     14  C   UNL A   1      32.538  28.105  27.315  1.00  0.00     0.047 C 
ATOM     15  C   UNL A   1      30.759  26.758  26.267  1.00  0.00     0.008 C 
ATOM     16  C   UNL A   1      32.989  27.107  25.079  1.00  0.00     0.002 C 
ATOM     17  C   UNL A   1      34.014  28.207  24.680  1.00  0.00     0.008 C 
ATOM     18  C   UNL A   1      31.409  25.397  26.597  1.00  0.00     0.006 C 
ATOM     19  C   UNL A   1      32.656  25.789  24.208  1.00  0.00    -0.025 C 
ATOM     20  C   UNL A   1      32.007  24.829  25.281  1.00  0.00     0.010 C 
ATOM     21  C   UNL A   1      33.998  25.493  23.491  1.00  0.00     0.012 C 
ATOM     22  C   UNL A   1      31.631  25.595  23.009  1.00  0.00     0.007 C 
ATOM     23  C   UNL A   1      30.875  24.151  22.917  1.00  0.00     0.002 C 
ATOM     24  C   UNL A   1      30.945  23.066  24.083  1.00  0.00     0.017 C 
ATOM     25  C   UNL A   1      31.995  22.527  26.389  1.00  0.00     0.022 C 
BRANCH  11  26
ATOM     26  O   UNL A   1      33.815  29.968  28.104  1.00  0.00    -0.386 OA
ATOM     27  H   UNL A   1      33.120  30.014  28.779  1.00  0.00     0.211 HD
ENDBRANCH  11  26
ENDBRANCH   4   7
ENDBRANCH   2   3
ENDBRANCH   1   2
BRANCH   1  28
ATOM     28  C   UNL A   1      37.360  23.289  24.972  1.00  0.00     0.118 C 
BRANCH  28  29
ATOM     29  N   UNL A   1      38.290  22.369  25.618  1.00  0.00    -0.352 N 
ATOM     30  C   UNL A   1      39.361  22.658  26.442  1.00  0.00     0.251 C 
ATOM     31  H   UNL A   1      38.133  21.413  25.443  1.00  0.00     0.163 HD
ATOM     32  O   UNL A   1      40.134  21.793  26.793  1.00  0.00    -0.269 OA
BRANCH  30  33
ATOM     33  C   UNL A   1      39.557  24.062  26.859  1.00  0.00     0.039 A 
ATOM     34  C   UNL A   1      39.304  24.415  28.185  1.00  0.00     0.014 A 
ATOM     35  C   UNL A   1      40.061  24.998  25.954  1.00  0.00     0.014 A 
ATOM     36  C   UNL A   1      39.638  25.697  28.623  1.00  0.00     0.010 A 
ATOM     37  C   UNL A   1      40.489  26.234  26.416  1.00  0.00     0.010 A 
ATOM     38  C   UNL A   1      40.274  26.599  27.753  1.00  0.00    -0.014 A 
BRANCH  38  39
ATOM     39  C   UNL A   1      40.713  27.938  28.217  1.00  0.00     0.031 A 
ATOM     40  C   UNL A   1      42.178  28.275  28.244  1.00  0.00     0.074 A 
ATOM     41  C   UNL A   1      39.803  28.820  28.672  1.00  0.00     0.049 A 
ATOM     42  N   UNL A   1      42.768  29.364  28.666  1.00  0.00    -0.248 NA
ATOM     43  C   UNL A   1      43.107  27.241  27.759  1.00  0.00     0.031 C 
ATOM     44  C   UNL A   1      38.359  28.588  28.750  1.00  0.00     0.029 A 
ATOM     45  N   UNL A   1      39.958  30.093  29.161  1.00  0.00    -0.354 N 
ATOM     46  C   UNL A   1      44.129  29.139  28.509  1.00  0.00     0.074 A 
ATOM     47  C   UNL A   1      44.283  27.787  28.020  1.00  0.00     0.031 C 
ATOM     48  C   UNL A   1      37.759  29.692  29.223  1.00  0.00     0.029 A 
ATOM     49  C   UNL A   1      38.776  30.695  29.520  1.00  0.00     0.049 A 
ATOM     50  H   UNL A   1      40.835  30.534  29.246  1.00  0.00     0.167 HD
ATOM     51  C   UNL A   1      45.158  29.993  28.722  1.00  0.00     0.037 A 
ATOM     52  C   UNL A   1      38.542  31.917  30.034  1.00  0.00     0.037 A 
ATOM     53  C   UNL A   1      44.998  31.344  29.187  1.00  0.00     0.049 A 
ATOM     54  C   UNL A   1      39.705  32.842  30.274  1.00  0.00     0.074 A 
ATOM     55  C   UNL A   1      45.970  32.308  29.386  1.00  0.00     0.029 A 
ATOM     56  N   UNL A   1      43.783  31.921  29.528  1.00  0.00    -0.354 N 
ATOM     57  N   UNL A   1      40.981  32.642  30.053  1.00  0.00    -0.248 NA
ATOM     58  C   UNL A   1      39.392  34.166  30.828  1.00  0.00     0.031 C 
ATOM     59  C   UNL A   1      45.349  33.453  29.894  1.00  0.00     0.029 A 
ATOM     60  C   UNL A   1      43.985  33.223  29.957  1.00  0.00     0.049 A 
ATOM     61  H   UNL A   1      42.909  31.473  29.473  1.00  0.00     0.167 HD
ATOM     62  C   UNL A   1      41.619  33.822  30.410  1.00  0.00     0.074 A 
ATOM     63  C   UNL A   1      40.587  34.738  30.847  1.00  0.00     0.031 C 
ATOM     64  C   UNL A   1      42.941  34.123  30.379  1.00  0.00     0.037 A 
BRANCH  51  65
ATOM     65  C   UNL A   1      46.544  29.488  28.442  1.00  0.00     0.057 A 
ATOM     66  C   UNL A   1      47.319  28.867  29.432  1.00  0.00     0.134 A 
ATOM     67  C   UNL A   1      47.102  29.598  27.162  1.00  0.00     0.134 A 
ATOM     68  F   UNL A   1      46.851  28.743  30.684  1.00  0.00    -0.206 F 
ATOM     69  C   UNL A   1      48.608  28.401  29.168  1.00  0.00     0.040 A 
ATOM     70  C   UNL A   1      48.378  29.107  26.878  1.00  0.00     0.040 A 
ATOM     71  F   UNL A   1      46.415  30.177  26.167  1.00  0.00    -0.206 F 
ATOM     72  C   UNL A   1      49.138  28.513  27.884  1.00  0.00     0.006 A 
ENDBRANCH  51  65
BRANCH  52  73
ATOM     73  C   UNL A   1      37.154  32.351  30.332  1.00  0.00     0.057 A 
ATOM     74  C   UNL A   1      36.559  32.069  31.568  1.00  0.00     0.134 A 
ATOM     75  C   UNL A   1      36.381  33.040  29.390  1.00  0.00     0.134 A 
ATOM     76  F   UNL A   1      37.242  31.397  32.507  1.00  0.00    -0.206 F 
ATOM     77  C   UNL A   1      35.240  32.431  31.847  1.00  0.00     0.040 A 
ATOM     78  C   UNL A   1      35.070  33.433  29.664  1.00  0.00     0.040 A 
ATOM     79  F   UNL A   1      36.894  33.351  28.190  1.00  0.00    -0.206 F 
ATOM     80  C   UNL A   1      34.493  33.120  30.894  1.00  0.00     0.006 A 
ENDBRANCH  52  73
BRANCH  64  81
ATOM     81  C   UNL A   1      43.340  35.510  30.789  1.00  0.00     0.057 A 
ATOM     82  C   UNL A   1      43.622  35.839  32.121  1.00  0.00     0.134 A 
ATOM     83  C   UNL A   1      43.481  36.521  29.829  1.00  0.00     0.134 A 
ATOM     84  F   UNL A   1      43.494  34.919  33.089  1.00  0.00    -0.206 F 
ATOM     85  C   UNL A   1      44.003  37.130  32.487  1.00  0.00     0.040 A 
ATOM     86  C   UNL A   1      43.890  37.808  30.180  1.00  0.00     0.040 A 
ATOM     87  F   UNL A   1      43.236  36.271  28.534  1.00  0.00    -0.206 F 
ATOM     88  C   UNL A   1      44.145  38.117  31.514  1.00  0.00     0.006 A 
ENDBRANCH  64  81
ENDBRANCH  38  39
ENDBRANCH  30  33
ENDBRANCH  28  29
ENDBRANCH   1  28
TORSDOF 11
ENDMDL
MODEL 3
REMARK VINA RESULT:     -12.4      2.590      7.906
REMARK SMILES C=C1C[C@@]23CC[C@H]4[C@@](C)(CCC[C@@]4(C)C(=O)NCCCNC(=O)c4ccc(-c5c6nc(c(-c7c(F)cccc7F)c7ccc([nH]7)c(-c7c(F)cccc7F)c7nc(c(-c8c(F)cccc8F)c8ccc5[nH]8)C=C7)C=C6)cc4)[C@H]2CC[C@]1(O)C3
REMARK SMILES IDX 19 1 18 2 17 3 15 4 16 5 13 7 1 8 2 9 3 10 81 11 4 12 80 13
REMARK SMILES IDX 83 14 5 15 78 16 79 17 6 18 8 19 7 20 9 21 10 22 11 23 12 24
REMARK SMILES IDX 14 25 82 26 20 28 21 29 22 30 23 32 24 33 25 34 77 35 26 36
REMARK SMILES IDX 76 37 27 38 28 39 29 40 70 41 30 42 75 43 69 44 71 45 31 46
REMARK SMILES IDX 74 47 68 48 67 49 32 51 58 52 41 53 57 54 42 55 45 56 56 57
REMARK SMILES IDX 72 58 43 59 44 60 55 62 73 63 46 64 33 65 34 66 39 67 35 68
REMARK SMILES IDX 36 69 38 70 40 71 37 72 59 73 60 74 65 75 61 76 62 77 64 78
REMARK SMILES IDX 66 79 63 80 47 81 48 82 53 83 49 84 50 85 52 86 54 87 51 88
REMARK H PARENT 17 6 82 27 21 31 71 50 45 61
REMARK Flexibility Score: inf
ROOT
ATOM      1  C   UNL A   1      34.217  28.257  26.001  1.00  0.00     0.042 C 
ENDROOT
BRANCH   1   2
ATOM      2  C   UNL A   1      33.310  28.668  24.860  1.00  0.00     0.117 C 
BRANCH   2   3
ATOM      3  N   UNL A   1      31.975  28.136  25.031  1.00  0.00    -0.356 N 
ATOM      4  C   UNL A   1      31.325  27.082  24.489  1.00  0.00     0.226 C 
ATOM      5  O   UNL A   1      30.192  26.891  24.945  1.00  0.00    -0.274 OA
ATOM      6  H   UNL A   1      31.428  28.645  25.673  1.00  0.00     0.163 HD
BRANCH   4   7
ATOM      7  C   UNL A   1      31.896  26.222  23.349  1.00  0.00     0.050 C 
ATOM      8  C   UNL A   1      37.567  20.515  24.914  1.00  0.00     0.011 C 
ATOM      9  C   UNL A   1      36.711  21.543  24.998  1.00  0.00    -0.045 C 
ATOM     10  C   UNL A   1      35.296  21.544  24.442  1.00  0.00     0.040 C 
ATOM     11  C   UNL A   1      37.065  22.959  25.368  1.00  0.00     0.086 C 
ATOM     12  C   UNL A   1      35.034  23.053  24.152  1.00  0.00    -0.020 C 
ATOM     13  C   UNL A   1      36.380  23.443  26.664  1.00  0.00     0.040 C 
ATOM     14  C   UNL A   1      36.468  23.636  24.154  1.00  0.00     0.047 C 
ATOM     15  C   UNL A   1      34.440  23.313  22.790  1.00  0.00     0.008 C 
ATOM     16  C   UNL A   1      34.257  23.805  25.287  1.00  0.00     0.002 C 
ATOM     17  C   UNL A   1      34.817  23.375  26.672  1.00  0.00     0.008 C 
ATOM     18  C   UNL A   1      34.097  24.816  22.701  1.00  0.00     0.006 C 
ATOM     19  C   UNL A   1      32.746  24.303  25.009  1.00  0.00    -0.025 C 
ATOM     20  C   UNL A   1      32.889  25.080  23.642  1.00  0.00     0.010 C 
ATOM     21  C   UNL A   1      32.349  24.982  26.346  1.00  0.00     0.012 C 
ATOM     22  C   UNL A   1      31.435  23.454  24.709  1.00  0.00     0.007 C 
ATOM     23  C   UNL A   1      30.362  24.109  23.667  1.00  0.00     0.002 C 
ATOM     24  C   UNL A   1      30.688  25.400  22.792  1.00  0.00     0.017 C 
ATOM     25  C   UNL A   1      32.465  27.228  22.326  1.00  0.00     0.022 C 
BRANCH  11  26
ATOM     26  O   UNL A   1      38.457  23.203  25.412  1.00  0.00    -0.386 OA
ATOM     27  H   UNL A   1      38.904  22.450  25.831  1.00  0.00     0.211 HD
ENDBRANCH  11  26
ENDBRANCH   4   7
ENDBRANCH   2   3
ENDBRANCH   1   2
BRANCH   1  28
ATOM     28  C   UNL A   1      33.622  28.556  27.374  1.00  0.00     0.118 C 
BRANCH  28  29
ATOM     29  N   UNL A   1      33.632  29.973  27.726  1.00  0.00    -0.352 N 
ATOM     30  C   UNL A   1      34.660  30.724  28.264  1.00  0.00     0.251 C 
ATOM     31  H   UNL A   1      32.793  30.459  27.558  1.00  0.00     0.163 HD
ATOM     32  O   UNL A   1      34.478  31.862  28.637  1.00  0.00    -0.269 OA
BRANCH  30  33
ATOM     33  C   UNL A   1      35.987  30.087  28.400  1.00  0.00     0.039 A 
ATOM     34  C   UNL A   1      36.894  30.179  27.343  1.00  0.00     0.014 A 
ATOM     35  C   UNL A   1      36.348  29.471  29.600  1.00  0.00     0.014 A 
ATOM     36  C   UNL A   1      38.199  29.720  27.525  1.00  0.00     0.010 A 
ATOM     37  C   UNL A   1      37.671  29.114  29.813  1.00  0.00     0.010 A 
ATOM     38  C   UNL A   1      38.608  29.227  28.776  1.00  0.00    -0.014 A 
BRANCH  38  39
ATOM     39  C   UNL A   1      40.011  28.811  29.018  1.00  0.00     0.031 A 
ATOM     40  C   UNL A   1      40.966  29.761  29.686  1.00  0.00     0.074 A 
ATOM     41  C   UNL A   1      40.438  27.610  28.582  1.00  0.00     0.049 A 
ATOM     42  N   UNL A   1      42.242  29.610  29.936  1.00  0.00    -0.248 NA
ATOM     43  C   UNL A   1      40.425  31.065  30.102  1.00  0.00     0.031 C 
ATOM     44  C   UNL A   1      39.620  26.625  27.870  1.00  0.00     0.029 A 
ATOM     45  N   UNL A   1      41.671  27.014  28.670  1.00  0.00    -0.354 N 
ATOM     46  C   UNL A   1      42.652  30.799  30.525  1.00  0.00     0.074 A 
ATOM     47  C   UNL A   1      41.511  31.687  30.530  1.00  0.00     0.031 C 
ATOM     48  C   UNL A   1      40.364  25.536  27.618  1.00  0.00     0.029 A 
ATOM     49  C   UNL A   1      41.718  25.759  28.111  1.00  0.00     0.049 A 
ATOM     50  H   UNL A   1      42.448  27.445  29.093  1.00  0.00     0.167 HD
ATOM     51  C   UNL A   1      43.863  31.114  31.043  1.00  0.00     0.037 A 
ATOM     52  C   UNL A   1      42.741  24.890  28.008  1.00  0.00     0.037 A 
ATOM     53  C   UNL A   1      44.988  30.219  31.054  1.00  0.00     0.049 A 
ATOM     54  C   UNL A   1      44.080  25.269  28.580  1.00  0.00     0.074 A 
ATOM     55  C   UNL A   1      46.244  30.419  31.600  1.00  0.00     0.029 A 
ATOM     56  N   UNL A   1      44.994  28.951  30.490  1.00  0.00    -0.354 N 
ATOM     57  N   UNL A   1      44.435  26.369  29.198  1.00  0.00    -0.248 NA
ATOM     58  C   UNL A   1      45.159  24.281  28.447  1.00  0.00     0.031 C 
ATOM     59  C   UNL A   1      47.023  29.292  31.324  1.00  0.00     0.029 A 
ATOM     60  C   UNL A   1      46.238  28.367  30.656  1.00  0.00     0.049 A 
ATOM     61  H   UNL A   1      44.227  28.531  30.039  1.00  0.00     0.167 HD
ATOM     62  C   UNL A   1      45.765  26.194  29.554  1.00  0.00     0.074 A 
ATOM     63  C   UNL A   1      46.149  24.875  29.097  1.00  0.00     0.031 C 
ATOM     64  C   UNL A   1      46.597  27.047  30.202  1.00  0.00     0.037 A 
BRANCH  51  65
ATOM     65  C   UNL A   1      44.023  32.479  31.647  1.00  0.00     0.057 A 
ATOM     66  C   UNL A   1      43.761  32.723  33.003  1.00  0.00     0.134 A 
ATOM     67  C   UNL A   1      44.468  33.557  30.873  1.00  0.00     0.134 A 
ATOM     68  F   UNL A   1      43.318  31.737  33.798  1.00  0.00    -0.206 F 
ATOM     69  C   UNL A   1      43.910  33.994  33.559  1.00  0.00     0.040 A 
ATOM     70  C   UNL A   1      44.650  34.827  31.426  1.00  0.00     0.040 A 
ATOM     71  F   UNL A   1      44.740  33.394  29.569  1.00  0.00    -0.206 F 
ATOM     72  C   UNL A   1      44.364  35.049  32.771  1.00  0.00     0.006 A 
ENDBRANCH  51  65
BRANCH  52  73
ATOM     73  C   UNL A   1      42.539  23.568  27.362  1.00  0.00     0.057 A 
ATOM     74  C   UNL A   1      42.159  22.449  28.112  1.00  0.00     0.134 A 
ATOM     75  C   UNL A   1      42.737  23.384  25.988  1.00  0.00     0.134 A 
ATOM     76  F   UNL A   1      41.971  22.556  29.436  1.00  0.00    -0.206 F 
ATOM     77  C   UNL A   1      42.009  21.191  27.526  1.00  0.00     0.040 A 
ATOM     78  C   UNL A   1      42.563  22.138  25.384  1.00  0.00     0.040 A 
ATOM     79  F   UNL A   1      43.091  24.418  25.210  1.00  0.00    -0.206 F 
ATOM     80  C   UNL A   1      42.207  21.034  26.156  1.00  0.00     0.006 A 
ENDBRANCH  52  73
BRANCH  64  81
ATOM     81  C   UNL A   1      47.987  26.563  30.492  1.00  0.00     0.057 A 
ATOM     82  C   UNL A   1      48.309  25.897  31.683  1.00  0.00     0.134 A 
ATOM     83  C   UNL A   1      49.009  26.732  29.549  1.00  0.00     0.134 A 
ATOM     84  F   UNL A   1      47.379  25.715  32.632  1.00  0.00    -0.206 F 
ATOM     85  C   UNL A   1      49.603  25.442  31.935  1.00  0.00     0.040 A 
ATOM     86  C   UNL A   1      50.300  26.254  29.778  1.00  0.00     0.040 A 
ATOM     87  F   UNL A   1      48.767  27.351  28.384  1.00  0.00    -0.206 F 
ATOM     88  C   UNL A   1      50.602  25.613  30.977  1.00  0.00     0.006 A 
ENDBRANCH  64  81
ENDBRANCH  38  39
ENDBRANCH  30  33
ENDBRANCH  28  29
ENDBRANCH   1  28
TORSDOF 11
ENDMDL
