MODEL 1
REMARK VINA RESULT:     -13.4      0.000      0.000
REMARK SMILES Cc1nc(-c2ccc3c(c2)CCN3S(=O)(=O)c2ccc(F)c(C(=O)NCCCNC(=O)c3ccc(-c4c5nc(c(-c6c(F)cccc6F)c6ccc([nH]6)c(-c6c(F)cccc6F)c6nc(c(-c7c(F)cccc7F)c7ccc4[nH]7)C=C6)C=C5)cc3)c2)cs1
REMARK SMILES IDX 26 1 25 2 23 3 24 4 22 6 17 7 18 8 86 9 19 10 20 11 21 12
REMARK SMILES IDX 14 13 15 14 16 15 13 16 5 17 6 18 10 19 7 20 9 21 8 22 11 23
REMARK SMILES IDX 12 24 4 25 1 26 2 27 3 28 88 29 87 30 27 31 28 32 29 33
REMARK SMILES IDX 30 34 31 36 32 37 33 38 85 39 34 40 84 41 35 42 36 43 37 44
REMARK SMILES IDX 78 45 38 46 83 47 77 48 79 49 39 50 82 51 76 52 75 53 40 55
REMARK SMILES IDX 66 56 49 57 65 58 50 59 53 60 64 61 80 62 51 63 52 64 63 66
REMARK SMILES IDX 81 67 54 68 41 69 42 70 47 71 43 72 44 73 46 74 48 75 45 76
REMARK SMILES IDX 67 77 68 78 73 79 69 80 70 81 72 82 74 83 71 84 55 85 56 86
REMARK SMILES IDX 61 87 57 88 58 89 60 90 62 91 59 92
REMARK H PARENT 25 5 29 35 79 54 53 65
REMARK Flexibility Score: inf
ROOT
ATOM      1  C   UNL A   1      31.767  30.678  25.784  1.00  0.00     0.118 C 
ENDROOT
BRANCH   1   2
ATOM      2  N   UNL A   1      33.031  30.076  26.159  1.00  0.00    -0.352 N 
ATOM      3  C   UNL A   1      33.504  28.799  26.269  1.00  0.00     0.254 C 
ATOM      4  O   UNL A   1      34.706  28.717  26.542  1.00  0.00    -0.269 OA
ATOM      5  H   UNL A   1      33.711  30.749  26.392  1.00  0.00     0.163 HD
BRANCH   3   6
ATOM      6  C   UNL A   1      32.748  27.526  26.076  1.00  0.00     0.076 A 
ATOM      7  C   UNL A   1      32.753  25.348  24.954  1.00  0.00     0.089 A 
ATOM      8  C   UNL A   1      31.548  25.005  25.570  1.00  0.00     0.025 A 
ATOM      9  C   UNL A   1      33.368  26.577  25.226  1.00  0.00     0.039 A 
ATOM     10  C   UNL A   1      30.926  25.928  26.398  1.00  0.00     0.041 A 
ATOM     11  C   UNL A   1      31.526  27.167  26.655  1.00  0.00     0.136 A 
ATOM     12  F   UNL A   1      30.870  27.949  27.515  1.00  0.00    -0.206 F 
BRANCH   7  13
ATOM     13  S   UNL A   1      33.464  24.194  23.812  1.00  0.00     0.264 S 
ATOM     14  O   UNL A   1      34.545  24.899  23.151  1.00  0.00    -0.201 OA
ATOM     15  O   UNL A   1      32.386  23.632  23.020  1.00  0.00    -0.201 OA
BRANCH  13  16
ATOM     16  N   UNL A   1      34.133  22.918  24.728  1.00  0.00    -0.266 N 
ATOM     17  C   UNL A   1      38.108  22.049  25.842  1.00  0.00     0.001 A 
ATOM     18  C   UNL A   1      37.665  23.373  25.979  1.00  0.00     0.012 A 
ATOM     19  C   UNL A   1      37.226  21.079  25.351  1.00  0.00     0.016 A 
ATOM     20  C   UNL A   1      36.367  23.739  25.613  1.00  0.00     0.028 A 
ATOM     21  C   UNL A   1      35.940  21.471  24.976  1.00  0.00    -0.021 A 
ATOM     22  C   UNL A   1      35.528  22.802  25.038  1.00  0.00     0.055 A 
ATOM     23  C   UNL A   1      34.788  20.571  24.658  1.00  0.00     0.060 C 
ATOM     24  C   UNL A   1      33.715  21.565  24.196  1.00  0.00     0.140 C 
BRANCH  17  25
ATOM     25  C   UNL A   1      39.435  21.713  26.330  1.00  0.00     0.081 A 
ATOM     26  C   UNL A   1      42.302  22.780  28.320  1.00  0.00     0.079 C 
ATOM     27  C   UNL A   1      41.307  22.099  27.447  1.00  0.00     0.090 A 
ATOM     28  N   UNL A   1      40.140  22.607  27.119  1.00  0.00    -0.242 NA
ATOM     29  S   UNL A   1      41.646  20.548  26.786  1.00  0.00    -0.127 S 
ATOM     30  C   UNL A   1      40.104  20.544  26.032  1.00  0.00     0.095 A 
ENDBRANCH  17  25
ENDBRANCH  13  16
ENDBRANCH   7  13
ENDBRANCH   3   6
ENDBRANCH   1   2
BRANCH   1  31
ATOM     31  C   UNL A   1      31.445  31.895  26.652  1.00  0.00     0.042 C 
BRANCH  31  32
ATOM     32  C   UNL A   1      32.695  32.547  27.251  1.00  0.00     0.118 C 
BRANCH  32  33
ATOM     33  N   UNL A   1      32.484  33.962  27.555  1.00  0.00    -0.352 N 
ATOM     34  C   UNL A   1      33.027  34.762  28.529  1.00  0.00     0.251 C 
ATOM     35  H   UNL A   1      31.846  34.418  26.960  1.00  0.00     0.163 HD
ATOM     36  O   UNL A   1      32.513  35.846  28.784  1.00  0.00    -0.269 OA
BRANCH  34  37
ATOM     37  C   UNL A   1      34.223  34.324  29.274  1.00  0.00     0.039 A 
ATOM     38  C   UNL A   1      34.066  33.713  30.521  1.00  0.00     0.014 A 
ATOM     39  C   UNL A   1      35.502  34.544  28.757  1.00  0.00     0.014 A 
ATOM     40  C   UNL A   1      35.187  33.243  31.207  1.00  0.00     0.010 A 
ATOM     41  C   UNL A   1      36.609  34.003  29.399  1.00  0.00     0.010 A 
ATOM     42  C   UNL A   1      36.462  33.341  30.626  1.00  0.00    -0.014 A 
BRANCH  42  43
ATOM     43  C   UNL A   1      37.654  32.731  31.263  1.00  0.00     0.031 A 
ATOM     44  C   UNL A   1      38.316  31.535  30.641  1.00  0.00     0.074 A 
ATOM     45  C   UNL A   1      38.083  33.203  32.451  1.00  0.00     0.049 A 
ATOM     46  N   UNL A   1      39.290  30.796  31.107  1.00  0.00    -0.248 NA
ATOM     47  C   UNL A   1      37.798  31.092  29.335  1.00  0.00     0.031 C 
ATOM     48  C   UNL A   1      37.494  34.335  33.171  1.00  0.00     0.029 A 
ATOM     49  N   UNL A   1      39.101  32.783  33.269  1.00  0.00    -0.354 N 
ATOM     50  C   UNL A   1      39.493  29.800  30.160  1.00  0.00     0.074 A 
ATOM     51  C   UNL A   1      38.506  29.993  29.121  1.00  0.00     0.031 C 
ATOM     52  C   UNL A   1      38.178  34.536  34.308  1.00  0.00     0.029 A 
ATOM     53  C   UNL A   1      39.216  33.518  34.425  1.00  0.00     0.049 A 
ATOM     54  H   UNL A   1      39.693  32.029  33.049  1.00  0.00     0.167 HD
ATOM     55  C   UNL A   1      40.434  28.827  30.151  1.00  0.00     0.037 A 
ATOM     56  C   UNL A   1      40.053  33.377  35.472  1.00  0.00     0.037 A 
ATOM     57  C   UNL A   1      41.426  28.659  31.179  1.00  0.00     0.049 A 
ATOM     58  C   UNL A   1      41.067  32.267  35.453  1.00  0.00     0.074 A 
ATOM     59  C   UNL A   1      42.459  27.740  31.230  1.00  0.00     0.029 A 
ATOM     60  N   UNL A   1      41.507  29.421  32.335  1.00  0.00    -0.354 N 
ATOM     61  N   UNL A   1      41.286  31.368  34.525  1.00  0.00    -0.248 NA
ATOM     62  C   UNL A   1      41.947  32.148  36.624  1.00  0.00     0.031 C 
ATOM     63  C   UNL A   1      43.131  27.908  32.444  1.00  0.00     0.029 A 
ATOM     64  C   UNL A   1      42.555  28.971  33.121  1.00  0.00     0.049 A 
ATOM     65  H   UNL A   1      40.910  30.169  32.562  1.00  0.00     0.167 HD
ATOM     66  C   UNL A   1      42.339  30.591  34.988  1.00  0.00     0.074 A 
ATOM     67  C   UNL A   1      42.725  31.132  36.275  1.00  0.00     0.031 C 
ATOM     68  C   UNL A   1      42.932  29.525  34.397  1.00  0.00     0.037 A 
BRANCH  55  69
ATOM     69  C   UNL A   1      40.453  27.877  28.990  1.00  0.00     0.057 A 
ATOM     70  C   UNL A   1      41.205  28.163  27.843  1.00  0.00     0.134 A 
ATOM     71  C   UNL A   1      39.665  26.719  28.973  1.00  0.00     0.134 A 
ATOM     72  F   UNL A   1      41.976  29.260  27.790  1.00  0.00    -0.206 F 
ATOM     73  C   UNL A   1      41.159  27.342  26.716  1.00  0.00     0.040 A 
ATOM     74  C   UNL A   1      39.632  25.874  27.863  1.00  0.00     0.040 A 
ATOM     75  F   UNL A   1      38.929  26.381  30.043  1.00  0.00    -0.206 F 
ATOM     76  C   UNL A   1      40.372  26.192  26.725  1.00  0.00     0.006 A 
ENDBRANCH  55  69
BRANCH  56  77
ATOM     77  C   UNL A   1      39.976  34.331  36.607  1.00  0.00     0.057 A 
ATOM     78  C   UNL A   1      39.220  34.050  37.752  1.00  0.00     0.134 A 
ATOM     79  C   UNL A   1      40.632  35.565  36.556  1.00  0.00     0.134 A 
ATOM     80  F   UNL A   1      38.558  32.888  37.861  1.00  0.00    -0.206 F 
ATOM     81  C   UNL A   1      39.101  34.972  38.795  1.00  0.00     0.040 A 
ATOM     82  C   UNL A   1      40.544  36.485  37.602  1.00  0.00     0.040 A 
ATOM     83  F   UNL A   1      41.386  35.884  35.494  1.00  0.00    -0.206 F 
ATOM     84  C   UNL A   1      39.767  36.193  38.722  1.00  0.00     0.006 A 
ENDBRANCH  56  77
BRANCH  68  85
ATOM     85  C   UNL A   1      44.074  28.869  35.115  1.00  0.00     0.057 A 
ATOM     86  C   UNL A   1      45.397  29.227  34.824  1.00  0.00     0.134 A 
ATOM     87  C   UNL A   1      43.870  27.811  36.008  1.00  0.00     0.134 A 
ATOM     88  F   UNL A   1      45.661  30.226  33.968  1.00  0.00    -0.206 F 
ATOM     89  C   UNL A   1      46.477  28.535  35.372  1.00  0.00     0.040 A 
ATOM     90  C   UNL A   1      44.943  27.128  36.584  1.00  0.00     0.040 A 
ATOM     91  F   UNL A   1      42.627  27.428  36.335  1.00  0.00    -0.206 F 
ATOM     92  C   UNL A   1      46.251  27.480  36.255  1.00  0.00     0.006 A 
ENDBRANCH  68  85
ENDBRANCH  42  43
ENDBRANCH  34  37
ENDBRANCH  32  33
ENDBRANCH  31  32
ENDBRANCH   1  31
TORSDOF 13
ENDMDL
MODEL 2
REMARK VINA RESULT:     -13.3      4.909     10.759
REMARK SMILES Cc1nc(-c2ccc3c(c2)CCN3S(=O)(=O)c2ccc(F)c(C(=O)NCCCNC(=O)c3ccc(-c4c5nc(c(-c6c(F)cccc6F)c6ccc([nH]6)c(-c6c(F)cccc6F)c6nc(c(-c7c(F)cccc7F)c7ccc4[nH]7)C=C6)C=C5)cc3)c2)cs1
REMARK SMILES IDX 26 1 25 2 23 3 24 4 22 6 17 7 18 8 86 9 19 10 20 11 21 12
REMARK SMILES IDX 14 13 15 14 16 15 13 16 5 17 6 18 10 19 7 20 9 21 8 22 11 23
REMARK SMILES IDX 12 24 4 25 1 26 2 27 3 28 88 29 87 30 27 31 28 32 29 33
REMARK SMILES IDX 30 34 31 36 32 37 33 38 85 39 34 40 84 41 35 42 36 43 37 44
REMARK SMILES IDX 78 45 38 46 83 47 77 48 79 49 39 50 82 51 76 52 75 53 40 55
REMARK SMILES IDX 66 56 49 57 65 58 50 59 53 60 64 61 80 62 51 63 52 64 63 66
REMARK SMILES IDX 81 67 54 68 41 69 42 70 47 71 43 72 44 73 46 74 48 75 45 76
REMARK SMILES IDX 67 77 68 78 73 79 69 80 70 81 72 82 74 83 71 84 55 85 56 86
REMARK SMILES IDX 61 87 57 88 58 89 60 90 62 91 59 92
REMARK H PARENT 25 5 29 35 79 54 53 65
REMARK Flexibility Score: inf
ROOT
ATOM      1  C   UNL A   1      36.713  20.630  25.234  1.00  0.00     0.118 C 
ENDROOT
BRANCH   1   2
ATOM      2  N   UNL A   1      37.044  21.946  25.741  1.00  0.00    -0.352 N 
ATOM      3  C   UNL A   1      36.537  23.205  25.580  1.00  0.00     0.254 C 
ATOM      4  O   UNL A   1      37.071  24.069  26.283  1.00  0.00    -0.269 OA
ATOM      5  H   UNL A   1      37.820  21.930  26.348  1.00  0.00     0.163 HD
BRANCH   3   6
ATOM      6  C   UNL A   1      35.420  23.631  24.684  1.00  0.00     0.076 A 
ATOM      7  C   UNL A   1      33.303  24.859  24.575  1.00  0.00     0.089 A 
ATOM      8  C   UNL A   1      33.205  24.609  23.205  1.00  0.00     0.025 A 
ATOM      9  C   UNL A   1      34.411  24.409  25.304  1.00  0.00     0.039 A 
ATOM     10  C   UNL A   1      34.182  23.843  22.587  1.00  0.00     0.041 A 
ATOM     11  C   UNL A   1      35.281  23.370  23.317  1.00  0.00     0.136 A 
ATOM     12  F   UNL A   1      36.189  22.699  22.607  1.00  0.00    -0.206 F 
BRANCH   7  13
ATOM     13  S   UNL A   1      31.981  25.742  25.358  1.00  0.00     0.264 S 
ATOM     14  O   UNL A   1      32.199  25.608  26.784  1.00  0.00    -0.201 OA
ATOM     15  O   UNL A   1      30.733  25.280  24.778  1.00  0.00    -0.201 OA
BRANCH  13  16
ATOM     16  N   UNL A   1      32.150  27.389  24.939  1.00  0.00    -0.266 N 
ATOM     17  C   UNL A   1      33.421  30.735  27.173  1.00  0.00     0.001 A 
ATOM     18  C   UNL A   1      34.171  29.554  27.279  1.00  0.00     0.012 A 
ATOM     19  C   UNL A   1      32.296  30.758  26.339  1.00  0.00     0.016 A 
ATOM     20  C   UNL A   1      33.800  28.401  26.583  1.00  0.00     0.028 A 
ATOM     21  C   UNL A   1      31.935  29.590  25.666  1.00  0.00    -0.021 A 
ATOM     22  C   UNL A   1      32.636  28.396  25.836  1.00  0.00     0.055 A 
ATOM     23  C   UNL A   1      30.930  29.466  24.565  1.00  0.00     0.060 C 
ATOM     24  C   UNL A   1      30.880  27.949  24.338  1.00  0.00     0.140 C 
BRANCH  17  25
ATOM     25  C   UNL A   1      33.911  31.926  27.845  1.00  0.00     0.081 A 
ATOM     26  C   UNL A   1      33.187  35.351  28.874  1.00  0.00     0.079 C 
ATOM     27  C   UNL A   1      33.760  34.010  28.575  1.00  0.00     0.090 A 
ATOM     28  N   UNL A   1      33.122  33.062  27.925  1.00  0.00    -0.242 NA
ATOM     29  S   UNL A   1      35.355  33.613  29.078  1.00  0.00    -0.127 S 
ATOM     30  C   UNL A   1      35.167  32.046  28.404  1.00  0.00     0.095 A 
ENDBRANCH  17  25
ENDBRANCH  13  16
ENDBRANCH   7  13
ENDBRANCH   3   6
ENDBRANCH   1   2
BRANCH   1  31
ATOM     31  C   UNL A   1      37.970  19.804  24.956  1.00  0.00     0.042 C 
BRANCH  31  32
ATOM     32  C   UNL A   1      39.182  20.272  25.766  1.00  0.00     0.118 C 
BRANCH  32  33
ATOM     33  N   UNL A   1      40.185  19.218  25.912  1.00  0.00    -0.352 N 
ATOM     34  C   UNL A   1      41.547  19.289  26.067  1.00  0.00     0.251 C 
ATOM     35  H   UNL A   1      39.823  18.303  25.898  1.00  0.00     0.163 HD
ATOM     36  O   UNL A   1      42.233  18.287  25.896  1.00  0.00    -0.269 OA
BRANCH  34  37
ATOM     37  C   UNL A   1      42.190  20.565  26.436  1.00  0.00     0.039 A 
ATOM     38  C   UNL A   1      42.798  21.336  25.441  1.00  0.00     0.014 A 
ATOM     39  C   UNL A   1      42.221  20.986  27.767  1.00  0.00     0.014 A 
ATOM     40  C   UNL A   1      43.358  22.571  25.770  1.00  0.00     0.010 A 
ATOM     41  C   UNL A   1      42.704  22.251  28.081  1.00  0.00     0.010 A 
ATOM     42  C   UNL A   1      43.270  23.059  27.085  1.00  0.00    -0.014 A 
BRANCH  42  43
ATOM     43  C   UNL A   1      43.732  24.423  27.439  1.00  0.00     0.031 A 
ATOM     44  C   UNL A   1      42.742  25.468  27.870  1.00  0.00     0.074 A 
ATOM     45  C   UNL A   1      45.032  24.742  27.284  1.00  0.00     0.049 A 
ATOM     46  N   UNL A   1      42.937  26.740  28.106  1.00  0.00    -0.248 NA
ATOM     47  C   UNL A   1      41.344  25.035  28.031  1.00  0.00     0.031 C 
ATOM     48  C   UNL A   1      46.079  23.821  26.834  1.00  0.00     0.029 A 
ATOM     49  N   UNL A   1      45.694  25.929  27.473  1.00  0.00    -0.354 N 
ATOM     50  C   UNL A   1      41.690  27.258  28.432  1.00  0.00     0.074 A 
ATOM     51  C   UNL A   1      40.736  26.178  28.309  1.00  0.00     0.031 C 
ATOM     52  C   UNL A   1      47.253  24.469  26.808  1.00  0.00     0.029 A 
ATOM     53  C   UNL A   1      47.037  25.862  27.186  1.00  0.00     0.049 A 
ATOM     54  H   UNL A   1      45.251  26.750  27.785  1.00  0.00     0.167 HD
ATOM     55  C   UNL A   1      41.377  28.516  28.820  1.00  0.00     0.037 A 
ATOM     56  C   UNL A   1      47.985  26.818  27.209  1.00  0.00     0.037 A 
ATOM     57  C   UNL A   1      42.338  29.576  28.961  1.00  0.00     0.049 A 
ATOM     58  C   UNL A   1      47.605  28.215  27.611  1.00  0.00     0.074 A 
ATOM     59  C   UNL A   1      42.128  30.870  29.407  1.00  0.00     0.029 A 
ATOM     60  N   UNL A   1      43.687  29.469  28.659  1.00  0.00    -0.354 N 
ATOM     61  N   UNL A   1      46.433  28.678  27.972  1.00  0.00    -0.248 NA
ATOM     62  C   UNL A   1      48.673  29.225  27.606  1.00  0.00     0.031 C 
ATOM     63  C   UNL A   1      43.339  31.562  29.319  1.00  0.00     0.029 A 
ATOM     64  C   UNL A   1      44.315  30.684  28.877  1.00  0.00     0.049 A 
ATOM     65  H   UNL A   1      44.131  28.652  28.337  1.00  0.00     0.167 HD
ATOM     66  C   UNL A   1      46.625  30.023  28.257  1.00  0.00     0.074 A 
ATOM     67  C   UNL A   1      48.030  30.301  28.040  1.00  0.00     0.031 C 
ATOM     68  C   UNL A   1      45.717  30.943  28.663  1.00  0.00     0.037 A 
BRANCH  55  69
ATOM     69  C   UNL A   1      39.941  28.818  29.137  1.00  0.00     0.057 A 
ATOM     70  C   UNL A   1      39.440  28.630  30.432  1.00  0.00     0.134 A 
ATOM     71  C   UNL A   1      39.036  29.217  28.146  1.00  0.00     0.134 A 
ATOM     72  F   UNL A   1      40.251  28.244  31.428  1.00  0.00    -0.206 F 
ATOM     73  C   UNL A   1      38.087  28.812  30.725  1.00  0.00     0.040 A 
ATOM     74  C   UNL A   1      37.686  29.429  28.431  1.00  0.00     0.040 A 
ATOM     75  F   UNL A   1      39.453  29.424  26.887  1.00  0.00    -0.206 F 
ATOM     76  C   UNL A   1      37.207  29.215  29.723  1.00  0.00     0.006 A 
ENDBRANCH  55  69
BRANCH  56  77
ATOM     77  C   UNL A   1      49.387  26.471  26.862  1.00  0.00     0.057 A 
ATOM     78  C   UNL A   1      49.878  26.613  25.558  1.00  0.00     0.134 A 
ATOM     79  C   UNL A   1      50.259  25.953  27.825  1.00  0.00     0.134 A 
ATOM     80  F   UNL A   1      49.091  27.095  24.585  1.00  0.00    -0.206 F 
ATOM     81  C   UNL A   1      51.179  26.232  25.221  1.00  0.00     0.040 A 
ATOM     82  C   UNL A   1      51.570  25.593  27.508  1.00  0.00     0.040 A 
ATOM     83  F   UNL A   1      49.853  25.809  29.095  1.00  0.00    -0.206 F 
ATOM     84  C   UNL A   1      52.029  25.723  26.199  1.00  0.00     0.006 A 
ENDBRANCH  56  77
BRANCH  68  85
ATOM     85  C   UNL A   1      46.200  32.341  28.920  1.00  0.00     0.057 A 
ATOM     86  C   UNL A   1      46.599  32.731  30.204  1.00  0.00     0.134 A 
ATOM     87  C   UNL A   1      46.162  33.325  27.925  1.00  0.00     0.134 A 
ATOM     88  F   UNL A   1      46.646  31.838  31.205  1.00  0.00    -0.206 F 
ATOM     89  C   UNL A   1      46.915  34.058  30.498  1.00  0.00     0.040 A 
ATOM     90  C   UNL A   1      46.502  34.650  28.201  1.00  0.00     0.040 A 
ATOM     91  F   UNL A   1      45.798  33.011  26.672  1.00  0.00    -0.206 F 
ATOM     92  C   UNL A   1      46.866  35.022  29.494  1.00  0.00     0.006 A 
ENDBRANCH  68  85
ENDBRANCH  42  43
ENDBRANCH  34  37
ENDBRANCH  32  33
ENDBRANCH  31  32
ENDBRANCH   1  31
TORSDOF 13
ENDMDL
MODEL 3
REMARK VINA RESULT:     -13.2      4.874     10.215
REMARK SMILES Cc1nc(-c2ccc3c(c2)CCN3S(=O)(=O)c2ccc(F)c(C(=O)NCCCNC(=O)c3ccc(-c4c5nc(c(-c6c(F)cccc6F)c6ccc([nH]6)c(-c6c(F)cccc6F)c6nc(c(-c7c(F)cccc7F)c7ccc4[nH]7)C=C6)C=C5)cc3)c2)cs1
REMARK SMILES IDX 26 1 25 2 23 3 24 4 22 6 17 7 18 8 86 9 19 10 20 11 21 12
REMARK SMILES IDX 14 13 15 14 16 15 13 16 5 17 6 18 10 19 7 20 9 21 8 22 11 23
REMARK SMILES IDX 12 24 4 25 1 26 2 27 3 28 88 29 87 30 27 31 28 32 29 33
REMARK SMILES IDX 30 34 31 36 32 37 33 38 85 39 34 40 84 41 35 42 36 43 37 44
REMARK SMILES IDX 78 45 38 46 83 47 77 48 79 49 39 50 82 51 76 52 75 53 40 55
REMARK SMILES IDX 66 56 49 57 65 58 50 59 53 60 64 61 80 62 51 63 52 64 63 66
REMARK SMILES IDX 81 67 54 68 41 69 42 70 47 71 43 72 44 73 46 74 48 75 45 76
REMARK SMILES IDX 67 77 68 78 73 79 69 80 70 81 72 82 74 83 71 84 55 85 56 86
REMARK SMILES IDX 61 87 57 88 58 89 60 90 62 91 59 92
REMARK H PARENT 25 5 29 35 79 54 53 65
REMARK Flexibility Score: inf
ROOT
ATOM      1  C   UNL A   1      36.544  20.476  24.990  1.00  0.00     0.118 C 
ENDROOT
BRANCH   1   2
ATOM      2  N   UNL A   1      35.351  19.698  25.254  1.00  0.00    -0.352 N 
ATOM      3  C   UNL A   1      34.045  19.756  24.853  1.00  0.00     0.254 C 
ATOM      4  O   UNL A   1      33.344  18.820  25.250  1.00  0.00    -0.269 OA
ATOM      5  H   UNL A   1      35.521  18.949  25.870  1.00  0.00     0.163 HD
BRANCH   3   6
ATOM      6  C   UNL A   1      33.401  20.790  23.990  1.00  0.00     0.076 A 
ATOM      7  C   UNL A   1      33.356  23.172  23.420  1.00  0.00     0.089 A 
ATOM      8  C   UNL A   1      32.383  22.942  22.446  1.00  0.00     0.025 A 
ATOM      9  C   UNL A   1      33.888  22.109  24.162  1.00  0.00     0.039 A 
ATOM     10  C   UNL A   1      31.892  21.656  22.273  1.00  0.00     0.041 A 
ATOM     11  C   UNL A   1      32.404  20.593  23.029  1.00  0.00     0.136 A 
ATOM     12  F   UNL A   1      31.904  19.392  22.733  1.00  0.00    -0.206 F 
BRANCH   7  13
ATOM     13  S   UNL A   1      33.879  24.843  23.698  1.00  0.00     0.264 S 
ATOM     14  O   UNL A   1      34.112  25.413  22.387  1.00  0.00    -0.201 OA
ATOM     15  O   UNL A   1      34.957  24.814  24.669  1.00  0.00    -0.201 OA
BRANCH  13  16
ATOM     16  N   UNL A   1      32.573  25.671  24.422  1.00  0.00    -0.266 N 
ATOM     17  C   UNL A   1      30.347  29.031  23.177  1.00  0.00     0.001 A 
ATOM     18  C   UNL A   1      30.613  28.034  22.226  1.00  0.00     0.012 A 
ATOM     19  C   UNL A   1      30.822  28.874  24.485  1.00  0.00     0.016 A 
ATOM     20  C   UNL A   1      31.360  26.901  22.562  1.00  0.00     0.028 A 
ATOM     21  C   UNL A   1      31.579  27.743  24.792  1.00  0.00    -0.021 A 
ATOM     22  C   UNL A   1      31.909  26.794  23.826  1.00  0.00     0.055 A 
ATOM     23  C   UNL A   1      31.972  27.274  26.158  1.00  0.00     0.060 C 
ATOM     24  C   UNL A   1      32.889  26.085  25.842  1.00  0.00     0.140 C 
BRANCH  17  25
ATOM     25  C   UNL A   1      29.485  30.136  22.792  1.00  0.00     0.081 A 
ATOM     26  C   UNL A   1      27.853  31.906  20.050  1.00  0.00     0.079 C 
ATOM     27  C   UNL A   1      28.396  31.406  21.343  1.00  0.00     0.090 A 
ATOM     28  N   UNL A   1      29.189  30.365  21.458  1.00  0.00    -0.242 NA
ATOM     29  S   UNL A   1      28.003  32.199  22.817  1.00  0.00    -0.127 S 
ATOM     30  C   UNL A   1      28.939  31.045  23.676  1.00  0.00     0.095 A 
ENDBRANCH  17  25
ENDBRANCH  13  16
ENDBRANCH   7  13
ENDBRANCH   3   6
ENDBRANCH   1   2
BRANCH   1  31
ATOM     31  C   UNL A   1      37.789  19.590  24.928  1.00  0.00     0.042 C 
BRANCH  31  32
ATOM     32  C   UNL A   1      38.977  20.175  25.698  1.00  0.00     0.118 C 
BRANCH  32  33
ATOM     33  N   UNL A   1      40.046  19.196  25.887  1.00  0.00    -0.352 N 
ATOM     34  C   UNL A   1      41.396  19.364  26.065  1.00  0.00     0.251 C 
ATOM     35  H   UNL A   1      39.747  18.258  25.885  1.00  0.00     0.163 HD
ATOM     36  O   UNL A   1      42.153  18.407  25.930  1.00  0.00    -0.269 OA
BRANCH  34  37
ATOM     37  C   UNL A   1      41.944  20.687  26.418  1.00  0.00     0.039 A 
ATOM     38  C   UNL A   1      42.394  21.534  25.400  1.00  0.00     0.014 A 
ATOM     39  C   UNL A   1      42.042  21.083  27.754  1.00  0.00     0.014 A 
ATOM     40  C   UNL A   1      42.860  22.810  25.719  1.00  0.00     0.010 A 
ATOM     41  C   UNL A   1      42.426  22.382  28.064  1.00  0.00     0.010 A 
ATOM     42  C   UNL A   1      42.832  23.261  27.049  1.00  0.00    -0.014 A 
BRANCH  42  43
ATOM     43  C   UNL A   1      43.189  24.656  27.404  1.00  0.00     0.031 A 
ATOM     44  C   UNL A   1      44.630  25.078  27.454  1.00  0.00     0.074 A 
ATOM     45  C   UNL A   1      42.217  25.514  27.769  1.00  0.00     0.049 A 
ATOM     46  N   UNL A   1      45.142  26.213  27.854  1.00  0.00    -0.248 NA
ATOM     47  C   UNL A   1      45.630  24.086  27.023  1.00  0.00     0.031 C 
ATOM     48  C   UNL A   1      40.785  25.205  27.798  1.00  0.00     0.029 A 
ATOM     49  N   UNL A   1      42.282  26.816  28.200  1.00  0.00    -0.354 N 
ATOM     50  C   UNL A   1      46.519  26.068  27.734  1.00  0.00     0.074 A 
ATOM     51  C   UNL A   1      46.766  24.718  27.278  1.00  0.00     0.031 C 
ATOM     52  C   UNL A   1      40.108  26.293  28.196  1.00  0.00     0.029 A 
ATOM     53  C   UNL A   1      41.057  27.358  28.503  1.00  0.00     0.049 A 
ATOM     54  H   UNL A   1      43.127  27.313  28.283  1.00  0.00     0.167 HD
ATOM     55  C   UNL A   1      47.485  26.988  27.963  1.00  0.00     0.037 A 
ATOM     56  C   UNL A   1      40.733  28.572  28.989  1.00  0.00     0.037 A 
ATOM     57  C   UNL A   1      47.226  28.335  28.394  1.00  0.00     0.049 A 
ATOM     58  C   UNL A   1      41.827  29.564  29.267  1.00  0.00     0.074 A 
ATOM     59  C   UNL A   1      48.134  29.360  28.595  1.00  0.00     0.029 A 
ATOM     60  N   UNL A   1      45.971  28.845  28.693  1.00  0.00    -0.354 N 
ATOM     61  N   UNL A   1      43.121  29.433  29.094  1.00  0.00    -0.248 NA
ATOM     62  C   UNL A   1      41.423  30.868  29.810  1.00  0.00     0.031 C 
ATOM     63  C   UNL A   1      47.436  30.472  29.071  1.00  0.00     0.029 A 
ATOM     64  C   UNL A   1      46.086  30.161  29.108  1.00  0.00     0.049 A 
ATOM     65  H   UNL A   1      45.126  28.346  28.620  1.00  0.00     0.167 HD
ATOM     66  C   UNL A   1      43.681  30.641  29.485  1.00  0.00     0.074 A 
ATOM     67  C   UNL A   1      42.587  31.499  29.893  1.00  0.00     0.031 C 
ATOM     68  C   UNL A   1      44.986  31.005  29.504  1.00  0.00     0.037 A 
BRANCH  55  69
ATOM     69  C   UNL A   1      48.912  26.581  27.738  1.00  0.00     0.057 A 
ATOM     70  C   UNL A   1      49.517  26.756  26.486  1.00  0.00     0.134 A 
ATOM     71  C   UNL A   1      49.662  25.942  28.733  1.00  0.00     0.134 A 
ATOM     72  F   UNL A   1      48.853  27.355  25.486  1.00  0.00    -0.206 F 
ATOM     73  C   UNL A   1      50.809  26.296  26.229  1.00  0.00     0.040 A 
ATOM     74  C   UNL A   1      50.965  25.503  28.497  1.00  0.00     0.040 A 
ATOM     75  F   UNL A   1      49.145  25.752  29.957  1.00  0.00    -0.206 F 
ATOM     76  C   UNL A   1      51.538  25.669  27.237  1.00  0.00     0.006 A 
ENDBRANCH  55  69
BRANCH  56  77
ATOM     77  C   UNL A   1      39.306  28.916  29.217  1.00  0.00     0.057 A 
ATOM     78  C   UNL A   1      38.693  28.720  30.461  1.00  0.00     0.134 A 
ATOM     79  C   UNL A   1      38.512  29.416  28.180  1.00  0.00     0.134 A 
ATOM     80  F   UNL A   1      39.396  28.233  31.495  1.00  0.00    -0.206 F 
ATOM     81  C   UNL A   1      37.337  28.988  30.659  1.00  0.00     0.040 A 
ATOM     82  C   UNL A   1      37.162  29.714  28.371  1.00  0.00     0.040 A 
ATOM     83  F   UNL A   1      39.045  29.641  26.971  1.00  0.00    -0.206 F 
ATOM     84  C   UNL A   1      36.568  29.490  29.611  1.00  0.00     0.006 A 
ENDBRANCH  56  77
BRANCH  68  85
ATOM     85  C   UNL A   1      45.322  32.393  29.962  1.00  0.00     0.057 A 
ATOM     86  C   UNL A   1      45.566  32.656  31.316  1.00  0.00     0.134 A 
ATOM     87  C   UNL A   1      45.294  33.484  29.085  1.00  0.00     0.134 A 
ATOM     88  F   UNL A   1      45.596  31.656  32.211  1.00  0.00    -0.206 F 
ATOM     89  C   UNL A   1      45.739  33.958  31.787  1.00  0.00     0.040 A 
ATOM     90  C   UNL A   1      45.492  34.788  29.540  1.00  0.00     0.040 A 
ATOM     91  F   UNL A   1      45.076  33.296  27.775  1.00  0.00    -0.206 F 
ATOM     92  C   UNL A   1      45.702  35.029  30.897  1.00  0.00     0.006 A 
ENDBRANCH  68  85
ENDBRANCH  42  43
ENDBRANCH  34  37
ENDBRANCH  32  33
ENDBRANCH  31  32
ENDBRANCH   1  31
TORSDOF 13
ENDMDL
