MODEL 1
REMARK VINA RESULT:     -12.2      0.000      0.000
REMARK SMILES COCc1cc(N2CCCC[C@H]2C(=O)NCCCNC(=O)c2ccc(-c3c4nc(c(-c5c(F)cccc5F)c5ccc([nH]5)c(-c5c(F)cccc5F)c5nc(c(-c6c(F)cccc6F)c6ccc3[nH]6)C=C5)C=C4)cc2)nc(-c2ccc(Cl)cc2)n1
REMARK SMILES IDX 16 1 15 2 13 3 14 4 12 6 7 7 8 8 9 9 11 10 10 11 6 12 4 13
REMARK SMILES IDX 5 14 85 15 77 16 76 17 3 18 2 19 1 20 78 21 79 22 84 23
REMARK SMILES IDX 80 24 83 25 81 26 82 27 17 28 18 29 19 30 20 31 21 33 22 34
REMARK SMILES IDX 23 35 75 36 24 37 74 38 25 39 26 40 27 41 68 42 28 43 73 44
REMARK SMILES IDX 67 45 69 46 29 47 72 48 66 49 65 50 30 52 56 53 39 54 55 55
REMARK SMILES IDX 40 56 43 57 54 58 70 59 41 60 42 61 53 63 71 64 44 65 31 66
REMARK SMILES IDX 32 67 37 68 33 69 34 70 36 71 38 72 35 73 57 74 58 75 63 76
REMARK SMILES IDX 59 77 60 78 62 79 64 80 61 81 45 82 46 83 51 84 47 85 48 86
REMARK SMILES IDX 50 87 52 88 49 89
REMARK H PARENT 15 5 19 32 69 51 43 62
REMARK Flexibility Score: inf
ROOT
ATOM      1  C   UNL A   1      32.137  28.137  25.439  1.00  0.00     0.117 C 
ENDROOT
BRANCH   1   2
ATOM      2  N   UNL A   1      31.806  27.039  26.327  1.00  0.00    -0.354 N 
ATOM      3  C   UNL A   1      31.929  25.688  26.183  1.00  0.00     0.242 C 
ATOM      4  O   UNL A   1      31.459  25.000  27.094  1.00  0.00    -0.273 OA
ATOM      5  H   UNL A   1      31.423  27.319  27.189  1.00  0.00     0.163 HD
BRANCH   3   6
ATOM      6  C   UNL A   1      32.627  25.079  24.946  1.00  0.00     0.173 C 
ATOM      7  N   UNL A   1      32.347  23.639  24.838  1.00  0.00    -0.344 N 
ATOM      8  C   UNL A   1      31.034  23.199  24.386  1.00  0.00     0.119 C 
ATOM      9  C   UNL A   1      30.637  23.904  23.094  1.00  0.00     0.022 C 
ATOM     10  C   UNL A   1      32.205  25.797  23.658  1.00  0.00     0.035 C 
ATOM     11  C   UNL A   1      30.800  25.420  23.194  1.00  0.00     0.004 C 
BRANCH   7  12
ATOM     12  C   UNL A   1      33.395  22.742  24.872  1.00  0.00     0.133 A 
ATOM     13  C   UNL A   1      35.725  22.296  24.779  1.00  0.00     0.072 A 
ATOM     14  C   UNL A   1      34.694  23.214  24.814  1.00  0.00     0.073 A 
ATOM     15  N   UNL A   1      35.486  20.973  24.846  1.00  0.00    -0.230 NA
ATOM     16  C   UNL A   1      34.195  20.598  24.934  1.00  0.00     0.161 A 
ATOM     17  N   UNL A   1      33.137  21.427  24.939  1.00  0.00    -0.211 NA
BRANCH  13  18
ATOM     18  C   UNL A   1      37.171  22.723  24.651  1.00  0.00     0.216 C 
BRANCH  18  19
ATOM     19  O   UNL A   1      38.117  21.707  25.007  1.00  0.00    -0.378 OA
ATOM     20  C   UNL A   1      38.921  22.063  26.123  1.00  0.00     0.195 C 
ENDBRANCH  18  19
ENDBRANCH  13  18
BRANCH  16  21
ATOM     21  C   UNL A   1      33.936  19.158  25.013  1.00  0.00     0.019 A 
ATOM     22  C   UNL A   1      32.772  18.674  25.636  1.00  0.00     0.013 A 
ATOM     23  C   UNL A   1      34.849  18.224  24.494  1.00  0.00     0.013 A 
ATOM     24  C   UNL A   1      32.526  17.301  25.739  1.00  0.00     0.021 A 
ATOM     25  C   UNL A   1      34.614  16.849  24.609  1.00  0.00     0.021 A 
ATOM     26  C   UNL A   1      33.453  16.395  25.230  1.00  0.00     0.041 A 
ATOM     27  Cl  UNL A   1      33.163  14.705  25.373  1.00  0.00    -0.084 Cl
ENDBRANCH  16  21
ENDBRANCH   7  12
ENDBRANCH   3   6
ENDBRANCH   1   2
BRANCH   1  28
ATOM     28  C   UNL A   1      33.544  28.669  25.692  1.00  0.00     0.042 C 
BRANCH  28  29
ATOM     29  C   UNL A   1      33.982  28.641  27.154  1.00  0.00     0.118 C 
BRANCH  29  30
ATOM     30  N   UNL A   1      33.959  29.951  27.785  1.00  0.00    -0.352 N 
ATOM     31  C   UNL A   1      34.932  30.606  28.504  1.00  0.00     0.251 C 
ATOM     32  H   UNL A   1      33.116  30.447  27.683  1.00  0.00     0.163 HD
ATOM     33  O   UNL A   1      34.655  31.650  29.085  1.00  0.00    -0.269 OA
BRANCH  31  34
ATOM     34  C   UNL A   1      36.299  30.048  28.607  1.00  0.00     0.039 A 
ATOM     35  C   UNL A   1      37.141  30.129  27.495  1.00  0.00     0.014 A 
ATOM     36  C   UNL A   1      36.750  29.434  29.779  1.00  0.00     0.014 A 
ATOM     37  C   UNL A   1      38.456  29.666  27.583  1.00  0.00     0.010 A 
ATOM     38  C   UNL A   1      38.084  29.046  29.891  1.00  0.00     0.010 A 
ATOM     39  C   UNL A   1      38.952  29.160  28.796  1.00  0.00    -0.014 A 
BRANCH  39  40
ATOM     40  C   UNL A   1      40.377  28.759  28.937  1.00  0.00     0.031 A 
ATOM     41  C   UNL A   1      41.395  29.734  29.462  1.00  0.00     0.074 A 
ATOM     42  C   UNL A   1      40.767  27.533  28.536  1.00  0.00     0.049 A 
ATOM     43  N   UNL A   1      42.690  29.591  29.590  1.00  0.00    -0.248 NA
ATOM     44  C   UNL A   1      40.895  31.054  29.878  1.00  0.00     0.031 C 
ATOM     45  C   UNL A   1      39.888  26.505  27.974  1.00  0.00     0.029 A 
ATOM     46  N   UNL A   1      42.007  26.943  28.532  1.00  0.00    -0.354 N 
ATOM     47  C   UNL A   1      43.158  30.798  30.092  1.00  0.00     0.074 A 
ATOM     48  C   UNL A   1      42.018  31.684  30.191  1.00  0.00     0.031 C 
ATOM     49  C   UNL A   1      40.609  25.406  27.705  1.00  0.00     0.029 A 
ATOM     50  C   UNL A   1      42.008  25.663  28.031  1.00  0.00     0.049 A 
ATOM     51  H   UNL A   1      42.819  27.394  28.857  1.00  0.00     0.167 HD
ATOM     52  C   UNL A   1      44.418  31.132  30.462  1.00  0.00     0.037 A 
ATOM     53  C   UNL A   1      43.023  24.798  27.845  1.00  0.00     0.037 A 
ATOM     54  C   UNL A   1      45.550  30.246  30.375  1.00  0.00     0.049 A 
ATOM     55  C   UNL A   1      44.419  25.207  28.230  1.00  0.00     0.074 A 
ATOM     56  C   UNL A   1      46.859  30.479  30.763  1.00  0.00     0.029 A 
ATOM     57  N   UNL A   1      45.509  28.957  29.865  1.00  0.00    -0.354 N 
ATOM     58  N   UNL A   1      44.835  26.332  28.760  1.00  0.00    -0.248 NA
ATOM     59  C   UNL A   1      45.486  24.224  27.995  1.00  0.00     0.031 C 
ATOM     60  C   UNL A   1      47.618  29.350  30.441  1.00  0.00     0.029 A 
ATOM     61  C   UNL A   1      46.774  28.392  29.907  1.00  0.00     0.049 A 
ATOM     62  H   UNL A   1      44.701  28.511  29.523  1.00  0.00     0.167 HD
ATOM     63  C   UNL A   1      46.202  26.177  28.954  1.00  0.00     0.074 A 
ATOM     64  C   UNL A   1      46.542  24.846  28.499  1.00  0.00     0.031 C 
ATOM     65  C   UNL A   1      47.096  27.059  29.464  1.00  0.00     0.037 A 
BRANCH  52  66
ATOM     66  C   UNL A   1      44.640  32.515  31.003  1.00  0.00     0.057 A 
ATOM     67  C   UNL A   1      44.953  33.593  30.165  1.00  0.00     0.134 A 
ATOM     68  C   UNL A   1      44.490  32.784  32.370  1.00  0.00     0.134 A 
ATOM     69  F   UNL A   1      45.120  33.403  28.847  1.00  0.00    -0.206 F 
ATOM     70  C   UNL A   1      45.133  34.883  30.667  1.00  0.00     0.040 A 
ATOM     71  C   UNL A   1      44.640  34.075  32.881  1.00  0.00     0.040 A 
ATOM     72  F   UNL A   1      44.183  31.800  33.229  1.00  0.00    -0.206 F 
ATOM     73  C   UNL A   1      44.969  35.127  32.030  1.00  0.00     0.006 A 
ENDBRANCH  52  66
BRANCH  53  74
ATOM     74  C   UNL A   1      42.766  23.448  27.277  1.00  0.00     0.057 A 
ATOM     75  C   UNL A   1      42.408  22.375  28.102  1.00  0.00     0.134 A 
ATOM     76  C   UNL A   1      42.902  23.190  25.907  1.00  0.00     0.134 A 
ATOM     77  F   UNL A   1      42.281  22.554  29.425  1.00  0.00    -0.206 F 
ATOM     78  C   UNL A   1      42.225  21.089  27.592  1.00  0.00     0.040 A 
ATOM     79  C   UNL A   1      42.692  21.915  25.380  1.00  0.00     0.040 A 
ATOM     80  F   UNL A   1      43.234  24.176  25.062  1.00  0.00    -0.206 F 
ATOM     81  C   UNL A   1      42.365  20.857  26.225  1.00  0.00     0.006 A 
ENDBRANCH  53  74
BRANCH  65  82
ATOM     82  C   UNL A   1      48.518  26.597  29.604  1.00  0.00     0.057 A 
ATOM     83  C   UNL A   1      49.479  26.840  28.616  1.00  0.00     0.134 A 
ATOM     84  C   UNL A   1      48.937  25.927  30.762  1.00  0.00     0.134 A 
ATOM     85  F   UNL A   1      49.142  27.464  27.477  1.00  0.00    -0.206 F 
ATOM     86  C   UNL A   1      50.801  26.412  28.761  1.00  0.00     0.040 A 
ATOM     87  C   UNL A   1      50.261  25.522  30.932  1.00  0.00     0.040 A 
ATOM     88  F   UNL A   1      48.069  25.670  31.752  1.00  0.00    -0.206 F 
ATOM     89  C   UNL A   1      51.195  25.757  29.927  1.00  0.00     0.006 A 
ENDBRANCH  65  82
ENDBRANCH  39  40
ENDBRANCH  31  34
ENDBRANCH  29  30
ENDBRANCH  28  29
ENDBRANCH   1  28
TORSDOF 14
ENDMDL
MODEL 2
REMARK VINA RESULT:     -12.1      5.009      9.786
REMARK SMILES COCc1cc(N2CCCC[C@H]2C(=O)NCCCNC(=O)c2ccc(-c3c4nc(c(-c5c(F)cccc5F)c5ccc([nH]5)c(-c5c(F)cccc5F)c5nc(c(-c6c(F)cccc6F)c6ccc3[nH]6)C=C5)C=C4)cc2)nc(-c2ccc(Cl)cc2)n1
REMARK SMILES IDX 16 1 15 2 13 3 14 4 12 6 7 7 8 8 9 9 11 10 10 11 6 12 4 13
REMARK SMILES IDX 5 14 85 15 77 16 76 17 3 18 2 19 1 20 78 21 79 22 84 23
REMARK SMILES IDX 80 24 83 25 81 26 82 27 17 28 18 29 19 30 20 31 21 33 22 34
REMARK SMILES IDX 23 35 75 36 24 37 74 38 25 39 26 40 27 41 68 42 28 43 73 44
REMARK SMILES IDX 67 45 69 46 29 47 72 48 66 49 65 50 30 52 56 53 39 54 55 55
REMARK SMILES IDX 40 56 43 57 54 58 70 59 41 60 42 61 53 63 71 64 44 65 31 66
REMARK SMILES IDX 32 67 37 68 33 69 34 70 36 71 38 72 35 73 57 74 58 75 63 76
REMARK SMILES IDX 59 77 60 78 62 79 64 80 61 81 45 82 46 83 51 84 47 85 48 86
REMARK SMILES IDX 50 87 52 88 49 89
REMARK H PARENT 15 5 19 32 69 51 43 62
REMARK Flexibility Score: inf
ROOT
ATOM      1  C   UNL A   1      36.024  23.794  25.372  1.00  0.00     0.117 C 
ENDROOT
BRANCH   1   2
ATOM      2  N   UNL A   1      35.551  24.007  24.017  1.00  0.00    -0.354 N 
ATOM      3  C   UNL A   1      34.333  24.383  23.530  1.00  0.00     0.242 C 
ATOM      4  O   UNL A   1      34.216  24.382  22.301  1.00  0.00    -0.273 OA
ATOM      5  H   UNL A   1      36.232  23.854  23.324  1.00  0.00     0.163 HD
BRANCH   3   6
ATOM      6  C   UNL A   1      33.185  24.788  24.483  1.00  0.00     0.173 C 
ATOM      7  N   UNL A   1      32.213  25.653  23.798  1.00  0.00    -0.344 N 
ATOM      8  C   UNL A   1      31.288  25.068  22.838  1.00  0.00     0.119 C 
ATOM      9  C   UNL A   1      30.577  23.857  23.432  1.00  0.00     0.022 C 
ATOM     10  C   UNL A   1      32.479  23.554  25.060  1.00  0.00     0.035 C 
ATOM     11  C   UNL A   1      31.557  22.865  24.056  1.00  0.00     0.004 C 
BRANCH   7  12
ATOM     12  C   UNL A   1      31.984  26.926  24.280  1.00  0.00     0.133 A 
ATOM     13  C   UNL A   1      32.249  28.560  25.981  1.00  0.00     0.072 A 
ATOM     14  C   UNL A   1      32.547  27.307  25.485  1.00  0.00     0.073 A 
ATOM     15  N   UNL A   1      31.468  29.416  25.296  1.00  0.00    -0.230 NA
ATOM     16  C   UNL A   1      30.987  28.981  24.116  1.00  0.00     0.161 A 
ATOM     17  N   UNL A   1      31.204  27.765  23.583  1.00  0.00    -0.211 NA
BRANCH  13  18
ATOM     18  C   UNL A   1      32.770  29.033  27.321  1.00  0.00     0.216 C 
BRANCH  18  19
ATOM     19  O   UNL A   1      34.194  29.178  27.380  1.00  0.00    -0.378 OA
ATOM     20  C   UNL A   1      34.609  30.526  27.550  1.00  0.00     0.195 C 
ENDBRANCH  18  19
ENDBRANCH  13  18
BRANCH  16  21
ATOM     21  C   UNL A   1      30.142  29.915  23.369  1.00  0.00     0.019 A 
ATOM     22  C   UNL A   1      29.928  29.740  21.990  1.00  0.00     0.013 A 
ATOM     23  C   UNL A   1      29.545  31.021  23.998  1.00  0.00     0.013 A 
ATOM     24  C   UNL A   1      29.144  30.640  21.261  1.00  0.00     0.021 A 
ATOM     25  C   UNL A   1      28.773  31.933  23.269  1.00  0.00     0.021 A 
ATOM     26  C   UNL A   1      28.575  31.735  21.904  1.00  0.00     0.041 A 
ATOM     27  Cl  UNL A   1      27.626  32.855  21.007  1.00  0.00    -0.084 Cl
ENDBRANCH  16  21
ENDBRANCH   7  12
ENDBRANCH   3   6
ENDBRANCH   1   2
BRANCH   1  28
ATOM     28  C   UNL A   1      37.467  23.302  25.400  1.00  0.00     0.042 C 
BRANCH  28  29
ATOM     29  C   UNL A   1      38.350  23.980  26.445  1.00  0.00     0.118 C 
BRANCH  29  30
ATOM     30  N   UNL A   1      39.769  23.909  26.129  1.00  0.00    -0.352 N 
ATOM     31  C   UNL A   1      40.805  24.727  26.515  1.00  0.00     0.251 C 
ATOM     32  H   UNL A   1      40.028  23.159  25.547  1.00  0.00     0.163 HD
ATOM     33  O   UNL A   1      41.913  24.579  26.011  1.00  0.00    -0.269 OA
BRANCH  31  34
ATOM     34  C   UNL A   1      40.588  25.801  27.510  1.00  0.00     0.039 A 
ATOM     35  C   UNL A   1      39.645  25.596  28.521  1.00  0.00     0.014 A 
ATOM     36  C   UNL A   1      41.290  27.007  27.447  1.00  0.00     0.014 A 
ATOM     37  C   UNL A   1      39.463  26.567  29.510  1.00  0.00     0.010 A 
ATOM     38  C   UNL A   1      41.166  27.938  28.476  1.00  0.00     0.010 A 
ATOM     39  C   UNL A   1      40.254  27.728  29.520  1.00  0.00    -0.014 A 
BRANCH  39  40
ATOM     40  C   UNL A   1      40.147  28.722  30.620  1.00  0.00     0.031 A 
ATOM     41  C   UNL A   1      39.152  29.847  30.536  1.00  0.00     0.074 A 
ATOM     42  C   UNL A   1      40.987  28.647  31.671  1.00  0.00     0.049 A 
ATOM     43  N   UNL A   1      38.961  30.846  31.361  1.00  0.00    -0.248 NA
ATOM     44  C   UNL A   1      38.269  29.866  29.360  1.00  0.00     0.031 C 
ATOM     45  C   UNL A   1      42.023  27.627  31.856  1.00  0.00     0.029 A 
ATOM     46  N   UNL A   1      41.110  29.446  32.780  1.00  0.00    -0.354 N 
ATOM     47  C   UNL A   1      37.946  31.612  30.801  1.00  0.00     0.074 A 
ATOM     48  C   UNL A   1      37.601  30.995  29.538  1.00  0.00     0.031 C 
ATOM     49  C   UNL A   1      42.657  27.848  33.019  1.00  0.00     0.029 A 
ATOM     50  C   UNL A   1      42.106  29.048  33.641  1.00  0.00     0.049 A 
ATOM     51  H   UNL A   1      40.540  30.231  32.944  1.00  0.00     0.167 HD
ATOM     52  C   UNL A   1      37.338  32.713  31.304  1.00  0.00     0.037 A 
ATOM     53  C   UNL A   1      42.533  29.594  34.795  1.00  0.00     0.037 A 
ATOM     54  C   UNL A   1      37.673  33.318  32.567  1.00  0.00     0.049 A 
ATOM     55  C   UNL A   1      41.865  30.838  35.313  1.00  0.00     0.074 A 
ATOM     56  C   UNL A   1      37.086  34.413  33.180  1.00  0.00     0.029 A 
ATOM     57  N   UNL A   1      38.684  32.883  33.410  1.00  0.00    -0.354 N 
ATOM     58  N   UNL A   1      40.866  31.515  34.801  1.00  0.00    -0.248 NA
ATOM     59  C   UNL A   1      42.381  31.391  36.573  1.00  0.00     0.031 C 
ATOM     60  C   UNL A   1      37.775  34.669  34.370  1.00  0.00     0.029 A 
ATOM     61  C   UNL A   1      38.753  33.701  34.527  1.00  0.00     0.049 A 
ATOM     62  H   UNL A   1      39.267  32.109  33.239  1.00  0.00     0.167 HD
ATOM     63  C   UNL A   1      40.613  32.550  35.692  1.00  0.00     0.074 A 
ATOM     64  C   UNL A   1      41.551  32.403  36.783  1.00  0.00     0.031 C 
ATOM     65  C   UNL A   1      39.684  33.535  35.614  1.00  0.00     0.037 A 
BRANCH  52  66
ATOM     66  C   UNL A   1      36.239  33.333  30.489  1.00  0.00     0.057 A 
ATOM     67  C   UNL A   1      36.511  34.105  29.352  1.00  0.00     0.134 A 
ATOM     68  C   UNL A   1      34.894  33.116  30.814  1.00  0.00     0.134 A 
ATOM     69  F   UNL A   1      37.778  34.360  28.990  1.00  0.00    -0.206 F 
ATOM     70  C   UNL A   1      35.488  34.659  28.582  1.00  0.00     0.040 A 
ATOM     71  C   UNL A   1      33.860  33.641  30.036  1.00  0.00     0.040 A 
ATOM     72  F   UNL A   1      34.561  32.380  31.885  1.00  0.00    -0.206 F 
ATOM     73  C   UNL A   1      34.157  34.421  28.919  1.00  0.00     0.006 A 
ENDBRANCH  52  66
BRANCH  53  74
ATOM     74  C   UNL A   1      43.645  28.965  35.556  1.00  0.00     0.057 A 
ATOM     75  C   UNL A   1      44.974  29.355  35.346  1.00  0.00     0.134 A 
ATOM     76  C   UNL A   1      43.414  27.942  36.483  1.00  0.00     0.134 A 
ATOM     77  F   UNL A   1      45.263  30.317  34.458  1.00  0.00    -0.206 F 
ATOM     78  C   UNL A   1      46.033  28.732  36.007  1.00  0.00     0.040 A 
ATOM     79  C   UNL A   1      44.462  27.329  37.172  1.00  0.00     0.040 A 
ATOM     80  F   UNL A   1      42.164  27.527  36.736  1.00  0.00    -0.206 F 
ATOM     81  C   UNL A   1      45.777  27.716  36.926  1.00  0.00     0.006 A 
ENDBRANCH  53  74
BRANCH  65  82
ATOM     82  C   UNL A   1      39.604  34.500  36.762  1.00  0.00     0.057 A 
ATOM     83  C   UNL A   1      38.903  34.202  37.936  1.00  0.00     0.134 A 
ATOM     84  C   UNL A   1      40.268  35.733  36.700  1.00  0.00     0.134 A 
ATOM     85  F   UNL A   1      38.234  33.045  38.055  1.00  0.00    -0.206 F 
ATOM     86  C   UNL A   1      38.843  35.106  39.000  1.00  0.00     0.040 A 
ATOM     87  C   UNL A   1      40.241  36.630  37.768  1.00  0.00     0.040 A 
ATOM     88  F   UNL A   1      40.966  36.078  35.608  1.00  0.00    -0.206 F 
ATOM     89  C   UNL A   1      39.520  36.322  38.918  1.00  0.00     0.006 A 
ENDBRANCH  65  82
ENDBRANCH  39  40
ENDBRANCH  31  34
ENDBRANCH  29  30
ENDBRANCH  28  29
ENDBRANCH   1  28
TORSDOF 14
ENDMDL
MODEL 3
REMARK VINA RESULT:     -12.0      1.606      6.276
REMARK SMILES COCc1cc(N2CCCC[C@H]2C(=O)NCCCNC(=O)c2ccc(-c3c4nc(c(-c5c(F)cccc5F)c5ccc([nH]5)c(-c5c(F)cccc5F)c5nc(c(-c6c(F)cccc6F)c6ccc3[nH]6)C=C5)C=C4)cc2)nc(-c2ccc(Cl)cc2)n1
REMARK SMILES IDX 16 1 15 2 13 3 14 4 12 6 7 7 8 8 9 9 11 10 10 11 6 12 4 13
REMARK SMILES IDX 5 14 85 15 77 16 76 17 3 18 2 19 1 20 78 21 79 22 84 23
REMARK SMILES IDX 80 24 83 25 81 26 82 27 17 28 18 29 19 30 20 31 21 33 22 34
REMARK SMILES IDX 23 35 75 36 24 37 74 38 25 39 26 40 27 41 68 42 28 43 73 44
REMARK SMILES IDX 67 45 69 46 29 47 72 48 66 49 65 50 30 52 56 53 39 54 55 55
REMARK SMILES IDX 40 56 43 57 54 58 70 59 41 60 42 61 53 63 71 64 44 65 31 66
REMARK SMILES IDX 32 67 37 68 33 69 34 70 36 71 38 72 35 73 57 74 58 75 63 76
REMARK SMILES IDX 59 77 60 78 62 79 64 80 61 81 45 82 46 83 51 84 47 85 48 86
REMARK SMILES IDX 50 87 52 88 49 89
REMARK H PARENT 15 5 19 32 69 51 43 62
REMARK Flexibility Score: inf
ROOT
ATOM      1  C   UNL A   1      33.650  27.812  26.386  1.00  0.00     0.117 C 
ENDROOT
BRANCH   1   2
ATOM      2  N   UNL A   1      32.566  26.938  26.796  1.00  0.00    -0.354 N 
ATOM      3  C   UNL A   1      32.047  25.811  26.230  1.00  0.00     0.242 C 
ATOM      4  O   UNL A   1      31.046  25.341  26.779  1.00  0.00    -0.273 OA
ATOM      5  H   UNL A   1      32.128  27.208  27.635  1.00  0.00     0.163 HD
BRANCH   3   6
ATOM      6  C   UNL A   1      32.697  25.175  24.981  1.00  0.00     0.173 C 
ATOM      7  N   UNL A   1      32.383  23.740  24.896  1.00  0.00    -0.344 N 
ATOM      8  C   UNL A   1      31.050  23.323  24.487  1.00  0.00     0.119 C 
ATOM      9  C   UNL A   1      30.630  24.023  23.199  1.00  0.00     0.022 C 
ATOM     10  C   UNL A   1      32.252  25.888  23.697  1.00  0.00     0.035 C 
ATOM     11  C   UNL A   1      30.827  25.535  23.278  1.00  0.00     0.004 C 
BRANCH   7  12
ATOM     12  C   UNL A   1      33.414  22.821  24.910  1.00  0.00     0.133 A 
ATOM     13  C   UNL A   1      35.734  22.332  24.815  1.00  0.00     0.072 A 
ATOM     14  C   UNL A   1      34.722  23.269  24.871  1.00  0.00     0.073 A 
ATOM     15  N   UNL A   1      35.468  21.012  24.845  1.00  0.00    -0.230 NA
ATOM     16  C   UNL A   1      34.170  20.661  24.917  1.00  0.00     0.161 A 
ATOM     17  N   UNL A   1      33.129  21.511  24.941  1.00  0.00    -0.211 NA
BRANCH  13  18
ATOM     18  C   UNL A   1      37.189  22.732  24.705  1.00  0.00     0.216 C 
BRANCH  18  19
ATOM     19  O   UNL A   1      38.097  21.834  25.354  1.00  0.00    -0.378 OA
ATOM     20  C   UNL A   1      38.977  22.488  26.257  1.00  0.00     0.195 C 
ENDBRANCH  18  19
ENDBRANCH  13  18
BRANCH  16  21
ATOM     21  C   UNL A   1      33.882  19.225  24.956  1.00  0.00     0.019 A 
ATOM     22  C   UNL A   1      32.658  18.755  25.464  1.00  0.00     0.013 A 
ATOM     23  C   UNL A   1      34.825  18.280  24.514  1.00  0.00     0.013 A 
ATOM     24  C   UNL A   1      32.382  17.385  25.529  1.00  0.00     0.021 A 
ATOM     25  C   UNL A   1      34.558  16.909  24.592  1.00  0.00     0.021 A 
ATOM     26  C   UNL A   1      33.337  16.469  25.097  1.00  0.00     0.041 A 
ATOM     27  Cl  UNL A   1      33.009  14.783  25.195  1.00  0.00    -0.084 Cl
ENDBRANCH  16  21
ENDBRANCH   7  12
ENDBRANCH   3   6
ENDBRANCH   1   2
BRANCH   1  28
ATOM     28  C   UNL A   1      33.666  29.112  27.182  1.00  0.00     0.042 C 
BRANCH  28  29
ATOM     29  C   UNL A   1      35.060  29.645  27.504  1.00  0.00     0.118 C 
BRANCH  29  30
ATOM     30  N   UNL A   1      35.131  30.326  28.787  1.00  0.00    -0.352 N 
ATOM     31  C   UNL A   1      36.161  30.399  29.696  1.00  0.00     0.251 C 
ATOM     32  H   UNL A   1      34.315  30.809  29.047  1.00  0.00     0.163 HD
ATOM     33  O   UNL A   1      35.962  30.903  30.796  1.00  0.00    -0.269 OA
BRANCH  31  34
ATOM     34  C   UNL A   1      37.496  29.849  29.370  1.00  0.00     0.039 A 
ATOM     35  C   UNL A   1      37.925  29.878  28.041  1.00  0.00     0.014 A 
ATOM     36  C   UNL A   1      38.316  29.293  30.355  1.00  0.00     0.014 A 
ATOM     37  C   UNL A   1      39.205  29.423  27.713  1.00  0.00     0.010 A 
ATOM     38  C   UNL A   1      39.620  28.913  30.041  1.00  0.00     0.010 A 
ATOM     39  C   UNL A   1      40.080  28.977  28.717  1.00  0.00    -0.014 A 
BRANCH  39  40
ATOM     40  C   UNL A   1      41.479  28.586  28.401  1.00  0.00     0.031 A 
ATOM     41  C   UNL A   1      41.813  27.160  28.059  1.00  0.00     0.074 A 
ATOM     42  C   UNL A   1      42.462  29.504  28.480  1.00  0.00     0.049 A 
ATOM     43  N   UNL A   1      42.980  26.616  27.823  1.00  0.00    -0.248 NA
ATOM     44  C   UNL A   1      40.688  26.213  27.992  1.00  0.00     0.031 C 
ATOM     45  C   UNL A   1      42.279  30.913  28.839  1.00  0.00     0.029 A 
ATOM     46  N   UNL A   1      43.814  29.391  28.272  1.00  0.00    -0.354 N 
ATOM     47  C   UNL A   1      42.733  25.270  27.589  1.00  0.00     0.074 A 
ATOM     48  C   UNL A   1      41.311  25.066  27.768  1.00  0.00     0.031 C 
ATOM     49  C   UNL A   1      43.467  31.537  28.800  1.00  0.00     0.029 A 
ATOM     50  C   UNL A   1      44.502  30.567  28.460  1.00  0.00     0.049 A 
ATOM     51  H   UNL A   1      44.250  28.548  28.013  1.00  0.00     0.167 HD
ATOM     52  C   UNL A   1      43.605  24.296  27.232  1.00  0.00     0.037 A 
ATOM     53  C   UNL A   1      45.820  30.830  28.377  1.00  0.00     0.037 A 
ATOM     54  C   UNL A   1      45.017  24.503  27.041  1.00  0.00     0.049 A 
ATOM     55  C   UNL A   1      46.771  29.722  28.015  1.00  0.00     0.074 A 
ATOM     56  C   UNL A   1      45.975  23.587  26.641  1.00  0.00     0.029 A 
ATOM     57  N   UNL A   1      45.674  25.708  27.238  1.00  0.00    -0.354 N 
ATOM     58  N   UNL A   1      46.513  28.467  27.738  1.00  0.00    -0.248 NA
ATOM     59  C   UNL A   1      48.198  30.069  27.949  1.00  0.00     0.031 C 
ATOM     60  C   UNL A   1      47.219  24.226  26.643  1.00  0.00     0.029 A 
ATOM     61  C   UNL A   1      47.029  25.552  26.989  1.00  0.00     0.049 A 
ATOM     62  H   UNL A   1      45.243  26.548  27.514  1.00  0.00     0.167 HD
ATOM     63  C   UNL A   1      47.737  27.886  27.431  1.00  0.00     0.074 A 
ATOM     64  C   UNL A   1      48.735  28.928  27.541  1.00  0.00     0.031 C 
ATOM     65  C   UNL A   1      48.011  26.603  27.088  1.00  0.00     0.037 A 
BRANCH  52  66
ATOM     66  C   UNL A   1      43.054  22.916  27.017  1.00  0.00     0.057 A 
ATOM     67  C   UNL A   1      42.679  22.096  28.089  1.00  0.00     0.134 A 
ATOM     68  C   UNL A   1      42.850  22.418  25.723  1.00  0.00     0.134 A 
ATOM     69  F   UNL A   1      42.857  22.508  29.354  1.00  0.00    -0.206 F 
ATOM     70  C   UNL A   1      42.143  20.823  27.885  1.00  0.00     0.040 A 
ATOM     71  C   UNL A   1      42.289  21.158  25.505  1.00  0.00     0.040 A 
ATOM     72  F   UNL A   1      43.179  23.152  24.650  1.00  0.00    -0.206 F 
ATOM     73  C   UNL A   1      41.940  20.354  26.589  1.00  0.00     0.006 A 
ENDBRANCH  52  66
BRANCH  53  74
ATOM     74  C   UNL A   1      46.328  32.204  28.628  1.00  0.00     0.057 A 
ATOM     75  C   UNL A   1      46.688  32.616  29.918  1.00  0.00     0.134 A 
ATOM     76  C   UNL A   1      46.434  33.147  27.599  1.00  0.00     0.134 A 
ATOM     77  F   UNL A   1      46.591  31.765  30.949  1.00  0.00    -0.206 F 
ATOM     78  C   UNL A   1      47.107  33.921  30.180  1.00  0.00     0.040 A 
ATOM     79  C   UNL A   1      46.879  34.448  27.842  1.00  0.00     0.040 A 
ATOM     80  F   UNL A   1      46.113  32.815  26.340  1.00  0.00    -0.206 F 
ATOM     81  C   UNL A   1      47.206  34.841  29.138  1.00  0.00     0.006 A 
ENDBRANCH  53  74
BRANCH  65  82
ATOM     82  C   UNL A   1      49.436  26.266  26.759  1.00  0.00     0.057 A 
ATOM     83  C   UNL A   1      50.305  25.705  27.703  1.00  0.00     0.134 A 
ATOM     84  C   UNL A   1      49.936  26.476  25.467  1.00  0.00     0.134 A 
ATOM     85  F   UNL A   1      49.894  25.491  28.963  1.00  0.00    -0.206 F 
ATOM     86  C   UNL A   1      51.626  25.388  27.382  1.00  0.00     0.040 A 
ATOM     87  C   UNL A   1      51.245  26.135  25.126  1.00  0.00     0.040 A 
ATOM     88  F   UNL A   1      49.155  27.001  24.511  1.00  0.00    -0.206 F 
ATOM     89  C   UNL A   1      52.097  25.597  26.086  1.00  0.00     0.006 A 
ENDBRANCH  65  82
ENDBRANCH  39  40
ENDBRANCH  31  34
ENDBRANCH  29  30
ENDBRANCH  28  29
ENDBRANCH   1  28
TORSDOF 14
ENDMDL
