MODEL 1
REMARK VINA RESULT:     -13.6      0.000      0.000
REMARK SMILES Cc1cc(C[N@H+]2CC[C@@H](C(=O)NCCCNC(=O)c3ccc(-c4c5nc(c(-c6c(F)cccc6F)c6ccc([nH]6)c(-c6c(F)cccc6F)c6nc(c(-c7c(F)cccc7F)c7ccc4[nH]7)C=C6)C=C5)cc3)[C@@H]2C)ccc1Br
REMARK SMILES IDX 14 1 13 2 12 3 10 4 11 5 9 7 6 8 7 9 73 10 8 12 74 13 5 14
REMARK SMILES IDX 4 15 1 16 2 17 3 18 77 19 76 20 78 21 75 22 15 23 16 24
REMARK SMILES IDX 17 25 18 27 19 28 20 29 72 30 21 31 71 32 22 33 23 34 24 35
REMARK SMILES IDX 65 36 25 37 70 38 64 39 66 40 26 41 69 42 63 43 62 44 27 46
REMARK SMILES IDX 53 47 36 48 52 49 37 50 40 51 51 52 67 53 38 54 39 55 50 57
REMARK SMILES IDX 68 58 41 59 28 60 29 61 34 62 30 63 31 64 33 65 35 66 32 67
REMARK SMILES IDX 54 68 55 69 60 70 56 71 57 72 59 73 61 74 58 75 42 76 43 77
REMARK SMILES IDX 48 78 44 79 45 80 47 81 49 82 46 83
REMARK H PARENT 12 6 6 11 16 26 66 45 40 56
REMARK Flexibility Score: inf
ROOT
ATOM      1  C   UNL A   1      37.788  19.834  24.737  1.00  0.00     0.042 C 
ENDROOT
BRANCH   1   2
ATOM      2  C   UNL A   1      35.740  19.100  25.000  1.00  0.00     0.117 C 
BRANCH   2   3
ATOM      3  N   UNL A   1      34.328  19.857  25.044  1.00  0.00    -0.356 N 
ATOM      4  C   UNL A   1      33.923  21.147  25.117  1.00  0.00     0.229 C 
ATOM      5  O   UNL A   1      32.701  21.325  25.207  1.00  0.00    -0.275 OA
ATOM      6  H   UNL A   1      33.569  19.229  25.009  1.00  0.00     0.163 HD
BRANCH   4   7
ATOM      7  C   UNL A   1      34.849  22.355  25.111  1.00  0.00     0.142 C 
ATOM      8  N   UNL A   1      34.589  24.297  23.704  1.00  0.00    -0.328 N 
ATOM      9  C   UNL A   1      34.313  24.723  25.076  1.00  0.00     0.263 C 
ATOM     10  C   UNL A   1      35.146  22.939  23.731  1.00  0.00     0.193 C 
ATOM     11  H   UNL A   1      35.291  24.929  23.318  1.00  0.00     0.348 HD
ATOM     12  C   UNL A   1      34.404  23.508  25.990  1.00  0.00     0.081 C 
ATOM     13  C   UNL A   1      36.651  23.032  23.464  1.00  0.00     0.076 C 
BRANCH   8  14
ATOM     14  C   UNL A   1      33.494  24.492  22.748  1.00  0.00     0.299 C 
BRANCH  14  15
ATOM     15  C   UNL A   1      32.628  25.693  23.028  1.00  0.00     0.007 A 
ATOM     16  C   UNL A   1      28.347  26.704  23.877  1.00  0.00     0.045 C 
ATOM     17  C   UNL A   1      29.757  26.883  23.408  1.00  0.00    -0.036 A 
ATOM     18  C   UNL A   1      30.867  25.459  23.367  1.00  0.00     0.014 A 
ATOM     19  C   UNL A   1      30.406  28.537  23.083  1.00  0.00     0.020 A 
ATOM     20  C   UNL A   1      32.165  28.788  22.800  1.00  0.00     0.016 A 
ATOM     21  Br  UNL A   1      29.234  30.015  22.922  1.00  0.00    -0.051 Br
ATOM     22  C   UNL A   1      33.284  27.369  22.789  1.00  0.00     0.011 A 
ENDBRANCH  14  15
ENDBRANCH   8  14
ENDBRANCH   4   7
ENDBRANCH   2   3
ENDBRANCH   1   2
BRANCH   1  23
ATOM     23  C   UNL A   1      39.100  20.192  25.751  1.00  0.00     0.118 C 
BRANCH  23  24
ATOM     24  N   UNL A   1      40.134  19.165  25.845  1.00  0.00    -0.352 N 
ATOM     25  C   UNL A   1      41.483  19.303  25.976  1.00  0.00     0.251 C 
ATOM     26  H   UNL A   1      39.809  18.237  25.808  1.00  0.00     0.163 HD
ATOM     27  O   UNL A   1      42.229  18.347  25.793  1.00  0.00    -0.269 OA
BRANCH  25  28
ATOM     28  C   UNL A   1      42.025  20.612  26.358  1.00  0.00     0.039 A 
ATOM     29  C   UNL A   1      42.218  20.885  27.711  1.00  0.00     0.014 A 
ATOM     30  C   UNL A   1      42.298  21.572  25.377  1.00  0.00     0.014 A 
ATOM     31  C   UNL A   1      42.675  22.142  28.079  1.00  0.00     0.010 A 
ATOM     32  C   UNL A   1      42.861  22.781  25.738  1.00  0.00     0.010 A 
ATOM     33  C   UNL A   1      42.995  23.090  27.094  1.00  0.00    -0.014 A 
BRANCH  33  34
ATOM     34  C   UNL A   1      43.386  24.455  27.483  1.00  0.00     0.031 A 
ATOM     35  C   UNL A   1      44.820  24.875  27.343  1.00  0.00     0.074 A 
ATOM     36  C   UNL A   1      42.438  25.286  27.948  1.00  0.00     0.049 A 
ATOM     37  N   UNL A   1      45.360  26.043  27.568  1.00  0.00    -0.248 NA
ATOM     38  C   UNL A   1      45.785  23.842  26.925  1.00  0.00     0.031 C 
ATOM     39  C   UNL A   1      41.035  24.923  28.171  1.00  0.00     0.029 A 
ATOM     40  N   UNL A   1      42.504  26.605  28.296  1.00  0.00    -0.354 N 
ATOM     41  C   UNL A   1      46.718  25.879  27.325  1.00  0.00     0.074 A 
ATOM     42  C   UNL A   1      46.935  24.487  27.012  1.00  0.00     0.031 C 
ATOM     43  C   UNL A   1      40.361  26.014  28.566  1.00  0.00     0.029 A 
ATOM     44  C   UNL A   1      41.289  27.135  28.653  1.00  0.00     0.049 A 
ATOM     45  H   UNL A   1      43.340  27.124  28.291  1.00  0.00     0.167 HD
ATOM     46  C   UNL A   1      47.689  26.820  27.328  1.00  0.00     0.037 A 
ATOM     47  C   UNL A   1      40.971  28.395  28.992  1.00  0.00     0.037 A 
ATOM     48  C   UNL A   1      47.433  28.205  27.620  1.00  0.00     0.049 A 
ATOM     49  C   UNL A   1      42.062  29.428  28.963  1.00  0.00     0.074 A 
ATOM     50  C   UNL A   1      48.314  29.270  27.612  1.00  0.00     0.029 A 
ATOM     51  N   UNL A   1      46.189  28.712  27.971  1.00  0.00    -0.354 N 
ATOM     52  N   UNL A   1      43.331  29.281  28.660  1.00  0.00    -0.248 NA
ATOM     53  C   UNL A   1      41.678  30.800  29.310  1.00  0.00     0.031 C 
ATOM     54  C   UNL A   1      47.612  30.412  28.009  1.00  0.00     0.029 A 
ATOM     55  C   UNL A   1      46.282  30.072  28.206  1.00  0.00     0.049 A 
ATOM     56  H   UNL A   1      45.362  28.182  28.043  1.00  0.00     0.167 HD
ATOM     57  C   UNL A   1      43.896  30.544  28.759  1.00  0.00     0.074 A 
ATOM     58  C   UNL A   1      42.820  31.448  29.123  1.00  0.00     0.031 C 
ATOM     59  C   UNL A   1      45.183  30.930  28.573  1.00  0.00     0.037 A 
BRANCH  46  60
ATOM     60  C   UNL A   1      49.089  26.378  27.011  1.00  0.00     0.057 A 
ATOM     61  C   UNL A   1      49.984  25.967  28.011  1.00  0.00     0.134 A 
ATOM     62  C   UNL A   1      49.552  26.360  25.690  1.00  0.00     0.134 A 
ATOM     63  F   UNL A   1      49.615  25.978  29.301  1.00  0.00    -0.206 F 
ATOM     64  C   UNL A   1      51.294  25.587  27.711  1.00  0.00     0.040 A 
ATOM     65  C   UNL A   1      50.850  25.953  25.375  1.00  0.00     0.040 A 
ATOM     66  F   UNL A   1      48.754  26.742  24.682  1.00  0.00    -0.206 F 
ATOM     67  C   UNL A   1      51.728  25.571  26.387  1.00  0.00     0.006 A 
ENDBRANCH  46  60
BRANCH  47  68
ATOM     68  C   UNL A   1      39.569  28.742  29.333  1.00  0.00     0.057 A 
ATOM     69  C   UNL A   1      38.670  29.184  28.356  1.00  0.00     0.134 A 
ATOM     70  C   UNL A   1      39.086  28.620  30.642  1.00  0.00     0.134 A 
ATOM     71  F   UNL A   1      39.071  29.327  27.084  1.00  0.00    -0.206 F 
ATOM     72  C   UNL A   1      37.350  29.513  28.670  1.00  0.00     0.040 A 
ATOM     73  C   UNL A   1      37.762  28.919  30.966  1.00  0.00     0.040 A 
ATOM     74  F   UNL A   1      39.891  28.184  31.623  1.00  0.00    -0.206 F 
ATOM     75  C   UNL A   1      36.891  29.375  29.978  1.00  0.00     0.006 A 
ENDBRANCH  47  68
BRANCH  59  76
ATOM     76  C   UNL A   1      45.475  32.391  28.746  1.00  0.00     0.057 A 
ATOM     77  C   UNL A   1      45.886  32.921  29.975  1.00  0.00     0.134 A 
ATOM     78  C   UNL A   1      45.367  33.270  27.660  1.00  0.00     0.134 A 
ATOM     79  F   UNL A   1      45.998  32.131  31.054  1.00  0.00    -0.206 F 
ATOM     80  C   UNL A   1      46.144  34.284  30.128  1.00  0.00     0.040 A 
ATOM     81  C   UNL A   1      45.655  34.627  27.794  1.00  0.00     0.040 A 
ATOM     82  F   UNL A   1      44.991  32.821  26.453  1.00  0.00    -0.206 F 
ATOM     83  C   UNL A   1      46.034  35.139  29.034  1.00  0.00     0.006 A 
ENDBRANCH  59  76
ENDBRANCH  33  34
ENDBRANCH  25  28
ENDBRANCH  23  24
ENDBRANCH   1  23
TORSDOF 12
ENDMDL
MODEL 2
REMARK VINA RESULT:     -13.6      5.549     10.566
REMARK SMILES Cc1cc(C[N@H+]2CC[C@@H](C(=O)NCCCNC(=O)c3ccc(-c4c5nc(c(-c6c(F)cccc6F)c6ccc([nH]6)c(-c6c(F)cccc6F)c6nc(c(-c7c(F)cccc7F)c7ccc4[nH]7)C=C6)C=C5)cc3)[C@@H]2C)ccc1Br
REMARK SMILES IDX 14 1 13 2 12 3 10 4 11 5 9 7 6 8 7 9 73 10 8 12 74 13 5 14
REMARK SMILES IDX 4 15 1 16 2 17 3 18 77 19 76 20 78 21 75 22 15 23 16 24
REMARK SMILES IDX 17 25 18 27 19 28 20 29 72 30 21 31 71 32 22 33 23 34 24 35
REMARK SMILES IDX 65 36 25 37 70 38 64 39 66 40 26 41 69 42 63 43 62 44 27 46
REMARK SMILES IDX 53 47 36 48 52 49 37 50 40 51 51 52 67 53 38 54 39 55 50 57
REMARK SMILES IDX 68 58 41 59 28 60 29 61 34 62 30 63 31 64 33 65 35 66 32 67
REMARK SMILES IDX 54 68 55 69 60 70 56 71 57 72 59 73 61 74 58 75 42 76 43 77
REMARK SMILES IDX 48 78 44 79 45 80 47 81 49 82 46 83
REMARK H PARENT 12 6 6 11 16 26 66 45 40 56
REMARK Flexibility Score: inf
ROOT
ATOM      1  C   UNL A   1      31.332  31.953  26.523  1.00  0.00     0.042 C 
ENDROOT
BRANCH   1   2
ATOM      2  C   UNL A   1      31.052  30.402  25.001  1.00  0.00     0.117 C 
BRANCH   2   3
ATOM      3  N   UNL A   1      32.022  29.246  24.459  1.00  0.00    -0.356 N 
ATOM      4  C   UNL A   1      32.002  27.892  24.443  1.00  0.00     0.229 C 
ATOM      5  O   UNL A   1      33.010  27.342  23.981  1.00  0.00    -0.275 OA
ATOM      6  H   UNL A   1      32.831  29.611  24.031  1.00  0.00     0.163 HD
BRANCH   4   7
ATOM      7  C   UNL A   1      30.857  27.031  24.958  1.00  0.00     0.142 C 
ATOM      8  N   UNL A   1      30.396  24.770  24.254  1.00  0.00    -0.328 N 
ATOM      9  C   UNL A   1      30.853  24.701  25.642  1.00  0.00     0.263 C 
ATOM     10  C   UNL A   1      30.162  26.175  23.901  1.00  0.00     0.193 C 
ATOM     11  H   UNL A   1      29.510  24.267  24.194  1.00  0.00     0.348 HD
ATOM     12  C   UNL A   1      31.217  26.106  26.105  1.00  0.00     0.081 C 
ATOM     13  C   UNL A   1      28.650  26.418  23.876  1.00  0.00     0.076 C 
BRANCH   8  14
ATOM     14  C   UNL A   1      31.201  24.019  23.284  1.00  0.00     0.299 C 
BRANCH  14  15
ATOM     15  C   UNL A   1      32.337  23.237  23.890  1.00  0.00     0.007 A 
ATOM     16  C   UNL A   1      36.692  23.703  24.833  1.00  0.00     0.045 C 
ATOM     17  C   UNL A   1      35.400  23.023  24.503  1.00  0.00    -0.036 A 
ATOM     18  C   UNL A   1      33.959  24.020  24.065  1.00  0.00     0.014 A 
ATOM     19  C   UNL A   1      35.222  21.242  24.740  1.00  0.00     0.020 A 
ATOM     20  C   UNL A   1      33.604  20.462  24.624  1.00  0.00     0.016 A 
ATOM     21  Br  UNL A   1      36.746  20.149  25.001  1.00  0.00    -0.051 Br
ATOM     22  C   UNL A   1      32.155  21.461  24.216  1.00  0.00     0.011 A 
ENDBRANCH  14  15
ENDBRANCH   8  14
ENDBRANCH   4   7
ENDBRANCH   2   3
ENDBRANCH   1   2
BRANCH   1  23
ATOM     23  C   UNL A   1      32.652  32.735  27.247  1.00  0.00     0.118 C 
BRANCH  23  24
ATOM     24  N   UNL A   1      32.435  34.125  27.640  1.00  0.00    -0.352 N 
ATOM     25  C   UNL A   1      33.007  34.840  28.649  1.00  0.00     0.251 C 
ATOM     26  H   UNL A   1      31.779  34.618  27.096  1.00  0.00     0.163 HD
ATOM     27  O   UNL A   1      32.535  35.916  28.996  1.00  0.00    -0.269 OA
BRANCH  25  28
ATOM     28  C   UNL A   1      34.209  34.305  29.299  1.00  0.00     0.039 A 
ATOM     29  C   UNL A   1      35.454  34.602  28.747  1.00  0.00     0.014 A 
ATOM     30  C   UNL A   1      34.091  33.481  30.424  1.00  0.00     0.014 A 
ATOM     31  C   UNL A   1      36.588  34.051  29.324  1.00  0.00     0.010 A 
ATOM     32  C   UNL A   1      35.227  33.027  31.064  1.00  0.00     0.010 A 
ATOM     33  C   UNL A   1      36.476  33.262  30.482  1.00  0.00    -0.014 A 
BRANCH  33  34
ATOM     34  C   UNL A   1      37.665  32.597  31.039  1.00  0.00     0.031 A 
ATOM     35  C   UNL A   1      38.226  33.072  32.347  1.00  0.00     0.074 A 
ATOM     36  C   UNL A   1      38.207  31.575  30.356  1.00  0.00     0.049 A 
ATOM     37  N   UNL A   1      39.222  32.588  33.039  1.00  0.00    -0.248 NA
ATOM     38  C   UNL A   1      37.610  34.270  32.946  1.00  0.00     0.031 C 
ATOM     39  C   UNL A   1      37.752  31.101  29.045  1.00  0.00     0.029 A 
ATOM     40  N   UNL A   1      39.241  30.741  30.674  1.00  0.00    -0.354 N 
ATOM     41  C   UNL A   1      39.350  33.422  34.142  1.00  0.00     0.074 A 
ATOM     42  C   UNL A   1      38.387  34.487  33.993  1.00  0.00     0.031 C 
ATOM     43  C   UNL A   1      38.469  30.022  28.698  1.00  0.00     0.029 A 
ATOM     44  C   UNL A   1      39.449  29.753  29.744  1.00  0.00     0.049 A 
ATOM     45  H   UNL A   1      39.782  30.838  31.490  1.00  0.00     0.167 HD
ATOM     46  C   UNL A   1      40.177  33.285  35.204  1.00  0.00     0.037 A 
ATOM     47  C   UNL A   1      40.328  28.737  29.757  1.00  0.00     0.037 A 
ATOM     48  C   UNL A   1      41.108  32.197  35.333  1.00  0.00     0.049 A 
ATOM     49  C   UNL A   1      41.218  28.592  30.959  1.00  0.00     0.074 A 
ATOM     50  C   UNL A   1      41.970  31.913  36.376  1.00  0.00     0.029 A 
ATOM     51  N   UNL A   1      41.291  31.207  34.376  1.00  0.00    -0.354 N 
ATOM     52  N   UNL A   1      41.284  29.342  32.035  1.00  0.00    -0.248 NA
ATOM     53  C   UNL A   1      42.145  27.456  30.957  1.00  0.00     0.031 C 
ATOM     54  C   UNL A   1      42.711  30.779  36.025  1.00  0.00     0.029 A 
ATOM     55  C   UNL A   1      42.269  30.323  34.792  1.00  0.00     0.049 A 
ATOM     56  H   UNL A   1      40.798  31.145  33.526  1.00  0.00     0.167 HD
ATOM     57  C   UNL A   1      42.244  28.760  32.848  1.00  0.00     0.074 A 
ATOM     58  C   UNL A   1      42.711  27.576  32.149  1.00  0.00     0.031 C 
ATOM     59  C   UNL A   1      42.707  29.161  34.058  1.00  0.00     0.037 A 
BRANCH  46  60
ATOM     60  C   UNL A   1      40.105  34.328  36.283  1.00  0.00     0.057 A 
ATOM     61  C   UNL A   1      39.242  34.203  37.383  1.00  0.00     0.134 A 
ATOM     62  C   UNL A   1      40.908  35.472  36.226  1.00  0.00     0.134 A 
ATOM     63  F   UNL A   1      38.428  33.141  37.492  1.00  0.00    -0.206 F 
ATOM     64  C   UNL A   1      39.159  35.191  38.366  1.00  0.00     0.040 A 
ATOM     65  C   UNL A   1      40.856  36.454  37.220  1.00  0.00     0.040 A 
ATOM     66  F   UNL A   1      41.756  35.662  35.204  1.00  0.00    -0.206 F 
ATOM     67  C   UNL A   1      39.974  36.318  38.290  1.00  0.00     0.006 A 
ENDBRANCH  46  60
BRANCH  47  68
ATOM     68  C   UNL A   1      40.365  27.772  28.630  1.00  0.00     0.057 A 
ATOM     69  C   UNL A   1      41.134  28.017  27.487  1.00  0.00     0.134 A 
ATOM     70  C   UNL A   1      39.649  26.569  28.678  1.00  0.00     0.134 A 
ATOM     71  F   UNL A   1      41.839  29.152  27.377  1.00  0.00    -0.206 F 
ATOM     72  C   UNL A   1      41.172  27.113  26.423  1.00  0.00     0.040 A 
ATOM     73  C   UNL A   1      39.700  25.644  27.634  1.00  0.00     0.040 A 
ATOM     74  F   UNL A   1      38.907  26.264  29.753  1.00  0.00    -0.206 F 
ATOM     75  C   UNL A   1      40.457  25.920  26.498  1.00  0.00     0.006 A 
ENDBRANCH  47  68
BRANCH  59  76
ATOM     76  C   UNL A   1      43.754  28.296  34.695  1.00  0.00     0.057 A 
ATOM     77  C   UNL A   1      45.121  28.518  34.486  1.00  0.00     0.134 A 
ATOM     78  C   UNL A   1      43.386  27.245  35.545  1.00  0.00     0.134 A 
ATOM     79  F   UNL A   1      45.535  29.503  33.674  1.00  0.00    -0.206 F 
ATOM     80  C   UNL A   1      46.087  27.701  35.073  1.00  0.00     0.040 A 
ATOM     81  C   UNL A   1      44.345  26.443  36.163  1.00  0.00     0.040 A 
ATOM     82  F   UNL A   1      42.093  26.990  35.795  1.00  0.00    -0.206 F 
ATOM     83  C   UNL A   1      45.699  26.663  35.919  1.00  0.00     0.006 A 
ENDBRANCH  59  76
ENDBRANCH  33  34
ENDBRANCH  25  28
ENDBRANCH  23  24
ENDBRANCH   1  23
TORSDOF 12
ENDMDL
MODEL 3
REMARK VINA RESULT:     -13.5      1.162      1.817
REMARK SMILES Cc1cc(C[N@H+]2CC[C@@H](C(=O)NCCCNC(=O)c3ccc(-c4c5nc(c(-c6c(F)cccc6F)c6ccc([nH]6)c(-c6c(F)cccc6F)c6nc(c(-c7c(F)cccc7F)c7ccc4[nH]7)C=C6)C=C5)cc3)[C@@H]2C)ccc1Br
REMARK SMILES IDX 14 1 13 2 12 3 10 4 11 5 9 7 6 8 7 9 73 10 8 12 74 13 5 14
REMARK SMILES IDX 4 15 1 16 2 17 3 18 77 19 76 20 78 21 75 22 15 23 16 24
REMARK SMILES IDX 17 25 18 27 19 28 20 29 72 30 21 31 71 32 22 33 23 34 24 35
REMARK SMILES IDX 65 36 25 37 70 38 64 39 66 40 26 41 69 42 63 43 62 44 27 46
REMARK SMILES IDX 53 47 36 48 52 49 37 50 40 51 51 52 67 53 38 54 39 55 50 57
REMARK SMILES IDX 68 58 41 59 28 60 29 61 34 62 30 63 31 64 33 65 35 66 32 67
REMARK SMILES IDX 54 68 55 69 60 70 56 71 57 72 59 73 61 74 58 75 42 76 43 77
REMARK SMILES IDX 48 78 44 79 45 80 47 81 49 82 46 83
REMARK H PARENT 12 6 6 11 16 26 66 45 40 56
REMARK Flexibility Score: inf
ROOT
ATOM      1  C   UNL A   1      37.692  19.752  24.921  1.00  0.00     0.042 C 
ENDROOT
BRANCH   1   2
ATOM      2  C   UNL A   1      35.574  20.307  25.001  1.00  0.00     0.117 C 
BRANCH   2   3
ATOM      3  N   UNL A   1      34.825  21.591  25.602  1.00  0.00    -0.356 N 
ATOM      4  C   UNL A   1      34.077  22.600  25.097  1.00  0.00     0.229 C 
ATOM      5  O   UNL A   1      33.730  23.472  25.904  1.00  0.00    -0.275 OA
ATOM      6  H   UNL A   1      34.937  21.663  26.578  1.00  0.00     0.163 HD
BRANCH   4   7
ATOM      7  C   UNL A   1      33.661  22.733  23.638  1.00  0.00     0.142 C 
ATOM      8  N   UNL A   1      31.665  23.842  22.858  1.00  0.00    -0.328 N 
ATOM      9  C   UNL A   1      32.801  24.662  22.438  1.00  0.00     0.263 C 
ATOM     10  C   UNL A   1      32.168  22.561  23.369  1.00  0.00     0.193 C 
ATOM     11  H   UNL A   1      31.091  23.661  22.034  1.00  0.00     0.348 HD
ATOM     12  C   UNL A   1      34.081  24.028  22.968  1.00  0.00     0.081 C 
ATOM     13  C   UNL A   1      31.900  21.485  22.313  1.00  0.00     0.076 C 
BRANCH   8  14
ATOM     14  C   UNL A   1      30.690  24.509  23.728  1.00  0.00     0.299 C 
BRANCH  14  15
ATOM     15  C   UNL A   1      31.045  25.928  24.089  1.00  0.00     0.007 A 
ATOM     16  C   UNL A   1      33.259  28.203  27.250  1.00  0.00     0.045 C 
ATOM     17  C   UNL A   1      32.260  27.927  26.169  1.00  0.00    -0.036 A 
ATOM     18  C   UNL A   1      32.071  26.243  25.545  1.00  0.00     0.014 A 
ATOM     19  C   UNL A   1      31.404  29.290  25.351  1.00  0.00     0.020 A 
ATOM     20  C   UNL A   1      30.426  28.996  23.869  1.00  0.00     0.016 A 
ATOM     21  Br  UNL A   1      31.424  31.028  26.102  1.00  0.00    -0.051 Br
ATOM     22  C   UNL A   1      30.259  27.316  23.224  1.00  0.00     0.011 A 
ENDBRANCH  14  15
ENDBRANCH   8  14
ENDBRANCH   4   7
ENDBRANCH   2   3
ENDBRANCH   1   2
BRANCH   1  23
ATOM     23  C   UNL A   1      39.106  20.190  25.749  1.00  0.00     0.118 C 
BRANCH  23  24
ATOM     24  N   UNL A   1      40.144  19.166  25.829  1.00  0.00    -0.352 N 
ATOM     25  C   UNL A   1      41.493  19.308  25.956  1.00  0.00     0.251 C 
ATOM     26  H   UNL A   1      39.822  18.237  25.783  1.00  0.00     0.163 HD
ATOM     27  O   UNL A   1      42.242  18.357  25.760  1.00  0.00    -0.269 OA
BRANCH  25  28
ATOM     28  C   UNL A   1      42.031  20.615  26.350  1.00  0.00     0.039 A 
ATOM     29  C   UNL A   1      42.203  20.885  27.706  1.00  0.00     0.014 A 
ATOM     30  C   UNL A   1      42.322  21.577  25.376  1.00  0.00     0.014 A 
ATOM     31  C   UNL A   1      42.656  22.139  28.085  1.00  0.00     0.010 A 
ATOM     32  C   UNL A   1      42.881  22.784  25.748  1.00  0.00     0.010 A 
ATOM     33  C   UNL A   1      42.993  23.090  27.107  1.00  0.00    -0.014 A 
BRANCH  33  34
ATOM     34  C   UNL A   1      43.380  24.453  27.506  1.00  0.00     0.031 A 
ATOM     35  C   UNL A   1      44.816  24.874  27.381  1.00  0.00     0.074 A 
ATOM     36  C   UNL A   1      42.428  25.282  27.966  1.00  0.00     0.049 A 
ATOM     37  N   UNL A   1      45.354  26.041  27.615  1.00  0.00    -0.248 NA
ATOM     38  C   UNL A   1      45.784  23.843  26.966  1.00  0.00     0.031 C 
ATOM     39  C   UNL A   1      41.024  24.918  28.176  1.00  0.00     0.029 A 
ATOM     40  N   UNL A   1      42.491  26.599  28.321  1.00  0.00    -0.354 N 
ATOM     41  C   UNL A   1      46.713  25.878  27.383  1.00  0.00     0.074 A 
ATOM     42  C   UNL A   1      46.934  24.487  27.066  1.00  0.00     0.031 C 
ATOM     43  C   UNL A   1      40.345  26.006  28.570  1.00  0.00     0.029 A 
ATOM     44  C   UNL A   1      41.273  27.127  28.669  1.00  0.00     0.049 A 
ATOM     45  H   UNL A   1      43.327  27.119  28.326  1.00  0.00     0.167 HD
ATOM     46  C   UNL A   1      47.684  26.820  27.399  1.00  0.00     0.037 A 
ATOM     47  C   UNL A   1      40.951  28.386  29.011  1.00  0.00     0.037 A 
ATOM     48  C   UNL A   1      47.426  28.203  27.695  1.00  0.00     0.049 A 
ATOM     49  C   UNL A   1      42.043  29.419  28.997  1.00  0.00     0.074 A 
ATOM     50  C   UNL A   1      48.306  29.268  27.700  1.00  0.00     0.029 A 
ATOM     51  N   UNL A   1      46.178  28.709  28.038  1.00  0.00    -0.354 N 
ATOM     52  N   UNL A   1      43.315  29.274  28.704  1.00  0.00    -0.248 NA
ATOM     53  C   UNL A   1      41.655  30.789  29.346  1.00  0.00     0.031 C 
ATOM     54  C   UNL A   1      47.600  30.409  28.096  1.00  0.00     0.029 A 
ATOM     55  C   UNL A   1      46.269  30.067  28.280  1.00  0.00     0.049 A 
ATOM     56  H   UNL A   1      45.351  28.178  28.100  1.00  0.00     0.167 HD
ATOM     57  C   UNL A   1      43.878  30.536  28.814  1.00  0.00     0.074 A 
ATOM     58  C   UNL A   1      42.798  31.438  29.172  1.00  0.00     0.031 C 
ATOM     59  C   UNL A   1      45.166  30.924  28.641  1.00  0.00     0.037 A 
BRANCH  46  60
ATOM     60  C   UNL A   1      49.087  26.380  27.093  1.00  0.00     0.057 A 
ATOM     61  C   UNL A   1      49.977  25.972  28.099  1.00  0.00     0.134 A 
ATOM     62  C   UNL A   1      49.559  26.359  25.775  1.00  0.00     0.134 A 
ATOM     63  F   UNL A   1      49.599  25.985  29.387  1.00  0.00    -0.206 F 
ATOM     64  C   UNL A   1      51.289  25.593  27.809  1.00  0.00     0.040 A 
ATOM     65  C   UNL A   1      50.860  25.953  25.469  1.00  0.00     0.040 A 
ATOM     66  F   UNL A   1      48.766  26.737  24.761  1.00  0.00    -0.206 F 
ATOM     67  C   UNL A   1      51.732  25.576  26.488  1.00  0.00     0.006 A 
ENDBRANCH  46  60
BRANCH  47  68
ATOM     68  C   UNL A   1      39.547  28.731  29.342  1.00  0.00     0.057 A 
ATOM     69  C   UNL A   1      39.061  28.632  30.650  1.00  0.00     0.134 A 
ATOM     70  C   UNL A   1      38.659  29.191  28.360  1.00  0.00     0.134 A 
ATOM     71  F   UNL A   1      39.858  28.194  31.636  1.00  0.00    -0.206 F 
ATOM     72  C   UNL A   1      37.740  28.954  30.968  1.00  0.00     0.040 A 
ATOM     73  C   UNL A   1      37.344  29.543  28.667  1.00  0.00     0.040 A 
ATOM     74  F   UNL A   1      39.067  29.327  27.089  1.00  0.00    -0.206 F 
ATOM     75  C   UNL A   1      36.879  29.417  29.974  1.00  0.00     0.006 A 
ENDBRANCH  47  68
BRANCH  59  76
ATOM     76  C   UNL A   1      45.456  32.384  28.823  1.00  0.00     0.057 A 
ATOM     77  C   UNL A   1      45.854  32.909  30.058  1.00  0.00     0.134 A 
ATOM     78  C   UNL A   1      45.360  33.267  27.740  1.00  0.00     0.134 A 
ATOM     79  F   UNL A   1      45.954  32.115  31.136  1.00  0.00    -0.206 F 
ATOM     80  C   UNL A   1      46.110  34.271  30.220  1.00  0.00     0.040 A 
ATOM     81  C   UNL A   1      45.647  34.624  27.882  1.00  0.00     0.040 A 
ATOM     82  F   UNL A   1      44.998  32.823  26.527  1.00  0.00    -0.206 F 
ATOM     83  C   UNL A   1      46.012  35.131  29.128  1.00  0.00     0.006 A 
ENDBRANCH  59  76
ENDBRANCH  33  34
ENDBRANCH  25  28
ENDBRANCH  23  24
ENDBRANCH   1  23
TORSDOF 12
ENDMDL
