MODEL 1
REMARK VINA RESULT:     -12.5      0.000      0.000
REMARK SMILES Cc1cc(C)cc(N(C)S(=O)(=O)c2ccc(F)c(C(=O)NCCCNC(=O)c3ccc(-c4c5nc(c(-c6c(F)cccc6F)c6ccc([nH]6)c(-c6c(F)cccc6F)c6nc(c(-c7c(F)cccc7F)c7ccc4[nH]7)C=C6)C=C5)cc3)c2)c1
REMARK SMILES IDX 22 1 21 2 19 3 20 4 18 6 13 7 14 8 82 9 15 10 16 11 17 12
REMARK SMILES IDX 10 13 11 14 12 15 8 16 9 17 7 18 1 19 2 20 3 21 83 22 4 23
REMARK SMILES IDX 5 24 6 25 23 26 24 27 25 28 26 29 27 31 28 32 29 33 81 34
REMARK SMILES IDX 30 35 80 36 31 37 32 38 33 39 74 40 34 41 79 42 73 43 75 44
REMARK SMILES IDX 35 45 78 46 72 47 71 48 36 50 62 51 45 52 61 53 46 54 49 55
REMARK SMILES IDX 60 56 76 57 47 58 48 59 59 61 77 62 50 63 37 64 38 65 43 66
REMARK SMILES IDX 39 67 40 68 42 69 44 70 41 71 63 72 64 73 69 74 65 75 66 76
REMARK SMILES IDX 68 77 70 78 67 79 51 80 52 81 57 82 53 83 54 84 56 85 58 86
REMARK SMILES IDX 55 87
REMARK H PARENT 21 5 25 30 75 49 49 60
REMARK Flexibility Score: inf
ROOT
ATOM      1  C   UNL A   1      36.134  20.031  24.979  1.00  0.00     0.118 C 
ENDROOT
BRANCH   1   2
ATOM      2  N   UNL A   1      34.992  19.144  24.979  1.00  0.00    -0.352 N 
ATOM      3  C   UNL A   1      33.667  19.334  24.722  1.00  0.00     0.254 C 
ATOM      4  O   UNL A   1      32.932  18.348  24.844  1.00  0.00    -0.269 OA
ATOM      5  H   UNL A   1      35.216  18.214  25.212  1.00  0.00     0.163 HD
BRANCH   3   6
ATOM      6  C   UNL A   1      33.039  20.602  24.274  1.00  0.00     0.076 A 
ATOM      7  C   UNL A   1      33.005  23.009  24.716  1.00  0.00     0.089 A 
ATOM      8  C   UNL A   1      32.282  23.207  23.533  1.00  0.00     0.025 A 
ATOM      9  C   UNL A   1      33.288  21.705  25.116  1.00  0.00     0.039 A 
ATOM     10  C   UNL A   1      31.935  22.113  22.735  1.00  0.00     0.041 A 
ATOM     11  C   UNL A   1      32.358  20.828  23.082  1.00  0.00     0.136 A 
ATOM     12  F   UNL A   1      32.105  19.855  22.202  1.00  0.00    -0.206 F 
BRANCH   7  13
ATOM     13  S   UNL A   1      33.406  24.435  25.735  1.00  0.00     0.264 S 
ATOM     14  O   UNL A   1      34.085  25.358  24.851  1.00  0.00    -0.201 OA
ATOM     15  O   UNL A   1      34.092  23.861  26.879  1.00  0.00    -0.201 OA
BRANCH  13  16
ATOM     16  N   UNL A   1      31.941  25.211  26.327  1.00  0.00    -0.269 N 
ATOM     17  C   UNL A   1      30.743  24.329  26.304  1.00  0.00     0.164 C 
BRANCH  16  18
ATOM     18  C   UNL A   1      31.719  26.588  25.787  1.00  0.00     0.052 A 
ATOM     19  C   UNL A   1      32.299  30.235  26.814  1.00  0.00     0.044 C 
ATOM     20  C   UNL A   1      31.843  29.039  26.032  1.00  0.00    -0.049 A 
ATOM     21  C   UNL A   1      31.137  29.217  24.843  1.00  0.00     0.007 A 
ATOM     22  C   UNL A   1      32.098  27.736  26.500  1.00  0.00     0.030 A 
ATOM     23  C   UNL A   1      30.682  28.110  24.133  1.00  0.00    -0.049 A 
ATOM     24  C   UNL A   1      29.886  28.308  22.875  1.00  0.00     0.044 C 
ATOM     25  C   UNL A   1      30.961  26.818  24.619  1.00  0.00     0.030 A 
ENDBRANCH  16  18
ENDBRANCH  13  16
ENDBRANCH   7  13
ENDBRANCH   3   6
ENDBRANCH   1   2
BRANCH   1  26
ATOM     26  C   UNL A   1      37.440  19.237  24.948  1.00  0.00     0.042 C 
BRANCH  26  27
ATOM     27  C   UNL A   1      38.659  20.042  25.395  1.00  0.00     0.118 C 
BRANCH  27  28
ATOM     28  N   UNL A   1      39.812  19.192  25.646  1.00  0.00    -0.352 N 
ATOM     29  C   UNL A   1      41.084  19.522  26.034  1.00  0.00     0.251 C 
ATOM     30  H   UNL A   1      39.654  18.229  25.516  1.00  0.00     0.163 HD
ATOM     31  O   UNL A   1      41.982  18.692  25.925  1.00  0.00    -0.269 OA
BRANCH  29  32
ATOM     32  C   UNL A   1      41.388  20.858  26.591  1.00  0.00     0.039 A 
ATOM     33  C   UNL A   1      41.903  21.839  25.736  1.00  0.00     0.014 A 
ATOM     34  C   UNL A   1      41.248  21.127  27.955  1.00  0.00     0.014 A 
ATOM     35  C   UNL A   1      42.245  23.093  26.243  1.00  0.00     0.010 A 
ATOM     36  C   UNL A   1      41.525  22.402  28.448  1.00  0.00     0.010 A 
ATOM     37  C   UNL A   1      42.042  23.391  27.600  1.00  0.00    -0.014 A 
BRANCH  37  38
ATOM     38  C   UNL A   1      42.382  24.729  28.146  1.00  0.00     0.031 A 
ATOM     39  C   UNL A   1      43.799  25.052  28.536  1.00  0.00     0.074 A 
ATOM     40  C   UNL A   1      41.409  25.642  28.320  1.00  0.00     0.049 A 
ATOM     41  N   UNL A   1      44.280  26.151  29.060  1.00  0.00    -0.248 NA
ATOM     42  C   UNL A   1      44.803  23.994  28.336  1.00  0.00     0.031 C 
ATOM     43  C   UNL A   1      39.992  25.432  28.016  1.00  0.00     0.029 A 
ATOM     44  N   UNL A   1      41.461  26.928  28.793  1.00  0.00    -0.354 N 
ATOM     45  C   UNL A   1      45.634  25.912  29.261  1.00  0.00     0.074 A 
ATOM     46  C   UNL A   1      45.890  24.549  28.850  1.00  0.00     0.031 C 
ATOM     47  C   UNL A   1      39.316  26.561  28.280  1.00  0.00     0.029 A 
ATOM     48  C   UNL A   1      40.243  27.562  28.799  1.00  0.00     0.049 A 
ATOM     49  H   UNL A   1      42.292  27.357  29.101  1.00  0.00     0.167 HD
ATOM     50  C   UNL A   1      46.583  26.763  29.722  1.00  0.00     0.037 A 
ATOM     51  C   UNL A   1      39.909  28.811  29.178  1.00  0.00     0.037 A 
ATOM     52  C   UNL A   1      46.331  28.128  30.100  1.00  0.00     0.049 A 
ATOM     53  C   UNL A   1      40.982  29.738  29.675  1.00  0.00     0.074 A 
ATOM     54  C   UNL A   1      47.234  29.081  30.534  1.00  0.00     0.029 A 
ATOM     55  N   UNL A   1      45.084  28.735  30.080  1.00  0.00    -0.354 N 
ATOM     56  N   UNL A   1      42.265  29.513  29.818  1.00  0.00    -0.248 NA
ATOM     57  C   UNL A   1      40.562  31.094  30.056  1.00  0.00     0.031 C 
ATOM     58  C   UNL A   1      46.528  30.257  30.811  1.00  0.00     0.029 A 
ATOM     59  C   UNL A   1      45.193  30.048  30.507  1.00  0.00     0.049 A 
ATOM     60  H   UNL A   1      44.246  28.297  29.804  1.00  0.00     0.167 HD
ATOM     61  C   UNL A   1      42.810  30.702  30.284  1.00  0.00     0.074 A 
ATOM     62  C   UNL A   1      41.720  31.650  30.386  1.00  0.00     0.031 C 
ATOM     63  C   UNL A   1      44.099  30.981  30.598  1.00  0.00     0.037 A 
BRANCH  50  64
ATOM     64  C   UNL A   1      47.988  26.247  29.830  1.00  0.00     0.057 A 
ATOM     65  C   UNL A   1      48.462  25.699  31.029  1.00  0.00     0.134 A 
ATOM     66  C   UNL A   1      48.891  26.346  28.764  1.00  0.00     0.134 A 
ATOM     67  F   UNL A   1      47.652  25.581  32.092  1.00  0.00    -0.206 F 
ATOM     68  C   UNL A   1      49.786  25.277  31.166  1.00  0.00     0.040 A 
ATOM     69  C   UNL A   1      50.211  25.905  28.881  1.00  0.00     0.040 A 
ATOM     70  F   UNL A   1      48.498  26.851  27.585  1.00  0.00    -0.206 F 
ATOM     71  C   UNL A   1      50.663  25.376  30.088  1.00  0.00     0.006 A 
ENDBRANCH  50  64
BRANCH  51  72
ATOM     72  C   UNL A   1      38.503  29.263  29.052  1.00  0.00     0.057 A 
ATOM     73  C   UNL A   1      37.626  29.249  30.143  1.00  0.00     0.134 A 
ATOM     74  C   UNL A   1      37.994  29.692  27.821  1.00  0.00     0.134 A 
ATOM     75  F   UNL A   1      38.050  28.839  31.348  1.00  0.00    -0.206 F 
ATOM     76  C   UNL A   1      36.289  29.629  30.011  1.00  0.00     0.040 A 
ATOM     77  C   UNL A   1      36.666  30.096  27.679  1.00  0.00     0.040 A 
ATOM     78  F   UNL A   1      38.791  29.743  26.743  1.00  0.00    -0.206 F 
ATOM     79  C   UNL A   1      35.807  30.058  28.776  1.00  0.00     0.006 A 
ENDBRANCH  51  72
BRANCH  63  80
ATOM     80  C   UNL A   1      44.411  32.372  31.061  1.00  0.00     0.057 A 
ATOM     81  C   UNL A   1      44.343  32.702  32.420  1.00  0.00     0.134 A 
ATOM     82  C   UNL A   1      44.709  33.399  30.158  1.00  0.00     0.134 A 
ATOM     83  F   UNL A   1      44.052  31.766  33.336  1.00  0.00    -0.206 F 
ATOM     84  C   UNL A   1      44.550  34.008  32.864  1.00  0.00     0.040 A 
ATOM     85  C   UNL A   1      44.941  34.704  30.592  1.00  0.00     0.040 A 
ATOM     86  F   UNL A   1      44.798  33.144  28.844  1.00  0.00    -0.206 F 
ATOM     87  C   UNL A   1      44.854  35.014  31.948  1.00  0.00     0.006 A 
ENDBRANCH  63  80
ENDBRANCH  37  38
ENDBRANCH  29  32
ENDBRANCH  27  28
ENDBRANCH  26  27
ENDBRANCH   1  26
TORSDOF 13
ENDMDL
MODEL 2
REMARK VINA RESULT:     -12.5      0.403      6.127
REMARK SMILES Cc1cc(C)cc(N(C)S(=O)(=O)c2ccc(F)c(C(=O)NCCCNC(=O)c3ccc(-c4c5nc(c(-c6c(F)cccc6F)c6ccc([nH]6)c(-c6c(F)cccc6F)c6nc(c(-c7c(F)cccc7F)c7ccc4[nH]7)C=C6)C=C5)cc3)c2)c1
REMARK SMILES IDX 22 1 21 2 19 3 20 4 18 6 13 7 14 8 82 9 15 10 16 11 17 12
REMARK SMILES IDX 10 13 11 14 12 15 8 16 9 17 7 18 1 19 2 20 3 21 83 22 4 23
REMARK SMILES IDX 5 24 6 25 23 26 24 27 25 28 26 29 27 31 28 32 29 33 81 34
REMARK SMILES IDX 30 35 80 36 31 37 32 38 33 39 74 40 34 41 79 42 73 43 75 44
REMARK SMILES IDX 35 45 78 46 72 47 71 48 36 50 62 51 45 52 61 53 46 54 49 55
REMARK SMILES IDX 60 56 76 57 47 58 48 59 59 61 77 62 50 63 37 64 38 65 43 66
REMARK SMILES IDX 39 67 40 68 42 69 44 70 41 71 63 72 64 73 69 74 65 75 66 76
REMARK SMILES IDX 68 77 70 78 67 79 51 80 52 81 57 82 53 83 54 84 56 85 58 86
REMARK SMILES IDX 55 87
REMARK H PARENT 21 5 25 30 75 49 49 60
REMARK Flexibility Score: inf
ROOT
ATOM      1  C   UNL A   1      36.204  20.317  24.964  1.00  0.00     0.118 C 
ENDROOT
BRANCH   1   2
ATOM      2  N   UNL A   1      35.006  19.512  25.069  1.00  0.00    -0.352 N 
ATOM      3  C   UNL A   1      33.692  19.764  24.809  1.00  0.00     0.254 C 
ATOM      4  O   UNL A   1      32.897  18.846  25.041  1.00  0.00    -0.269 OA
ATOM      5  H   UNL A   1      35.174  18.598  25.395  1.00  0.00     0.163 HD
BRANCH   3   6
ATOM      6  C   UNL A   1      33.140  21.017  24.238  1.00  0.00     0.076 A 
ATOM      7  C   UNL A   1      33.313  23.454  24.388  1.00  0.00     0.089 A 
ATOM      8  C   UNL A   1      32.546  23.571  23.222  1.00  0.00     0.025 A 
ATOM      9  C   UNL A   1      33.515  22.187  24.930  1.00  0.00     0.039 A 
ATOM     10  C   UNL A   1      32.076  22.424  22.578  1.00  0.00     0.041 A 
ATOM     11  C   UNL A   1      32.417  21.158  23.058  1.00  0.00     0.136 A 
ATOM     12  F   UNL A   1      32.045  20.113  22.313  1.00  0.00    -0.206 F 
BRANCH   7  13
ATOM     13  S   UNL A   1      33.873  24.951  25.210  1.00  0.00     0.264 S 
ATOM     14  O   UNL A   1      34.220  25.866  24.144  1.00  0.00    -0.201 OA
ATOM     15  O   UNL A   1      34.883  24.479  26.141  1.00  0.00    -0.201 OA
BRANCH  13  16
ATOM     16  N   UNL A   1      32.572  25.669  26.155  1.00  0.00    -0.269 N 
ATOM     17  C   UNL A   1      31.509  24.704  26.544  1.00  0.00     0.164 C 
BRANCH  16  18
ATOM     18  C   UNL A   1      32.073  26.972  25.615  1.00  0.00     0.052 A 
ATOM     19  C   UNL A   1      32.098  30.693  26.533  1.00  0.00     0.044 C 
ATOM     20  C   UNL A   1      31.792  29.414  25.811  1.00  0.00    -0.049 A 
ATOM     21  C   UNL A   1      30.971  29.433  24.685  1.00  0.00     0.007 A 
ATOM     22  C   UNL A   1      32.306  28.188  26.276  1.00  0.00     0.030 A 
ATOM     23  C   UNL A   1      30.657  28.244  24.033  1.00  0.00    -0.049 A 
ATOM     24  C   UNL A   1      29.738  28.266  22.845  1.00  0.00     0.044 C 
ATOM     25  C   UNL A   1      31.194  27.034  24.514  1.00  0.00     0.030 A 
ENDBRANCH  16  18
ENDBRANCH  13  16
ENDBRANCH   7  13
ENDBRANCH   3   6
ENDBRANCH   1   2
BRANCH   1  26
ATOM     26  C   UNL A   1      37.453  19.436  24.962  1.00  0.00     0.042 C 
BRANCH  26  27
ATOM     27  C   UNL A   1      38.714  20.157  25.435  1.00  0.00     0.118 C 
BRANCH  27  28
ATOM     28  N   UNL A   1      39.806  19.232  25.696  1.00  0.00    -0.352 N 
ATOM     29  C   UNL A   1      41.105  19.479  26.055  1.00  0.00     0.251 C 
ATOM     30  H   UNL A   1      39.575  18.280  25.597  1.00  0.00     0.163 HD
ATOM     31  O   UNL A   1      41.938  18.582  25.959  1.00  0.00    -0.269 OA
BRANCH  29  32
ATOM     32  C   UNL A   1      41.514  20.805  26.567  1.00  0.00     0.039 A 
ATOM     33  C   UNL A   1      41.373  21.068  27.934  1.00  0.00     0.014 A 
ATOM     34  C   UNL A   1      41.957  21.812  25.705  1.00  0.00     0.014 A 
ATOM     35  C   UNL A   1      41.705  22.327  28.437  1.00  0.00     0.010 A 
ATOM     36  C   UNL A   1      42.353  23.047  26.219  1.00  0.00     0.010 A 
ATOM     37  C   UNL A   1      42.216  23.321  27.587  1.00  0.00    -0.014 A 
BRANCH  37  38
ATOM     38  C   UNL A   1      42.592  24.656  28.115  1.00  0.00     0.031 A 
ATOM     39  C   UNL A   1      41.545  25.719  28.309  1.00  0.00     0.074 A 
ATOM     40  C   UNL A   1      43.883  24.921  28.390  1.00  0.00     0.049 A 
ATOM     41  N   UNL A   1      41.688  26.951  28.727  1.00  0.00    -0.248 NA
ATOM     42  C   UNL A   1      40.159  25.359  27.966  1.00  0.00     0.031 C 
ATOM     43  C   UNL A   1      44.993  23.985  28.206  1.00  0.00     0.029 A 
ATOM     44  N   UNL A   1      44.479  26.053  28.883  1.00  0.00    -0.354 N 
ATOM     45  C   UNL A   1      40.418  27.514  28.685  1.00  0.00     0.074 A 
ATOM     46  C   UNL A   1      39.526  26.507  28.155  1.00  0.00     0.031 C 
ATOM     47  C   UNL A   1      46.131  24.570  28.612  1.00  0.00     0.029 A 
ATOM     48  C   UNL A   1      45.836  25.930  29.054  1.00  0.00     0.049 A 
ATOM     49  H   UNL A   1      43.983  26.877  29.094  1.00  0.00     0.167 HD
ATOM     50  C   UNL A   1      40.029  28.751  29.077  1.00  0.00     0.037 A 
ATOM     51  C   UNL A   1      46.742  26.812  29.518  1.00  0.00     0.037 A 
ATOM     52  C   UNL A   1      40.914  29.739  29.633  1.00  0.00     0.049 A 
ATOM     53  C   UNL A   1      46.283  28.173  29.958  1.00  0.00     0.074 A 
ATOM     54  C   UNL A   1      40.606  31.003  30.103  1.00  0.00     0.029 A 
ATOM     55  N   UNL A   1      42.281  29.570  29.800  1.00  0.00    -0.354 N 
ATOM     56  N   UNL A   1      45.073  28.676  29.954  1.00  0.00    -0.248 NA
ATOM     57  C   UNL A   1      47.313  29.086  30.473  1.00  0.00     0.031 C 
ATOM     58  C   UNL A   1      41.793  31.614  30.523  1.00  0.00     0.029 A 
ATOM     59  C   UNL A   1      42.832  30.713  30.356  1.00  0.00     0.049 A 
ATOM     60  H   UNL A   1      42.784  28.759  29.559  1.00  0.00     0.167 HD
ATOM     61  C   UNL A   1      45.190  29.954  30.485  1.00  0.00     0.074 A 
ATOM     62  C   UNL A   1      46.588  30.144  30.813  1.00  0.00     0.031 C 
ATOM     63  C   UNL A   1      44.224  30.884  30.681  1.00  0.00     0.037 A 
BRANCH  50  64
ATOM     64  C   UNL A   1      38.576  29.102  28.934  1.00  0.00     0.057 A 
ATOM     65  C   UNL A   1      38.073  29.596  27.724  1.00  0.00     0.134 A 
ATOM     66  C   UNL A   1      37.688  29.008  30.013  1.00  0.00     0.134 A 
ATOM     67  F   UNL A   1      38.871  29.719  26.652  1.00  0.00    -0.206 F 
ATOM     68  C   UNL A   1      36.740  29.991  27.595  1.00  0.00     0.040 A 
ATOM     69  C   UNL A   1      36.347  29.376  29.890  1.00  0.00     0.040 A 
ATOM     70  F   UNL A   1      38.104  28.532  31.197  1.00  0.00    -0.206 F 
ATOM     71  C   UNL A   1      35.872  29.878  28.679  1.00  0.00     0.006 A 
ENDBRANCH  50  64
BRANCH  51  72
ATOM     72  C   UNL A   1      48.165  26.409  29.633  1.00  0.00     0.057 A 
ATOM     73  C   UNL A   1      48.664  25.802  30.791  1.00  0.00     0.134 A 
ATOM     74  C   UNL A   1      49.067  26.653  28.592  1.00  0.00     0.134 A 
ATOM     75  F   UNL A   1      47.852  25.549  31.828  1.00  0.00    -0.206 F 
ATOM     76  C   UNL A   1      50.014  25.467  30.916  1.00  0.00     0.040 A 
ATOM     77  C   UNL A   1      50.414  26.304  28.694  1.00  0.00     0.040 A 
ATOM     78  F   UNL A   1      48.644  27.217  27.451  1.00  0.00    -0.206 F 
ATOM     79  C   UNL A   1      50.892  25.715  29.864  1.00  0.00     0.006 A 
ENDBRANCH  51  72
BRANCH  63  80
ATOM     80  C   UNL A   1      44.636  32.186  31.300  1.00  0.00     0.057 A 
ATOM     81  C   UNL A   1      44.592  32.360  32.689  1.00  0.00     0.134 A 
ATOM     82  C   UNL A   1      45.007  33.287  30.520  1.00  0.00     0.134 A 
ATOM     83  F   UNL A   1      44.233  31.347  33.493  1.00  0.00    -0.206 F 
ATOM     84  C   UNL A   1      44.893  33.587  33.280  1.00  0.00     0.040 A 
ATOM     85  C   UNL A   1      45.334  34.513  31.100  1.00  0.00     0.040 A 
ATOM     86  F   UNL A   1      45.078  33.181  29.185  1.00  0.00    -0.206 F 
ATOM     87  C   UNL A   1      45.269  34.668  32.484  1.00  0.00     0.006 A 
ENDBRANCH  63  80
ENDBRANCH  37  38
ENDBRANCH  29  32
ENDBRANCH  27  28
ENDBRANCH  26  27
ENDBRANCH   1  26
TORSDOF 13
ENDMDL
MODEL 3
REMARK VINA RESULT:     -12.5      3.028      8.241
REMARK SMILES Cc1cc(C)cc(N(C)S(=O)(=O)c2ccc(F)c(C(=O)NCCCNC(=O)c3ccc(-c4c5nc(c(-c6c(F)cccc6F)c6ccc([nH]6)c(-c6c(F)cccc6F)c6nc(c(-c7c(F)cccc7F)c7ccc4[nH]7)C=C6)C=C5)cc3)c2)c1
REMARK SMILES IDX 22 1 21 2 19 3 20 4 18 6 13 7 14 8 82 9 15 10 16 11 17 12
REMARK SMILES IDX 10 13 11 14 12 15 8 16 9 17 7 18 1 19 2 20 3 21 83 22 4 23
REMARK SMILES IDX 5 24 6 25 23 26 24 27 25 28 26 29 27 31 28 32 29 33 81 34
REMARK SMILES IDX 30 35 80 36 31 37 32 38 33 39 74 40 34 41 79 42 73 43 75 44
REMARK SMILES IDX 35 45 78 46 72 47 71 48 36 50 62 51 45 52 61 53 46 54 49 55
REMARK SMILES IDX 60 56 76 57 47 58 48 59 59 61 77 62 50 63 37 64 38 65 43 66
REMARK SMILES IDX 39 67 40 68 42 69 44 70 41 71 63 72 64 73 69 74 65 75 66 76
REMARK SMILES IDX 68 77 70 78 67 79 51 80 52 81 57 82 53 83 54 84 56 85 58 86
REMARK SMILES IDX 55 87
REMARK H PARENT 21 5 25 30 75 49 49 60
REMARK Flexibility Score: inf
ROOT
ATOM      1  C   UNL A   1      32.738  29.718  25.999  1.00  0.00     0.118 C 
ENDROOT
BRANCH   1   2
ATOM      2  N   UNL A   1      33.308  29.655  24.671  1.00  0.00    -0.352 N 
ATOM      3  C   UNL A   1      33.127  28.805  23.620  1.00  0.00     0.254 C 
ATOM      4  O   UNL A   1      33.810  29.017  22.613  1.00  0.00    -0.269 OA
ATOM      5  H   UNL A   1      33.961  30.370  24.489  1.00  0.00     0.163 HD
BRANCH   3   6
ATOM      6  C   UNL A   1      32.159  27.682  23.565  1.00  0.00     0.076 A 
ATOM      7  C   UNL A   1      32.022  25.239  23.603  1.00  0.00     0.089 A 
ATOM      8  C   UNL A   1      30.634  25.328  23.765  1.00  0.00     0.025 A 
ATOM      9  C   UNL A   1      32.748  26.412  23.410  1.00  0.00     0.039 A 
ATOM     10  C   UNL A   1      30.016  26.580  23.817  1.00  0.00     0.041 A 
ATOM     11  C   UNL A   1      30.784  27.746  23.769  1.00  0.00     0.136 A 
ATOM     12  F   UNL A   1      30.137  28.899  23.961  1.00  0.00    -0.206 F 
BRANCH   7  13
ATOM     13  S   UNL A   1      32.779  23.612  23.506  1.00  0.00     0.264 S 
ATOM     14  O   UNL A   1      33.939  23.780  22.657  1.00  0.00    -0.201 OA
ATOM     15  O   UNL A   1      31.686  22.744  23.106  1.00  0.00    -0.201 OA
BRANCH  13  16
ATOM     16  N   UNL A   1      33.326  23.082  25.093  1.00  0.00    -0.269 N 
ATOM     17  C   UNL A   1      32.910  23.980  26.203  1.00  0.00     0.164 C 
BRANCH  16  18
ATOM     18  C   UNL A   1      34.760  22.655  25.133  1.00  0.00     0.052 A 
ATOM     19  C   UNL A   1      36.851  19.469  24.714  1.00  0.00     0.044 C 
ATOM     20  C   UNL A   1      36.484  20.896  25.000  1.00  0.00    -0.049 A 
ATOM     21  C   UNL A   1      37.470  21.801  25.385  1.00  0.00     0.007 A 
ATOM     22  C   UNL A   1      35.146  21.324  24.907  1.00  0.00     0.030 A 
ATOM     23  C   UNL A   1      37.128  23.117  25.684  1.00  0.00    -0.049 A 
ATOM     24  C   UNL A   1      38.189  24.078  26.138  1.00  0.00     0.044 C 
ATOM     25  C   UNL A   1      35.783  23.521  25.572  1.00  0.00     0.030 A 
ENDBRANCH  16  18
ENDBRANCH  13  16
ENDBRANCH   7  13
ENDBRANCH   3   6
ENDBRANCH   1   2
BRANCH   1  26
ATOM     26  C   UNL A   1      33.385  28.683  26.919  1.00  0.00     0.042 C 
BRANCH  26  27
ATOM     27  C   UNL A   1      34.824  29.021  27.306  1.00  0.00     0.118 C 
BRANCH  27  28
ATOM     28  N   UNL A   1      34.885  30.040  28.341  1.00  0.00    -0.352 N 
ATOM     29  C   UNL A   1      35.905  30.375  29.192  1.00  0.00     0.251 C 
ATOM     30  H   UNL A   1      34.064  30.573  28.447  1.00  0.00     0.163 HD
ATOM     31  O   UNL A   1      35.667  31.073  30.174  1.00  0.00    -0.269 OA
BRANCH  29  32
ATOM     32  C   UNL A   1      37.289  29.915  28.940  1.00  0.00     0.039 A 
ATOM     33  C   UNL A   1      38.068  29.509  30.028  1.00  0.00     0.014 A 
ATOM     34  C   UNL A   1      37.847  29.959  27.660  1.00  0.00     0.014 A 
ATOM     35  C   UNL A   1      39.393  29.117  29.827  1.00  0.00     0.010 A 
ATOM     36  C   UNL A   1      39.148  29.502  27.449  1.00  0.00     0.010 A 
ATOM     37  C   UNL A   1      39.938  29.093  28.533  1.00  0.00    -0.014 A 
BRANCH  37  38
ATOM     38  C   UNL A   1      41.339  28.658  28.305  1.00  0.00     0.031 A 
ATOM     39  C   UNL A   1      41.647  27.218  27.997  1.00  0.00     0.074 A 
ATOM     40  C   UNL A   1      42.337  29.555  28.408  1.00  0.00     0.049 A 
ATOM     41  N   UNL A   1      42.808  26.646  27.802  1.00  0.00    -0.248 NA
ATOM     42  C   UNL A   1      40.504  26.294  27.923  1.00  0.00     0.031 C 
ATOM     43  C   UNL A   1      42.167  30.971  28.740  1.00  0.00     0.029 A 
ATOM     44  N   UNL A   1      43.691  29.412  28.242  1.00  0.00    -0.354 N 
ATOM     45  C   UNL A   1      42.536  25.299  27.595  1.00  0.00     0.074 A 
ATOM     46  C   UNL A   1      41.107  25.129  27.737  1.00  0.00     0.031 C 
ATOM     47  C   UNL A   1      43.367  31.572  28.721  1.00  0.00     0.029 A 
ATOM     48  C   UNL A   1      44.392  30.581  28.408  1.00  0.00     0.049 A 
ATOM     49  H   UNL A   1      44.120  28.553  28.026  1.00  0.00     0.167 HD
ATOM     50  C   UNL A   1      43.398  24.301  27.288  1.00  0.00     0.037 A 
ATOM     51  C   UNL A   1      45.713  30.828  28.315  1.00  0.00     0.037 A 
ATOM     52  C   UNL A   1      44.815  24.480  27.116  1.00  0.00     0.049 A 
ATOM     53  C   UNL A   1      46.647  29.706  27.962  1.00  0.00     0.074 A 
ATOM     54  C   UNL A   1      45.764  23.538  26.760  1.00  0.00     0.029 A 
ATOM     55  N   UNL A   1      45.485  25.683  27.282  1.00  0.00    -0.354 N 
ATOM     56  N   UNL A   1      46.370  28.447  27.726  1.00  0.00    -0.248 NA
ATOM     57  C   UNL A   1      48.074  30.039  27.856  1.00  0.00     0.031 C 
ATOM     58  C   UNL A   1      47.015  24.165  26.744  1.00  0.00     0.029 A 
ATOM     59  C   UNL A   1      46.838  25.505  27.046  1.00  0.00     0.049 A 
ATOM     60  H   UNL A   1      45.061  26.536  27.530  1.00  0.00     0.167 HD
ATOM     61  C   UNL A   1      47.582  27.842  27.421  1.00  0.00     0.074 A 
ATOM     62  C   UNL A   1      48.595  28.875  27.490  1.00  0.00     0.031 C 
ATOM     63  C   UNL A   1      47.832  26.546  27.113  1.00  0.00     0.037 A 
BRANCH  50  64
ATOM     64  C   UNL A   1      42.832  22.923  27.102  1.00  0.00     0.057 A 
ATOM     65  C   UNL A   1      42.615  22.403  25.819  1.00  0.00     0.134 A 
ATOM     66  C   UNL A   1      42.445  22.134  28.193  1.00  0.00     0.134 A 
ATOM     67  F   UNL A   1      42.956  23.109  24.731  1.00  0.00    -0.206 F 
ATOM     68  C   UNL A   1      42.026  21.151  25.629  1.00  0.00     0.040 A 
ATOM     69  C   UNL A   1      41.879  20.870  28.016  1.00  0.00     0.040 A 
ATOM     70  F   UNL A   1      42.636  22.568  29.448  1.00  0.00    -0.206 F 
ATOM     71  C   UNL A   1      41.660  20.380  26.730  1.00  0.00     0.006 A 
ENDBRANCH  50  64
BRANCH  51  72
ATOM     72  C   UNL A   1      46.215  32.210  28.512  1.00  0.00     0.057 A 
ATOM     73  C   UNL A   1      46.365  33.097  27.440  1.00  0.00     0.134 A 
ATOM     74  C   UNL A   1      46.588  32.663  29.783  1.00  0.00     0.134 A 
ATOM     75  F   UNL A   1      46.033  32.719  26.197  1.00  0.00    -0.206 F 
ATOM     76  C   UNL A   1      46.882  34.381  27.621  1.00  0.00     0.040 A 
ATOM     77  C   UNL A   1      47.087  33.951  29.982  1.00  0.00     0.040 A 
ATOM     78  F   UNL A   1      46.452  31.864  30.851  1.00  0.00    -0.206 F 
ATOM     79  C   UNL A   1      47.243  34.811  28.896  1.00  0.00     0.006 A 
ENDBRANCH  51  72
BRANCH  63  80
ATOM     80  C   UNL A   1      49.250  26.170  26.804  1.00  0.00     0.057 A 
ATOM     81  C   UNL A   1      50.128  25.797  27.829  1.00  0.00     0.134 A 
ATOM     82  C   UNL A   1      49.765  26.247  25.505  1.00  0.00     0.134 A 
ATOM     83  F   UNL A   1      49.699  25.715  29.098  1.00  0.00    -0.206 F 
ATOM     84  C   UNL A   1      51.472  25.522  27.574  1.00  0.00     0.040 A 
ATOM     85  C   UNL A   1      51.101  25.952  25.233  1.00  0.00     0.040 A 
ATOM     86  F   UNL A   1      48.972  26.589  24.478  1.00  0.00    -0.206 F 
ATOM     87  C   UNL A   1      51.961  25.596  26.271  1.00  0.00     0.006 A 
ENDBRANCH  63  80
ENDBRANCH  37  38
ENDBRANCH  29  32
ENDBRANCH  27  28
ENDBRANCH  26  27
ENDBRANCH   1  26
TORSDOF 13
ENDMDL
