MODEL 1
REMARK VINA RESULT:     -10.1      0.000      0.000
REMARK SMILES C[NH2+]C[C@@H](C)C(=O)N1CC[NH+](CC(=O)NCCCNC(=O)c2ccc(-c3c4nc(c(-c5c(F)cccc5F)c5ccc([nH]5)c(-c5c(F)cccc5F)c5nc(c(-c6c(F)cccc6F)c6ccc3[nH]6)C=C5)C=C4)cc2)CC1
REMARK SMILES IDX 16 1 15 2 13 3 14 4 12 6 11 7 6 8 7 9 8 10 9 11 77 12 10 13
REMARK SMILES IDX 76 14 4 16 5 17 3 18 2 19 1 20 17 23 18 24 19 25 20 26 21 28
REMARK SMILES IDX 22 29 23 30 75 31 24 32 74 33 25 34 26 35 27 36 68 37 28 38
REMARK SMILES IDX 73 39 67 40 69 41 29 42 72 43 66 44 65 45 30 47 56 48 39 49
REMARK SMILES IDX 55 50 40 51 43 52 54 53 70 54 41 55 42 56 53 58 71 59 44 60
REMARK SMILES IDX 31 61 32 62 37 63 33 64 34 65 36 66 38 67 35 68 57 69 58 70
REMARK SMILES IDX 63 71 59 72 60 73 62 74 64 75 61 76 45 77 46 78 51 79 47 80
REMARK SMILES IDX 48 81 50 82 52 83 49 84
REMARK H PARENT 15 5 11 15 2 21 2 22 19 27 69 46 43 57
REMARK Flexibility Score: inf
ROOT
ATOM      1  C   UNL A   1      33.197  34.745  28.505  1.00  0.00     0.118 C 
ENDROOT
BRANCH   1   2
ATOM      2  N   UNL A   1      32.824  35.889  29.328  1.00  0.00    -0.351 N 
ATOM      3  C   UNL A   1      32.921  36.146  30.671  1.00  0.00     0.275 C 
ATOM      4  O   UNL A   1      32.563  37.264  31.052  1.00  0.00    -0.269 OA
ATOM      5  H   UNL A   1      32.420  36.626  28.815  1.00  0.00     0.163 HD
BRANCH   3   6
ATOM      6  C   UNL A   1      33.396  35.094  31.674  1.00  0.00     0.363 C 
BRANCH   6   7
ATOM      7  N   UNL A   1      34.786  35.253  32.146  1.00  0.00    -0.324 N 
ATOM      8  C   UNL A   1      37.206  32.406  34.289  1.00  0.00     0.231 C 
ATOM      9  O   UNL A   1      37.141  32.227  35.511  1.00  0.00    -0.274 OA
ATOM     10  N   UNL A   1      36.278  33.217  33.671  1.00  0.00    -0.331 N 
ATOM     11  C   UNL A   1      35.421  34.131  34.442  1.00  0.00     0.181 C 
ATOM     12  C   UNL A   1      35.725  32.985  32.366  1.00  0.00     0.181 C 
ATOM     13  C   UNL A   1      34.987  35.388  33.612  1.00  0.00     0.284 C 
ATOM     14  C   UNL A   1      35.703  34.279  31.563  1.00  0.00     0.284 C 
ATOM     15  H   UNL A   1      35.024  36.176  31.785  1.00  0.00     0.348 HD
BRANCH   8  16
ATOM     16  C   UNL A   1      38.433  31.822  33.523  1.00  0.00     0.130 C 
ATOM     17  C   UNL A   1      38.233  30.302  33.486  1.00  0.00     0.024 C 
BRANCH  16  18
ATOM     18  C   UNL A   1      39.848  32.161  34.022  1.00  0.00     0.273 C 
BRANCH  18  19
ATOM     19  N   UNL A   1      40.414  33.489  33.796  1.00  0.00    -0.348 N 
ATOM     20  C   UNL A   1      39.725  34.171  32.722  1.00  0.00     0.330 C 
ATOM     21  H   UNL A   1      40.325  34.038  34.652  1.00  0.00     0.346 HD
ATOM     22  H   UNL A   1      41.395  33.384  33.537  1.00  0.00     0.346 HD
ENDBRANCH  18  19
ENDBRANCH  16  18
ENDBRANCH   8  16
ENDBRANCH   6   7
ENDBRANCH   3   6
ENDBRANCH   1   2
BRANCH   1  23
ATOM     23  C   UNL A   1      34.647  34.720  27.959  1.00  0.00     0.042 C 
BRANCH  23  24
ATOM     24  C   UNL A   1      35.459  33.414  28.091  1.00  0.00     0.118 C 
BRANCH  24  25
ATOM     25  N   UNL A   1      34.600  32.240  28.012  1.00  0.00    -0.352 N 
ATOM     26  C   UNL A   1      34.806  30.884  27.960  1.00  0.00     0.251 C 
ATOM     27  H   UNL A   1      33.644  32.476  27.992  1.00  0.00     0.163 HD
ATOM     28  O   UNL A   1      33.815  30.190  27.725  1.00  0.00    -0.269 OA
BRANCH  26  29
ATOM     29  C   UNL A   1      36.108  30.184  28.173  1.00  0.00     0.039 A 
ATOM     30  C   UNL A   1      36.375  29.719  29.475  1.00  0.00     0.014 A 
ATOM     31  C   UNL A   1      37.140  30.127  27.234  1.00  0.00     0.014 A 
ATOM     32  C   UNL A   1      37.637  29.217  29.842  1.00  0.00     0.010 A 
ATOM     33  C   UNL A   1      38.399  29.595  27.593  1.00  0.00     0.010 A 
ATOM     34  C   UNL A   1      38.672  29.151  28.906  1.00  0.00    -0.014 A 
BRANCH  34  35
ATOM     35  C   UNL A   1      40.048  28.684  29.277  1.00  0.00     0.031 A 
ATOM     36  C   UNL A   1      41.044  29.643  29.872  1.00  0.00     0.074 A 
ATOM     37  C   UNL A   1      40.458  27.418  29.060  1.00  0.00     0.049 A 
ATOM     38  N   UNL A   1      42.318  29.464  30.122  1.00  0.00    -0.248 NA
ATOM     39  C   UNL A   1      40.528  30.957  30.280  1.00  0.00     0.031 C 
ATOM     40  C   UNL A   1      39.613  26.310  28.644  1.00  0.00     0.029 A 
ATOM     41  N   UNL A   1      41.720  26.866  29.098  1.00  0.00    -0.354 N 
ATOM     42  C   UNL A   1      42.749  30.623  30.750  1.00  0.00     0.074 A 
ATOM     43  C   UNL A   1      41.616  31.527  30.781  1.00  0.00     0.031 C 
ATOM     44  C   UNL A   1      40.382  25.264  28.299  1.00  0.00     0.029 A 
ATOM     45  C   UNL A   1      41.779  25.614  28.529  1.00  0.00     0.049 A 
ATOM     46  H   UNL A   1      42.498  27.319  29.493  1.00  0.00     0.167 HD
ATOM     47  C   UNL A   1      43.960  30.896  31.294  1.00  0.00     0.037 A 
ATOM     48  C   UNL A   1      42.831  24.839  28.205  1.00  0.00     0.037 A 
ATOM     49  C   UNL A   1      45.097  30.013  31.278  1.00  0.00     0.049 A 
ATOM     50  C   UNL A   1      44.219  25.251  28.600  1.00  0.00     0.074 A 
ATOM     51  C   UNL A   1      46.341  30.193  31.862  1.00  0.00     0.029 A 
ATOM     52  N   UNL A   1      45.137  28.791  30.628  1.00  0.00    -0.354 N 
ATOM     53  N   UNL A   1      44.602  26.324  29.244  1.00  0.00    -0.248 NA
ATOM     54  C   UNL A   1      45.313  24.325  28.269  1.00  0.00     0.031 C 
ATOM     55  C   UNL A   1      47.147  29.098  31.529  1.00  0.00     0.029 A 
ATOM     56  C   UNL A   1      46.395  28.222  30.764  1.00  0.00     0.049 A 
ATOM     57  H   UNL A   1      44.384  28.385  30.140  1.00  0.00     0.167 HD
ATOM     58  C   UNL A   1      45.960  26.163  29.473  1.00  0.00     0.074 A 
ATOM     59  C   UNL A   1      46.349  24.915  28.853  1.00  0.00     0.031 C 
ATOM     60  C   UNL A   1      46.790  26.968  30.178  1.00  0.00     0.037 A 
BRANCH  47  61
ATOM     61  C   UNL A   1      44.108  32.222  31.976  1.00  0.00     0.057 A 
ATOM     62  C   UNL A   1      44.547  33.355  31.278  1.00  0.00     0.134 A 
ATOM     63  C   UNL A   1      43.798  32.371  33.332  1.00  0.00     0.134 A 
ATOM     64  F   UNL A   1      44.866  33.270  29.977  1.00  0.00    -0.206 F 
ATOM     65  C   UNL A   1      44.701  34.587  31.914  1.00  0.00     0.040 A 
ATOM     66  C   UNL A   1      43.931  33.603  33.974  1.00  0.00     0.040 A 
ATOM     67  F   UNL A   1      43.365  31.325  34.050  1.00  0.00    -0.206 F 
ATOM     68  C   UNL A   1      44.391  34.712  33.266  1.00  0.00     0.006 A 
ENDBRANCH  47  61
BRANCH  48  69
ATOM     69  C   UNL A   1      42.613  23.568  27.475  1.00  0.00     0.057 A 
ATOM     70  C   UNL A   1      42.327  22.381  28.155  1.00  0.00     0.134 A 
ATOM     71  C   UNL A   1      42.706  23.514  26.079  1.00  0.00     0.134 A 
ATOM     72  F   UNL A   1      42.246  22.372  29.492  1.00  0.00    -0.206 F 
ATOM     73  C   UNL A   1      42.149  21.177  27.472  1.00  0.00     0.040 A 
ATOM     74  C   UNL A   1      42.522  22.319  25.383  1.00  0.00     0.040 A 
ATOM     75  F   UNL A   1      42.981  24.623  25.375  1.00  0.00    -0.206 F 
ATOM     76  C   UNL A   1      42.245  21.146  26.081  1.00  0.00     0.006 A 
ENDBRANCH  48  69
BRANCH  60  77
ATOM     77  C   UNL A   1      48.191  26.488  30.407  1.00  0.00     0.057 A 
ATOM     78  C   UNL A   1      48.551  25.748  31.537  1.00  0.00     0.134 A 
ATOM     79  C   UNL A   1      49.185  26.738  29.451  1.00  0.00     0.134 A 
ATOM     80  F   UNL A   1      47.649  25.493  32.498  1.00  0.00    -0.206 F 
ATOM     81  C   UNL A   1      49.853  25.275  31.714  1.00  0.00     0.040 A 
ATOM     82  C   UNL A   1      50.486  26.257  29.608  1.00  0.00     0.040 A 
ATOM     83  F   UNL A   1      48.905  27.443  28.346  1.00  0.00    -0.206 F 
ATOM     84  C   UNL A   1      50.823  25.524  30.743  1.00  0.00     0.006 A 
ENDBRANCH  60  77
ENDBRANCH  34  35
ENDBRANCH  26  29
ENDBRANCH  24  25
ENDBRANCH  23  24
ENDBRANCH   1  23
TORSDOF 14
ENDMDL
MODEL 2
REMARK VINA RESULT:     -10.0      3.818     11.150
REMARK SMILES C[NH2+]C[C@@H](C)C(=O)N1CC[NH+](CC(=O)NCCCNC(=O)c2ccc(-c3c4nc(c(-c5c(F)cccc5F)c5ccc([nH]5)c(-c5c(F)cccc5F)c5nc(c(-c6c(F)cccc6F)c6ccc3[nH]6)C=C5)C=C4)cc2)CC1
REMARK SMILES IDX 16 1 15 2 13 3 14 4 12 6 11 7 6 8 7 9 8 10 9 11 77 12 10 13
REMARK SMILES IDX 76 14 4 16 5 17 3 18 2 19 1 20 17 23 18 24 19 25 20 26 21 28
REMARK SMILES IDX 22 29 23 30 75 31 24 32 74 33 25 34 26 35 27 36 68 37 28 38
REMARK SMILES IDX 73 39 67 40 69 41 29 42 72 43 66 44 65 45 30 47 56 48 39 49
REMARK SMILES IDX 55 50 40 51 43 52 54 53 70 54 41 55 42 56 53 58 71 59 44 60
REMARK SMILES IDX 31 61 32 62 37 63 33 64 34 65 36 66 38 67 35 68 57 69 58 70
REMARK SMILES IDX 63 71 59 72 60 73 62 74 64 75 61 76 45 77 46 78 51 79 47 80
REMARK SMILES IDX 48 81 50 82 52 83 49 84
REMARK H PARENT 15 5 11 15 2 21 2 22 19 27 69 46 43 57
REMARK Flexibility Score: inf
ROOT
ATOM      1  C   UNL A   1      41.925  19.547  27.300  1.00  0.00     0.118 C 
ENDROOT
BRANCH   1   2
ATOM      2  N   UNL A   1      42.867  18.747  26.529  1.00  0.00    -0.351 N 
ATOM      3  C   UNL A   1      43.818  19.064  25.595  1.00  0.00     0.275 C 
ATOM      4  O   UNL A   1      44.511  18.136  25.166  1.00  0.00    -0.269 OA
ATOM      5  H   UNL A   1      42.808  17.782  26.717  1.00  0.00     0.163 HD
BRANCH   3   6
ATOM      6  C   UNL A   1      43.995  20.484  25.055  1.00  0.00     0.363 C 
BRANCH   6   7
ATOM      7  N   UNL A   1      45.016  21.300  25.742  1.00  0.00    -0.324 N 
ATOM      8  C   UNL A   1      45.721  25.534  25.379  1.00  0.00     0.231 C 
ATOM      9  O   UNL A   1      46.375  26.048  24.463  1.00  0.00    -0.274 OA
ATOM     10  N   UNL A   1      45.409  24.192  25.319  1.00  0.00    -0.331 N 
ATOM     11  C   UNL A   1      46.094  23.283  24.388  1.00  0.00     0.181 C 
ATOM     12  C   UNL A   1      44.174  23.615  25.771  1.00  0.00     0.181 C 
ATOM     13  C   UNL A   1      46.140  21.807  24.914  1.00  0.00     0.284 C 
ATOM     14  C   UNL A   1      44.442  22.351  26.576  1.00  0.00     0.284 C 
ATOM     15  H   UNL A   1      45.458  20.611  26.350  1.00  0.00     0.348 HD
BRANCH   8  16
ATOM     16  C   UNL A   1      45.407  26.400  26.637  1.00  0.00     0.130 C 
ATOM     17  C   UNL A   1      44.880  27.742  26.114  1.00  0.00     0.024 C 
BRANCH  16  18
ATOM     18  C   UNL A   1      46.520  26.632  27.673  1.00  0.00     0.273 C 
BRANCH  18  19
ATOM     19  N   UNL A   1      47.925  26.541  27.285  1.00  0.00    -0.348 N 
ATOM     20  C   UNL A   1      48.453  27.844  26.940  1.00  0.00     0.330 C 
ATOM     21  H   UNL A   1      48.462  26.159  28.063  1.00  0.00     0.346 HD
ATOM     22  H   UNL A   1      47.997  25.935  26.468  1.00  0.00     0.346 HD
ENDBRANCH  18  19
ENDBRANCH  16  18
ENDBRANCH   8  16
ENDBRANCH   6   7
ENDBRANCH   3   6
ENDBRANCH   1   2
BRANCH   1  23
ATOM     23  C   UNL A   1      40.716  20.139  26.532  1.00  0.00     0.042 C 
BRANCH  23  24
ATOM     24  C   UNL A   1      40.798  21.602  26.048  1.00  0.00     0.118 C 
BRANCH  24  25
ATOM     25  N   UNL A   1      39.474  22.181  25.867  1.00  0.00    -0.352 N 
ATOM     26  C   UNL A   1      38.851  23.334  26.272  1.00  0.00     0.251 C 
ATOM     27  H   UNL A   1      38.886  21.608  25.323  1.00  0.00     0.163 HD
ATOM     28  O   UNL A   1      37.640  23.405  26.058  1.00  0.00    -0.269 OA
BRANCH  26  29
ATOM     29  C   UNL A   1      39.508  24.503  26.931  1.00  0.00     0.039 A 
ATOM     30  C   UNL A   1      39.163  24.751  28.275  1.00  0.00     0.014 A 
ATOM     31  C   UNL A   1      40.279  25.458  26.267  1.00  0.00     0.014 A 
ATOM     32  C   UNL A   1      39.566  25.923  28.941  1.00  0.00     0.010 A 
ATOM     33  C   UNL A   1      40.709  26.621  26.945  1.00  0.00     0.010 A 
ATOM     34  C   UNL A   1      40.343  26.880  28.284  1.00  0.00    -0.014 A 
BRANCH  34  35
ATOM     35  C   UNL A   1      40.734  28.170  28.941  1.00  0.00     0.031 A 
ATOM     36  C   UNL A   1      42.060  28.297  29.644  1.00  0.00     0.074 A 
ATOM     37  C   UNL A   1      39.915  29.240  28.963  1.00  0.00     0.049 A 
ATOM     38  N   UNL A   1      42.511  29.277  30.388  1.00  0.00    -0.248 NA
ATOM     39  C   UNL A   1      43.016  27.199  29.446  1.00  0.00     0.031 C 
ATOM     40  C   UNL A   1      38.673  29.376  28.219  1.00  0.00     0.029 A 
ATOM     41  N   UNL A   1      39.978  30.402  29.701  1.00  0.00    -0.354 N 
ATOM     42  C   UNL A   1      43.815  28.935  30.717  1.00  0.00     0.074 A 
ATOM     43  C   UNL A   1      44.058  27.624  30.147  1.00  0.00     0.031 C 
ATOM     44  C   UNL A   1      38.004  30.457  28.655  1.00  0.00     0.029 A 
ATOM     45  C   UNL A   1      38.806  31.124  29.674  1.00  0.00     0.049 A 
ATOM     46  H   UNL A   1      40.779  30.687  30.197  1.00  0.00     0.167 HD
ATOM     47  C   UNL A   1      44.741  29.661  31.388  1.00  0.00     0.037 A 
ATOM     48  C   UNL A   1      38.406  32.188  30.396  1.00  0.00     0.037 A 
ATOM     49  C   UNL A   1      44.522  30.965  31.958  1.00  0.00     0.049 A 
ATOM     50  C   UNL A   1      39.364  32.865  31.331  1.00  0.00     0.074 A 
ATOM     51  C   UNL A   1      45.429  31.791  32.601  1.00  0.00     0.029 A 
ATOM     52  N   UNL A   1      43.305  31.625  31.974  1.00  0.00    -0.354 N 
ATOM     53  N   UNL A   1      40.610  32.562  31.587  1.00  0.00    -0.248 NA
ATOM     54  C   UNL A   1      38.877  34.060  32.040  1.00  0.00     0.031 C 
ATOM     55  C   UNL A   1      44.750  32.934  33.042  1.00  0.00     0.029 A 
ATOM     56  C   UNL A   1      43.427  32.831  32.647  1.00  0.00     0.049 A 
ATOM     57  H   UNL A   1      42.474  31.287  31.567  1.00  0.00     0.167 HD
ATOM     58  C   UNL A   1      41.084  33.571  32.412  1.00  0.00     0.074 A 
ATOM     59  C   UNL A   1      39.977  34.470  32.660  1.00  0.00     0.031 C 
ATOM     60  C   UNL A   1      42.343  33.749  32.878  1.00  0.00     0.037 A 
BRANCH  47  61
ATOM     61  C   UNL A   1      46.102  29.051  31.529  1.00  0.00     0.057 A 
ATOM     62  C   UNL A   1      47.057  29.157  30.508  1.00  0.00     0.134 A 
ATOM     63  C   UNL A   1      46.466  28.366  32.693  1.00  0.00     0.134 A 
ATOM     64  F   UNL A   1      46.762  29.797  29.366  1.00  0.00    -0.206 F 
ATOM     65  C   UNL A   1      48.319  28.577  30.629  1.00  0.00     0.040 A 
ATOM     66  C   UNL A   1      47.732  27.797  32.833  1.00  0.00     0.040 A 
ATOM     67  F   UNL A   1      45.599  28.239  33.707  1.00  0.00    -0.206 F 
ATOM     68  C   UNL A   1      48.660  27.895  31.796  1.00  0.00     0.006 A 
ENDBRANCH  47  61
BRANCH  48  69
ATOM     69  C   UNL A   1      37.023  32.699  30.250  1.00  0.00     0.057 A 
ATOM     70  C   UNL A   1      36.710  33.687  29.311  1.00  0.00     0.134 A 
ATOM     71  C   UNL A   1      35.988  32.221  31.062  1.00  0.00     0.134 A 
ATOM     72  F   UNL A   1      37.666  34.193  28.521  1.00  0.00    -0.206 F 
ATOM     73  C   UNL A   1      35.414  34.190  29.190  1.00  0.00     0.040 A 
ATOM     74  C   UNL A   1      34.686  32.709  30.947  1.00  0.00     0.040 A 
ATOM     75  F   UNL A   1      36.232  31.275  31.982  1.00  0.00    -0.206 F 
ATOM     76  C   UNL A   1      34.398  33.699  30.010  1.00  0.00     0.006 A 
ENDBRANCH  48  69
BRANCH  60  77
ATOM     77  C   UNL A   1      42.630  35.012  33.632  1.00  0.00     0.057 A 
ATOM     78  C   UNL A   1      43.013  36.194  32.989  1.00  0.00     0.134 A 
ATOM     79  C   UNL A   1      42.477  35.050  35.024  1.00  0.00     0.134 A 
ATOM     80  F   UNL A   1      43.197  36.216  31.660  1.00  0.00    -0.206 F 
ATOM     81  C   UNL A   1      43.239  37.371  33.706  1.00  0.00     0.040 A 
ATOM     82  C   UNL A   1      42.683  36.225  35.749  1.00  0.00     0.040 A 
ATOM     83  F   UNL A   1      42.114  33.951  35.700  1.00  0.00    -0.206 F 
ATOM     84  C   UNL A   1      43.067  37.389  35.090  1.00  0.00     0.006 A 
ENDBRANCH  60  77
ENDBRANCH  34  35
ENDBRANCH  26  29
ENDBRANCH  24  25
ENDBRANCH  23  24
ENDBRANCH   1  23
TORSDOF 14
ENDMDL
MODEL 3
REMARK VINA RESULT:      -9.9      1.076      2.125
REMARK SMILES C[NH2+]C[C@@H](C)C(=O)N1CC[NH+](CC(=O)NCCCNC(=O)c2ccc(-c3c4nc(c(-c5c(F)cccc5F)c5ccc([nH]5)c(-c5c(F)cccc5F)c5nc(c(-c6c(F)cccc6F)c6ccc3[nH]6)C=C5)C=C4)cc2)CC1
REMARK SMILES IDX 16 1 15 2 13 3 14 4 12 6 11 7 6 8 7 9 8 10 9 11 77 12 10 13
REMARK SMILES IDX 76 14 4 16 5 17 3 18 2 19 1 20 17 23 18 24 19 25 20 26 21 28
REMARK SMILES IDX 22 29 23 30 75 31 24 32 74 33 25 34 26 35 27 36 68 37 28 38
REMARK SMILES IDX 73 39 67 40 69 41 29 42 72 43 66 44 65 45 30 47 56 48 39 49
REMARK SMILES IDX 55 50 40 51 43 52 54 53 70 54 41 55 42 56 53 58 71 59 44 60
REMARK SMILES IDX 31 61 32 62 37 63 33 64 34 65 36 66 38 67 35 68 57 69 58 70
REMARK SMILES IDX 63 71 59 72 60 73 62 74 64 75 61 76 45 77 46 78 51 79 47 80
REMARK SMILES IDX 48 81 50 82 52 83 49 84
REMARK H PARENT 15 5 11 15 2 21 2 22 19 27 69 46 43 57
REMARK Flexibility Score: inf
ROOT
ATOM      1  C   UNL A   1      34.481  34.103  30.573  1.00  0.00     0.118 C 
ENDROOT
BRANCH   1   2
ATOM      2  N   UNL A   1      34.426  35.228  31.497  1.00  0.00    -0.351 N 
ATOM      3  C   UNL A   1      34.788  35.377  32.811  1.00  0.00     0.275 C 
ATOM      4  O   UNL A   1      34.668  36.505  33.298  1.00  0.00    -0.269 OA
ATOM      5  H   UNL A   1      34.053  36.047  31.098  1.00  0.00     0.163 HD
BRANCH   3   6
ATOM      6  C   UNL A   1      35.268  34.205  33.667  1.00  0.00     0.363 C 
BRANCH   6   7
ATOM      7  N   UNL A   1      36.732  34.015  33.716  1.00  0.00    -0.324 N 
ATOM      8  C   UNL A   1      38.916  30.431  34.686  1.00  0.00     0.231 C 
ATOM      9  O   UNL A   1      39.142  30.053  35.842  1.00  0.00    -0.274 OA
ATOM     10  N   UNL A   1      38.068  31.498  34.474  1.00  0.00    -0.331 N 
ATOM     11  C   UNL A   1      37.683  32.403  35.568  1.00  0.00     0.181 C 
ATOM     12  C   UNL A   1      37.148  31.610  33.377  1.00  0.00     0.181 C 
ATOM     13  C   UNL A   1      37.344  33.847  35.059  1.00  0.00     0.284 C 
ATOM     14  C   UNL A   1      37.210  33.008  32.775  1.00  0.00     0.284 C 
ATOM     15  H   UNL A   1      37.070  34.927  33.411  1.00  0.00     0.348 HD
BRANCH   8  16
ATOM     16  C   UNL A   1      39.725  29.776  33.525  1.00  0.00     0.130 C 
ATOM     17  C   UNL A   1      38.824  28.683  32.937  1.00  0.00     0.024 C 
BRANCH  16  18
ATOM     18  C   UNL A   1      41.124  29.210  33.823  1.00  0.00     0.273 C 
BRANCH  18  19
ATOM     19  N   UNL A   1      41.708  28.186  32.961  1.00  0.00    -0.348 N 
ATOM     20  C   UNL A   1      43.019  27.794  33.435  1.00  0.00     0.330 C 
ATOM     21  H   UNL A   1      41.099  27.368  32.955  1.00  0.00     0.346 HD
ATOM     22  H   UNL A   1      41.805  28.569  32.021  1.00  0.00     0.346 HD
ENDBRANCH  18  19
ENDBRANCH  16  18
ENDBRANCH   8  16
ENDBRANCH   6   7
ENDBRANCH   3   6
ENDBRANCH   1   2
BRANCH   1  23
ATOM     23  C   UNL A   1      34.495  34.441  29.060  1.00  0.00     0.042 C 
BRANCH  23  24
ATOM     24  C   UNL A   1      35.126  33.424  28.087  1.00  0.00     0.118 C 
BRANCH  24  25
ATOM     25  N   UNL A   1      34.311  32.223  27.963  1.00  0.00    -0.352 N 
ATOM     26  C   UNL A   1      34.564  30.877  27.886  1.00  0.00     0.251 C 
ATOM     27  H   UNL A   1      33.348  32.427  27.926  1.00  0.00     0.163 HD
ATOM     28  O   UNL A   1      33.604  30.155  27.614  1.00  0.00    -0.269 OA
BRANCH  26  29
ATOM     29  C   UNL A   1      35.885  30.217  28.113  1.00  0.00     0.039 A 
ATOM     30  C   UNL A   1      36.143  29.740  29.413  1.00  0.00     0.014 A 
ATOM     31  C   UNL A   1      36.935  30.209  27.193  1.00  0.00     0.014 A 
ATOM     32  C   UNL A   1      37.413  29.274  29.796  1.00  0.00     0.010 A 
ATOM     33  C   UNL A   1      38.204  29.713  27.569  1.00  0.00     0.010 A 
ATOM     34  C   UNL A   1      38.468  29.257  28.879  1.00  0.00    -0.014 A 
BRANCH  34  35
ATOM     35  C   UNL A   1      39.851  28.830  29.269  1.00  0.00     0.031 A 
ATOM     36  C   UNL A   1      40.817  29.822  29.861  1.00  0.00     0.074 A 
ATOM     37  C   UNL A   1      40.295  27.572  29.074  1.00  0.00     0.049 A 
ATOM     38  N   UNL A   1      42.093  29.678  30.124  1.00  0.00    -0.248 NA
ATOM     39  C   UNL A   1      40.265  31.128  30.245  1.00  0.00     0.031 C 
ATOM     40  C   UNL A   1      39.481  26.437  28.666  1.00  0.00     0.029 A 
ATOM     41  N   UNL A   1      41.569  27.052  29.132  1.00  0.00    -0.354 N 
ATOM     42  C   UNL A   1      42.489  30.857  30.740  1.00  0.00     0.074 A 
ATOM     43  C   UNL A   1      41.333  31.732  30.748  1.00  0.00     0.031 C 
ATOM     44  C   UNL A   1      40.280  25.407  28.343  1.00  0.00     0.029 A 
ATOM     45  C   UNL A   1      41.665  25.794  28.581  1.00  0.00     0.049 A 
ATOM     46  H   UNL A   1      42.333  27.531  29.527  1.00  0.00     0.167 HD
ATOM     47  C   UNL A   1      43.687  31.167  31.291  1.00  0.00     0.037 A 
ATOM     48  C   UNL A   1      42.740  25.042  28.277  1.00  0.00     0.037 A 
ATOM     49  C   UNL A   1      44.846  30.313  31.298  1.00  0.00     0.049 A 
ATOM     50  C   UNL A   1      44.112  25.494  28.679  1.00  0.00     0.074 A 
ATOM     51  C   UNL A   1      46.079  30.532  31.891  1.00  0.00     0.029 A 
ATOM     52  N   UNL A   1      44.923  29.083  30.666  1.00  0.00    -0.354 N 
ATOM     53  N   UNL A   1      44.462  26.585  29.311  1.00  0.00    -0.248 NA
ATOM     54  C   UNL A   1      45.233  24.591  28.372  1.00  0.00     0.031 C 
ATOM     55  C   UNL A   1      46.915  29.453  31.581  1.00  0.00     0.029 A 
ATOM     56  C   UNL A   1      46.193  28.548  30.821  1.00  0.00     0.049 A 
ATOM     57  H   UNL A   1      44.185  28.652  30.176  1.00  0.00     0.167 HD
ATOM     58  C   UNL A   1      45.822  26.462  29.555  1.00  0.00     0.074 A 
ATOM     59  C   UNL A   1      46.248  25.215  28.957  1.00  0.00     0.031 C 
ATOM     60  C   UNL A   1      46.625  27.297  30.256  1.00  0.00     0.037 A 
BRANCH  47  61
ATOM     61  C   UNL A   1      43.796  32.505  31.956  1.00  0.00     0.057 A 
ATOM     62  C   UNL A   1      43.591  32.653  33.334  1.00  0.00     0.134 A 
ATOM     63  C   UNL A   1      44.119  33.650  31.219  1.00  0.00     0.134 A 
ATOM     64  F   UNL A   1      43.271  31.592  34.091  1.00  0.00    -0.206 F 
ATOM     65  C   UNL A   1      43.676  33.900  33.953  1.00  0.00     0.040 A 
ATOM     66  C   UNL A   1      44.225  34.900  31.830  1.00  0.00     0.040 A 
ATOM     67  F   UNL A   1      44.335  33.570  29.898  1.00  0.00    -0.206 F 
ATOM     68  C   UNL A   1      43.995  35.028  33.199  1.00  0.00     0.006 A 
ENDBRANCH  47  61
BRANCH  48  69
ATOM     69  C   UNL A   1      42.560  23.756  27.563  1.00  0.00     0.057 A 
ATOM     70  C   UNL A   1      42.585  23.691  26.167  1.00  0.00     0.134 A 
ATOM     71  C   UNL A   1      42.342  22.566  28.268  1.00  0.00     0.134 A 
ATOM     72  F   UNL A   1      42.772  24.803  25.444  1.00  0.00    -0.206 F 
ATOM     73  C   UNL A   1      42.389  22.485  25.492  1.00  0.00     0.040 A 
ATOM     74  C   UNL A   1      42.152  21.352  27.606  1.00  0.00     0.040 A 
ATOM     75  F   UNL A   1      42.306  22.569  29.609  1.00  0.00    -0.206 F 
ATOM     76  C   UNL A   1      42.173  21.312  26.213  1.00  0.00     0.006 A 
ENDBRANCH  48  69
BRANCH  60  77
ATOM     77  C   UNL A   1      48.035  26.855  30.505  1.00  0.00     0.057 A 
ATOM     78  C   UNL A   1      48.374  25.998  31.557  1.00  0.00     0.134 A 
ATOM     79  C   UNL A   1      49.063  27.264  29.644  1.00  0.00     0.134 A 
ATOM     80  F   UNL A   1      47.439  25.587  32.427  1.00  0.00    -0.206 F 
ATOM     81  C   UNL A   1      49.689  25.566  31.749  1.00  0.00     0.040 A 
ATOM     82  C   UNL A   1      50.377  26.827  29.816  1.00  0.00     0.040 A 
ATOM     83  F   UNL A   1      48.804  28.087  28.618  1.00  0.00    -0.206 F 
ATOM     84  C   UNL A   1      50.692  25.976  30.871  1.00  0.00     0.006 A 
ENDBRANCH  60  77
ENDBRANCH  34  35
ENDBRANCH  26  29
ENDBRANCH  24  25
ENDBRANCH  23  24
ENDBRANCH   1  23
TORSDOF 14
ENDMDL
