MODEL 1
REMARK VINA RESULT:     -12.8      0.000      0.000
REMARK SMILES Cc1ccc(/C=C(\NC(=O)c2cccc(C)c2)C(=O)NCCCNC(=O)c2ccc(-c3c4nc(c(-c5c(F)cccc5F)c5ccc([nH]5)c(-c5c(F)cccc5F)c5nc(c(-c6c(F)cccc6F)c6ccc3[nH]6)C=C5)C=C4)cc2)cc1
REMARK SMILES IDX 22 1 21 2 20 3 18 4 19 5 7 7 6 8 5 9 1 10 2 11 3 12 82 13
REMARK SMILES IDX 4 14 81 15 8 16 9 17 10 19 11 20 12 21 17 22 13 23 15 24
REMARK SMILES IDX 14 25 16 26 23 27 24 28 25 29 26 31 27 32 28 33 80 34 29 35
REMARK SMILES IDX 79 36 30 37 31 38 32 39 73 40 33 41 78 42 72 43 74 44 34 45
REMARK SMILES IDX 77 46 71 47 70 48 35 50 61 51 44 52 60 53 45 54 48 55 59 56
REMARK SMILES IDX 75 57 46 58 47 59 58 61 76 62 49 63 36 64 37 65 42 66 38 67
REMARK SMILES IDX 39 68 41 69 43 70 40 71 62 72 63 73 68 74 64 75 65 76 67 77
REMARK SMILES IDX 69 78 66 79 50 80 51 81 56 82 52 83 53 84 55 85 57 86 54 87
REMARK H PARENT 20 6 8 18 24 30 74 49 48 60
REMARK Flexibility Score: inf
ROOT
ATOM      1  C   UNL A   1      33.286  30.443  26.169  1.00  0.00     0.042 C 
ENDROOT
BRANCH   1   2
ATOM      2  C   UNL A   1      33.157  28.944  26.046  1.00  0.00     0.118 C 
BRANCH   2   3
ATOM      3  N   UNL A   1      32.475  28.479  24.859  1.00  0.00    -0.351 N 
ATOM      4  C   UNL A   1      32.123  27.230  24.441  1.00  0.00     0.267 C 
ATOM      5  O   UNL A   1      31.316  27.162  23.510  1.00  0.00    -0.268 OA
ATOM      6  H   UNL A   1      32.217  29.197  24.236  1.00  0.00     0.163 HD
BRANCH   4   7
ATOM      7  C   UNL A   1      32.762  25.972  24.996  1.00  0.00     0.107 C 
ATOM      8  C   UNL A   1      33.918  25.623  24.385  1.00  0.00     0.040 C 
BRANCH   8   9
ATOM      9  C   UNL A   1      34.858  24.490  24.622  1.00  0.00    -0.023 A 
ATOM     10  C   UNL A   1      37.780  21.302  25.001  1.00  0.00     0.044 C 
ATOM     11  C   UNL A   1      36.735  22.367  24.861  1.00  0.00    -0.051 A 
ATOM     12  C   UNL A   1      36.452  23.191  25.945  1.00  0.00     0.004 A 
ATOM     13  C   UNL A   1      36.050  22.577  23.665  1.00  0.00     0.004 A 
ATOM     14  C   UNL A   1      35.499  24.208  25.836  1.00  0.00     0.008 A 
ATOM     15  C   UNL A   1      35.129  23.629  23.547  1.00  0.00     0.008 A 
ENDBRANCH   8   9
BRANCH   7  16
ATOM     16  N   UNL A   1      32.310  25.265  26.079  1.00  0.00    -0.317 N 
ATOM     17  C   UNL A   1      32.002  23.955  26.349  1.00  0.00     0.255 C 
ATOM     18  H   UNL A   1      32.172  25.844  26.864  1.00  0.00     0.170 HD
ATOM     19  O   UNL A   1      31.588  23.697  27.482  1.00  0.00    -0.269 OA
BRANCH  17  20
ATOM     20  C   UNL A   1      32.055  22.868  25.344  1.00  0.00     0.040 A 
ATOM     21  C   UNL A   1      31.436  23.137  24.111  1.00  0.00     0.014 A 
ATOM     22  C   UNL A   1      32.738  21.666  25.529  1.00  0.00     0.017 A 
ATOM     23  C   UNL A   1      31.557  22.244  23.051  1.00  0.00     0.001 A 
ATOM     24  C   UNL A   1      32.881  20.773  24.457  1.00  0.00    -0.050 A 
ATOM     25  C   UNL A   1      32.289  21.072  23.222  1.00  0.00     0.003 A 
ATOM     26  C   UNL A   1      33.682  19.513  24.607  1.00  0.00     0.044 C 
ENDBRANCH  17  20
ENDBRANCH   7  16
ENDBRANCH   4   7
ENDBRANCH   2   3
ENDBRANCH   1   2
BRANCH   1  27
ATOM     27  C   UNL A   1      33.238  30.869  27.625  1.00  0.00     0.118 C 
BRANCH  27  28
ATOM     28  N   UNL A   1      34.209  31.889  28.040  1.00  0.00    -0.352 N 
ATOM     29  C   UNL A   1      35.534  31.718  28.444  1.00  0.00     0.251 C 
ATOM     30  H   UNL A   1      33.882  32.817  28.031  1.00  0.00     0.163 HD
ATOM     31  O   UNL A   1      36.254  32.675  28.649  1.00  0.00    -0.269 OA
BRANCH  29  32
ATOM     32  C   UNL A   1      36.097  30.338  28.469  1.00  0.00     0.039 A 
ATOM     33  C   UNL A   1      36.280  29.738  29.717  1.00  0.00     0.014 A 
ATOM     34  C   UNL A   1      36.790  29.879  27.361  1.00  0.00     0.014 A 
ATOM     35  C   UNL A   1      37.407  28.949  29.917  1.00  0.00     0.010 A 
ATOM     36  C   UNL A   1      38.001  29.265  27.597  1.00  0.00     0.010 A 
ATOM     37  C   UNL A   1      38.347  28.866  28.894  1.00  0.00    -0.014 A 
BRANCH  37  38
ATOM     38  C   UNL A   1      39.750  28.514  29.110  1.00  0.00     0.031 A 
ATOM     39  C   UNL A   1      40.244  27.188  28.682  1.00  0.00     0.074 A 
ATOM     40  C   UNL A   1      40.611  29.447  29.580  1.00  0.00     0.049 A 
ATOM     41  N   UNL A   1      41.374  26.675  29.023  1.00  0.00    -0.248 NA
ATOM     42  C   UNL A   1      39.443  26.292  27.855  1.00  0.00     0.031 C 
ATOM     43  C   UNL A   1      42.073  29.410  29.546  1.00  0.00     0.029 A 
ATOM     44  N   UNL A   1      40.317  30.552  30.395  1.00  0.00    -0.354 N 
ATOM     45  C   UNL A   1      41.567  25.528  28.281  1.00  0.00     0.074 A 
ATOM     46  C   UNL A   1      40.312  25.312  27.609  1.00  0.00     0.031 C 
ATOM     47  C   UNL A   1      42.553  30.225  30.499  1.00  0.00     0.029 A 
ATOM     48  C   UNL A   1      41.415  30.682  31.277  1.00  0.00     0.049 A 
ATOM     49  H   UNL A   1      39.513  31.119  30.361  1.00  0.00     0.167 HD
ATOM     50  C   UNL A   1      42.810  24.967  28.250  1.00  0.00     0.037 A 
ATOM     51  C   UNL A   1      41.275  30.501  32.623  1.00  0.00     0.037 A 
ATOM     52  C   UNL A   1      43.678  25.594  29.250  1.00  0.00     0.049 A 
ATOM     53  C   UNL A   1      42.135  29.391  33.188  1.00  0.00     0.074 A 
ATOM     54  C   UNL A   1      44.648  26.581  29.180  1.00  0.00     0.029 A 
ATOM     55  N   UNL A   1      43.376  25.435  30.599  1.00  0.00    -0.354 N 
ATOM     56  N   UNL A   1      42.677  28.448  32.467  1.00  0.00    -0.248 NA
ATOM     57  C   UNL A   1      42.414  29.233  34.614  1.00  0.00     0.031 C 
ATOM     58  C   UNL A   1      44.871  27.069  30.495  1.00  0.00     0.029 A 
ATOM     59  C   UNL A   1      44.059  26.359  31.364  1.00  0.00     0.049 A 
ATOM     60  H   UNL A   1      42.761  24.755  30.959  1.00  0.00     0.167 HD
ATOM     61  C   UNL A   1      43.304  27.548  33.290  1.00  0.00     0.074 A 
ATOM     62  C   UNL A   1      43.140  28.102  34.621  1.00  0.00     0.031 C 
ATOM     63  C   UNL A   1      43.876  26.405  32.808  1.00  0.00     0.037 A 
BRANCH  50  64
ATOM     64  C   UNL A   1      43.316  24.048  27.151  1.00  0.00     0.057 A 
ATOM     65  C   UNL A   1      43.923  24.587  25.997  1.00  0.00     0.134 A 
ATOM     66  C   UNL A   1      43.170  22.650  27.107  1.00  0.00     0.134 A 
ATOM     67  F   UNL A   1      44.233  25.886  25.905  1.00  0.00    -0.206 F 
ATOM     68  C   UNL A   1      44.244  23.820  24.865  1.00  0.00     0.040 A 
ATOM     69  C   UNL A   1      43.442  21.876  25.968  1.00  0.00     0.040 A 
ATOM     70  F   UNL A   1      42.820  21.935  28.176  1.00  0.00    -0.206 F 
ATOM     71  C   UNL A   1      43.969  22.463  24.833  1.00  0.00     0.006 A 
ENDBRANCH  50  64
BRANCH  51  72
ATOM     72  C   UNL A   1      39.922  30.861  33.128  1.00  0.00     0.057 A 
ATOM     73  C   UNL A   1      39.594  32.219  33.290  1.00  0.00     0.134 A 
ATOM     74  C   UNL A   1      38.862  29.950  33.103  1.00  0.00     0.134 A 
ATOM     75  F   UNL A   1      40.563  33.149  33.329  1.00  0.00    -0.206 F 
ATOM     76  C   UNL A   1      38.269  32.663  33.301  1.00  0.00     0.040 A 
ATOM     77  C   UNL A   1      37.531  30.383  33.131  1.00  0.00     0.040 A 
ATOM     78  F   UNL A   1      39.089  28.641  32.931  1.00  0.00    -0.206 F 
ATOM     79  C   UNL A   1      37.232  31.744  33.187  1.00  0.00     0.006 A 
ENDBRANCH  51  72
BRANCH  63  80
ATOM     80  C   UNL A   1      44.358  25.242  33.640  1.00  0.00     0.057 A 
ATOM     81  C   UNL A   1      43.532  24.467  34.468  1.00  0.00     0.134 A 
ATOM     82  C   UNL A   1      45.680  24.764  33.496  1.00  0.00     0.134 A 
ATOM     83  F   UNL A   1      42.229  24.739  34.613  1.00  0.00    -0.206 F 
ATOM     84  C   UNL A   1      43.999  23.330  35.143  1.00  0.00     0.040 A 
ATOM     85  C   UNL A   1      46.141  23.601  34.120  1.00  0.00     0.040 A 
ATOM     86  F   UNL A   1      46.575  25.392  32.719  1.00  0.00    -0.206 F 
ATOM     87  C   UNL A   1      45.302  22.885  34.960  1.00  0.00     0.006 A 
ENDBRANCH  63  80
ENDBRANCH  37  38
ENDBRANCH  29  32
ENDBRANCH  27  28
ENDBRANCH   1  27
TORSDOF 13
ENDMDL
MODEL 2
REMARK VINA RESULT:     -12.5      3.465      8.598
REMARK SMILES Cc1ccc(/C=C(\NC(=O)c2cccc(C)c2)C(=O)NCCCNC(=O)c2ccc(-c3c4nc(c(-c5c(F)cccc5F)c5ccc([nH]5)c(-c5c(F)cccc5F)c5nc(c(-c6c(F)cccc6F)c6ccc3[nH]6)C=C5)C=C4)cc2)cc1
REMARK SMILES IDX 22 1 21 2 20 3 18 4 19 5 7 7 6 8 5 9 1 10 2 11 3 12 82 13
REMARK SMILES IDX 4 14 81 15 8 16 9 17 10 19 11 20 12 21 17 22 13 23 15 24
REMARK SMILES IDX 14 25 16 26 23 27 24 28 25 29 26 31 27 32 28 33 80 34 29 35
REMARK SMILES IDX 79 36 30 37 31 38 32 39 73 40 33 41 78 42 72 43 74 44 34 45
REMARK SMILES IDX 77 46 71 47 70 48 35 50 61 51 44 52 60 53 45 54 48 55 59 56
REMARK SMILES IDX 75 57 46 58 47 59 58 61 76 62 49 63 36 64 37 65 42 66 38 67
REMARK SMILES IDX 39 68 41 69 43 70 40 71 62 72 63 73 68 74 64 75 65 76 67 77
REMARK SMILES IDX 69 78 66 79 50 80 51 81 56 82 52 83 53 84 55 85 57 86 54 87
REMARK H PARENT 20 6 8 18 24 30 74 49 48 60
REMARK Flexibility Score: inf
ROOT
ATOM      1  C   UNL A   1      38.152  20.845  25.272  1.00  0.00     0.042 C 
ENDROOT
BRANCH   1   2
ATOM      2  C   UNL A   1      36.664  20.873  25.022  1.00  0.00     0.118 C 
BRANCH   2   3
ATOM      3  N   UNL A   1      35.844  21.076  26.196  1.00  0.00    -0.351 N 
ATOM      4  C   UNL A   1      34.624  21.659  26.365  1.00  0.00     0.267 C 
ATOM      5  O   UNL A   1      34.054  21.453  27.440  1.00  0.00    -0.268 OA
ATOM      6  H   UNL A   1      36.241  20.729  27.027  1.00  0.00     0.163 HD
BRANCH   4   7
ATOM      7  C   UNL A   1      34.025  22.612  25.349  1.00  0.00     0.107 C 
ATOM      8  C   UNL A   1      34.396  23.903  25.515  1.00  0.00     0.040 C 
BRANCH   8   9
ATOM      9  C   UNL A   1      34.058  25.135  24.747  1.00  0.00    -0.023 A 
ATOM     10  C   UNL A   1      33.292  28.914  22.752  1.00  0.00     0.044 C 
ATOM     11  C   UNL A   1      33.506  27.608  23.454  1.00  0.00    -0.051 A 
ATOM     12  C   UNL A   1      33.927  26.502  22.723  1.00  0.00     0.004 A 
ATOM     13  C   UNL A   1      33.321  27.469  24.830  1.00  0.00     0.004 A 
ATOM     14  C   UNL A   1      34.158  25.277  23.356  1.00  0.00     0.008 A 
ATOM     15  C   UNL A   1      33.599  26.250  25.466  1.00  0.00     0.008 A 
ENDBRANCH   8   9
BRANCH   7  16
ATOM     16  N   UNL A   1      33.252  22.246  24.279  1.00  0.00    -0.317 N 
ATOM     17  C   UNL A   1      32.041  22.623  23.756  1.00  0.00     0.255 C 
ATOM     18  H   UNL A   1      33.673  21.530  23.749  1.00  0.00     0.170 HD
ATOM     19  O   UNL A   1      31.650  22.024  22.751  1.00  0.00    -0.269 OA
BRANCH  17  20
ATOM     20  C   UNL A   1      31.152  23.636  24.373  1.00  0.00     0.040 A 
ATOM     21  C   UNL A   1      30.866  23.456  25.738  1.00  0.00     0.014 A 
ATOM     22  C   UNL A   1      30.672  24.764  23.707  1.00  0.00     0.017 A 
ATOM     23  C   UNL A   1      30.166  24.427  26.446  1.00  0.00     0.001 A 
ATOM     24  C   UNL A   1      29.983  25.755  24.421  1.00  0.00    -0.050 A 
ATOM     25  C   UNL A   1      29.738  25.578  25.791  1.00  0.00     0.003 A 
ATOM     26  C   UNL A   1      29.530  27.015  23.746  1.00  0.00     0.044 C 
ENDBRANCH  17  20
ENDBRANCH   7  16
ENDBRANCH   4   7
ENDBRANCH   2   3
ENDBRANCH   1   2
BRANCH   1  27
ATOM     27  C   UNL A   1      38.652  22.214  25.701  1.00  0.00     0.118 C 
BRANCH  27  28
ATOM     28  N   UNL A   1      39.996  22.265  26.287  1.00  0.00    -0.352 N 
ATOM     29  C   UNL A   1      40.650  23.348  26.876  1.00  0.00     0.251 C 
ATOM     30  H   UNL A   1      40.504  21.422  26.262  1.00  0.00     0.163 HD
ATOM     31  O   UNL A   1      41.725  23.207  27.424  1.00  0.00    -0.269 OA
BRANCH  29  32
ATOM     32  C   UNL A   1      39.932  24.652  26.958  1.00  0.00     0.039 A 
ATOM     33  C   UNL A   1      40.419  25.706  26.181  1.00  0.00     0.014 A 
ATOM     34  C   UNL A   1      39.125  24.903  28.056  1.00  0.00     0.014 A 
ATOM     35  C   UNL A   1      40.403  26.989  26.716  1.00  0.00     0.010 A 
ATOM     36  C   UNL A   1      39.279  26.125  28.672  1.00  0.00     0.010 A 
ATOM     37  C   UNL A   1      39.988  27.151  28.034  1.00  0.00    -0.014 A 
BRANCH  37  38
ATOM     38  C   UNL A   1      40.369  28.291  28.868  1.00  0.00     0.031 A 
ATOM     39  C   UNL A   1      39.385  29.363  29.132  1.00  0.00     0.074 A 
ATOM     40  C   UNL A   1      41.568  28.293  29.495  1.00  0.00     0.049 A 
ATOM     41  N   UNL A   1      39.663  30.512  29.642  1.00  0.00    -0.248 NA
ATOM     42  C   UNL A   1      37.978  29.230  28.773  1.00  0.00     0.031 C 
ATOM     43  C   UNL A   1      41.992  29.140  30.609  1.00  0.00     0.029 A 
ATOM     44  N   UNL A   1      42.747  27.645  29.092  1.00  0.00    -0.354 N 
ATOM     45  C   UNL A   1      38.477  31.161  29.914  1.00  0.00     0.074 A 
ATOM     46  C   UNL A   1      37.463  30.338  29.306  1.00  0.00     0.031 C 
ATOM     47  C   UNL A   1      43.333  29.197  30.629  1.00  0.00     0.029 A 
ATOM     48  C   UNL A   1      43.803  28.522  29.431  1.00  0.00     0.049 A 
ATOM     49  H   UNL A   1      42.824  26.763  28.660  1.00  0.00     0.167 HD
ATOM     50  C   UNL A   1      38.500  32.264  30.716  1.00  0.00     0.037 A 
ATOM     51  C   UNL A   1      44.588  29.098  28.475  1.00  0.00     0.037 A 
ATOM     52  C   UNL A   1      39.880  32.697  30.949  1.00  0.00     0.049 A 
ATOM     53  C   UNL A   1      44.558  30.612  28.484  1.00  0.00     0.074 A 
ATOM     54  C   UNL A   1      40.770  32.510  31.994  1.00  0.00     0.029 A 
ATOM     55  N   UNL A   1      40.629  33.166  29.875  1.00  0.00    -0.354 N 
ATOM     56  N   UNL A   1      43.628  31.321  29.063  1.00  0.00    -0.248 NA
ATOM     57  C   UNL A   1      45.549  31.442  27.802  1.00  0.00     0.031 C 
ATOM     58  C   UNL A   1      42.075  32.799  31.514  1.00  0.00     0.029 A 
ATOM     59  C   UNL A   1      41.974  33.187  30.189  1.00  0.00     0.049 A 
ATOM     60  H   UNL A   1      40.252  33.446  29.009  1.00  0.00     0.167 HD
ATOM     61  C   UNL A   1      43.836  32.650  28.799  1.00  0.00     0.074 A 
ATOM     62  C   UNL A   1      45.070  32.677  28.036  1.00  0.00     0.031 C 
ATOM     63  C   UNL A   1      42.957  33.614  29.204  1.00  0.00     0.037 A 
BRANCH  50  64
ATOM     64  C   UNL A   1      37.309  32.786  31.501  1.00  0.00     0.057 A 
ATOM     65  C   UNL A   1      37.124  32.413  32.848  1.00  0.00     0.134 A 
ATOM     66  C   UNL A   1      36.263  33.577  30.990  1.00  0.00     0.134 A 
ATOM     67  F   UNL A   1      38.065  31.746  33.530  1.00  0.00    -0.206 F 
ATOM     68  C   UNL A   1      35.959  32.702  33.577  1.00  0.00     0.040 A 
ATOM     69  C   UNL A   1      35.073  33.835  31.688  1.00  0.00     0.040 A 
ATOM     70  F   UNL A   1      36.349  34.203  29.816  1.00  0.00    -0.206 F 
ATOM     71  C   UNL A   1      34.909  33.385  32.984  1.00  0.00     0.006 A 
ENDBRANCH  50  64
BRANCH  51  72
ATOM     72  C   UNL A   1      44.735  28.264  27.252  1.00  0.00     0.057 A 
ATOM     73  C   UNL A   1      45.650  27.195  27.261  1.00  0.00     0.134 A 
ATOM     74  C   UNL A   1      43.769  28.264  26.242  1.00  0.00     0.134 A 
ATOM     75  F   UNL A   1      46.609  27.134  28.200  1.00  0.00    -0.206 F 
ATOM     76  C   UNL A   1      45.531  26.113  26.385  1.00  0.00     0.040 A 
ATOM     77  C   UNL A   1      43.651  27.193  25.348  1.00  0.00     0.040 A 
ATOM     78  F   UNL A   1      42.848  29.235  26.176  1.00  0.00    -0.206 F 
ATOM     79  C   UNL A   1      44.506  26.095  25.445  1.00  0.00     0.006 A 
ENDBRANCH  51  72
BRANCH  63  80
ATOM     80  C   UNL A   1      42.959  35.055  28.753  1.00  0.00     0.057 A 
ATOM     81  C   UNL A   1      43.206  36.146  29.599  1.00  0.00     0.134 A 
ATOM     82  C   UNL A   1      42.866  35.370  27.379  1.00  0.00     0.134 A 
ATOM     83  F   UNL A   1      43.423  35.984  30.911  1.00  0.00    -0.206 F 
ATOM     84  C   UNL A   1      43.303  37.460  29.120  1.00  0.00     0.040 A 
ATOM     85  C   UNL A   1      43.017  36.669  26.884  1.00  0.00     0.040 A 
ATOM     86  F   UNL A   1      42.654  34.423  26.452  1.00  0.00    -0.206 F 
ATOM     87  C   UNL A   1      43.223  37.724  27.759  1.00  0.00     0.006 A 
ENDBRANCH  63  80
ENDBRANCH  37  38
ENDBRANCH  29  32
ENDBRANCH  27  28
ENDBRANCH   1  27
TORSDOF 13
ENDMDL
MODEL 3
REMARK VINA RESULT:     -12.5      1.252      2.103
REMARK SMILES Cc1ccc(/C=C(\NC(=O)c2cccc(C)c2)C(=O)NCCCNC(=O)c2ccc(-c3c4nc(c(-c5c(F)cccc5F)c5ccc([nH]5)c(-c5c(F)cccc5F)c5nc(c(-c6c(F)cccc6F)c6ccc3[nH]6)C=C5)C=C4)cc2)cc1
REMARK SMILES IDX 22 1 21 2 20 3 18 4 19 5 7 7 6 8 5 9 1 10 2 11 3 12 82 13
REMARK SMILES IDX 4 14 81 15 8 16 9 17 10 19 11 20 12 21 17 22 13 23 15 24
REMARK SMILES IDX 14 25 16 26 23 27 24 28 25 29 26 31 27 32 28 33 80 34 29 35
REMARK SMILES IDX 79 36 30 37 31 38 32 39 73 40 33 41 78 42 72 43 74 44 34 45
REMARK SMILES IDX 77 46 71 47 70 48 35 50 61 51 44 52 60 53 45 54 48 55 59 56
REMARK SMILES IDX 75 57 46 58 47 59 58 61 76 62 49 63 36 64 37 65 42 66 38 67
REMARK SMILES IDX 39 68 41 69 43 70 40 71 62 72 63 73 68 74 64 75 65 76 67 77
REMARK SMILES IDX 69 78 66 79 50 80 51 81 56 82 52 83 53 84 55 85 57 86 54 87
REMARK H PARENT 20 6 8 18 24 30 74 49 48 60
REMARK Flexibility Score: inf
ROOT
ATOM      1  C   UNL A   1      32.572  31.282  26.927  1.00  0.00     0.042 C 
ENDROOT
BRANCH   1   2
ATOM      2  C   UNL A   1      32.043  30.245  25.967  1.00  0.00     0.118 C 
BRANCH   2   3
ATOM      3  N   UNL A   1      32.877  29.990  24.813  1.00  0.00    -0.351 N 
ATOM      4  C   UNL A   1      33.005  28.899  24.006  1.00  0.00     0.267 C 
ATOM      5  O   UNL A   1      33.605  29.065  22.940  1.00  0.00    -0.268 OA
ATOM      6  H   UNL A   1      33.460  30.743  24.565  1.00  0.00     0.163 HD
BRANCH   4   7
ATOM      7  C   UNL A   1      32.548  27.516  24.422  1.00  0.00     0.107 C 
ATOM      8  C   UNL A   1      33.495  26.787  25.058  1.00  0.00     0.040 C 
BRANCH   8   9
ATOM      9  C   UNL A   1      33.463  25.413  25.635  1.00  0.00    -0.023 A 
ATOM     10  C   UNL A   1      33.732  21.462  27.414  1.00  0.00     0.044 C 
ATOM     11  C   UNL A   1      33.632  22.803  26.753  1.00  0.00    -0.051 A 
ATOM     12  C   UNL A   1      32.596  23.662  27.105  1.00  0.00     0.004 A 
ATOM     13  C   UNL A   1      34.565  23.233  25.809  1.00  0.00     0.004 A 
ATOM     14  C   UNL A   1      32.493  24.928  26.523  1.00  0.00     0.008 A 
ATOM     15  C   UNL A   1      34.483  24.523  25.263  1.00  0.00     0.008 A 
ENDBRANCH   8   9
BRANCH   7  16
ATOM     16  N   UNL A   1      31.276  27.026  24.283  1.00  0.00    -0.317 N 
ATOM     17  C   UNL A   1      30.700  25.898  23.754  1.00  0.00     0.255 C 
ATOM     18  H   UNL A   1      30.603  27.640  24.659  1.00  0.00     0.170 HD
ATOM     19  O   UNL A   1      29.470  25.821  23.798  1.00  0.00    -0.269 OA
BRANCH  17  20
ATOM     20  C   UNL A   1      31.457  24.826  23.067  1.00  0.00     0.040 A 
ATOM     21  C   UNL A   1      32.292  25.239  22.013  1.00  0.00     0.014 A 
ATOM     22  C   UNL A   1      31.445  23.487  23.457  1.00  0.00     0.017 A 
ATOM     23  C   UNL A   1      33.156  24.335  21.402  1.00  0.00     0.001 A 
ATOM     24  C   UNL A   1      32.328  22.577  22.859  1.00  0.00    -0.050 A 
ATOM     25  C   UNL A   1      33.181  23.012  21.834  1.00  0.00     0.003 A 
ATOM     26  C   UNL A   1      32.393  21.151  23.319  1.00  0.00     0.044 C 
ENDBRANCH  17  20
ENDBRANCH   7  16
ENDBRANCH   4   7
ENDBRANCH   2   3
ENDBRANCH   1   2
BRANCH   1  27
ATOM     27  C   UNL A   1      33.729  30.726  27.738  1.00  0.00     0.118 C 
BRANCH  27  28
ATOM     28  N   UNL A   1      34.647  31.708  28.327  1.00  0.00    -0.352 N 
ATOM     29  C   UNL A   1      35.976  31.534  28.718  1.00  0.00     0.251 C 
ATOM     30  H   UNL A   1      34.276  32.610  28.462  1.00  0.00     0.163 HD
ATOM     31  O   UNL A   1      36.647  32.478  29.086  1.00  0.00    -0.269 OA
BRANCH  29  32
ATOM     32  C   UNL A   1      36.603  30.196  28.528  1.00  0.00     0.039 A 
ATOM     33  C   UNL A   1      36.709  29.369  29.650  1.00  0.00     0.014 A 
ATOM     34  C   UNL A   1      37.410  29.986  27.422  1.00  0.00     0.014 A 
ATOM     35  C   UNL A   1      37.853  28.594  29.797  1.00  0.00     0.010 A 
ATOM     36  C   UNL A   1      38.625  29.378  27.647  1.00  0.00     0.010 A 
ATOM     37  C   UNL A   1      38.879  28.744  28.870  1.00  0.00    -0.014 A 
BRANCH  37  38
ATOM     38  C   UNL A   1      40.275  28.403  29.144  1.00  0.00     0.031 A 
ATOM     39  C   UNL A   1      40.836  27.143  28.610  1.00  0.00     0.074 A 
ATOM     40  C   UNL A   1      41.074  29.297  29.771  1.00  0.00     0.049 A 
ATOM     41  N   UNL A   1      41.956  26.621  28.972  1.00  0.00    -0.248 NA
ATOM     42  C   UNL A   1      40.120  26.325  27.638  1.00  0.00     0.031 C 
ATOM     43  C   UNL A   1      42.536  29.298  29.834  1.00  0.00     0.029 A 
ATOM     44  N   UNL A   1      40.693  30.299  30.678  1.00  0.00    -0.354 N 
ATOM     45  C   UNL A   1      42.233  25.568  28.127  1.00  0.00     0.074 A 
ATOM     46  C   UNL A   1      41.033  25.398  27.349  1.00  0.00     0.031 C 
ATOM     47  C   UNL A   1      42.926  30.014  30.901  1.00  0.00     0.029 A 
ATOM     48  C   UNL A   1      41.725  30.357  31.643  1.00  0.00     0.049 A 
ATOM     49  H   UNL A   1      39.876  30.848  30.649  1.00  0.00     0.167 HD
ATOM     50  C   UNL A   1      43.491  25.041  28.122  1.00  0.00     0.037 A 
ATOM     51  C   UNL A   1      41.501  30.027  32.948  1.00  0.00     0.037 A 
ATOM     52  C   UNL A   1      44.272  25.575  29.242  1.00  0.00     0.049 A 
ATOM     53  C   UNL A   1      42.355  28.881  33.449  1.00  0.00     0.074 A 
ATOM     54  C   UNL A   1      45.213  26.585  29.346  1.00  0.00     0.029 A 
ATOM     55  N   UNL A   1      43.885  25.262  30.541  1.00  0.00    -0.354 N 
ATOM     56  N   UNL A   1      42.972  28.035  32.670  1.00  0.00    -0.248 NA
ATOM     57  C   UNL A   1      42.542  28.574  34.866  1.00  0.00     0.031 C 
ATOM     58  C   UNL A   1      45.334  26.931  30.719  1.00  0.00     0.029 A 
ATOM     59  C   UNL A   1      44.488  26.112  31.448  1.00  0.00     0.049 A 
ATOM     60  H   UNL A   1      43.268  24.533  30.782  1.00  0.00     0.167 HD
ATOM     61  C   UNL A   1      43.570  27.065  33.433  1.00  0.00     0.074 A 
ATOM     62  C   UNL A   1      43.301  27.466  34.801  1.00  0.00     0.031 C 
ATOM     63  C   UNL A   1      44.207  25.995  32.871  1.00  0.00     0.037 A 
BRANCH  50  64
ATOM     64  C   UNL A   1      44.098  24.261  26.968  1.00  0.00     0.057 A 
ATOM     65  C   UNL A   1      43.809  22.890  26.806  1.00  0.00     0.134 A 
ATOM     66  C   UNL A   1      45.032  24.751  26.037  1.00  0.00     0.134 A 
ATOM     67  F   UNL A   1      42.870  22.276  27.537  1.00  0.00    -0.206 F 
ATOM     68  C   UNL A   1      44.473  22.065  25.883  1.00  0.00     0.040 A 
ATOM     69  C   UNL A   1      45.737  23.933  25.141  1.00  0.00     0.040 A 
ATOM     70  F   UNL A   1      45.274  26.053  25.887  1.00  0.00    -0.206 F 
ATOM     71  C   UNL A   1      45.470  22.579  25.070  1.00  0.00     0.006 A 
ENDBRANCH  50  64
BRANCH  51  72
ATOM     72  C   UNL A   1      40.107  30.297  33.394  1.00  0.00     0.057 A 
ATOM     73  C   UNL A   1      39.743  31.615  33.729  1.00  0.00     0.134 A 
ATOM     74  C   UNL A   1      39.069  29.394  33.151  1.00  0.00     0.134 A 
ATOM     75  F   UNL A   1      40.689  32.534  33.981  1.00  0.00    -0.206 F 
ATOM     76  C   UNL A   1      38.413  32.043  33.702  1.00  0.00     0.040 A 
ATOM     77  C   UNL A   1      37.732  29.808  33.139  1.00  0.00     0.040 A 
ATOM     78  F   UNL A   1      39.333  28.126  32.805  1.00  0.00    -0.206 F 
ATOM     79  C   UNL A   1      37.405  31.144  33.372  1.00  0.00     0.006 A 
ENDBRANCH  51  72
BRANCH  63  80
ATOM     80  C   UNL A   1      44.667  24.759  33.605  1.00  0.00     0.057 A 
ATOM     81  C   UNL A   1      46.010  24.375  33.741  1.00  0.00     0.134 A 
ATOM     82  C   UNL A   1      43.746  23.990  34.351  1.00  0.00     0.134 A 
ATOM     83  F   UNL A   1      47.002  25.078  33.177  1.00  0.00    -0.206 F 
ATOM     84  C   UNL A   1      46.403  23.278  34.520  1.00  0.00     0.040 A 
ATOM     85  C   UNL A   1      44.132  22.928  35.174  1.00  0.00     0.040 A 
ATOM     86  F   UNL A   1      42.431  24.255  34.334  1.00  0.00    -0.206 F 
ATOM     87  C   UNL A   1      45.466  22.559  35.251  1.00  0.00     0.006 A 
ENDBRANCH  63  80
ENDBRANCH  37  38
ENDBRANCH  29  32
ENDBRANCH  27  28
ENDBRANCH   1  27
TORSDOF 13
ENDMDL
