MODEL 1
REMARK VINA RESULT:     -12.6      0.000      0.000
REMARK SMILES Cc1ccc2[nH]c3c(=O)n(CC(=O)NCCCNC(=O)c4ccc(-c5c6nc(c(-c7c(F)cccc7F)c7ccc([nH]7)c(-c7c(F)cccc7F)c7nc(c(-c8c(F)cccc8F)c8ccc5[nH]8)C=C7)C=C6)cc4)cnc3c2c1
REMARK SMILES IDX 16 1 15 2 14 3 12 4 13 5 11 7 10 8 1 9 2 10 3 11 79 12 4 13
REMARK SMILES IDX 78 14 5 15 77 16 6 17 7 18 76 19 8 21 75 22 9 23 17 24 18 25
REMARK SMILES IDX 19 26 20 28 21 29 22 30 74 31 23 32 73 33 24 34 25 35 26 36
REMARK SMILES IDX 67 37 27 38 72 39 66 40 68 41 28 42 71 43 65 44 64 45 29 47
REMARK SMILES IDX 55 48 38 49 54 50 39 51 42 52 53 53 69 54 40 55 41 56 52 58
REMARK SMILES IDX 70 59 43 60 30 61 31 62 36 63 32 64 33 65 35 66 37 67 34 68
REMARK SMILES IDX 56 69 57 70 62 71 58 72 59 73 61 74 63 75 60 76 44 77 45 78
REMARK SMILES IDX 50 79 46 80 47 81 49 82 51 83 48 84
REMARK H PARENT 14 6 6 20 18 27 68 46 42 57
REMARK Flexibility Score: inf
ROOT
ATOM      1  C   UNL A   1      43.046  17.973  26.502  1.00  0.00     0.042 C 
ENDROOT
BRANCH   1   2
ATOM      2  C   UNL A   1      42.034  19.029  26.059  1.00  0.00     0.117 C 
BRANCH   2   3
ATOM      3  N   UNL A   1      41.645  19.930  27.126  1.00  0.00    -0.354 N 
ATOM      4  C   UNL A   1      40.827  21.019  27.117  1.00  0.00     0.240 C 
ATOM      5  O   UNL A   1      40.415  21.418  28.210  1.00  0.00    -0.273 OA
ATOM      6  H   UNL A   1      42.038  19.720  28.004  1.00  0.00     0.163 HD
BRANCH   4   7
ATOM      7  C   UNL A   1      40.303  21.628  25.813  1.00  0.00     0.226 C 
BRANCH   7   8
ATOM      8  N   UNL A   1      38.853  21.645  25.728  1.00  0.00    -0.288 N 
ATOM      9  C   UNL A   1      31.149  22.770  25.502  1.00  0.00     0.044 C 
ATOM     10  C   UNL A   1      32.357  21.890  25.356  1.00  0.00    -0.050 A 
ATOM     11  C   UNL A   1      32.223  20.550  24.977  1.00  0.00     0.005 A 
ATOM     12  C   UNL A   1      33.635  22.425  25.594  1.00  0.00     0.016 A 
ATOM     13  C   UNL A   1      33.338  19.718  24.820  1.00  0.00     0.027 A 
ATOM     14  C   UNL A   1      34.772  21.611  25.437  1.00  0.00     0.026 A 
ATOM     15  C   UNL A   1      34.599  20.275  25.052  1.00  0.00     0.048 A 
ATOM     16  C   UNL A   1      36.164  21.800  25.570  1.00  0.00     0.103 A 
ATOM     17  N   UNL A   1      35.854  19.704  24.956  1.00  0.00    -0.349 N 
ATOM     18  C   UNL A   1      36.804  20.633  25.272  1.00  0.00     0.132 A 
ATOM     19  N   UNL A   1      36.848  22.966  25.919  1.00  0.00    -0.236 NA
ATOM     20  H   UNL A   1      36.035  18.772  24.700  1.00  0.00     0.167 HD
ATOM     21  C   UNL A   1      38.217  20.485  25.301  1.00  0.00     0.278 A 
ATOM     22  C   UNL A   1      38.136  22.810  25.961  1.00  0.00     0.203 A 
ATOM     23  O   UNL A   1      38.792  19.446  24.990  1.00  0.00    -0.267 OA
ENDBRANCH   7   8
ENDBRANCH   4   7
ENDBRANCH   2   3
ENDBRANCH   1   2
BRANCH   1  24
ATOM     24  C   UNL A   1      44.472  18.224  26.008  1.00  0.00     0.118 C 
BRANCH  24  25
ATOM     25  N   UNL A   1      44.557  18.686  24.634  1.00  0.00    -0.352 N 
ATOM     26  C   UNL A   1      44.758  19.887  24.017  1.00  0.00     0.251 C 
ATOM     27  H   UNL A   1      44.441  17.952  23.988  1.00  0.00     0.163 HD
ATOM     28  O   UNL A   1      44.905  19.840  22.792  1.00  0.00    -0.269 OA
BRANCH  26  29
ATOM     29  C   UNL A   1      44.743  21.221  24.676  1.00  0.00     0.039 A 
ATOM     30  C   UNL A   1      45.570  21.624  25.721  1.00  0.00     0.014 A 
ATOM     31  C   UNL A   1      43.746  22.113  24.226  1.00  0.00     0.014 A 
ATOM     32  C   UNL A   1      45.338  22.836  26.368  1.00  0.00     0.010 A 
ATOM     33  C   UNL A   1      43.519  23.330  24.857  1.00  0.00     0.010 A 
ATOM     34  C   UNL A   1      44.284  23.667  25.965  1.00  0.00    -0.014 A 
BRANCH  34  35
ATOM     35  C   UNL A   1      44.102  24.937  26.668  1.00  0.00     0.031 A 
ATOM     36  C   UNL A   1      45.210  25.904  26.452  1.00  0.00     0.074 A 
ATOM     37  C   UNL A   1      43.008  25.259  27.390  1.00  0.00     0.049 A 
ATOM     38  N   UNL A   1      46.084  26.303  27.314  1.00  0.00    -0.248 NA
ATOM     39  C   UNL A   1      45.466  26.372  25.082  1.00  0.00     0.031 C 
ATOM     40  C   UNL A   1      41.737  24.531  27.458  1.00  0.00     0.029 A 
ATOM     41  N   UNL A   1      42.770  26.360  28.168  1.00  0.00    -0.354 N 
ATOM     42  C   UNL A   1      46.879  27.240  26.652  1.00  0.00     0.074 A 
ATOM     43  C   UNL A   1      46.562  27.116  25.256  1.00  0.00     0.031 C 
ATOM     44  C   UNL A   1      40.802  25.308  28.051  1.00  0.00     0.029 A 
ATOM     45  C   UNL A   1      41.440  26.519  28.541  1.00  0.00     0.049 A 
ATOM     46  H   UNL A   1      43.480  26.987  28.439  1.00  0.00     0.167 HD
ATOM     47  C   UNL A   1      47.517  28.217  27.354  1.00  0.00     0.037 A 
ATOM     48  C   UNL A   1      40.891  27.571  29.198  1.00  0.00     0.037 A 
ATOM     49  C   UNL A   1      47.549  27.888  28.758  1.00  0.00     0.049 A 
ATOM     50  C   UNL A   1      41.972  28.278  29.915  1.00  0.00     0.074 A 
ATOM     51  C   UNL A   1      48.260  27.060  29.597  1.00  0.00     0.029 A 
ATOM     52  N   UNL A   1      46.426  28.284  29.429  1.00  0.00    -0.354 N 
ATOM     53  N   UNL A   1      42.596  27.782  30.945  1.00  0.00    -0.248 NA
ATOM     54  C   UNL A   1      42.607  29.437  29.298  1.00  0.00     0.031 C 
ATOM     55  C   UNL A   1      47.425  26.841  30.737  1.00  0.00     0.029 A 
ATOM     56  C   UNL A   1      46.247  27.564  30.574  1.00  0.00     0.049 A 
ATOM     57  H   UNL A   1      45.823  29.000  29.125  1.00  0.00     0.167 HD
ATOM     58  C   UNL A   1      43.882  28.265  30.827  1.00  0.00     0.074 A 
ATOM     59  C   UNL A   1      43.784  29.411  29.931  1.00  0.00     0.031 C 
ATOM     60  C   UNL A   1      44.945  27.495  31.195  1.00  0.00     0.037 A 
BRANCH  47  61
ATOM     61  C   UNL A   1      47.588  29.679  26.928  1.00  0.00     0.057 A 
ATOM     62  C   UNL A   1      46.472  30.506  26.693  1.00  0.00     0.134 A 
ATOM     63  C   UNL A   1      48.800  30.375  27.137  1.00  0.00     0.134 A 
ATOM     64  F   UNL A   1      45.247  30.023  26.467  1.00  0.00    -0.206 F 
ATOM     65  C   UNL A   1      46.530  31.902  26.768  1.00  0.00     0.040 A 
ATOM     66  C   UNL A   1      48.861  31.771  27.252  1.00  0.00     0.040 A 
ATOM     67  F   UNL A   1      49.951  29.714  27.335  1.00  0.00    -0.206 F 
ATOM     68  C   UNL A   1      47.717  32.538  27.093  1.00  0.00     0.006 A 
ENDBRANCH  47  61
BRANCH  48  69
ATOM     69  C   UNL A   1      39.523  28.127  29.126  1.00  0.00     0.057 A 
ATOM     70  C   UNL A   1      39.134  28.933  28.044  1.00  0.00     0.134 A 
ATOM     71  C   UNL A   1      38.670  28.135  30.241  1.00  0.00     0.134 A 
ATOM     72  F   UNL A   1      39.912  29.048  26.959  1.00  0.00    -0.206 F 
ATOM     73  C   UNL A   1      37.982  29.727  28.079  1.00  0.00     0.040 A 
ATOM     74  C   UNL A   1      37.514  28.925  30.289  1.00  0.00     0.040 A 
ATOM     75  F   UNL A   1      38.973  27.423  31.336  1.00  0.00    -0.206 F 
ATOM     76  C   UNL A   1      37.175  29.737  29.212  1.00  0.00     0.006 A 
ENDBRANCH  48  69
BRANCH  60  77
ATOM     77  C   UNL A   1      44.680  26.398  32.174  1.00  0.00     0.057 A 
ATOM     78  C   UNL A   1      44.509  25.101  31.680  1.00  0.00     0.134 A 
ATOM     79  C   UNL A   1      44.541  26.584  33.555  1.00  0.00     0.134 A 
ATOM     80  F   UNL A   1      44.587  24.864  30.360  1.00  0.00    -0.206 F 
ATOM     81  C   UNL A   1      44.231  24.027  32.522  1.00  0.00     0.040 A 
ATOM     82  C   UNL A   1      44.295  25.510  34.414  1.00  0.00     0.040 A 
ATOM     83  F   UNL A   1      44.614  27.806  34.102  1.00  0.00    -0.206 F 
ATOM     84  C   UNL A   1      44.137  24.227  33.897  1.00  0.00     0.006 A 
ENDBRANCH  60  77
ENDBRANCH  34  35
ENDBRANCH  26  29
ENDBRANCH  24  25
ENDBRANCH   1  24
TORSDOF 11
ENDMDL
MODEL 2
REMARK VINA RESULT:     -12.0      3.382      7.924
REMARK SMILES Cc1ccc2[nH]c3c(=O)n(CC(=O)NCCCNC(=O)c4ccc(-c5c6nc(c(-c7c(F)cccc7F)c7ccc([nH]7)c(-c7c(F)cccc7F)c7nc(c(-c8c(F)cccc8F)c8ccc5[nH]8)C=C7)C=C6)cc4)cnc3c2c1
REMARK SMILES IDX 16 1 15 2 14 3 12 4 13 5 11 7 10 8 1 9 2 10 3 11 79 12 4 13
REMARK SMILES IDX 78 14 5 15 77 16 6 17 7 18 76 19 8 21 75 22 9 23 17 24 18 25
REMARK SMILES IDX 19 26 20 28 21 29 22 30 74 31 23 32 73 33 24 34 25 35 26 36
REMARK SMILES IDX 67 37 27 38 72 39 66 40 68 41 28 42 71 43 65 44 64 45 29 47
REMARK SMILES IDX 55 48 38 49 54 50 39 51 42 52 53 53 69 54 40 55 41 56 52 58
REMARK SMILES IDX 70 59 43 60 30 61 31 62 36 63 32 64 33 65 35 66 37 67 34 68
REMARK SMILES IDX 56 69 57 70 62 71 58 72 59 73 61 74 63 75 60 76 44 77 45 78
REMARK SMILES IDX 50 79 46 80 47 81 49 82 51 83 48 84
REMARK H PARENT 14 6 6 20 18 27 68 46 42 57
REMARK Flexibility Score: inf
ROOT
ATOM      1  C   UNL A   1      33.250  28.940  26.936  1.00  0.00     0.042 C 
ENDROOT
BRANCH   1   2
ATOM      2  C   UNL A   1      32.763  29.981  25.927  1.00  0.00     0.117 C 
BRANCH   2   3
ATOM      3  N   UNL A   1      33.174  29.694  24.567  1.00  0.00    -0.354 N 
ATOM      4  C   UNL A   1      32.720  28.770  23.676  1.00  0.00     0.240 C 
ATOM      5  O   UNL A   1      33.020  28.941  22.490  1.00  0.00    -0.273 OA
ATOM      6  H   UNL A   1      33.905  30.263  24.232  1.00  0.00     0.163 HD
BRANCH   4   7
ATOM      7  C   UNL A   1      31.749  27.659  24.085  1.00  0.00     0.226 C 
BRANCH   7   8
ATOM      8  N   UNL A   1      32.383  26.358  24.210  1.00  0.00    -0.288 N 
ATOM      9  C   UNL A   1      36.688  19.918  25.020  1.00  0.00     0.044 C 
ATOM     10  C   UNL A   1      35.368  20.603  24.817  1.00  0.00    -0.050 A 
ATOM     11  C   UNL A   1      34.187  19.861  24.706  1.00  0.00     0.005 A 
ATOM     12  C   UNL A   1      35.321  22.006  24.747  1.00  0.00     0.016 A 
ATOM     13  C   UNL A   1      32.945  20.481  24.533  1.00  0.00     0.027 A 
ATOM     14  C   UNL A   1      34.083  22.655  24.579  1.00  0.00     0.026 A 
ATOM     15  C   UNL A   1      32.921  21.878  24.478  1.00  0.00     0.048 A 
ATOM     16  C   UNL A   1      33.662  23.998  24.484  1.00  0.00     0.103 A 
ATOM     17  N   UNL A   1      31.854  22.744  24.334  1.00  0.00    -0.349 N 
ATOM     18  C   UNL A   1      32.307  24.032  24.338  1.00  0.00     0.132 A 
ATOM     19  N   UNL A   1      34.442  25.154  24.546  1.00  0.00    -0.236 NA
ATOM     20  H   UNL A   1      30.912  22.474  24.243  1.00  0.00     0.167 HD
ATOM     21  C   UNL A   1      31.561  25.237  24.220  1.00  0.00     0.278 A 
ATOM     22  C   UNL A   1      33.750  26.245  24.418  1.00  0.00     0.203 A 
ATOM     23  O   UNL A   1      30.337  25.266  24.134  1.00  0.00    -0.267 OA
ENDBRANCH   7   8
ENDBRANCH   4   7
ENDBRANCH   2   3
ENDBRANCH   1   2
BRANCH   1  24
ATOM     24  C   UNL A   1      34.744  29.031  27.256  1.00  0.00     0.118 C 
BRANCH  24  25
ATOM     25  N   UNL A   1      35.049  29.708  28.504  1.00  0.00    -0.352 N 
ATOM     26  C   UNL A   1      36.175  29.949  29.236  1.00  0.00     0.251 C 
ATOM     27  H   UNL A   1      34.244  30.086  28.926  1.00  0.00     0.163 HD
ATOM     28  O   UNL A   1      36.033  30.704  30.202  1.00  0.00    -0.269 OA
BRANCH  26  29
ATOM     29  C   UNL A   1      37.511  29.334  29.011  1.00  0.00     0.039 A 
ATOM     30  C   UNL A   1      38.153  28.441  29.865  1.00  0.00     0.014 A 
ATOM     31  C   UNL A   1      38.194  29.764  27.853  1.00  0.00     0.014 A 
ATOM     32  C   UNL A   1      39.476  28.075  29.627  1.00  0.00     0.010 A 
ATOM     33  C   UNL A   1      39.508  29.390  27.602  1.00  0.00     0.010 A 
ATOM     34  C   UNL A   1      40.167  28.585  28.520  1.00  0.00    -0.014 A 
BRANCH  34  35
ATOM     35  C   UNL A   1      41.547  28.149  28.310  1.00  0.00     0.031 A 
ATOM     36  C   UNL A   1      41.661  26.851  27.594  1.00  0.00     0.074 A 
ATOM     37  C   UNL A   1      42.636  28.868  28.653  1.00  0.00     0.049 A 
ATOM     38  N   UNL A   1      42.068  25.723  28.073  1.00  0.00    -0.248 NA
ATOM     39  C   UNL A   1      41.124  26.760  26.229  1.00  0.00     0.031 C 
ATOM     40  C   UNL A   1      42.678  30.264  29.101  1.00  0.00     0.029 A 
ATOM     41  N   UNL A   1      43.960  28.525  28.602  1.00  0.00    -0.354 N 
ATOM     42  C   UNL A   1      42.039  24.820  27.008  1.00  0.00     0.074 A 
ATOM     43  C   UNL A   1      41.300  25.464  25.959  1.00  0.00     0.031 C 
ATOM     44  C   UNL A   1      43.956  30.709  29.072  1.00  0.00     0.029 A 
ATOM     45  C   UNL A   1      44.835  29.595  28.757  1.00  0.00     0.049 A 
ATOM     46  H   UNL A   1      44.267  27.599  28.466  1.00  0.00     0.167 HD
ATOM     47  C   UNL A   1      42.869  23.740  27.003  1.00  0.00     0.037 A 
ATOM     48  C   UNL A   1      46.185  29.579  28.628  1.00  0.00     0.037 A 
ATOM     49  C   UNL A   1      43.406  23.512  28.321  1.00  0.00     0.049 A 
ATOM     50  C   UNL A   1      46.646  28.187  28.812  1.00  0.00     0.074 A 
ATOM     51  C   UNL A   1      42.988  22.967  29.515  1.00  0.00     0.029 A 
ATOM     52  N   UNL A   1      44.532  24.243  28.579  1.00  0.00    -0.354 N 
ATOM     53  N   UNL A   1      46.608  27.563  29.954  1.00  0.00    -0.248 NA
ATOM     54  C   UNL A   1      46.868  27.342  27.645  1.00  0.00     0.031 C 
ATOM     55  C   UNL A   1      43.815  23.547  30.526  1.00  0.00     0.029 A 
ATOM     56  C   UNL A   1      44.731  24.402  29.919  1.00  0.00     0.049 A 
ATOM     57  H   UNL A   1      45.125  24.609  27.883  1.00  0.00     0.167 HD
ATOM     58  C   UNL A   1      46.355  26.250  29.615  1.00  0.00     0.074 A 
ATOM     59  C   UNL A   1      46.716  26.139  28.207  1.00  0.00     0.031 C 
ATOM     60  C   UNL A   1      45.568  25.470  30.409  1.00  0.00     0.037 A 
BRANCH  47  61
ATOM     61  C   UNL A   1      43.651  23.258  25.785  1.00  0.00     0.057 A 
ATOM     62  C   UNL A   1      44.579  24.035  25.064  1.00  0.00     0.134 A 
ATOM     63  C   UNL A   1      43.760  21.866  25.572  1.00  0.00     0.134 A 
ATOM     64  F   UNL A   1      44.618  25.368  25.134  1.00  0.00    -0.206 F 
ATOM     65  C   UNL A   1      45.597  23.474  24.285  1.00  0.00     0.040 A 
ATOM     66  C   UNL A   1      44.798  21.293  24.826  1.00  0.00     0.040 A 
ATOM     67  F   UNL A   1      42.915  21.008  26.165  1.00  0.00    -0.206 F 
ATOM     68  C   UNL A   1      45.738  22.098  24.199  1.00  0.00     0.006 A 
ENDBRANCH  47  61
BRANCH  48  69
ATOM     69  C   UNL A   1      47.110  30.644  28.187  1.00  0.00     0.057 A 
ATOM     70  C   UNL A   1      47.979  31.261  29.102  1.00  0.00     0.134 A 
ATOM     71  C   UNL A   1      46.961  31.284  26.948  1.00  0.00     0.134 A 
ATOM     72  F   UNL A   1      48.140  30.766  30.338  1.00  0.00    -0.206 F 
ATOM     73  C   UNL A   1      48.636  32.463  28.815  1.00  0.00     0.040 A 
ATOM     74  C   UNL A   1      47.612  32.489  26.648  1.00  0.00     0.040 A 
ATOM     75  F   UNL A   1      46.128  30.790  26.021  1.00  0.00    -0.206 F 
ATOM     76  C   UNL A   1      48.441  33.090  27.590  1.00  0.00     0.006 A 
ENDBRANCH  48  69
BRANCH  60  77
ATOM     77  C   UNL A   1      45.440  25.877  31.841  1.00  0.00     0.057 A 
ATOM     78  C   UNL A   1      44.305  26.600  32.222  1.00  0.00     0.134 A 
ATOM     79  C   UNL A   1      46.403  25.625  32.827  1.00  0.00     0.134 A 
ATOM     80  F   UNL A   1      43.365  26.911  31.315  1.00  0.00    -0.206 F 
ATOM     81  C   UNL A   1      44.121  27.041  33.531  1.00  0.00     0.040 A 
ATOM     82  C   UNL A   1      46.215  26.033  34.151  1.00  0.00     0.040 A 
ATOM     83  F   UNL A   1      47.554  25.006  32.531  1.00  0.00    -0.206 F 
ATOM     84  C   UNL A   1      45.072  26.746  34.504  1.00  0.00     0.006 A 
ENDBRANCH  60  77
ENDBRANCH  34  35
ENDBRANCH  26  29
ENDBRANCH  24  25
ENDBRANCH   1  24
TORSDOF 11
ENDMDL
MODEL 3
REMARK VINA RESULT:     -11.9      5.100     11.343
REMARK SMILES Cc1ccc2[nH]c3c(=O)n(CC(=O)NCCCNC(=O)c4ccc(-c5c6nc(c(-c7c(F)cccc7F)c7ccc([nH]7)c(-c7c(F)cccc7F)c7nc(c(-c8c(F)cccc8F)c8ccc5[nH]8)C=C7)C=C6)cc4)cnc3c2c1
REMARK SMILES IDX 16 1 15 2 14 3 12 4 13 5 11 7 10 8 1 9 2 10 3 11 79 12 4 13
REMARK SMILES IDX 78 14 5 15 77 16 6 17 7 18 76 19 8 21 75 22 9 23 17 24 18 25
REMARK SMILES IDX 19 26 20 28 21 29 22 30 74 31 23 32 73 33 24 34 25 35 26 36
REMARK SMILES IDX 67 37 27 38 72 39 66 40 68 41 28 42 71 43 65 44 64 45 29 47
REMARK SMILES IDX 55 48 38 49 54 50 39 51 42 52 53 53 69 54 40 55 41 56 52 58
REMARK SMILES IDX 70 59 43 60 30 61 31 62 36 63 32 64 33 65 35 66 37 67 34 68
REMARK SMILES IDX 56 69 57 70 62 71 58 72 59 73 61 74 63 75 60 76 44 77 45 78
REMARK SMILES IDX 50 79 46 80 47 81 49 82 51 83 48 84
REMARK H PARENT 14 6 6 20 18 27 68 46 42 57
REMARK Flexibility Score: inf
ROOT
ATOM      1  C   UNL A   1      34.716  35.339  28.239  1.00  0.00     0.042 C 
ENDROOT
BRANCH   1   2
ATOM      2  C   UNL A   1      33.275  35.342  28.749  1.00  0.00     0.117 C 
BRANCH   2   3
ATOM      3  N   UNL A   1      32.979  36.466  29.616  1.00  0.00    -0.354 N 
ATOM      4  C   UNL A   1      32.848  36.534  30.970  1.00  0.00     0.240 C 
ATOM      5  O   UNL A   1      32.908  37.656  31.482  1.00  0.00    -0.273 OA
ATOM      6  H   UNL A   1      32.852  37.322  29.148  1.00  0.00     0.163 HD
BRANCH   4   7
ATOM      7  C   UNL A   1      32.793  35.277  31.843  1.00  0.00     0.226 C 
BRANCH   7   8
ATOM      8  N   UNL A   1      34.097  34.854  32.325  1.00  0.00    -0.288 N 
ATOM      9  C   UNL A   1      41.047  33.438  35.543  1.00  0.00     0.044 C 
ATOM     10  C   UNL A   1      39.929  33.076  34.608  1.00  0.00    -0.050 A 
ATOM     11  C   UNL A   1      39.988  31.905  33.845  1.00  0.00     0.005 A 
ATOM     12  C   UNL A   1      38.810  33.921  34.508  1.00  0.00     0.016 A 
ATOM     13  C   UNL A   1      38.949  31.541  32.980  1.00  0.00     0.027 A 
ATOM     14  C   UNL A   1      37.751  33.575  33.649  1.00  0.00     0.026 A 
ATOM     15  C   UNL A   1      37.842  32.391  32.905  1.00  0.00     0.048 A 
ATOM     16  C   UNL A   1      36.507  34.150  33.313  1.00  0.00     0.103 A 
ATOM     17  N   UNL A   1      36.682  32.277  32.162  1.00  0.00    -0.349 N 
ATOM     18  C   UNL A   1      35.872  33.347  32.412  1.00  0.00     0.132 A 
ATOM     19  N   UNL A   1      35.940  35.329  33.801  1.00  0.00    -0.236 NA
ATOM     20  H   UNL A   1      36.473  31.537  31.548  1.00  0.00     0.167 HD
ATOM     21  C   UNL A   1      34.589  33.635  31.872  1.00  0.00     0.278 A 
ATOM     22  C   UNL A   1      34.778  35.589  33.285  1.00  0.00     0.203 A 
ATOM     23  O   UNL A   1      34.001  32.889  31.095  1.00  0.00    -0.267 OA
ENDBRANCH   7   8
ENDBRANCH   4   7
ENDBRANCH   2   3
ENDBRANCH   1   2
BRANCH   1  24
ATOM     24  C   UNL A   1      35.481  34.045  28.531  1.00  0.00     0.118 C 
BRANCH  24  25
ATOM     25  N   UNL A   1      34.827  32.841  28.052  1.00  0.00    -0.352 N 
ATOM     26  C   UNL A   1      35.090  31.502  28.096  1.00  0.00     0.251 C 
ATOM     27  H   UNL A   1      33.987  33.040  27.578  1.00  0.00     0.163 HD
ATOM     28  O   UNL A   1      34.189  30.768  27.678  1.00  0.00    -0.269 OA
BRANCH  26  29
ATOM     29  C   UNL A   1      36.368  30.877  28.528  1.00  0.00     0.039 A 
ATOM     30  C   UNL A   1      37.497  31.556  28.981  1.00  0.00     0.014 A 
ATOM     31  C   UNL A   1      36.438  29.474  28.392  1.00  0.00     0.014 A 
ATOM     32  C   UNL A   1      38.690  30.867  29.188  1.00  0.00     0.010 A 
ATOM     33  C   UNL A   1      37.621  28.779  28.611  1.00  0.00     0.010 A 
ATOM     34  C   UNL A   1      38.764  29.486  28.959  1.00  0.00    -0.014 A 
BRANCH  34  35
ATOM     35  C   UNL A   1      40.037  28.814  29.213  1.00  0.00     0.031 A 
ATOM     36  C   UNL A   1      40.391  28.729  30.655  1.00  0.00     0.074 A 
ATOM     37  C   UNL A   1      40.805  28.247  28.258  1.00  0.00     0.049 A 
ATOM     38  N   UNL A   1      41.344  29.348  31.268  1.00  0.00    -0.248 NA
ATOM     39  C   UNL A   1      39.493  27.982  31.548  1.00  0.00     0.031 C 
ATOM     40  C   UNL A   1      40.453  28.010  26.855  1.00  0.00     0.029 A 
ATOM     41  N   UNL A   1      42.050  27.688  28.359  1.00  0.00    -0.354 N 
ATOM     42  C   UNL A   1      41.301  28.906  32.591  1.00  0.00     0.074 A 
ATOM     43  C   UNL A   1      40.054  28.208  32.738  1.00  0.00     0.031 C 
ATOM     44  C   UNL A   1      41.359  27.174  26.297  1.00  0.00     0.029 A 
ATOM     45  C   UNL A   1      42.433  26.942  27.249  1.00  0.00     0.049 A 
ATOM     46  H   UNL A   1      42.625  27.803  29.150  1.00  0.00     0.167 HD
ATOM     47  C   UNL A   1      42.428  28.923  33.357  1.00  0.00     0.037 A 
ATOM     48  C   UNL A   1      43.546  26.178  27.116  1.00  0.00     0.037 A 
ATOM     49  C   UNL A   1      43.433  29.762  32.752  1.00  0.00     0.049 A 
ATOM     50  C   UNL A   1      44.545  26.650  28.097  1.00  0.00     0.074 A 
ATOM     51  C   UNL A   1      43.704  31.107  32.630  1.00  0.00     0.029 A 
ATOM     52  N   UNL A   1      44.198  29.106  31.828  1.00  0.00    -0.354 N 
ATOM     53  N   UNL A   1      45.153  27.798  28.007  1.00  0.00    -0.248 NA
ATOM     54  C   UNL A   1      44.658  25.981  29.388  1.00  0.00     0.031 C 
ATOM     55  C   UNL A   1      44.535  31.239  31.476  1.00  0.00     0.029 A 
ATOM     56  C   UNL A   1      44.771  29.974  30.946  1.00  0.00     0.049 A 
ATOM     57  H   UNL A   1      44.319  28.129  31.803  1.00  0.00     0.167 HD
ATOM     58  C   UNL A   1      45.331  28.190  29.318  1.00  0.00     0.074 A 
ATOM     59  C   UNL A   1      45.192  26.972  30.108  1.00  0.00     0.031 C 
ATOM     60  C   UNL A   1      45.240  29.505  29.664  1.00  0.00     0.037 A 
BRANCH  47  61
ATOM     61  C   UNL A   1      42.858  27.792  34.284  1.00  0.00     0.057 A 
ATOM     62  C   UNL A   1      42.633  27.759  35.674  1.00  0.00     0.134 A 
ATOM     63  C   UNL A   1      43.159  26.537  33.709  1.00  0.00     0.134 A 
ATOM     64  F   UNL A   1      42.346  28.851  36.388  1.00  0.00    -0.206 F 
ATOM     65  C   UNL A   1      42.600  26.570  36.411  1.00  0.00     0.040 A 
ATOM     66  C   UNL A   1      43.090  25.338  34.430  1.00  0.00     0.040 A 
ATOM     67  F   UNL A   1      43.433  26.426  32.400  1.00  0.00    -0.206 F 
ATOM     68  C   UNL A   1      42.784  25.349  35.782  1.00  0.00     0.006 A 
ENDBRANCH  47  61
BRANCH  48  69
ATOM     69  C   UNL A   1      43.767  24.951  26.322  1.00  0.00     0.057 A 
ATOM     70  C   UNL A   1      43.256  23.717  26.754  1.00  0.00     0.134 A 
ATOM     71  C   UNL A   1      44.721  24.900  25.294  1.00  0.00     0.134 A 
ATOM     72  F   UNL A   1      42.389  23.652  27.775  1.00  0.00    -0.206 F 
ATOM     73  C   UNL A   1      43.692  22.499  26.221  1.00  0.00     0.040 A 
ATOM     74  C   UNL A   1      45.167  23.687  24.752  1.00  0.00     0.040 A 
ATOM     75  F   UNL A   1      45.291  26.024  24.836  1.00  0.00    -0.206 F 
ATOM     76  C   UNL A   1      44.664  22.480  25.227  1.00  0.00     0.006 A 
ENDBRANCH  48  69
BRANCH  60  77
ATOM     77  C   UNL A   1      45.470  30.507  28.579  1.00  0.00     0.057 A 
ATOM     78  C   UNL A   1      44.356  31.017  27.906  1.00  0.00     0.134 A 
ATOM     79  C   UNL A   1      46.733  30.939  28.153  1.00  0.00     0.134 A 
ATOM     80  F   UNL A   1      43.120  30.611  28.239  1.00  0.00    -0.206 F 
ATOM     81  C   UNL A   1      44.484  31.934  26.865  1.00  0.00     0.040 A 
ATOM     82  C   UNL A   1      46.874  31.883  27.132  1.00  0.00     0.040 A 
ATOM     83  F   UNL A   1      47.855  30.443  28.692  1.00  0.00    -0.206 F 
ATOM     84  C   UNL A   1      45.747  32.381  26.483  1.00  0.00     0.006 A 
ENDBRANCH  60  77
ENDBRANCH  34  35
ENDBRANCH  26  29
ENDBRANCH  24  25
ENDBRANCH   1  24
TORSDOF 11
ENDMDL
