MODEL 1
REMARK VINA RESULT:     -10.3      0.000      0.000
REMARK SMILES CCc1ccsc1C(=O)N(CC(=O)NCCCNC(=O)c1ccc(-c2c3nc(c(-c4c(F)cccc4F)c4ccc([nH]4)c(-c4c(F)cccc4F)c4nc(c(-c5c(F)cccc5F)c5ccc2[nH]5)C=C4)C=C3)cc1)C(C)(C)C
REMARK SMILES IDX 15 1 14 2 12 3 13 4 11 6 10 7 8 8 9 9 7 10 3 11 4 12 5 13
REMARK SMILES IDX 6 14 2 15 1 16 75 17 76 18 77 19 78 20 16 21 17 22 18 23
REMARK SMILES IDX 19 24 20 26 21 27 22 28 74 29 23 30 73 31 24 32 25 33 26 34
REMARK SMILES IDX 67 35 27 36 72 37 66 38 68 39 28 40 71 41 65 42 64 43 29 45
REMARK SMILES IDX 55 46 38 47 54 48 39 49 42 50 53 51 69 52 40 53 41 54 52 56
REMARK SMILES IDX 70 57 43 58 30 59 31 60 36 61 32 62 33 63 35 64 37 65 34 66
REMARK SMILES IDX 56 67 57 68 62 69 58 70 59 71 61 72 63 73 60 74 44 75 45 76
REMARK SMILES IDX 50 77 46 78 47 79 49 80 51 81 48 82
REMARK H PARENT 14 5 18 25 68 44 42 55
REMARK Flexibility Score: inf
ROOT
ATOM      1  C   UNL A   1      37.156  20.919  24.542  1.00  0.00     0.117 C 
ENDROOT
BRANCH   1   2
ATOM      2  N   UNL A   1      37.664  22.242  24.845  1.00  0.00    -0.354 N 
ATOM      3  C   UNL A   1      37.167  23.242  25.621  1.00  0.00     0.239 C 
ATOM      4  O   UNL A   1      37.973  24.116  25.964  1.00  0.00    -0.273 OA
ATOM      5  H   UNL A   1      38.522  22.455  24.411  1.00  0.00     0.163 HD
BRANCH   3   6
ATOM      6  C   UNL A   1      35.738  23.263  26.196  1.00  0.00     0.220 C 
BRANCH   6   7
ATOM      7  N   UNL A   1      34.623  23.318  25.272  1.00  0.00    -0.324 N 
BRANCH   7   8
ATOM      8  C   UNL A   1      34.576  24.164  24.124  1.00  0.00     0.265 C 
ATOM      9  O   UNL A   1      35.204  23.733  23.145  1.00  0.00    -0.268 OA
BRANCH   8  10
ATOM     10  C   UNL A   1      33.844  25.479  23.959  1.00  0.00     0.095 A 
ATOM     11  C   UNL A   1      33.432  26.635  24.664  1.00  0.00    -0.025 A 
ATOM     12  C   UNL A   1      32.607  27.506  23.842  1.00  0.00     0.016 A 
ATOM     13  C   UNL A   1      32.405  27.059  22.569  1.00  0.00     0.066 A 
ATOM     14  S   UNL A   1      33.231  25.622  22.291  1.00  0.00    -0.138 S 
BRANCH  11  15
ATOM     15  C   UNL A   1      33.627  27.114  26.086  1.00  0.00     0.034 C 
ATOM     16  C   UNL A   1      34.041  28.579  26.162  1.00  0.00     0.009 C 
ENDBRANCH  11  15
ENDBRANCH   8  10
ENDBRANCH   7   8
BRANCH   7  17
ATOM     17  C   UNL A   1      33.467  22.343  25.530  1.00  0.00     0.035 C 
ATOM     18  C   UNL A   1      32.938  21.719  24.222  1.00  0.00     0.034 C 
ATOM     19  C   UNL A   1      33.899  21.227  26.513  1.00  0.00     0.034 C 
ATOM     20  C   UNL A   1      32.216  22.995  26.193  1.00  0.00     0.034 C 
ENDBRANCH   7  17
ENDBRANCH   6   7
ENDBRANCH   3   6
ENDBRANCH   1   2
BRANCH   1  21
ATOM     21  C   UNL A   1      38.115  19.785  24.858  1.00  0.00     0.042 C 
BRANCH  21  22
ATOM     22  C   UNL A   1      39.170  20.138  25.895  1.00  0.00     0.118 C 
BRANCH  22  23
ATOM     23  N   UNL A   1      40.300  19.220  25.870  1.00  0.00    -0.352 N 
ATOM     24  C   UNL A   1      41.634  19.471  26.063  1.00  0.00     0.251 C 
ATOM     25  H   UNL A   1      40.072  18.280  25.687  1.00  0.00     0.163 HD
ATOM     26  O   UNL A   1      42.461  18.589  25.813  1.00  0.00    -0.269 OA
BRANCH  24  27
ATOM     27  C   UNL A   1      42.094  20.788  26.551  1.00  0.00     0.039 A 
ATOM     28  C   UNL A   1      42.515  21.743  25.620  1.00  0.00     0.014 A 
ATOM     29  C   UNL A   1      42.139  21.079  27.918  1.00  0.00     0.014 A 
ATOM     30  C   UNL A   1      42.926  23.005  26.055  1.00  0.00     0.010 A 
ATOM     31  C   UNL A   1      42.476  22.361  28.344  1.00  0.00     0.010 A 
ATOM     32  C   UNL A   1      42.881  23.335  27.419  1.00  0.00    -0.014 A 
BRANCH  32  33
ATOM     33  C   UNL A   1      43.250  24.691  27.893  1.00  0.00     0.031 A 
ATOM     34  C   UNL A   1      42.188  25.716  28.176  1.00  0.00     0.074 A 
ATOM     35  C   UNL A   1      44.551  25.026  27.997  1.00  0.00     0.049 A 
ATOM     36  N   UNL A   1      42.321  26.964  28.547  1.00  0.00    -0.248 NA
ATOM     37  C   UNL A   1      40.793  25.291  27.985  1.00  0.00     0.031 C 
ATOM     38  C   UNL A   1      45.677  24.147  27.682  1.00  0.00     0.029 A 
ATOM     39  N   UNL A   1      45.142  26.203  28.381  1.00  0.00    -0.354 N 
ATOM     40  C   UNL A   1      41.032  27.478  28.615  1.00  0.00     0.074 A 
ATOM     41  C   UNL A   1      40.135  26.421  28.197  1.00  0.00     0.031 C 
ATOM     42  C   UNL A   1      46.824  24.811  27.897  1.00  0.00     0.029 A 
ATOM     43  C   UNL A   1      46.514  26.166  28.340  1.00  0.00     0.049 A 
ATOM     44  H   UNL A   1      44.631  26.997  28.660  1.00  0.00     0.167 HD
ATOM     45  C   UNL A   1      40.630  28.709  29.009  1.00  0.00     0.037 A 
ATOM     46  C   UNL A   1      47.421  27.120  28.620  1.00  0.00     0.037 A 
ATOM     47  C   UNL A   1      41.521  29.750  29.451  1.00  0.00     0.049 A 
ATOM     48  C   UNL A   1      46.955  28.467  29.090  1.00  0.00     0.074 A 
ATOM     49  C   UNL A   1      41.205  30.999  29.955  1.00  0.00     0.029 A 
ATOM     50  N   UNL A   1      42.905  29.663  29.433  1.00  0.00    -0.354 N 
ATOM     51  N   UNL A   1      45.731  28.911  29.238  1.00  0.00    -0.248 NA
ATOM     52  C   UNL A   1      47.996  29.442  29.443  1.00  0.00     0.031 C 
ATOM     53  C   UNL A   1      42.401  31.685  30.204  1.00  0.00     0.029 A 
ATOM     54  C   UNL A   1      43.459  30.847  29.893  1.00  0.00     0.049 A 
ATOM     55  H   UNL A   1      43.418  28.876  29.136  1.00  0.00     0.167 HD
ATOM     56  C   UNL A   1      45.850  30.210  29.710  1.00  0.00     0.074 A 
ATOM     57  C   UNL A   1      47.268  30.477  29.844  1.00  0.00     0.031 C 
ATOM     58  C   UNL A   1      44.873  31.103  30.006  1.00  0.00     0.037 A 
BRANCH  45  59
ATOM     59  C   UNL A   1      39.155  28.989  28.976  1.00  0.00     0.057 A 
ATOM     60  C   UNL A   1      38.507  29.413  27.807  1.00  0.00     0.134 A 
ATOM     61  C   UNL A   1      38.371  28.833  30.126  1.00  0.00     0.134 A 
ATOM     62  F   UNL A   1      39.203  29.595  26.674  1.00  0.00    -0.206 F 
ATOM     63  C   UNL A   1      37.144  29.709  27.793  1.00  0.00     0.040 A 
ATOM     64  C   UNL A   1      37.001  29.098  30.117  1.00  0.00     0.040 A 
ATOM     65  F   UNL A   1      38.925  28.423  31.277  1.00  0.00    -0.206 F 
ATOM     66  C   UNL A   1      36.385  29.548  28.950  1.00  0.00     0.006 A 
ENDBRANCH  45  59
BRANCH  46  67
ATOM     67  C   UNL A   1      48.865  26.811  28.488  1.00  0.00     0.057 A 
ATOM     68  C   UNL A   1      49.595  26.296  29.564  1.00  0.00     0.134 A 
ATOM     69  C   UNL A   1      49.536  26.983  27.272  1.00  0.00     0.134 A 
ATOM     70  F   UNL A   1      49.008  26.126  30.757  1.00  0.00    -0.206 F 
ATOM     71  C   UNL A   1      50.945  25.967  29.439  1.00  0.00     0.040 A 
ATOM     72  C   UNL A   1      50.881  26.639  27.126  1.00  0.00     0.040 A 
ATOM     73  F   UNL A   1      48.886  27.463  26.202  1.00  0.00    -0.206 F 
ATOM     74  C   UNL A   1      51.590  26.131  28.214  1.00  0.00     0.006 A 
ENDBRANCH  46  67
BRANCH  58  75
ATOM     75  C   UNL A   1      45.308  32.449  30.506  1.00  0.00     0.057 A 
ATOM     76  C   UNL A   1      45.508  33.527  29.635  1.00  0.00     0.134 A 
ATOM     77  C   UNL A   1      45.500  32.677  31.875  1.00  0.00     0.134 A 
ATOM     78  F   UNL A   1      45.354  33.370  28.311  1.00  0.00    -0.206 F 
ATOM     79  C   UNL A   1      45.904  34.780  30.105  1.00  0.00     0.040 A 
ATOM     80  C   UNL A   1      45.872  33.932  32.358  1.00  0.00     0.040 A 
ATOM     81  F   UNL A   1      45.318  31.688  32.762  1.00  0.00    -0.206 F 
ATOM     82  C   UNL A   1      46.082  34.986  31.472  1.00  0.00     0.006 A 
ENDBRANCH  58  75
ENDBRANCH  32  33
ENDBRANCH  24  27
ENDBRANCH  22  23
ENDBRANCH  21  22
ENDBRANCH   1  21
TORSDOF 15
ENDMDL
MODEL 2
REMARK VINA RESULT:     -10.2      3.996      8.914
REMARK SMILES CCc1ccsc1C(=O)N(CC(=O)NCCCNC(=O)c1ccc(-c2c3nc(c(-c4c(F)cccc4F)c4ccc([nH]4)c(-c4c(F)cccc4F)c4nc(c(-c5c(F)cccc5F)c5ccc2[nH]5)C=C4)C=C3)cc1)C(C)(C)C
REMARK SMILES IDX 15 1 14 2 12 3 13 4 11 6 10 7 8 8 9 9 7 10 3 11 4 12 5 13
REMARK SMILES IDX 6 14 2 15 1 16 75 17 76 18 77 19 78 20 16 21 17 22 18 23
REMARK SMILES IDX 19 24 20 26 21 27 22 28 74 29 23 30 73 31 24 32 25 33 26 34
REMARK SMILES IDX 67 35 27 36 72 37 66 38 68 39 28 40 71 41 65 42 64 43 29 45
REMARK SMILES IDX 55 46 38 47 54 48 39 49 42 50 53 51 69 52 40 53 41 54 52 56
REMARK SMILES IDX 70 57 43 58 30 59 31 60 36 61 32 62 33 63 35 64 37 65 34 66
REMARK SMILES IDX 56 67 57 68 62 69 58 70 59 71 61 72 63 73 60 74 44 75 45 76
REMARK SMILES IDX 50 77 46 78 47 79 49 80 51 81 48 82
REMARK H PARENT 14 5 18 25 68 44 42 55
REMARK Flexibility Score: inf
ROOT
ATOM      1  C   UNL A   1      31.511  29.877  25.646  1.00  0.00     0.117 C 
ENDROOT
BRANCH   1   2
ATOM      2  N   UNL A   1      32.593  29.164  26.294  1.00  0.00    -0.354 N 
ATOM      3  C   UNL A   1      33.341  28.102  25.891  1.00  0.00     0.239 C 
ATOM      4  O   UNL A   1      34.408  27.929  26.494  1.00  0.00    -0.273 OA
ATOM      5  H   UNL A   1      32.830  29.511  27.185  1.00  0.00     0.163 HD
BRANCH   3   6
ATOM      6  C   UNL A   1      33.011  27.225  24.668  1.00  0.00     0.220 C 
BRANCH   6   7
ATOM      7  N   UNL A   1      32.135  26.085  24.853  1.00  0.00    -0.324 N 
BRANCH   7   8
ATOM      8  C   UNL A   1      32.172  25.223  25.989  1.00  0.00     0.265 C 
ATOM      9  O   UNL A   1      31.263  25.419  26.810  1.00  0.00    -0.268 OA
BRANCH   8  10
ATOM     10  C   UNL A   1      33.153  24.108  26.287  1.00  0.00     0.095 A 
ATOM     11  C   UNL A   1      34.494  23.705  26.088  1.00  0.00    -0.025 A 
ATOM     12  C   UNL A   1      34.738  22.362  26.590  1.00  0.00     0.016 A 
ATOM     13  C   UNL A   1      33.651  21.766  27.161  1.00  0.00     0.066 A 
ATOM     14  S   UNL A   1      32.325  22.798  27.169  1.00  0.00    -0.138 S 
BRANCH  11  15
ATOM     15  C   UNL A   1      35.690  24.352  25.424  1.00  0.00     0.034 C 
ATOM     16  C   UNL A   1      36.628  23.337  24.782  1.00  0.00     0.009 C 
ENDBRANCH  11  15
ENDBRANCH   8  10
ENDBRANCH   7   8
BRANCH   7  17
ATOM     17  C   UNL A   1      31.064  25.860  23.778  1.00  0.00     0.035 C 
ATOM     18  C   UNL A   1      30.686  24.369  23.646  1.00  0.00     0.034 C 
ATOM     19  C   UNL A   1      29.800  26.703  24.078  1.00  0.00     0.034 C 
ATOM     20  C   UNL A   1      31.497  26.289  22.344  1.00  0.00     0.034 C 
ENDBRANCH   7  17
ENDBRANCH   6   7
ENDBRANCH   3   6
ENDBRANCH   1   2
BRANCH   1  21
ATOM     21  C   UNL A   1      31.289  31.290  26.156  1.00  0.00     0.042 C 
BRANCH  21  22
ATOM     22  C   UNL A   1      32.471  31.864  26.923  1.00  0.00     0.118 C 
BRANCH  22  23
ATOM     23  N   UNL A   1      32.258  33.251  27.309  1.00  0.00    -0.352 N 
ATOM     24  C   UNL A   1      32.990  34.045  28.155  1.00  0.00     0.251 C 
ATOM     25  H   UNL A   1      31.473  33.684  26.904  1.00  0.00     0.163 HD
ATOM     26  O   UNL A   1      32.540  35.139  28.503  1.00  0.00    -0.269 OA
BRANCH  24  27
ATOM     27  C   UNL A   1      34.303  33.597  28.666  1.00  0.00     0.039 A 
ATOM     28  C   UNL A   1      34.347  32.846  29.846  1.00  0.00     0.014 A 
ATOM     29  C   UNL A   1      35.490  33.934  28.009  1.00  0.00     0.014 A 
ATOM     30  C   UNL A   1      35.573  32.387  30.332  1.00  0.00     0.010 A 
ATOM     31  C   UNL A   1      36.702  33.412  28.454  1.00  0.00     0.010 A 
ATOM     32  C   UNL A   1      36.757  32.640  29.624  1.00  0.00    -0.014 A 
BRANCH  32  33
ATOM     33  C   UNL A   1      38.060  32.104  30.090  1.00  0.00     0.031 A 
ATOM     34  C   UNL A   1      38.584  30.802  29.555  1.00  0.00     0.074 A 
ATOM     35  C   UNL A   1      38.738  32.756  31.055  1.00  0.00     0.049 A 
ATOM     36  N   UNL A   1      39.674  30.152  29.881  1.00  0.00    -0.248 NA
ATOM     37  C   UNL A   1      37.759  30.123  28.545  1.00  0.00     0.031 C 
ATOM     38  C   UNL A   1      38.301  33.989  31.708  1.00  0.00     0.029 A 
ATOM     39  N   UNL A   1      39.930  32.458  31.665  1.00  0.00    -0.354 N 
ATOM     40  C   UNL A   1      39.654  28.982  29.131  1.00  0.00     0.074 A 
ATOM     41  C   UNL A   1      38.421  28.988  28.374  1.00  0.00     0.031 C 
ATOM     42  C   UNL A   1      39.219  34.351  32.620  1.00  0.00     0.029 A 
ATOM     43  C   UNL A   1      40.292  33.363  32.631  1.00  0.00     0.049 A 
ATOM     44  H   UNL A   1      40.474  31.672  31.431  1.00  0.00     0.167 HD
ATOM     45  C   UNL A   1      40.588  28.004  29.064  1.00  0.00     0.037 A 
ATOM     46  C   UNL A   1      41.366  33.391  33.442  1.00  0.00     0.037 A 
ATOM     47  C   UNL A   1      41.827  28.013  29.797  1.00  0.00     0.049 A 
ATOM     48  C   UNL A   1      42.407  32.316  33.326  1.00  0.00     0.074 A 
ATOM     49  C   UNL A   1      42.877  27.115  29.728  1.00  0.00     0.029 A 
ATOM     50  N   UNL A   1      42.178  28.969  30.739  1.00  0.00    -0.354 N 
ATOM     51  N   UNL A   1      42.421  31.262  32.548  1.00  0.00    -0.248 NA
ATOM     52  C   UNL A   1      43.586  32.440  34.194  1.00  0.00     0.031 C 
ATOM     53  C   UNL A   1      43.847  27.504  30.660  1.00  0.00     0.029 A 
ATOM     54  C   UNL A   1      43.418  28.668  31.279  1.00  0.00     0.049 A 
ATOM     55  H   UNL A   1      41.627  29.746  30.988  1.00  0.00     0.167 HD
ATOM     56  C   UNL A   1      43.611  30.602  32.820  1.00  0.00     0.074 A 
ATOM     57  C   UNL A   1      44.303  31.386  33.823  1.00  0.00     0.031 C 
ATOM     58  C   UNL A   1      44.088  29.450  32.288  1.00  0.00     0.037 A 
BRANCH  45  59
ATOM     59  C   UNL A   1      40.294  26.840  28.161  1.00  0.00     0.057 A 
ATOM     60  C   UNL A   1      40.833  26.750  26.870  1.00  0.00     0.134 A 
ATOM     61  C   UNL A   1      39.464  25.797  28.588  1.00  0.00     0.134 A 
ATOM     62  F   UNL A   1      41.626  27.723  26.396  1.00  0.00    -0.206 F 
ATOM     63  C   UNL A   1      40.525  25.684  26.023  1.00  0.00     0.040 A 
ATOM     64  C   UNL A   1      39.172  24.711  27.760  1.00  0.00     0.040 A 
ATOM     65  F   UNL A   1      38.921  25.815  29.814  1.00  0.00    -0.206 F 
ATOM     66  C   UNL A   1      39.695  24.659  26.469  1.00  0.00     0.006 A 
ENDBRANCH  45  59
BRANCH  46  67
ATOM     67  C   UNL A   1      41.514  34.500  34.414  1.00  0.00     0.057 A 
ATOM     68  C   UNL A   1      42.122  35.706  34.049  1.00  0.00     0.134 A 
ATOM     69  C   UNL A   1      41.012  34.396  35.717  1.00  0.00     0.134 A 
ATOM     70  F   UNL A   1      42.635  35.855  32.818  1.00  0.00    -0.206 F 
ATOM     71  C   UNL A   1      42.232  36.769  34.945  1.00  0.00     0.040 A 
ATOM     72  C   UNL A   1      41.098  35.459  36.619  1.00  0.00     0.040 A 
ATOM     73  F   UNL A   1      40.410  33.269  36.123  1.00  0.00    -0.206 F 
ATOM     74  C   UNL A   1      41.712  36.649  36.233  1.00  0.00     0.006 A 
ENDBRANCH  46  67
BRANCH  58  75
ATOM     75  C   UNL A   1      45.422  28.972  32.779  1.00  0.00     0.057 A 
ATOM     76  C   UNL A   1      46.618  29.383  32.177  1.00  0.00     0.134 A 
ATOM     77  C   UNL A   1      45.514  28.116  33.884  1.00  0.00     0.134 A 
ATOM     78  F   UNL A   1      46.598  30.192  31.107  1.00  0.00    -0.206 F 
ATOM     79  C   UNL A   1      47.858  28.943  32.644  1.00  0.00     0.040 A 
ATOM     80  C   UNL A   1      46.748  27.688  34.374  1.00  0.00     0.040 A 
ATOM     81  F   UNL A   1      44.405  27.691  34.509  1.00  0.00    -0.206 F 
ATOM     82  C   UNL A   1      47.925  28.097  33.750  1.00  0.00     0.006 A 
ENDBRANCH  58  75
ENDBRANCH  32  33
ENDBRANCH  24  27
ENDBRANCH  22  23
ENDBRANCH  21  22
ENDBRANCH   1  21
TORSDOF 15
ENDMDL
MODEL 3
REMARK VINA RESULT:     -10.2      0.951      1.726
REMARK SMILES CCc1ccsc1C(=O)N(CC(=O)NCCCNC(=O)c1ccc(-c2c3nc(c(-c4c(F)cccc4F)c4ccc([nH]4)c(-c4c(F)cccc4F)c4nc(c(-c5c(F)cccc5F)c5ccc2[nH]5)C=C4)C=C3)cc1)C(C)(C)C
REMARK SMILES IDX 15 1 14 2 12 3 13 4 11 6 10 7 8 8 9 9 7 10 3 11 4 12 5 13
REMARK SMILES IDX 6 14 2 15 1 16 75 17 76 18 77 19 78 20 16 21 17 22 18 23
REMARK SMILES IDX 19 24 20 26 21 27 22 28 74 29 23 30 73 31 24 32 25 33 26 34
REMARK SMILES IDX 67 35 27 36 72 37 66 38 68 39 28 40 71 41 65 42 64 43 29 45
REMARK SMILES IDX 55 46 38 47 54 48 39 49 42 50 53 51 69 52 40 53 41 54 52 56
REMARK SMILES IDX 70 57 43 58 30 59 31 60 36 61 32 62 33 63 35 64 37 65 34 66
REMARK SMILES IDX 56 67 57 68 62 69 58 70 59 71 61 72 63 73 60 74 44 75 45 76
REMARK SMILES IDX 50 77 46 78 47 79 49 80 51 81 48 82
REMARK H PARENT 14 5 18 25 68 44 42 55
REMARK Flexibility Score: inf
ROOT
ATOM      1  C   UNL A   1      36.246  20.758  24.965  1.00  0.00     0.117 C 
ENDROOT
BRANCH   1   2
ATOM      2  N   UNL A   1      36.428  21.924  24.123  1.00  0.00    -0.354 N 
ATOM      3  C   UNL A   1      35.532  22.788  23.575  1.00  0.00     0.239 C 
ATOM      4  O   UNL A   1      35.988  23.873  23.193  1.00  0.00    -0.273 OA
ATOM      5  H   UNL A   1      37.368  22.126  23.909  1.00  0.00     0.163 HD
BRANCH   3   6
ATOM      6  C   UNL A   1      34.010  22.552  23.542  1.00  0.00     0.220 C 
BRANCH   6   7
ATOM      7  N   UNL A   1      33.152  23.484  24.246  1.00  0.00    -0.324 N 
BRANCH   7   8
ATOM      8  C   UNL A   1      32.616  24.673  23.667  1.00  0.00     0.265 C 
ATOM      9  O   UNL A   1      31.553  24.507  23.050  1.00  0.00    -0.268 OA
BRANCH   8  10
ATOM     10  C   UNL A   1      33.168  26.081  23.739  1.00  0.00     0.095 A 
ATOM     11  C   UNL A   1      33.621  27.068  24.646  1.00  0.00    -0.025 A 
ATOM     12  C   UNL A   1      33.921  28.324  23.976  1.00  0.00     0.016 A 
ATOM     13  C   UNL A   1      33.729  28.305  22.626  1.00  0.00     0.066 A 
ATOM     14  S   UNL A   1      33.239  26.784  22.103  1.00  0.00    -0.138 S 
BRANCH  11  15
ATOM     15  C   UNL A   1      33.801  27.101  26.148  1.00  0.00     0.034 C 
ATOM     16  C   UNL A   1      33.082  28.274  26.802  1.00  0.00     0.009 C 
ENDBRANCH  11  15
ENDBRANCH   8  10
ENDBRANCH   7   8
BRANCH   7  17
ATOM     17  C   UNL A   1      32.755  23.106  25.679  1.00  0.00     0.035 C 
ATOM     18  C   UNL A   1      32.300  21.634  25.780  1.00  0.00     0.034 C 
ATOM     19  C   UNL A   1      33.923  23.369  26.660  1.00  0.00     0.034 C 
ATOM     20  C   UNL A   1      31.561  23.930  26.250  1.00  0.00     0.034 C 
ENDBRANCH   7  17
ENDBRANCH   6   7
ENDBRANCH   3   6
ENDBRANCH   1   2
BRANCH   1  21
ATOM     21  C   UNL A   1      37.421  19.797  24.976  1.00  0.00     0.042 C 
BRANCH  21  22
ATOM     22  C   UNL A   1      38.694  20.382  25.570  1.00  0.00     0.118 C 
BRANCH  22  23
ATOM     23  N   UNL A   1      39.749  19.389  25.706  1.00  0.00    -0.352 N 
ATOM     24  C   UNL A   1      41.059  19.550  26.081  1.00  0.00     0.251 C 
ATOM     25  H   UNL A   1      39.484  18.464  25.497  1.00  0.00     0.163 HD
ATOM     26  O   UNL A   1      41.848  18.611  25.952  1.00  0.00    -0.269 OA
BRANCH  24  27
ATOM     27  C   UNL A   1      41.538  20.839  26.622  1.00  0.00     0.039 A 
ATOM     28  C   UNL A   1      42.066  21.787  25.739  1.00  0.00     0.014 A 
ATOM     29  C   UNL A   1      41.496  21.111  27.993  1.00  0.00     0.014 A 
ATOM     30  C   UNL A   1      42.497  23.024  26.223  1.00  0.00     0.010 A 
ATOM     31  C   UNL A   1      41.855  22.371  28.463  1.00  0.00     0.010 A 
ATOM     32  C   UNL A   1      42.367  23.338  27.585  1.00  0.00    -0.014 A 
BRANCH  32  33
ATOM     33  C   UNL A   1      42.759  24.670  28.106  1.00  0.00     0.031 A 
ATOM     34  C   UNL A   1      41.724  25.734  28.336  1.00  0.00     0.074 A 
ATOM     35  C   UNL A   1      44.062  24.949  28.302  1.00  0.00     0.049 A 
ATOM     36  N   UNL A   1      41.882  26.970  28.737  1.00  0.00    -0.248 NA
ATOM     37  C   UNL A   1      40.328  25.370  28.046  1.00  0.00     0.031 C 
ATOM     38  C   UNL A   1      45.171  24.029  28.047  1.00  0.00     0.029 A 
ATOM     39  N   UNL A   1      44.674  26.094  28.745  1.00  0.00    -0.354 N 
ATOM     40  C   UNL A   1      40.613  27.536  28.728  1.00  0.00     0.074 A 
ATOM     41  C   UNL A   1      39.704  26.524  28.234  1.00  0.00     0.031 C 
ATOM     42  C   UNL A   1      46.327  24.641  28.349  1.00  0.00     0.029 A 
ATOM     43  C   UNL A   1      46.043  26.001  28.794  1.00  0.00     0.049 A 
ATOM     44  H   UNL A   1      44.179  26.904  29.003  1.00  0.00     0.167 HD
ATOM     45  C   UNL A   1      40.236  28.777  29.117  1.00  0.00     0.037 A 
ATOM     46  C   UNL A   1      46.968  26.911  29.151  1.00  0.00     0.037 A 
ATOM     47  C   UNL A   1      41.137  29.773  29.635  1.00  0.00     0.049 A 
ATOM     48  C   UNL A   1      46.526  28.270  29.612  1.00  0.00     0.074 A 
ATOM     49  C   UNL A   1      40.839  31.027  30.139  1.00  0.00     0.029 A 
ATOM     50  N   UNL A   1      42.514  29.629  29.707  1.00  0.00    -0.354 N 
ATOM     51  N   UNL A   1      45.314  28.763  29.686  1.00  0.00    -0.248 NA
ATOM     52  C   UNL A   1      47.580  29.195  30.050  1.00  0.00     0.031 C 
ATOM     53  C   UNL A   1      42.042  31.658  30.479  1.00  0.00     0.029 A 
ATOM     54  C   UNL A   1      43.085  30.781  30.223  1.00  0.00     0.049 A 
ATOM     55  H   UNL A   1      43.013  28.826  29.431  1.00  0.00     0.167 HD
ATOM     56  C   UNL A   1      45.454  30.048  30.188  1.00  0.00     0.074 A 
ATOM     57  C   UNL A   1      46.870  30.254  30.420  1.00  0.00     0.031 C 
ATOM     58  C   UNL A   1      44.497  30.977  30.435  1.00  0.00     0.037 A 
BRANCH  45  59
ATOM     59  C   UNL A   1      38.779  29.119  28.991  1.00  0.00     0.057 A 
ATOM     60  C   UNL A   1      37.898  29.020  30.078  1.00  0.00     0.134 A 
ATOM     61  C   UNL A   1      38.250  29.555  27.771  1.00  0.00     0.134 A 
ATOM     62  F   UNL A   1      38.339  28.597  31.272  1.00  0.00    -0.206 F 
ATOM     63  C   UNL A   1      36.539  29.303  29.944  1.00  0.00     0.040 A 
ATOM     64  C   UNL A   1      36.896  29.869  27.632  1.00  0.00     0.040 A 
ATOM     65  F   UNL A   1      39.037  29.680  26.692  1.00  0.00    -0.206 F 
ATOM     66  C   UNL A   1      36.034  29.732  28.719  1.00  0.00     0.006 A 
ENDBRANCH  45  59
BRANCH  46  67
ATOM     67  C   UNL A   1      48.403  26.545  29.109  1.00  0.00     0.057 A 
ATOM     68  C   UNL A   1      49.198  26.859  28.001  1.00  0.00     0.134 A 
ATOM     69  C   UNL A   1      49.023  25.910  30.192  1.00  0.00     0.134 A 
ATOM     70  F   UNL A   1      48.653  27.452  26.928  1.00  0.00    -0.206 F 
ATOM     71  C   UNL A   1      50.558  26.551  27.968  1.00  0.00     0.040 A 
ATOM     72  C   UNL A   1      50.387  25.614  30.181  1.00  0.00     0.040 A 
ATOM     73  F   UNL A   1      48.315  25.593  31.286  1.00  0.00    -0.206 F 
ATOM     74  C   UNL A   1      51.158  25.934  29.064  1.00  0.00     0.006 A 
ENDBRANCH  46  67
BRANCH  58  75
ATOM     75  C   UNL A   1      44.951  32.295  30.986  1.00  0.00     0.057 A 
ATOM     76  C   UNL A   1      45.260  33.375  30.148  1.00  0.00     0.134 A 
ATOM     77  C   UNL A   1      45.054  32.498  32.368  1.00  0.00     0.134 A 
ATOM     78  F   UNL A   1      45.195  33.242  28.815  1.00  0.00    -0.206 F 
ATOM     79  C   UNL A   1      45.674  34.604  30.666  1.00  0.00     0.040 A 
ATOM     80  C   UNL A   1      45.444  33.728  32.897  1.00  0.00     0.040 A 
ATOM     81  F   UNL A   1      44.766  31.505  33.224  1.00  0.00    -0.206 F 
ATOM     82  C   UNL A   1      45.762  34.784  32.046  1.00  0.00     0.006 A 
ENDBRANCH  58  75
ENDBRANCH  32  33
ENDBRANCH  24  27
ENDBRANCH  22  23
ENDBRANCH  21  22
ENDBRANCH   1  21
TORSDOF 15
ENDMDL
