MODEL 1
REMARK VINA RESULT:     -12.6      0.000      0.000
REMARK SMILES Cc1ccnc(C(=O)c2[nH]c3ccc(OC(F)(F)F)cc3c2CC(=O)NCCCNC(=O)c2ccc(-c3c4nc(c(-c5c(F)cccc5F)c5ccc([nH]5)c(-c5c(F)cccc5F)c5nc(c(-c6c(F)cccc6F)c6ccc3[nH]6)C=C5)C=C4)cc2)c1
REMARK SMILES IDX 27 1 26 2 24 3 25 4 23 6 22 7 9 8 10 9 11 10 21 12 12 13
REMARK SMILES IDX 20 14 13 15 14 16 7 17 8 18 6 19 1 20 2 21 3 22 87 23 4 24
REMARK SMILES IDX 5 25 15 26 16 27 17 28 18 29 19 30 28 31 29 32 30 33 31 34
REMARK SMILES IDX 32 36 33 37 34 38 86 39 35 40 85 41 36 42 37 43 38 44 79 45
REMARK SMILES IDX 39 46 84 47 78 48 80 49 40 50 83 51 77 52 76 53 41 55 67 56
REMARK SMILES IDX 50 57 66 58 51 59 54 60 65 61 81 62 52 63 53 64 64 66 82 67
REMARK SMILES IDX 55 68 42 69 43 70 48 71 44 72 45 73 47 74 49 75 46 76 68 77
REMARK SMILES IDX 69 78 74 79 70 80 71 81 73 82 75 83 72 84 56 85 57 86 62 87
REMARK SMILES IDX 58 88 59 89 61 90 63 91 60 92
REMARK H PARENT 26 5 10 11 30 35 80 54 54 65
REMARK Flexibility Score: inf
ROOT
ATOM      1  C   UNL A   1      33.908  26.533  25.449  1.00  0.00     0.117 C 
ENDROOT
BRANCH   1   2
ATOM      2  N   UNL A   1      33.038  25.595  26.136  1.00  0.00    -0.356 N 
ATOM      3  C   UNL A   1      32.998  24.233  26.069  1.00  0.00     0.224 C 
ATOM      4  O   UNL A   1      32.229  23.629  26.820  1.00  0.00    -0.275 OA
ATOM      5  H   UNL A   1      32.377  26.005  26.741  1.00  0.00     0.163 HD
BRANCH   3   6
ATOM      6  C   UNL A   1      33.933  23.476  25.144  1.00  0.00     0.138 C 
BRANCH   6   7
ATOM      7  C   UNL A   1      33.263  22.850  23.955  1.00  0.00    -0.002 A 
ATOM      8  C   UNL A   1      32.790  23.484  22.810  1.00  0.00     0.093 A 
ATOM      9  N   UNL A   1      32.295  22.515  21.971  1.00  0.00    -0.352 N 
ATOM     10  C   UNL A   1      32.375  21.278  22.557  1.00  0.00     0.046 A 
ATOM     11  H   UNL A   1      31.932  22.685  21.071  1.00  0.00     0.167 HD
ATOM     12  C   UNL A   1      32.972  21.452  23.803  1.00  0.00     0.008 A 
ATOM     13  C   UNL A   1      31.982  20.026  22.074  1.00  0.00     0.030 A 
ATOM     14  C   UNL A   1      33.183  20.310  24.604  1.00  0.00     0.057 A 
ATOM     15  C   UNL A   1      32.209  18.910  22.888  1.00  0.00     0.049 A 
ATOM     16  C   UNL A   1      32.807  19.040  24.140  1.00  0.00     0.130 A 
BRANCH   8  17
ATOM     17  C   UNL A   1      32.836  24.883  22.421  1.00  0.00     0.227 C 
ATOM     18  O   UNL A   1      33.773  25.312  21.755  1.00  0.00    -0.285 OA
BRANCH  17  19
ATOM     19  C   UNL A   1      31.646  25.752  22.761  1.00  0.00     0.113 A 
ATOM     20  C   UNL A   1      30.284  29.259  22.250  1.00  0.00     0.044 C 
ATOM     21  C   UNL A   1      30.447  27.840  22.711  1.00  0.00    -0.047 A 
ATOM     22  C   UNL A   1      29.491  27.258  23.545  1.00  0.00     0.023 A 
ATOM     23  C   UNL A   1      31.534  27.063  22.296  1.00  0.00     0.036 A 
ATOM     24  C   UNL A   1      29.670  25.946  23.951  1.00  0.00     0.112 A 
ATOM     25  N   UNL A   1      30.727  25.190  23.590  1.00  0.00    -0.253 NA
ENDBRANCH  17  19
ENDBRANCH   8  17
BRANCH  16  26
ATOM     26  O   UNL A   1      33.087  18.025  25.013  1.00  0.00    -0.406 OA
BRANCH  26  27
ATOM     27  C   UNL A   1      34.082  17.088  24.643  1.00  0.00     0.573 C 
ATOM     28  F   UNL A   1      35.197  17.711  24.202  1.00  0.00    -0.132 F 
ATOM     29  F   UNL A   1      34.397  16.275  25.673  1.00  0.00    -0.132 F 
ATOM     30  F   UNL A   1      33.605  16.322  23.636  1.00  0.00    -0.132 F 
ENDBRANCH  26  27
ENDBRANCH  16  26
ENDBRANCH   6   7
ENDBRANCH   3   6
ENDBRANCH   1   2
BRANCH   1  31
ATOM     31  C   UNL A   1      33.627  27.993  25.795  1.00  0.00     0.042 C 
BRANCH  31  32
ATOM     32  C   UNL A   1      33.695  28.327  27.283  1.00  0.00     0.118 C 
BRANCH  32  33
ATOM     33  N   UNL A   1      33.604  29.757  27.538  1.00  0.00    -0.352 N 
ATOM     34  C   UNL A   1      34.514  30.615  28.103  1.00  0.00     0.251 C 
ATOM     35  H   UNL A   1      32.757  30.174  27.262  1.00  0.00     0.163 HD
ATOM     36  O   UNL A   1      34.169  31.761  28.385  1.00  0.00    -0.269 OA
BRANCH  34  37
ATOM     37  C   UNL A   1      35.900  30.185  28.396  1.00  0.00     0.039 A 
ATOM     38  C   UNL A   1      36.844  30.235  27.363  1.00  0.00     0.014 A 
ATOM     39  C   UNL A   1      36.260  29.660  29.641  1.00  0.00     0.014 A 
ATOM     40  C   UNL A   1      38.156  29.807  27.588  1.00  0.00     0.010 A 
ATOM     41  C   UNL A   1      37.577  29.255  29.874  1.00  0.00     0.010 A 
ATOM     42  C   UNL A   1      38.533  29.327  28.850  1.00  0.00    -0.014 A 
BRANCH  42  43
ATOM     43  C   UNL A   1      39.922  28.880  29.110  1.00  0.00     0.031 A 
ATOM     44  C   UNL A   1      40.893  29.789  29.804  1.00  0.00     0.074 A 
ATOM     45  C   UNL A   1      40.325  27.664  28.696  1.00  0.00     0.049 A 
ATOM     46  N   UNL A   1      42.180  29.637  29.982  1.00  0.00    -0.248 NA
ATOM     47  C   UNL A   1      40.344  31.034  30.364  1.00  0.00     0.031 C 
ATOM     48  C   UNL A   1      39.485  26.676  28.020  1.00  0.00     0.029 A 
ATOM     49  N   UNL A   1      41.553  27.058  28.785  1.00  0.00    -0.354 N 
ATOM     50  C   UNL A   1      42.606  30.785  30.636  1.00  0.00     0.074 A 
ATOM     51  C   UNL A   1      41.435  31.611  30.849  1.00  0.00     0.031 C 
ATOM     52  C   UNL A   1      40.220  25.580  27.766  1.00  0.00     0.029 A 
ATOM     53  C   UNL A   1      41.585  25.801  28.237  1.00  0.00     0.049 A 
ATOM     54  H   UNL A   1      42.336  27.486  29.201  1.00  0.00     0.167 HD
ATOM     55  C   UNL A   1      43.861  31.126  31.011  1.00  0.00     0.037 A 
ATOM     56  C   UNL A   1      42.604  24.932  28.116  1.00  0.00     0.037 A 
ATOM     57  C   UNL A   1      45.027  30.304  30.832  1.00  0.00     0.049 A 
ATOM     58  C   UNL A   1      43.973  25.307  28.596  1.00  0.00     0.074 A 
ATOM     59  C   UNL A   1      46.346  30.591  31.138  1.00  0.00     0.029 A 
ATOM     60  N   UNL A   1      45.006  29.017  30.319  1.00  0.00    -0.354 N 
ATOM     61  N   UNL A   1      44.377  26.429  29.136  1.00  0.00    -0.248 NA
ATOM     62  C   UNL A   1      45.030  24.298  28.436  1.00  0.00     0.031 C 
ATOM     63  C   UNL A   1      47.124  29.469  30.823  1.00  0.00     0.029 A 
ATOM     64  C   UNL A   1      46.285  28.488  30.320  1.00  0.00     0.049 A 
ATOM     65  H   UNL A   1      44.201  28.548  30.001  1.00  0.00     0.167 HD
ATOM     66  C   UNL A   1      45.736  26.271  29.364  1.00  0.00     0.074 A 
ATOM     67  C   UNL A   1      46.087  24.937  28.922  1.00  0.00     0.031 C 
ATOM     68  C   UNL A   1      46.617  27.160  29.881  1.00  0.00     0.037 A 
BRANCH  55  69
ATOM     69  C   UNL A   1      44.036  32.473  31.634  1.00  0.00     0.057 A 
ATOM     70  C   UNL A   1      43.984  32.645  33.021  1.00  0.00     0.134 A 
ATOM     71  C   UNL A   1      44.273  33.601  30.839  1.00  0.00     0.134 A 
ATOM     72  F   UNL A   1      43.749  31.599  33.829  1.00  0.00    -0.206 F 
ATOM     73  C   UNL A   1      44.160  33.902  33.602  1.00  0.00     0.040 A 
ATOM     74  C   UNL A   1      44.451  34.863  31.408  1.00  0.00     0.040 A 
ATOM     75  F   UNL A   1      44.324  33.494  29.504  1.00  0.00    -0.206 F 
ATOM     76  C   UNL A   1      44.395  35.014  32.793  1.00  0.00     0.006 A 
ENDBRANCH  55  69
BRANCH  56  77
ATOM     77  C   UNL A   1      42.367  23.614  27.491  1.00  0.00     0.057 A 
ATOM     78  C   UNL A   1      42.439  23.455  26.103  1.00  0.00     0.134 A 
ATOM     79  C   UNL A   1      42.069  22.489  28.266  1.00  0.00     0.134 A 
ATOM     80  F   UNL A   1      42.710  24.508  25.316  1.00  0.00    -0.206 F 
ATOM     81  C   UNL A   1      42.217  22.216  25.503  1.00  0.00     0.040 A 
ATOM     82  C   UNL A   1      41.847  21.244  27.680  1.00  0.00     0.040 A 
ATOM     83  F   UNL A   1      41.983  22.591  29.601  1.00  0.00    -0.206 F 
ATOM     84  C   UNL A   1      41.922  21.106  26.294  1.00  0.00     0.006 A 
ENDBRANCH  56  77
BRANCH  68  85
ATOM     85  C   UNL A   1      48.040  26.718  29.984  1.00  0.00     0.057 A 
ATOM     86  C   UNL A   1      48.501  26.037  31.115  1.00  0.00     0.134 A 
ATOM     87  C   UNL A   1      48.947  26.954  28.945  1.00  0.00     0.134 A 
ATOM     88  F   UNL A   1      47.677  25.792  32.145  1.00  0.00    -0.206 F 
ATOM     89  C   UNL A   1      49.824  25.606  31.213  1.00  0.00     0.040 A 
ATOM     90  C   UNL A   1      50.273  26.528  29.031  1.00  0.00     0.040 A 
ATOM     91  F   UNL A   1      48.561  27.612  27.842  1.00  0.00    -0.206 F 
ATOM     92  C   UNL A   1      50.714  25.850  30.167  1.00  0.00     0.006 A 
ENDBRANCH  68  85
ENDBRANCH  42  43
ENDBRANCH  34  37
ENDBRANCH  32  33
ENDBRANCH  31  32
ENDBRANCH   1  31
TORSDOF 15
ENDMDL
MODEL 2
REMARK VINA RESULT:     -12.5      2.153      6.853
REMARK SMILES Cc1ccnc(C(=O)c2[nH]c3ccc(OC(F)(F)F)cc3c2CC(=O)NCCCNC(=O)c2ccc(-c3c4nc(c(-c5c(F)cccc5F)c5ccc([nH]5)c(-c5c(F)cccc5F)c5nc(c(-c6c(F)cccc6F)c6ccc3[nH]6)C=C5)C=C4)cc2)c1
REMARK SMILES IDX 27 1 26 2 24 3 25 4 23 6 22 7 9 8 10 9 11 10 21 12 12 13
REMARK SMILES IDX 20 14 13 15 14 16 7 17 8 18 6 19 1 20 2 21 3 22 87 23 4 24
REMARK SMILES IDX 5 25 15 26 16 27 17 28 18 29 19 30 28 31 29 32 30 33 31 34
REMARK SMILES IDX 32 36 33 37 34 38 86 39 35 40 85 41 36 42 37 43 38 44 79 45
REMARK SMILES IDX 39 46 84 47 78 48 80 49 40 50 83 51 77 52 76 53 41 55 67 56
REMARK SMILES IDX 50 57 66 58 51 59 54 60 65 61 81 62 52 63 53 64 64 66 82 67
REMARK SMILES IDX 55 68 42 69 43 70 48 71 44 72 45 73 47 74 49 75 46 76 68 77
REMARK SMILES IDX 69 78 74 79 70 80 71 81 73 82 75 83 72 84 56 85 57 86 62 87
REMARK SMILES IDX 58 88 59 89 61 90 63 91 60 92
REMARK H PARENT 26 5 10 11 30 35 80 54 54 65
REMARK Flexibility Score: inf
ROOT
ATOM      1  C   UNL A   1      37.047  20.381  24.909  1.00  0.00     0.117 C 
ENDROOT
BRANCH   1   2
ATOM      2  N   UNL A   1      37.234  21.814  25.033  1.00  0.00    -0.356 N 
ATOM      3  C   UNL A   1      36.368  22.773  25.471  1.00  0.00     0.224 C 
ATOM      4  O   UNL A   1      36.777  23.931  25.583  1.00  0.00    -0.275 OA
ATOM      5  H   UNL A   1      38.121  22.145  24.760  1.00  0.00     0.163 HD
BRANCH   3   6
ATOM      6  C   UNL A   1      34.954  22.407  25.884  1.00  0.00     0.138 C 
BRANCH   6   7
ATOM      7  C   UNL A   1      34.031  22.095  24.741  1.00  0.00    -0.002 A 
ATOM      8  C   UNL A   1      33.491  22.981  23.813  1.00  0.00     0.093 A 
ATOM      9  N   UNL A   1      32.741  22.248  22.925  1.00  0.00    -0.352 N 
ATOM     10  C   UNL A   1      32.726  20.923  23.279  1.00  0.00     0.046 A 
ATOM     11  H   UNL A   1      32.278  22.623  22.141  1.00  0.00     0.167 HD
ATOM     12  C   UNL A   1      33.520  20.793  24.415  1.00  0.00     0.008 A 
ATOM     13  C   UNL A   1      32.086  19.838  22.673  1.00  0.00     0.030 A 
ATOM     14  C   UNL A   1      33.678  19.506  24.971  1.00  0.00     0.057 A 
ATOM     15  C   UNL A   1      32.266  18.572  23.242  1.00  0.00     0.049 A 
ATOM     16  C   UNL A   1      33.055  18.397  24.377  1.00  0.00     0.130 A 
BRANCH   8  17
ATOM     17  C   UNL A   1      33.684  24.412  23.656  1.00  0.00     0.227 C 
ATOM     18  O   UNL A   1      34.326  24.852  22.707  1.00  0.00    -0.285 OA
BRANCH  17  19
ATOM     19  C   UNL A   1      32.973  25.332  24.623  1.00  0.00     0.113 A 
ATOM     20  C   UNL A   1      33.569  28.379  26.808  1.00  0.00     0.044 C 
ATOM     21  C   UNL A   1      32.924  27.195  26.149  1.00  0.00    -0.047 A 
ATOM     22  C   UNL A   1      31.605  26.853  26.451  1.00  0.00     0.023 A 
ATOM     23  C   UNL A   1      33.613  26.430  25.201  1.00  0.00     0.036 A 
ATOM     24  C   UNL A   1      31.039  25.756  25.823  1.00  0.00     0.112 A 
ATOM     25  N   UNL A   1      31.696  24.985  24.932  1.00  0.00    -0.253 NA
ENDBRANCH  17  19
ENDBRANCH   8  17
BRANCH  16  26
ATOM     26  O   UNL A   1      33.310  17.212  25.012  1.00  0.00    -0.406 OA
BRANCH  26  27
ATOM     27  C   UNL A   1      34.393  16.429  24.543  1.00  0.00     0.573 C 
ATOM     28  F   UNL A   1      34.484  15.266  25.225  1.00  0.00    -0.132 F 
ATOM     29  F   UNL A   1      34.274  16.169  23.223  1.00  0.00    -0.132 F 
ATOM     30  F   UNL A   1      35.540  17.117  24.732  1.00  0.00    -0.132 F 
ENDBRANCH  26  27
ENDBRANCH  16  26
ENDBRANCH   6   7
ENDBRANCH   3   6
ENDBRANCH   1   2
BRANCH   1  31
ATOM     31  C   UNL A   1      38.355  19.597  24.834  1.00  0.00     0.042 C 
BRANCH  31  32
ATOM     32  C   UNL A   1      39.297  19.802  26.018  1.00  0.00     0.118 C 
BRANCH  32  33
ATOM     33  N   UNL A   1      40.564  19.107  25.849  1.00  0.00    -0.352 N 
ATOM     34  C   UNL A   1      41.850  19.572  25.958  1.00  0.00     0.251 C 
ATOM     35  H   UNL A   1      40.486  18.152  25.620  1.00  0.00     0.163 HD
ATOM     36  O   UNL A   1      42.784  18.854  25.605  1.00  0.00    -0.269 OA
BRANCH  34  37
ATOM     37  C   UNL A   1      42.137  20.927  26.480  1.00  0.00     0.039 A 
ATOM     38  C   UNL A   1      42.074  21.135  27.863  1.00  0.00     0.014 A 
ATOM     39  C   UNL A   1      42.386  22.006  25.626  1.00  0.00     0.014 A 
ATOM     40  C   UNL A   1      42.307  22.408  28.394  1.00  0.00     0.010 A 
ATOM     41  C   UNL A   1      42.642  23.273  26.157  1.00  0.00     0.010 A 
ATOM     42  C   UNL A   1      42.606  23.481  27.544  1.00  0.00    -0.014 A 
BRANCH  42  43
ATOM     43  C   UNL A   1      42.866  24.835  28.090  1.00  0.00     0.031 A 
ATOM     44  C   UNL A   1      44.256  25.236  28.488  1.00  0.00     0.074 A 
ATOM     45  C   UNL A   1      41.848  25.699  28.258  1.00  0.00     0.049 A 
ATOM     46  N   UNL A   1      44.653  26.310  29.121  1.00  0.00    -0.248 NA
ATOM     47  C   UNL A   1      45.337  24.304  28.134  1.00  0.00     0.031 C 
ATOM     48  C   UNL A   1      40.451  25.445  27.904  1.00  0.00     0.029 A 
ATOM     49  N   UNL A   1      41.838  26.969  28.775  1.00  0.00    -0.354 N 
ATOM     50  C   UNL A   1      46.024  26.165  29.281  1.00  0.00     0.074 A 
ATOM     51  C   UNL A   1      46.394  24.913  28.653  1.00  0.00     0.031 C 
ATOM     52  C   UNL A   1      39.721  26.532  28.203  1.00  0.00     0.029 A 
ATOM     53  C   UNL A   1      40.593  27.544  28.793  1.00  0.00     0.049 A 
ATOM     54  H   UNL A   1      42.647  27.423  29.103  1.00  0.00     0.167 HD
ATOM     55  C   UNL A   1      46.893  26.993  29.908  1.00  0.00     0.037 A 
ATOM     56  C   UNL A   1      40.198  28.747  29.247  1.00  0.00     0.037 A 
ATOM     57  C   UNL A   1      46.544  28.251  30.509  1.00  0.00     0.049 A 
ATOM     58  C   UNL A   1      41.190  29.674  29.880  1.00  0.00     0.074 A 
ATOM     59  C   UNL A   1      47.351  29.132  31.208  1.00  0.00     0.029 A 
ATOM     60  N   UNL A   1      45.281  28.819  30.459  1.00  0.00    -0.354 N 
ATOM     61  N   UNL A   1      42.467  29.488  30.100  1.00  0.00    -0.248 NA
ATOM     62  C   UNL A   1      40.681  30.974  30.342  1.00  0.00     0.031 C 
ATOM     63  C   UNL A   1      46.578  30.243  31.570  1.00  0.00     0.029 A 
ATOM     64  C   UNL A   1      45.291  30.049  31.096  1.00  0.00     0.049 A 
ATOM     65  H   UNL A   1      44.493  28.410  30.035  1.00  0.00     0.167 HD
ATOM     66  C   UNL A   1      42.913  30.635  30.741  1.00  0.00     0.074 A 
ATOM     67  C   UNL A   1      41.774  31.523  30.859  1.00  0.00     0.031 C 
ATOM     68  C   UNL A   1      44.153  30.920  31.202  1.00  0.00     0.037 A 
BRANCH  55  69
ATOM     69  C   UNL A   1      48.313  26.539  29.994  1.00  0.00     0.057 A 
ATOM     70  C   UNL A   1      49.248  26.885  29.013  1.00  0.00     0.134 A 
ATOM     71  C   UNL A   1      48.750  25.763  31.075  1.00  0.00     0.134 A 
ATOM     72  F   UNL A   1      48.881  27.617  27.950  1.00  0.00    -0.206 F 
ATOM     73  C   UNL A   1      50.578  26.469  29.102  1.00  0.00     0.040 A 
ATOM     74  C   UNL A   1      50.077  25.343  31.175  1.00  0.00     0.040 A 
ATOM     75  F   UNL A   1      47.894  25.397  32.039  1.00  0.00    -0.206 F 
ATOM     76  C   UNL A   1      50.994  25.698  30.187  1.00  0.00     0.006 A 
ENDBRANCH  55  69
BRANCH  56  77
ATOM     77  C   UNL A   1      38.778  29.139  29.132  1.00  0.00     0.057 A 
ATOM     78  C   UNL A   1      38.253  29.586  27.915  1.00  0.00     0.134 A 
ATOM     79  C   UNL A   1      37.919  29.073  30.233  1.00  0.00     0.134 A 
ATOM     80  F   UNL A   1      39.041  29.679  26.833  1.00  0.00    -0.206 F 
ATOM     81  C   UNL A   1      36.915  29.959  27.797  1.00  0.00     0.040 A 
ATOM     82  C   UNL A   1      36.578  29.440  30.128  1.00  0.00     0.040 A 
ATOM     83  F   UNL A   1      38.376  28.657  31.424  1.00  0.00    -0.206 F 
ATOM     84  C   UNL A   1      36.073  29.884  28.906  1.00  0.00     0.006 A 
ENDBRANCH  56  77
BRANCH  68  85
ATOM     85  C   UNL A   1      44.334  32.237  31.883  1.00  0.00     0.057 A 
ATOM     86  C   UNL A   1      44.140  32.365  33.262  1.00  0.00     0.134 A 
ATOM     87  C   UNL A   1      44.722  33.374  31.167  1.00  0.00     0.134 A 
ATOM     88  F   UNL A   1      43.759  31.309  33.998  1.00  0.00    -0.206 F 
ATOM     89  C   UNL A   1      44.323  33.587  33.910  1.00  0.00     0.040 A 
ATOM     90  C   UNL A   1      44.908  34.602  31.802  1.00  0.00     0.040 A 
ATOM     91  F   UNL A   1      44.911  33.310  29.840  1.00  0.00    -0.206 F 
ATOM     92  C   UNL A   1      44.710  34.710  33.179  1.00  0.00     0.006 A 
ENDBRANCH  68  85
ENDBRANCH  42  43
ENDBRANCH  34  37
ENDBRANCH  32  33
ENDBRANCH  31  32
ENDBRANCH   1  31
TORSDOF 15
ENDMDL
MODEL 3
REMARK VINA RESULT:     -12.5      4.065      6.119
REMARK SMILES Cc1ccnc(C(=O)c2[nH]c3ccc(OC(F)(F)F)cc3c2CC(=O)NCCCNC(=O)c2ccc(-c3c4nc(c(-c5c(F)cccc5F)c5ccc([nH]5)c(-c5c(F)cccc5F)c5nc(c(-c6c(F)cccc6F)c6ccc3[nH]6)C=C5)C=C4)cc2)c1
REMARK SMILES IDX 27 1 26 2 24 3 25 4 23 6 22 7 9 8 10 9 11 10 21 12 12 13
REMARK SMILES IDX 20 14 13 15 14 16 7 17 8 18 6 19 1 20 2 21 3 22 87 23 4 24
REMARK SMILES IDX 5 25 15 26 16 27 17 28 18 29 19 30 28 31 29 32 30 33 31 34
REMARK SMILES IDX 32 36 33 37 34 38 86 39 35 40 85 41 36 42 37 43 38 44 79 45
REMARK SMILES IDX 39 46 84 47 78 48 80 49 40 50 83 51 77 52 76 53 41 55 67 56
REMARK SMILES IDX 50 57 66 58 51 59 54 60 65 61 81 62 52 63 53 64 64 66 82 67
REMARK SMILES IDX 55 68 42 69 43 70 48 71 44 72 45 73 47 74 49 75 46 76 68 77
REMARK SMILES IDX 69 78 74 79 70 80 71 81 73 82 75 83 72 84 56 85 57 86 62 87
REMARK SMILES IDX 58 88 59 89 61 90 63 91 60 92
REMARK H PARENT 26 5 10 11 30 35 80 54 54 65
REMARK Flexibility Score: inf
ROOT
ATOM      1  C   UNL A   1      31.456  30.935  26.098  1.00  0.00     0.117 C 
ENDROOT
BRANCH   1   2
ATOM      2  N   UNL A   1      32.311  30.003  26.808  1.00  0.00    -0.356 N 
ATOM      3  C   UNL A   1      32.937  28.877  26.359  1.00  0.00     0.224 C 
ATOM      4  O   UNL A   1      33.700  28.281  27.123  1.00  0.00    -0.275 OA
ATOM      5  H   UNL A   1      32.463  30.215  27.758  1.00  0.00     0.163 HD
BRANCH   3   6
ATOM      6  C   UNL A   1      32.756  28.411  24.926  1.00  0.00     0.138 C 
BRANCH   6   7
ATOM      7  C   UNL A   1      31.461  27.698  24.660  1.00  0.00    -0.002 A 
ATOM      8  C   UNL A   1      31.114  26.398  25.015  1.00  0.00     0.093 A 
ATOM      9  N   UNL A   1      29.819  26.186  24.608  1.00  0.00    -0.352 N 
ATOM     10  C   UNL A   1      29.332  27.284  23.947  1.00  0.00     0.046 A 
ATOM     11  H   UNL A   1      29.309  25.358  24.770  1.00  0.00     0.167 HD
ATOM     12  C   UNL A   1      30.337  28.248  23.956  1.00  0.00     0.008 A 
ATOM     13  C   UNL A   1      28.081  27.499  23.360  1.00  0.00     0.030 A 
ATOM     14  C   UNL A   1      30.070  29.491  23.344  1.00  0.00     0.057 A 
ATOM     15  C   UNL A   1      27.843  28.743  22.765  1.00  0.00     0.049 A 
ATOM     16  C   UNL A   1      28.820  29.737  22.756  1.00  0.00     0.130 A 
BRANCH   8  17
ATOM     17  C   UNL A   1      31.858  25.394  25.756  1.00  0.00     0.227 C 
ATOM     18  O   UNL A   1      31.523  25.085  26.895  1.00  0.00    -0.285 OA
BRANCH  17  19
ATOM     19  C   UNL A   1      32.973  24.666  25.038  1.00  0.00     0.113 A 
ATOM     20  C   UNL A   1      36.636  23.737  25.405  1.00  0.00     0.044 C 
ATOM     21  C   UNL A   1      35.252  23.908  24.851  1.00  0.00    -0.047 A 
ATOM     22  C   UNL A   1      34.939  23.426  23.580  1.00  0.00     0.023 A 
ATOM     23  C   UNL A   1      34.242  24.522  25.601  1.00  0.00     0.036 A 
ATOM     24  C   UNL A   1      33.651  23.598  23.099  1.00  0.00     0.112 A 
ATOM     25  N   UNL A   1      32.672  24.216  23.791  1.00  0.00    -0.253 NA
ENDBRANCH  17  19
ENDBRANCH   8  17
BRANCH  16  26
ATOM     26  O   UNL A   1      28.698  30.988  22.216  1.00  0.00    -0.406 OA
BRANCH  26  27
ATOM     27  C   UNL A   1      28.323  32.047  23.079  1.00  0.00     0.573 C 
ATOM     28  F   UNL A   1      29.270  32.272  24.015  1.00  0.00    -0.132 F 
ATOM     29  F   UNL A   1      28.095  33.184  22.387  1.00  0.00    -0.132 F 
ATOM     30  F   UNL A   1      27.179  31.707  23.713  1.00  0.00    -0.132 F 
ENDBRANCH  26  27
ENDBRANCH  16  26
ENDBRANCH   6   7
ENDBRANCH   3   6
ENDBRANCH   1   2
BRANCH   1  31
ATOM     31  C   UNL A   1      31.335  32.296  26.780  1.00  0.00     0.042 C 
BRANCH  31  32
ATOM     32  C   UNL A   1      32.663  32.991  27.070  1.00  0.00     0.118 C 
BRANCH  32  33
ATOM     33  N   UNL A   1      32.497  34.205  27.856  1.00  0.00    -0.352 N 
ATOM     34  C   UNL A   1      33.212  34.666  28.932  1.00  0.00     0.251 C 
ATOM     35  H   UNL A   1      31.755  34.785  27.571  1.00  0.00     0.163 HD
ATOM     36  O   UNL A   1      32.796  35.637  29.562  1.00  0.00    -0.269 OA
BRANCH  34  37
ATOM     37  C   UNL A   1      34.468  34.010  29.362  1.00  0.00     0.039 A 
ATOM     38  C   UNL A   1      35.643  34.295  28.657  1.00  0.00     0.014 A 
ATOM     39  C   UNL A   1      34.487  33.062  30.390  1.00  0.00     0.014 A 
ATOM     40  C   UNL A   1      36.844  33.673  29.010  1.00  0.00     0.010 A 
ATOM     41  C   UNL A   1      35.691  32.457  30.759  1.00  0.00     0.010 A 
ATOM     42  C   UNL A   1      36.877  32.759  30.073  1.00  0.00    -0.014 A 
BRANCH  42  43
ATOM     43  C   UNL A   1      38.143  32.097  30.468  1.00  0.00     0.031 A 
ATOM     44  C   UNL A   1      39.036  32.725  31.497  1.00  0.00     0.074 A 
ATOM     45  C   UNL A   1      38.510  30.943  29.880  1.00  0.00     0.049 A 
ATOM     46  N   UNL A   1      40.245  32.379  31.859  1.00  0.00    -0.248 NA
ATOM     47  C   UNL A   1      38.501  33.897  32.206  1.00  0.00     0.031 C 
ATOM     48  C   UNL A   1      37.734  30.219  28.874  1.00  0.00     0.029 A 
ATOM     49  N   UNL A   1      39.637  30.181  30.049  1.00  0.00    -0.354 N 
ATOM     50  C   UNL A   1      40.634  33.315  32.806  1.00  0.00     0.074 A 
ATOM     51  C   UNL A   1      39.523  34.226  32.985  1.00  0.00     0.031 C 
ATOM     52  C   UNL A   1      38.404  29.108  28.523  1.00  0.00     0.029 A 
ATOM     53  C   UNL A   1      39.664  29.060  29.259  1.00  0.00     0.049 A 
ATOM     54  H   UNL A   1      40.358  30.417  30.676  1.00  0.00     0.167 HD
ATOM     55  C   UNL A   1      41.817  33.415  33.458  1.00  0.00     0.037 A 
ATOM     56  C   UNL A   1      40.606  28.108  29.134  1.00  0.00     0.037 A 
ATOM     57  C   UNL A   1      42.918  32.502  33.312  1.00  0.00     0.049 A 
ATOM     58  C   UNL A   1      41.883  28.206  29.912  1.00  0.00     0.074 A 
ATOM     59  C   UNL A   1      44.172  32.554  33.896  1.00  0.00     0.029 A 
ATOM     60  N   UNL A   1      42.883  31.351  32.541  1.00  0.00    -0.354 N 
ATOM     61  N   UNL A   1      42.272  29.142  30.741  1.00  0.00    -0.248 NA
ATOM     62  C   UNL A   1      42.857  27.120  29.727  1.00  0.00     0.031 C 
ATOM     63  C   UNL A   1      44.894  31.425  33.488  1.00  0.00     0.029 A 
ATOM     64  C   UNL A   1      44.086  30.674  32.650  1.00  0.00     0.049 A 
ATOM     65  H   UNL A   1      42.118  31.059  31.995  1.00  0.00     0.167 HD
ATOM     66  C   UNL A   1      43.540  28.771  31.162  1.00  0.00     0.074 A 
ATOM     67  C   UNL A   1      43.851  27.514  30.513  1.00  0.00     0.031 C 
ATOM     68  C   UNL A   1      44.378  29.425  32.001  1.00  0.00     0.037 A 
BRANCH  55  69
ATOM     69  C   UNL A   1      41.985  34.583  34.374  1.00  0.00     0.057 A 
ATOM     70  C   UNL A   1      41.704  34.481  35.740  1.00  0.00     0.134 A 
ATOM     71  C   UNL A   1      42.447  35.812  33.887  1.00  0.00     0.134 A 
ATOM     72  F   UNL A   1      41.249  33.330  36.258  1.00  0.00    -0.206 F 
ATOM     73  C   UNL A   1      41.873  35.570  36.597  1.00  0.00     0.040 A 
ATOM     74  C   UNL A   1      42.621  36.907  34.734  1.00  0.00     0.040 A 
ATOM     75  F   UNL A   1      42.724  35.966  32.584  1.00  0.00    -0.206 F 
ATOM     76  C   UNL A   1      42.335  36.786  36.093  1.00  0.00     0.006 A 
ENDBRANCH  55  69
BRANCH  56  77
ATOM     77  C   UNL A   1      40.381  26.976  28.210  1.00  0.00     0.057 A 
ATOM     78  C   UNL A   1      40.957  26.965  26.935  1.00  0.00     0.134 A 
ATOM     79  C   UNL A   1      39.589  25.886  28.583  1.00  0.00     0.134 A 
ATOM     80  F   UNL A   1      41.715  27.994  26.528  1.00  0.00    -0.206 F 
ATOM     81  C   UNL A   1      40.750  25.902  26.057  1.00  0.00     0.040 A 
ATOM     82  C   UNL A   1      39.376  24.816  27.715  1.00  0.00     0.040 A 
ATOM     83  F   UNL A   1      39.009  25.853  29.792  1.00  0.00    -0.206 F 
ATOM     84  C   UNL A   1      39.958  24.823  26.448  1.00  0.00     0.006 A 
ENDBRANCH  56  77
BRANCH  68  85
ATOM     85  C   UNL A   1      45.708  28.794  32.253  1.00  0.00     0.057 A 
ATOM     86  C   UNL A   1      45.888  27.890  33.304  1.00  0.00     0.134 A 
ATOM     87  C   UNL A   1      46.807  29.073  31.433  1.00  0.00     0.134 A 
ATOM     88  F   UNL A   1      44.871  27.592  34.128  1.00  0.00    -0.206 F 
ATOM     89  C   UNL A   1      47.123  27.283  33.536  1.00  0.00     0.040 A 
ATOM     90  C   UNL A   1      48.047  28.473  31.654  1.00  0.00     0.040 A 
ATOM     91  F   UNL A   1      46.693  29.941  30.416  1.00  0.00    -0.206 F 
ATOM     92  C   UNL A   1      48.206  27.574  32.708  1.00  0.00     0.006 A 
ENDBRANCH  68  85
ENDBRANCH  42  43
ENDBRANCH  34  37
ENDBRANCH  32  33
ENDBRANCH  31  32
ENDBRANCH   1  31
TORSDOF 15
ENDMDL
