MODEL 1
REMARK VINA RESULT:     -11.3      0.000      0.000
REMARK SMILES CC(C)(C)OC(=O)N1CCSC[C@@H]1CC(=O)NCCCNC(=O)c1ccc(-c2c3nc(c(-c4c(F)cccc4F)c4ccc([nH]4)c(-c4c(F)cccc4F)c4nc(c(-c5c(F)cccc5F)c5ccc2[nH]5)C=C4)C=C3)cc1
REMARK SMILES IDX 18 1 17 2 15 3 16 4 14 6 13 7 8 8 9 9 10 10 12 11 11 12 6 13
REMARK SMILES IDX 7 14 5 15 2 16 1 17 3 18 4 19 19 20 20 21 21 22 22 23 23 25
REMARK SMILES IDX 24 26 25 27 77 28 26 29 76 30 27 31 28 32 29 33 70 34 30 35
REMARK SMILES IDX 75 36 69 37 71 38 31 39 74 40 68 41 67 42 32 44 58 45 41 46
REMARK SMILES IDX 57 47 42 48 45 49 56 50 72 51 43 52 44 53 55 55 73 56 46 57
REMARK SMILES IDX 33 58 34 59 39 60 35 61 36 62 38 63 40 64 37 65 59 66 60 67
REMARK SMILES IDX 65 68 61 69 62 70 64 71 66 72 63 73 47 74 48 75 53 76 49 77
REMARK SMILES IDX 50 78 52 79 54 80 51 81
REMARK H PARENT 17 5 21 24 71 43 45 54
REMARK Flexibility Score: inf
ROOT
ATOM      1  C   UNL A   1      31.382  30.850  26.169  1.00  0.00     0.117 C 
ENDROOT
BRANCH   1   2
ATOM      2  N   UNL A   1      32.598  30.207  26.649  1.00  0.00    -0.356 N 
ATOM      3  C   UNL A   1      32.965  28.897  26.714  1.00  0.00     0.222 C 
ATOM      4  O   UNL A   1      34.072  28.626  27.184  1.00  0.00    -0.275 OA
ATOM      5  H   UNL A   1      33.277  30.833  26.988  1.00  0.00     0.163 HD
BRANCH   3   6
ATOM      6  C   UNL A   1      32.065  27.809  26.184  1.00  0.00     0.126 C 
BRANCH   6   7
ATOM      7  C   UNL A   1      31.989  27.686  24.646  1.00  0.00     0.107 C 
ATOM      8  N   UNL A   1      30.583  27.630  24.185  1.00  0.00    -0.303 N 
ATOM      9  C   UNL A   1      29.820  26.438  24.564  1.00  0.00     0.134 C 
ATOM     10  C   UNL A   1      30.352  25.201  23.837  1.00  0.00     0.091 C 
ATOM     11  C   UNL A   1      32.797  26.578  23.942  1.00  0.00     0.095 C 
ATOM     12  S   UNL A   1      32.131  24.887  24.144  1.00  0.00    -0.158 SA
BRANCH   8  13
ATOM     13  C   UNL A   1      30.203  28.393  23.088  1.00  0.00     0.410 C 
ATOM     14  O   UNL A   1      30.469  28.086  21.936  1.00  0.00    -0.224 OA
BRANCH  13  15
ATOM     15  O   UNL A   1      29.505  29.488  23.466  1.00  0.00    -0.444 OA
BRANCH  15  16
ATOM     16  C   UNL A   1      28.240  29.911  22.888  1.00  0.00     0.106 C 
ATOM     17  C   UNL A   1      27.815  31.136  23.707  1.00  0.00     0.056 C 
ATOM     18  C   UNL A   1      27.260  28.761  23.133  1.00  0.00     0.056 C 
ATOM     19  C   UNL A   1      28.255  30.291  21.405  1.00  0.00     0.056 C 
ENDBRANCH  15  16
ENDBRANCH  13  15
ENDBRANCH   8  13
ENDBRANCH   6   7
ENDBRANCH   3   6
ENDBRANCH   1   2
BRANCH   1  20
ATOM     20  C   UNL A   1      31.332  32.340  26.503  1.00  0.00     0.042 C 
BRANCH  20  21
ATOM     21  C   UNL A   1      32.550  32.842  27.278  1.00  0.00     0.118 C 
BRANCH  21  22
ATOM     22  N   UNL A   1      32.428  34.260  27.571  1.00  0.00    -0.352 N 
ATOM     23  C   UNL A   1      32.988  35.001  28.581  1.00  0.00     0.251 C 
ATOM     24  H   UNL A   1      31.855  34.767  26.951  1.00  0.00     0.163 HD
ATOM     25  O   UNL A   1      32.514  36.107  28.839  1.00  0.00    -0.269 OA
BRANCH  23  26
ATOM     26  C   UNL A   1      34.153  34.512  29.360  1.00  0.00     0.039 A 
ATOM     27  C   UNL A   1      35.423  34.587  28.777  1.00  0.00     0.014 A 
ATOM     28  C   UNL A   1      34.004  33.875  30.596  1.00  0.00     0.014 A 
ATOM     29  C   UNL A   1      36.533  34.036  29.425  1.00  0.00     0.010 A 
ATOM     30  C   UNL A   1      35.122  33.379  31.272  1.00  0.00     0.010 A 
ATOM     31  C   UNL A   1      36.394  33.426  30.682  1.00  0.00    -0.014 A 
BRANCH  31  32
ATOM     32  C   UNL A   1      37.554  32.781  31.354  1.00  0.00     0.031 A 
ATOM     33  C   UNL A   1      38.232  31.594  30.718  1.00  0.00     0.074 A 
ATOM     34  C   UNL A   1      37.985  33.230  32.548  1.00  0.00     0.049 A 
ATOM     35  N   UNL A   1      39.211  30.854  31.177  1.00  0.00    -0.248 NA
ATOM     36  C   UNL A   1      37.728  31.167  29.402  1.00  0.00     0.031 C 
ATOM     37  C   UNL A   1      37.401  34.347  33.294  1.00  0.00     0.029 A 
ATOM     38  N   UNL A   1      39.009  32.793  33.352  1.00  0.00    -0.354 N 
ATOM     39  C   UNL A   1      39.418  29.863  30.225  1.00  0.00     0.074 A 
ATOM     40  C   UNL A   1      38.445  30.076  29.176  1.00  0.00     0.031 C 
ATOM     41  C   UNL A   1      38.080  34.511  34.440  1.00  0.00     0.029 A 
ATOM     42  C   UNL A   1      39.127  33.496  34.526  1.00  0.00     0.049 A 
ATOM     43  H   UNL A   1      39.601  32.045  33.110  1.00  0.00     0.167 HD
ATOM     44  C   UNL A   1      40.345  28.875  30.215  1.00  0.00     0.037 A 
ATOM     45  C   UNL A   1      39.975  33.335  35.561  1.00  0.00     0.037 A 
ATOM     46  C   UNL A   1      41.351  28.690  31.226  1.00  0.00     0.049 A 
ATOM     47  C   UNL A   1      41.013  32.249  35.511  1.00  0.00     0.074 A 
ATOM     48  C   UNL A   1      42.381  27.765  31.257  1.00  0.00     0.029 A 
ATOM     49  N   UNL A   1      41.456  29.445  32.382  1.00  0.00    -0.354 N 
ATOM     50  N   UNL A   1      41.233  31.359  34.574  1.00  0.00    -0.248 NA
ATOM     51  C   UNL A   1      41.924  32.147  36.661  1.00  0.00     0.031 C 
ATOM     52  C   UNL A   1      43.092  27.942  32.449  1.00  0.00     0.029 A 
ATOM     53  C   UNL A   1      42.525  28.999  33.141  1.00  0.00     0.049 A 
ATOM     54  H   UNL A   1      40.861  30.190  32.626  1.00  0.00     0.167 HD
ATOM     55  C   UNL A   1      42.318  30.609  35.010  1.00  0.00     0.074 A 
ATOM     56  C   UNL A   1      42.721  31.155  36.288  1.00  0.00     0.031 C 
ATOM     57  C   UNL A   1      42.923  29.558  34.406  1.00  0.00     0.037 A 
BRANCH  44  58
ATOM     58  C   UNL A   1      40.325  27.914  29.063  1.00  0.00     0.057 A 
ATOM     59  C   UNL A   1      39.540  26.755  29.081  1.00  0.00     0.134 A 
ATOM     60  C   UNL A   1      41.053  28.184  27.896  1.00  0.00     0.134 A 
ATOM     61  F   UNL A   1      38.827  26.435  30.172  1.00  0.00    -0.206 F 
ATOM     62  C   UNL A   1      39.492  25.888  27.988  1.00  0.00     0.040 A 
ATOM     63  C   UNL A   1      40.996  27.337  26.789  1.00  0.00     0.040 A 
ATOM     64  F   UNL A   1      41.818  29.283  27.811  1.00  0.00    -0.206 F 
ATOM     65  C   UNL A   1      40.217  26.183  26.835  1.00  0.00     0.006 A 
ENDBRANCH  44  58
BRANCH  45  66
ATOM     66  C   UNL A   1      39.888  34.234  36.739  1.00  0.00     0.057 A 
ATOM     67  C   UNL A   1      39.131  33.882  37.862  1.00  0.00     0.134 A 
ATOM     68  C   UNL A   1      40.541  35.471  36.760  1.00  0.00     0.134 A 
ATOM     69  F   UNL A   1      38.465  32.718  37.890  1.00  0.00    -0.206 F 
ATOM     70  C   UNL A   1      39.009  34.738  38.958  1.00  0.00     0.040 A 
ATOM     71  C   UNL A   1      40.446  36.328  37.857  1.00  0.00     0.040 A 
ATOM     72  F   UNL A   1      41.284  35.863  35.714  1.00  0.00    -0.206 F 
ATOM     73  C   UNL A   1      39.672  35.964  38.958  1.00  0.00     0.006 A 
ENDBRANCH  45  66
BRANCH  57  74
ATOM     74  C   UNL A   1      44.102  28.950  35.103  1.00  0.00     0.057 A 
ATOM     75  C   UNL A   1      45.408  29.394  34.864  1.00  0.00     0.134 A 
ATOM     76  C   UNL A   1      43.925  27.935  36.052  1.00  0.00     0.134 A 
ATOM     77  F   UNL A   1      45.644  30.354  33.958  1.00  0.00    -0.206 F 
ATOM     78  C   UNL A   1      46.499  28.839  35.533  1.00  0.00     0.040 A 
ATOM     79  C   UNL A   1      45.006  27.387  36.742  1.00  0.00     0.040 A 
ATOM     80  F   UNL A   1      42.698  27.471  36.332  1.00  0.00    -0.206 F 
ATOM     81  C   UNL A   1      46.299  27.836  36.480  1.00  0.00     0.006 A 
ENDBRANCH  57  74
ENDBRANCH  31  32
ENDBRANCH  23  26
ENDBRANCH  21  22
ENDBRANCH  20  21
ENDBRANCH   1  20
TORSDOF 14
ENDMDL
MODEL 2
REMARK VINA RESULT:     -11.1      0.572      6.419
REMARK SMILES CC(C)(C)OC(=O)N1CCSC[C@@H]1CC(=O)NCCCNC(=O)c1ccc(-c2c3nc(c(-c4c(F)cccc4F)c4ccc([nH]4)c(-c4c(F)cccc4F)c4nc(c(-c5c(F)cccc5F)c5ccc2[nH]5)C=C4)C=C3)cc1
REMARK SMILES IDX 18 1 17 2 15 3 16 4 14 6 13 7 8 8 9 9 10 10 12 11 11 12 6 13
REMARK SMILES IDX 7 14 5 15 2 16 1 17 3 18 4 19 19 20 20 21 21 22 22 23 23 25
REMARK SMILES IDX 24 26 25 27 77 28 26 29 76 30 27 31 28 32 29 33 70 34 30 35
REMARK SMILES IDX 75 36 69 37 71 38 31 39 74 40 68 41 67 42 32 44 58 45 41 46
REMARK SMILES IDX 57 47 42 48 45 49 56 50 72 51 43 52 44 53 55 55 73 56 46 57
REMARK SMILES IDX 33 58 34 59 39 60 35 61 36 62 38 63 40 64 37 65 59 66 60 67
REMARK SMILES IDX 65 68 61 69 62 70 64 71 66 72 63 73 47 74 48 75 53 76 49 77
REMARK SMILES IDX 50 78 52 79 54 80 51 81
REMARK H PARENT 17 5 21 24 71 43 45 54
REMARK Flexibility Score: inf
ROOT
ATOM      1  C   UNL A   1      31.305  31.009  26.108  1.00  0.00     0.117 C 
ENDROOT
BRANCH   1   2
ATOM      2  N   UNL A   1      32.423  30.265  26.673  1.00  0.00    -0.356 N 
ATOM      3  C   UNL A   1      32.671  28.929  26.761  1.00  0.00     0.222 C 
ATOM      4  O   UNL A   1      33.713  28.566  27.309  1.00  0.00    -0.275 OA
ATOM      5  H   UNL A   1      33.128  30.832  27.063  1.00  0.00     0.163 HD
BRANCH   3   6
ATOM      6  C   UNL A   1      31.722  27.921  26.164  1.00  0.00     0.126 C 
BRANCH   6   7
ATOM      7  C   UNL A   1      31.769  27.777  24.627  1.00  0.00     0.107 C 
ATOM      8  N   UNL A   1      30.405  27.695  24.057  1.00  0.00    -0.303 N 
ATOM      9  C   UNL A   1      29.630  26.497  24.391  1.00  0.00     0.134 C 
ATOM     10  C   UNL A   1      30.234  25.259  23.726  1.00  0.00     0.091 C 
ATOM     11  C   UNL A   1      32.645  26.672  24.005  1.00  0.00     0.095 C 
ATOM     12  S   UNL A   1      31.987  24.973  24.177  1.00  0.00    -0.158 SA
BRANCH   8  13
ATOM     13  C   UNL A   1      30.104  28.439  22.923  1.00  0.00     0.410 C 
ATOM     14  O   UNL A   1      30.357  28.060  21.789  1.00  0.00    -0.224 OA
BRANCH  13  15
ATOM     15  O   UNL A   1      29.495  29.603  23.243  1.00  0.00    -0.444 OA
BRANCH  15  16
ATOM     16  C   UNL A   1      28.129  29.954  22.892  1.00  0.00     0.106 C 
ATOM     17  C   UNL A   1      28.179  30.323  21.404  1.00  0.00     0.056 C 
ATOM     18  C   UNL A   1      27.788  31.196  23.720  1.00  0.00     0.056 C 
ATOM     19  C   UNL A   1      27.066  28.871  23.095  1.00  0.00     0.056 C 
ENDBRANCH  15  16
ENDBRANCH  13  15
ENDBRANCH   8  13
ENDBRANCH   6   7
ENDBRANCH   3   6
ENDBRANCH   1   2
BRANCH   1  20
ATOM     20  C   UNL A   1      31.285  32.471  26.551  1.00  0.00     0.042 C 
BRANCH  20  21
ATOM     21  C   UNL A   1      32.553  32.915  27.279  1.00  0.00     0.118 C 
BRANCH  21  22
ATOM     22  N   UNL A   1      32.441  34.295  27.721  1.00  0.00    -0.352 N 
ATOM     23  C   UNL A   1      33.036  34.931  28.781  1.00  0.00     0.251 C 
ATOM     24  H   UNL A   1      31.846  34.860  27.176  1.00  0.00     0.163 HD
ATOM     25  O   UNL A   1      32.571  36.002  29.167  1.00  0.00    -0.269 OA
BRANCH  23  26
ATOM     26  C   UNL A   1      34.229  34.370  29.464  1.00  0.00     0.039 A 
ATOM     27  C   UNL A   1      35.473  34.481  28.831  1.00  0.00     0.014 A 
ATOM     28  C   UNL A   1      34.127  33.635  30.649  1.00  0.00     0.014 A 
ATOM     29  C   UNL A   1      36.604  33.870  29.381  1.00  0.00     0.010 A 
ATOM     30  C   UNL A   1      35.268  33.076  31.231  1.00  0.00     0.010 A 
ATOM     31  C   UNL A   1      36.513  33.161  30.589  1.00  0.00    -0.014 A 
BRANCH  31  32
ATOM     32  C   UNL A   1      37.694  32.453  31.153  1.00  0.00     0.031 A 
ATOM     33  C   UNL A   1      38.322  32.934  32.437  1.00  0.00     0.074 A 
ATOM     34  C   UNL A   1      38.230  31.400  30.505  1.00  0.00     0.049 A 
ATOM     35  N   UNL A   1      39.392  32.495  33.051  1.00  0.00    -0.248 NA
ATOM     36  C   UNL A   1      37.674  34.073  33.106  1.00  0.00     0.031 C 
ATOM     37  C   UNL A   1      37.747  30.850  29.238  1.00  0.00     0.029 A 
ATOM     38  N   UNL A   1      39.310  30.612  30.819  1.00  0.00    -0.354 N 
ATOM     39  C   UNL A   1      39.561  33.320  34.158  1.00  0.00     0.074 A 
ATOM     40  C   UNL A   1      38.502  34.304  34.115  1.00  0.00     0.031 C 
ATOM     41  C   UNL A   1      38.521  29.811  28.887  1.00  0.00     0.029 A 
ATOM     42  C   UNL A   1      39.572  29.638  29.887  1.00  0.00     0.049 A 
ATOM     43  H   UNL A   1      39.847  30.735  31.636  1.00  0.00     0.167 HD
ATOM     44  C   UNL A   1      40.502  33.254  35.130  1.00  0.00     0.037 A 
ATOM     45  C   UNL A   1      40.554  28.717  29.836  1.00  0.00     0.037 A 
ATOM     46  C   UNL A   1      41.525  32.246  35.210  1.00  0.00     0.049 A 
ATOM     47  C   UNL A   1      41.568  28.648  30.944  1.00  0.00     0.074 A 
ATOM     48  C   UNL A   1      42.470  32.055  36.202  1.00  0.00     0.029 A 
ATOM     49  N   UNL A   1      41.733  31.258  34.262  1.00  0.00    -0.354 N 
ATOM     50  N   UNL A   1      41.675  29.398  32.014  1.00  0.00    -0.248 NA
ATOM     51  C   UNL A   1      42.596  27.601  30.840  1.00  0.00     0.031 C 
ATOM     52  C   UNL A   1      43.272  30.967  35.840  1.00  0.00     0.029 A 
ATOM     53  C   UNL A   1      42.802  30.462  34.639  1.00  0.00     0.049 A 
ATOM     54  H   UNL A   1      41.200  31.138  33.443  1.00  0.00     0.167 HD
ATOM     55  C   UNL A   1      42.764  28.900  32.718  1.00  0.00     0.074 A 
ATOM     56  C   UNL A   1      43.277  27.776  31.964  1.00  0.00     0.031 C 
ATOM     57  C   UNL A   1      43.295  29.339  33.885  1.00  0.00     0.037 A 
BRANCH  44  58
ATOM     58  C   UNL A   1      40.467  34.302  36.204  1.00  0.00     0.057 A 
ATOM     59  C   UNL A   1      41.142  35.521  36.069  1.00  0.00     0.134 A 
ATOM     60  C   UNL A   1      39.697  34.112  37.359  1.00  0.00     0.134 A 
ATOM     61  F   UNL A   1      41.902  35.760  34.989  1.00  0.00    -0.206 F 
ATOM     62  C   UNL A   1      41.068  36.508  37.052  1.00  0.00     0.040 A 
ATOM     63  C   UNL A   1      39.598  35.101  38.340  1.00  0.00     0.040 A 
ATOM     64  F   UNL A   1      39.019  32.970  37.546  1.00  0.00    -0.206 F 
ATOM     65  C   UNL A   1      40.288  36.302  38.189  1.00  0.00     0.006 A 
ENDBRANCH  44  58
BRANCH  45  66
ATOM     66  C   UNL A   1      40.625  27.770  28.696  1.00  0.00     0.057 A 
ATOM     67  C   UNL A   1      39.861  26.599  28.680  1.00  0.00     0.134 A 
ATOM     68  C   UNL A   1      41.474  28.004  27.608  1.00  0.00     0.134 A 
ATOM     69  F   UNL A   1      39.046  26.310  29.706  1.00  0.00    -0.206 F 
ATOM     70  C   UNL A   1      39.952  25.681  27.632  1.00  0.00     0.040 A 
ATOM     71  C   UNL A   1      41.559  27.107  26.543  1.00  0.00     0.040 A 
ATOM     72  F   UNL A   1      42.230  29.111  27.565  1.00  0.00    -0.206 F 
ATOM     73  C   UNL A   1      40.801  25.937  26.557  1.00  0.00     0.006 A 
ENDBRANCH  45  66
BRANCH  57  74
ATOM     74  C   UNL A   1      44.469  28.586  34.433  1.00  0.00     0.057 A 
ATOM     75  C   UNL A   1      44.307  27.491  35.290  1.00  0.00     0.134 A 
ATOM     76  C   UNL A   1      45.775  28.937  34.068  1.00  0.00     0.134 A 
ATOM     77  F   UNL A   1      43.082  27.114  35.686  1.00  0.00    -0.206 F 
ATOM     78  C   UNL A   1      45.403  26.781  35.778  1.00  0.00     0.040 A 
ATOM     79  C   UNL A   1      46.878  28.221  34.534  1.00  0.00     0.040 A 
ATOM     80  F   UNL A   1      45.998  29.972  33.244  1.00  0.00    -0.206 F 
ATOM     81  C   UNL A   1      46.694  27.142  35.396  1.00  0.00     0.006 A 
ENDBRANCH  57  74
ENDBRANCH  31  32
ENDBRANCH  23  26
ENDBRANCH  21  22
ENDBRANCH  20  21
ENDBRANCH   1  20
TORSDOF 14
ENDMDL
MODEL 3
REMARK VINA RESULT:     -11.1      5.426      9.901
REMARK SMILES CC(C)(C)OC(=O)N1CCSC[C@@H]1CC(=O)NCCCNC(=O)c1ccc(-c2c3nc(c(-c4c(F)cccc4F)c4ccc([nH]4)c(-c4c(F)cccc4F)c4nc(c(-c5c(F)cccc5F)c5ccc2[nH]5)C=C4)C=C3)cc1
REMARK SMILES IDX 18 1 17 2 15 3 16 4 14 6 13 7 8 8 9 9 10 10 12 11 11 12 6 13
REMARK SMILES IDX 7 14 5 15 2 16 1 17 3 18 4 19 19 20 20 21 21 22 22 23 23 25
REMARK SMILES IDX 24 26 25 27 77 28 26 29 76 30 27 31 28 32 29 33 70 34 30 35
REMARK SMILES IDX 75 36 69 37 71 38 31 39 74 40 68 41 67 42 32 44 58 45 41 46
REMARK SMILES IDX 57 47 42 48 45 49 56 50 72 51 43 52 44 53 55 55 73 56 46 57
REMARK SMILES IDX 33 58 34 59 39 60 35 61 36 62 38 63 40 64 37 65 59 66 60 67
REMARK SMILES IDX 65 68 61 69 62 70 64 71 66 72 63 73 47 74 48 75 53 76 49 77
REMARK SMILES IDX 50 78 52 79 54 80 51 81
REMARK H PARENT 17 5 21 24 71 43 45 54
REMARK Flexibility Score: inf
ROOT
ATOM      1  C   UNL A   1      37.136  20.619  24.628  1.00  0.00     0.117 C 
ENDROOT
BRANCH   1   2
ATOM      2  N   UNL A   1      37.337  21.857  25.370  1.00  0.00    -0.356 N 
ATOM      3  C   UNL A   1      36.659  23.038  25.362  1.00  0.00     0.222 C 
ATOM      4  O   UNL A   1      37.058  23.942  26.098  1.00  0.00    -0.275 OA
ATOM      5  H   UNL A   1      38.101  21.836  25.989  1.00  0.00     0.163 HD
BRANCH   3   6
ATOM      6  C   UNL A   1      35.427  23.223  24.512  1.00  0.00     0.126 C 
BRANCH   6   7
ATOM      7  C   UNL A   1      34.099  22.738  25.134  1.00  0.00     0.107 C 
ATOM      8  N   UNL A   1      33.412  21.777  24.242  1.00  0.00    -0.303 N 
ATOM      9  C   UNL A   1      32.908  22.311  22.975  1.00  0.00     0.134 C 
ATOM     10  C   UNL A   1      31.743  23.274  23.217  1.00  0.00     0.091 C 
ATOM     11  C   UNL A   1      33.081  23.782  25.634  1.00  0.00     0.095 C 
ATOM     12  S   UNL A   1      32.177  24.674  24.317  1.00  0.00    -0.158 SA
BRANCH   8  13
ATOM     13  C   UNL A   1      32.868  20.621  24.789  1.00  0.00     0.410 C 
ATOM     14  O   UNL A   1      31.761  20.581  25.302  1.00  0.00    -0.224 OA
BRANCH  13  15
ATOM     15  O   UNL A   1      33.712  19.572  24.664  1.00  0.00    -0.444 OA
BRANCH  15  16
ATOM     16  C   UNL A   1      33.313  18.216  24.323  1.00  0.00     0.106 C 
ATOM     17  C   UNL A   1      34.624  17.468  24.053  1.00  0.00     0.056 C 
ATOM     18  C   UNL A   1      32.507  18.329  23.026  1.00  0.00     0.056 C 
ATOM     19  C   UNL A   1      32.515  17.447  25.379  1.00  0.00     0.056 C 
ENDBRANCH  15  16
ENDBRANCH  13  15
ENDBRANCH   8  13
ENDBRANCH   6   7
ENDBRANCH   3   6
ENDBRANCH   1   2
BRANCH   1  20
ATOM     20  C   UNL A   1      38.221  19.581  24.910  1.00  0.00     0.042 C 
BRANCH  20  21
ATOM     21  C   UNL A   1      39.224  20.007  25.981  1.00  0.00     0.118 C 
BRANCH  21  22
ATOM     22  N   UNL A   1      40.432  19.204  25.909  1.00  0.00    -0.352 N 
ATOM     23  C   UNL A   1      41.749  19.589  25.950  1.00  0.00     0.251 C 
ATOM     24  H   UNL A   1      40.284  18.235  25.816  1.00  0.00     0.163 HD
ATOM     25  O   UNL A   1      42.609  18.801  25.559  1.00  0.00    -0.269 OA
BRANCH  23  26
ATOM     26  C   UNL A   1      42.162  20.919  26.462  1.00  0.00     0.039 A 
ATOM     27  C   UNL A   1      42.094  21.152  27.841  1.00  0.00     0.014 A 
ATOM     28  C   UNL A   1      42.496  21.972  25.606  1.00  0.00     0.014 A 
ATOM     29  C   UNL A   1      42.365  22.423  28.358  1.00  0.00     0.010 A 
ATOM     30  C   UNL A   1      42.826  23.227  26.127  1.00  0.00     0.010 A 
ATOM     31  C   UNL A   1      42.735  23.475  27.506  1.00  0.00    -0.014 A 
BRANCH  31  32
ATOM     32  C   UNL A   1      42.964  24.847  28.034  1.00  0.00     0.031 A 
ATOM     33  C   UNL A   1      44.349  25.277  28.445  1.00  0.00     0.074 A 
ATOM     34  C   UNL A   1      41.932  25.700  28.181  1.00  0.00     0.049 A 
ATOM     35  N   UNL A   1      44.741  26.402  28.989  1.00  0.00    -0.248 NA
ATOM     36  C   UNL A   1      45.435  24.305  28.237  1.00  0.00     0.031 C 
ATOM     37  C   UNL A   1      40.536  25.405  27.857  1.00  0.00     0.029 A 
ATOM     38  N   UNL A   1      41.899  26.989  28.654  1.00  0.00    -0.354 N 
ATOM     39  C   UNL A   1      46.105  26.262  29.215  1.00  0.00     0.074 A 
ATOM     40  C   UNL A   1      46.470  24.932  28.777  1.00  0.00     0.031 C 
ATOM     41  C   UNL A   1      39.785  26.484  28.133  1.00  0.00     0.029 A 
ATOM     42  C   UNL A   1      40.639  27.535  28.679  1.00  0.00     0.049 A 
ATOM     43  H   UNL A   1      42.703  27.476  28.948  1.00  0.00     0.167 HD
ATOM     44  C   UNL A   1      46.979  27.163  29.724  1.00  0.00     0.037 A 
ATOM     45  C   UNL A   1      40.216  28.741  29.105  1.00  0.00     0.037 A 
ATOM     46  C   UNL A   1      46.635  28.505  30.111  1.00  0.00     0.049 A 
ATOM     47  C   UNL A   1      41.212  29.733  29.640  1.00  0.00     0.074 A 
ATOM     48  C   UNL A   1      47.470  29.513  30.562  1.00  0.00     0.029 A 
ATOM     49  N   UNL A   1      45.353  29.028  30.089  1.00  0.00    -0.354 N 
ATOM     50  N   UNL A   1      42.508  29.604  29.789  1.00  0.00    -0.248 NA
ATOM     51  C   UNL A   1      40.686  31.041  30.061  1.00  0.00     0.031 C 
ATOM     52  C   UNL A   1      46.688  30.638  30.842  1.00  0.00     0.029 A 
ATOM     53  C   UNL A   1      45.371  30.340  30.532  1.00  0.00     0.049 A 
ATOM     54  H   UNL A   1      44.548  28.540  29.800  1.00  0.00     0.167 HD
ATOM     55  C   UNL A   1      42.953  30.818  30.298  1.00  0.00     0.074 A 
ATOM     56  C   UNL A   1      41.794  31.675  30.420  1.00  0.00     0.031 C 
ATOM     57  C   UNL A   1      44.212  31.186  30.638  1.00  0.00     0.037 A 
BRANCH  44  58
ATOM     58  C   UNL A   1      48.407  26.732  29.888  1.00  0.00     0.057 A 
ATOM     59  C   UNL A   1      48.854  26.075  31.040  1.00  0.00     0.134 A 
ATOM     60  C   UNL A   1      49.331  26.922  28.852  1.00  0.00     0.134 A 
ATOM     61  F   UNL A   1      48.019  25.871  32.071  1.00  0.00    -0.206 F 
ATOM     62  C   UNL A   1      50.173  25.638  31.166  1.00  0.00     0.040 A 
ATOM     63  C   UNL A   1      50.647  26.470  28.957  1.00  0.00     0.040 A 
ATOM     64  F   UNL A   1      48.965  27.537  27.717  1.00  0.00    -0.206 F 
ATOM     65  C   UNL A   1      51.072  25.829  30.118  1.00  0.00     0.006 A 
ENDBRANCH  44  58
BRANCH  45  66
ATOM     66  C   UNL A   1      38.775  29.089  29.037  1.00  0.00     0.057 A 
ATOM     67  C   UNL A   1      38.199  29.554  27.850  1.00  0.00     0.134 A 
ATOM     68  C   UNL A   1      37.948  28.986  30.161  1.00  0.00     0.134 A 
ATOM     69  F   UNL A   1      38.948  29.694  26.746  1.00  0.00    -0.206 F 
ATOM     70  C   UNL A   1      36.854  29.923  27.786  1.00  0.00     0.040 A 
ATOM     71  C   UNL A   1      36.596  29.332  30.106  1.00  0.00     0.040 A 
ATOM     72  F   UNL A   1      38.441  28.545  31.327  1.00  0.00    -0.206 F 
ATOM     73  C   UNL A   1      36.048  29.808  28.917  1.00  0.00     0.006 A 
ENDBRANCH  45  66
BRANCH  57  74
ATOM     74  C   UNL A   1      44.406  32.583  31.145  1.00  0.00     0.057 A 
ATOM     75  C   UNL A   1      44.644  33.654  30.276  1.00  0.00     0.134 A 
ATOM     76  C   UNL A   1      44.315  32.865  32.514  1.00  0.00     0.134 A 
ATOM     77  F   UNL A   1      44.755  33.447  28.956  1.00  0.00    -0.206 F 
ATOM     78  C   UNL A   1      44.802  34.956  30.753  1.00  0.00     0.040 A 
ATOM     79  C   UNL A   1      44.450  34.166  33.000  1.00  0.00     0.040 A 
ATOM     80  F   UNL A   1      44.080  31.883  33.398  1.00  0.00    -0.206 F 
ATOM     81  C   UNL A   1      44.699  35.215  32.118  1.00  0.00     0.006 A 
ENDBRANCH  57  74
ENDBRANCH  31  32
ENDBRANCH  23  26
ENDBRANCH  21  22
ENDBRANCH  20  21
ENDBRANCH   1  20
TORSDOF 14
ENDMDL
