MODEL 1
REMARK VINA RESULT:     -11.8      0.000      0.000
REMARK SMILES COC(=O)c1cccc(-c2cnc(Cl)cc2C(=O)NCCCNC(=O)c2ccc(-c3c4nc(c(-c5c(F)cccc5F)c5ccc([nH]5)c(-c5c(F)cccc5F)c5nc(c(-c6c(F)cccc6F)c6ccc3[nH]6)C=C5)C=C4)cc2)c1
REMARK SMILES IDX 20 1 19 2 17 3 18 4 16 6 10 7 11 8 12 9 15 10 13 11 14 12
REMARK SMILES IDX 9 13 5 14 6 15 80 16 7 17 8 18 3 19 4 20 2 21 1 22 21 23
REMARK SMILES IDX 22 24 23 25 24 26 25 28 26 29 27 30 79 31 28 32 78 33 29 34
REMARK SMILES IDX 30 35 31 36 72 37 32 38 77 39 71 40 73 41 33 42 76 43 70 44
REMARK SMILES IDX 69 45 34 47 60 48 43 49 59 50 44 51 47 52 58 53 74 54 45 55
REMARK SMILES IDX 46 56 57 58 75 59 48 60 35 61 36 62 41 63 37 64 38 65 40 66
REMARK SMILES IDX 42 67 39 68 61 69 62 70 67 71 63 72 64 73 66 74 68 75 65 76
REMARK SMILES IDX 49 77 50 78 55 79 51 80 52 81 54 82 56 83 53 84
REMARK H PARENT 19 5 23 27 73 46 47 57
REMARK Flexibility Score: inf
ROOT
ATOM      1  C   UNL A   1      31.891  27.925  26.806  1.00  0.00     0.118 C 
ENDROOT
BRANCH   1   2
ATOM      2  N   UNL A   1      31.453  26.548  26.938  1.00  0.00    -0.352 N 
ATOM      3  C   UNL A   1      31.548  25.396  26.207  1.00  0.00     0.252 C 
ATOM      4  O   UNL A   1      30.947  24.450  26.716  1.00  0.00    -0.269 OA
ATOM      5  H   UNL A   1      30.956  26.405  27.776  1.00  0.00     0.163 HD
BRANCH   3   6
ATOM      6  C   UNL A   1      32.317  25.227  24.924  1.00  0.00     0.052 A 
ATOM      7  C   UNL A   1      31.777  25.679  23.687  1.00  0.00     0.013 A 
ATOM      8  C   UNL A   1      32.503  25.368  22.529  1.00  0.00     0.122 A 
ATOM      9  N   UNL A   1      33.672  24.696  22.498  1.00  0.00    -0.244 NA
ATOM     10  C   UNL A   1      33.573  24.614  24.905  1.00  0.00     0.055 A 
ATOM     11  C   UNL A   1      34.179  24.354  23.689  1.00  0.00     0.129 A 
ATOM     12  Cl  UNL A   1      35.679  23.526  23.617  1.00  0.00    -0.062 Cl
BRANCH   7  13
ATOM     13  C   UNL A   1      30.537  26.461  23.520  1.00  0.00    -0.015 A 
ATOM     14  C   UNL A   1      29.397  28.516  22.849  1.00  0.00     0.060 A 
ATOM     15  C   UNL A   1      28.181  27.989  23.294  1.00  0.00     0.016 A 
ATOM     16  C   UNL A   1      30.560  27.739  22.928  1.00  0.00     0.024 A 
ATOM     17  C   UNL A   1      28.128  26.699  23.820  1.00  0.00     0.002 A 
ATOM     18  C   UNL A   1      29.299  25.945  23.939  1.00  0.00     0.009 A 
BRANCH  14  19
ATOM     19  C   UNL A   1      29.417  29.920  22.363  1.00  0.00     0.337 C 
ATOM     20  O   UNL A   1      29.592  30.222  21.194  1.00  0.00    -0.246 OA
BRANCH  19  21
ATOM     21  O   UNL A   1      29.259  30.786  23.396  1.00  0.00    -0.465 OA
ATOM     22  C   UNL A   1      28.130  31.651  23.255  1.00  0.00     0.282 C 
ENDBRANCH  19  21
ENDBRANCH  14  19
ENDBRANCH   7  13
ENDBRANCH   3   6
ENDBRANCH   1   2
BRANCH   1  23
ATOM     23  C   UNL A   1      33.404  28.033  26.995  1.00  0.00     0.042 C 
BRANCH  23  24
ATOM     24  C   UNL A   1      34.052  29.097  26.104  1.00  0.00     0.118 C 
BRANCH  24  25
ATOM     25  N   UNL A   1      33.871  30.441  26.636  1.00  0.00    -0.352 N 
ATOM     26  C   UNL A   1      34.512  31.085  27.662  1.00  0.00     0.251 C 
ATOM     27  H   UNL A   1      33.176  30.972  26.186  1.00  0.00     0.163 HD
ATOM     28  O   UNL A   1      34.033  32.119  28.120  1.00  0.00    -0.269 OA
BRANCH  26  29
ATOM     29  C   UNL A   1      35.773  30.552  28.223  1.00  0.00     0.039 A 
ATOM     30  C   UNL A   1      35.721  29.790  29.393  1.00  0.00     0.014 A 
ATOM     31  C   UNL A   1      37.007  30.856  27.640  1.00  0.00     0.014 A 
ATOM     32  C   UNL A   1      36.899  29.288  29.949  1.00  0.00     0.010 A 
ATOM     33  C   UNL A   1      38.174  30.296  28.154  1.00  0.00     0.010 A 
ATOM     34  C   UNL A   1      38.133  29.511  29.317  1.00  0.00    -0.014 A 
BRANCH  34  35
ATOM     35  C   UNL A   1      39.389  28.933  29.856  1.00  0.00     0.031 A 
ATOM     36  C   UNL A   1      40.038  29.529  31.075  1.00  0.00     0.074 A 
ATOM     37  C   UNL A   1      39.982  27.913  29.206  1.00  0.00     0.049 A 
ATOM     38  N   UNL A   1      41.171  29.210  31.649  1.00  0.00    -0.248 NA
ATOM     39  C   UNL A   1      39.334  30.649  31.718  1.00  0.00     0.031 C 
ATOM     40  C   UNL A   1      39.474  27.279  27.988  1.00  0.00     0.029 A 
ATOM     41  N   UNL A   1      41.146  27.239  29.472  1.00  0.00    -0.354 N 
ATOM     42  C   UNL A   1      41.322  30.097  32.707  1.00  0.00     0.074 A 
ATOM     43  C   UNL A   1      40.192  30.999  32.664  1.00  0.00     0.031 C 
ATOM     44  C   UNL A   1      40.310  26.293  27.626  1.00  0.00     0.029 A 
ATOM     45  C   UNL A   1      41.430  26.251  28.560  1.00  0.00     0.049 A 
ATOM     46  H   UNL A   1      41.723  27.443  30.243  1.00  0.00     0.167 HD
ATOM     47  C   UNL A   1      42.303  30.141  33.641  1.00  0.00     0.037 A 
ATOM     48  C   UNL A   1      42.479  25.411  28.482  1.00  0.00     0.037 A 
ATOM     49  C   UNL A   1      43.414  29.227  33.691  1.00  0.00     0.049 A 
ATOM     50  C   UNL A   1      43.559  25.486  29.524  1.00  0.00     0.074 A 
ATOM     51  C   UNL A   1      44.427  29.151  34.631  1.00  0.00     0.029 A 
ATOM     52  N   UNL A   1      43.661  28.233  32.756  1.00  0.00    -0.354 N 
ATOM     53  N   UNL A   1      43.655  26.287  30.557  1.00  0.00    -0.248 NA
ATOM     54  C   UNL A   1      44.672  24.537  29.392  1.00  0.00     0.031 C 
ATOM     55  C   UNL A   1      45.310  28.139  34.240  1.00  0.00     0.029 A 
ATOM     56  C   UNL A   1      44.822  27.553  33.083  1.00  0.00     0.049 A 
ATOM     57  H   UNL A   1      43.093  28.040  31.975  1.00  0.00     0.167 HD
ATOM     58  C   UNL A   1      44.824  25.924  31.213  1.00  0.00     0.074 A 
ATOM     59  C   UNL A   1      45.394  24.820  30.467  1.00  0.00     0.031 C 
ATOM     60  C   UNL A   1      45.376  26.456  32.331  1.00  0.00     0.037 A 
BRANCH  47  61
ATOM     61  C   UNL A   1      42.213  31.219  34.685  1.00  0.00     0.057 A 
ATOM     62  C   UNL A   1      41.531  31.023  35.893  1.00  0.00     0.134 A 
ATOM     63  C   UNL A   1      42.834  32.459  34.488  1.00  0.00     0.134 A 
ATOM     64  F   UNL A   1      40.905  29.863  36.140  1.00  0.00    -0.206 F 
ATOM     65  C   UNL A   1      41.440  32.033  36.853  1.00  0.00     0.040 A 
ATOM     66  C   UNL A   1      42.776  33.466  35.455  1.00  0.00     0.040 A 
ATOM     67  F   UNL A   1      43.511  32.712  33.359  1.00  0.00    -0.206 F 
ATOM     68  C   UNL A   1      42.070  33.257  36.637  1.00  0.00     0.006 A 
ENDBRANCH  47  61
BRANCH  48  69
ATOM     69  C   UNL A   1      42.543  24.409  27.389  1.00  0.00     0.057 A 
ATOM     70  C   UNL A   1      42.059  23.109  27.576  1.00  0.00     0.134 A 
ATOM     71  C   UNL A   1      43.081  24.724  26.135  1.00  0.00     0.134 A 
ATOM     72  F   UNL A   1      41.548  22.744  28.761  1.00  0.00    -0.206 F 
ATOM     73  C   UNL A   1      42.119  22.153  26.562  1.00  0.00     0.040 A 
ATOM     74  C   UNL A   1      43.125  23.784  25.104  1.00  0.00     0.040 A 
ATOM     75  F   UNL A   1      43.554  25.954  25.891  1.00  0.00    -0.206 F 
ATOM     76  C   UNL A   1      42.649  22.492  25.318  1.00  0.00     0.006 A 
ENDBRANCH  48  69
BRANCH  60  77
ATOM     77  C   UNL A   1      46.646  25.831  32.831  1.00  0.00     0.057 A 
ATOM     78  C   UNL A   1      47.905  26.280  32.413  1.00  0.00     0.134 A 
ATOM     79  C   UNL A   1      46.607  24.792  33.771  1.00  0.00     0.134 A 
ATOM     80  F   UNL A   1      48.010  27.262  31.505  1.00  0.00    -0.206 F 
ATOM     81  C   UNL A   1      49.081  25.701  32.894  1.00  0.00     0.040 A 
ATOM     82  C   UNL A   1      47.776  24.225  34.279  1.00  0.00     0.040 A 
ATOM     83  F   UNL A   1      45.434  24.322  34.218  1.00  0.00    -0.206 F 
ATOM     84  C   UNL A   1      49.017  24.675  33.836  1.00  0.00     0.006 A 
ENDBRANCH  60  77
ENDBRANCH  34  35
ENDBRANCH  26  29
ENDBRANCH  24  25
ENDBRANCH  23  24
ENDBRANCH   1  23
TORSDOF 13
ENDMDL
MODEL 2
REMARK VINA RESULT:     -11.7      1.936      2.366
REMARK SMILES COC(=O)c1cccc(-c2cnc(Cl)cc2C(=O)NCCCNC(=O)c2ccc(-c3c4nc(c(-c5c(F)cccc5F)c5ccc([nH]5)c(-c5c(F)cccc5F)c5nc(c(-c6c(F)cccc6F)c6ccc3[nH]6)C=C5)C=C4)cc2)c1
REMARK SMILES IDX 20 1 19 2 17 3 18 4 16 6 10 7 11 8 12 9 15 10 13 11 14 12
REMARK SMILES IDX 9 13 5 14 6 15 80 16 7 17 8 18 3 19 4 20 2 21 1 22 21 23
REMARK SMILES IDX 22 24 23 25 24 26 25 28 26 29 27 30 79 31 28 32 78 33 29 34
REMARK SMILES IDX 30 35 31 36 72 37 32 38 77 39 71 40 73 41 33 42 76 43 70 44
REMARK SMILES IDX 69 45 34 47 60 48 43 49 59 50 44 51 47 52 58 53 74 54 45 55
REMARK SMILES IDX 46 56 57 58 75 59 48 60 35 61 36 62 41 63 37 64 38 65 40 66
REMARK SMILES IDX 42 67 39 68 61 69 62 70 67 71 63 72 64 73 66 74 68 75 65 76
REMARK SMILES IDX 49 77 50 78 55 79 51 80 52 81 54 82 56 83 53 84
REMARK H PARENT 19 5 23 27 73 46 47 57
REMARK Flexibility Score: inf
ROOT
ATOM      1  C   UNL A   1      31.527  27.919  26.540  1.00  0.00     0.118 C 
ENDROOT
BRANCH   1   2
ATOM      2  N   UNL A   1      31.358  26.508  26.833  1.00  0.00    -0.352 N 
ATOM      3  C   UNL A   1      31.638  25.320  26.216  1.00  0.00     0.252 C 
ATOM      4  O   UNL A   1      31.243  24.342  26.849  1.00  0.00    -0.269 OA
ATOM      5  H   UNL A   1      30.928  26.368  27.707  1.00  0.00     0.163 HD
BRANCH   3   6
ATOM      6  C   UNL A   1      32.377  25.155  24.915  1.00  0.00     0.052 A 
ATOM      7  C   UNL A   1      31.801  25.595  23.690  1.00  0.00     0.013 A 
ATOM      8  C   UNL A   1      32.502  25.288  22.515  1.00  0.00     0.122 A 
ATOM      9  N   UNL A   1      33.679  24.631  22.458  1.00  0.00    -0.244 NA
ATOM     10  C   UNL A   1      33.640  24.558  24.867  1.00  0.00     0.055 A 
ATOM     11  C   UNL A   1      34.219  24.301  23.638  1.00  0.00     0.129 A 
ATOM     12  Cl  UNL A   1      35.728  23.492  23.532  1.00  0.00    -0.062 Cl
BRANCH   7  13
ATOM     13  C   UNL A   1      30.547  26.360  23.550  1.00  0.00    -0.015 A 
ATOM     14  C   UNL A   1      29.363  28.394  22.893  1.00  0.00     0.060 A 
ATOM     15  C   UNL A   1      28.166  27.856  23.377  1.00  0.00     0.016 A 
ATOM     16  C   UNL A   1      30.538  27.632  22.947  1.00  0.00     0.024 A 
ATOM     17  C   UNL A   1      28.145  26.571  23.914  1.00  0.00     0.002 A 
ATOM     18  C   UNL A   1      29.327  25.832  24.008  1.00  0.00     0.009 A 
BRANCH  14  19
ATOM     19  C   UNL A   1      29.352  29.794  22.396  1.00  0.00     0.337 C 
ATOM     20  O   UNL A   1      29.589  30.095  21.237  1.00  0.00    -0.246 OA
BRANCH  19  21
ATOM     21  O   UNL A   1      29.089  30.660  23.407  1.00  0.00    -0.465 OA
ATOM     22  C   UNL A   1      28.032  31.577  23.120  1.00  0.00     0.282 C 
ENDBRANCH  19  21
ENDBRANCH  14  19
ENDBRANCH   7  13
ENDBRANCH   3   6
ENDBRANCH   1   2
BRANCH   1  23
ATOM     23  C   UNL A   1      32.962  28.213  26.101  1.00  0.00     0.042 C 
BRANCH  23  24
ATOM     24  C   UNL A   1      33.907  28.502  27.272  1.00  0.00     0.118 C 
BRANCH  24  25
ATOM     25  N   UNL A   1      33.863  29.901  27.678  1.00  0.00    -0.352 N 
ATOM     26  C   UNL A   1      34.772  30.653  28.377  1.00  0.00     0.251 C 
ATOM     27  H   UNL A   1      33.050  30.383  27.406  1.00  0.00     0.163 HD
ATOM     28  O   UNL A   1      34.429  31.737  28.839  1.00  0.00    -0.269 OA
BRANCH  26  29
ATOM     29  C   UNL A   1      36.157  30.175  28.579  1.00  0.00     0.039 A 
ATOM     30  C   UNL A   1      37.054  30.238  27.509  1.00  0.00     0.014 A 
ATOM     31  C   UNL A   1      36.554  29.607  29.793  1.00  0.00     0.014 A 
ATOM     32  C   UNL A   1      38.363  29.781  27.672  1.00  0.00     0.010 A 
ATOM     33  C   UNL A   1      37.878  29.217  29.976  1.00  0.00     0.010 A 
ATOM     34  C   UNL A   1      38.795  29.294  28.917  1.00  0.00    -0.014 A 
BRANCH  34  35
ATOM     35  C   UNL A   1      40.199  28.863  29.129  1.00  0.00     0.031 A 
ATOM     36  C   UNL A   1      41.198  29.801  29.748  1.00  0.00     0.074 A 
ATOM     37  C   UNL A   1      40.590  27.647  28.700  1.00  0.00     0.049 A 
ATOM     38  N   UNL A   1      42.481  29.631  29.946  1.00  0.00    -0.248 NA
ATOM     39  C   UNL A   1      40.693  31.114  30.178  1.00  0.00     0.031 C 
ATOM     40  C   UNL A   1      39.726  26.665  28.044  1.00  0.00     0.029 A 
ATOM     41  N   UNL A   1      41.817  27.037  28.741  1.00  0.00    -0.354 N 
ATOM     42  C   UNL A   1      42.937  30.817  30.506  1.00  0.00     0.074 A 
ATOM     43  C   UNL A   1      41.806  31.716  30.569  1.00  0.00     0.031 C 
ATOM     44  C   UNL A   1      40.445  25.565  27.765  1.00  0.00     0.029 A 
ATOM     45  C   UNL A   1      41.826  25.780  28.185  1.00  0.00     0.049 A 
ATOM     46  H   UNL A   1      42.617  27.458  29.131  1.00  0.00     0.167 HD
ATOM     47  C   UNL A   1      44.182  31.122  30.947  1.00  0.00     0.037 A 
ATOM     48  C   UNL A   1      42.834  24.903  28.025  1.00  0.00     0.037 A 
ATOM     49  C   UNL A   1      45.300  30.216  30.902  1.00  0.00     0.049 A 
ATOM     50  C   UNL A   1      44.208  25.267  28.513  1.00  0.00     0.074 A 
ATOM     51  C   UNL A   1      46.586  30.406  31.377  1.00  0.00     0.029 A 
ATOM     52  N   UNL A   1      45.266  28.947  30.341  1.00  0.00    -0.354 N 
ATOM     53  N   UNL A   1      44.611  26.368  29.101  1.00  0.00    -0.248 NA
ATOM     54  C   UNL A   1      45.265  24.265  28.321  1.00  0.00     0.031 C 
ATOM     55  C   UNL A   1      47.340  29.270  31.065  1.00  0.00     0.029 A 
ATOM     56  C   UNL A   1      46.513  28.353  30.438  1.00  0.00     0.049 A 
ATOM     57  H   UNL A   1      44.471  28.531  29.934  1.00  0.00     0.167 HD
ATOM     58  C   UNL A   1      45.961  26.182  29.372  1.00  0.00     0.074 A 
ATOM     59  C   UNL A   1      46.303  24.857  28.896  1.00  0.00     0.031 C 
ATOM     60  C   UNL A   1      46.837  27.032  29.960  1.00  0.00     0.037 A 
BRANCH  47  61
ATOM     61  C   UNL A   1      44.395  32.496  31.516  1.00  0.00     0.057 A 
ATOM     62  C   UNL A   1      44.215  32.768  32.879  1.00  0.00     0.134 A 
ATOM     63  C   UNL A   1      44.808  33.554  30.696  1.00  0.00     0.134 A 
ATOM     64  F   UNL A   1      43.809  31.803  33.717  1.00  0.00    -0.206 F 
ATOM     65  C   UNL A   1      44.402  34.050  33.399  1.00  0.00     0.040 A 
ATOM     66  C   UNL A   1      45.028  34.834  31.211  1.00  0.00     0.040 A 
ATOM     67  F   UNL A   1      45.009  33.362  29.384  1.00  0.00    -0.206 F 
ATOM     68  C   UNL A   1      44.817  35.086  32.565  1.00  0.00     0.006 A 
ENDBRANCH  47  61
BRANCH  48  69
ATOM     69  C   UNL A   1      42.574  23.584  27.396  1.00  0.00     0.057 A 
ATOM     70  C   UNL A   1      42.197  22.481  28.171  1.00  0.00     0.134 A 
ATOM     71  C   UNL A   1      42.688  23.395  26.014  1.00  0.00     0.134 A 
ATOM     72  F   UNL A   1      42.088  22.597  29.503  1.00  0.00    -0.206 F 
ATOM     73  C   UNL A   1      41.956  21.232  27.596  1.00  0.00     0.040 A 
ATOM     74  C   UNL A   1      42.426  22.157  25.423  1.00  0.00     0.040 A 
ATOM     75  F   UNL A   1      43.036  24.414  25.217  1.00  0.00    -0.206 F 
ATOM     76  C   UNL A   1      42.066  21.069  26.216  1.00  0.00     0.006 A 
ENDBRANCH  48  69
BRANCH  60  77
ATOM     77  C   UNL A   1      48.243  26.543  30.149  1.00  0.00     0.057 A 
ATOM     78  C   UNL A   1      49.243  26.781  29.198  1.00  0.00     0.134 A 
ATOM     79  C   UNL A   1      48.608  25.856  31.315  1.00  0.00     0.134 A 
ATOM     80  F   UNL A   1      48.955  27.420  28.054  1.00  0.00    -0.206 F 
ATOM     81  C   UNL A   1      50.551  26.333  29.388  1.00  0.00     0.040 A 
ATOM     82  C   UNL A   1      49.919  25.428  31.529  1.00  0.00     0.040 A 
ATOM     83  F   UNL A   1      47.700  25.602  32.269  1.00  0.00    -0.206 F 
ATOM     84  C   UNL A   1      50.893  25.660  30.561  1.00  0.00     0.006 A 
ENDBRANCH  60  77
ENDBRANCH  34  35
ENDBRANCH  26  29
ENDBRANCH  24  25
ENDBRANCH  23  24
ENDBRANCH   1  23
TORSDOF 13
ENDMDL
MODEL 3
REMARK VINA RESULT:     -11.7      2.929      7.762
REMARK SMILES COC(=O)c1cccc(-c2cnc(Cl)cc2C(=O)NCCCNC(=O)c2ccc(-c3c4nc(c(-c5c(F)cccc5F)c5ccc([nH]5)c(-c5c(F)cccc5F)c5nc(c(-c6c(F)cccc6F)c6ccc3[nH]6)C=C5)C=C4)cc2)c1
REMARK SMILES IDX 20 1 19 2 17 3 18 4 16 6 10 7 11 8 12 9 15 10 13 11 14 12
REMARK SMILES IDX 9 13 5 14 6 15 80 16 7 17 8 18 3 19 4 20 2 21 1 22 21 23
REMARK SMILES IDX 22 24 23 25 24 26 25 28 26 29 27 30 79 31 28 32 78 33 29 34
REMARK SMILES IDX 30 35 31 36 72 37 32 38 77 39 71 40 73 41 33 42 76 43 70 44
REMARK SMILES IDX 69 45 34 47 60 48 43 49 59 50 44 51 47 52 58 53 74 54 45 55
REMARK SMILES IDX 46 56 57 58 75 59 48 60 35 61 36 62 41 63 37 64 38 65 40 66
REMARK SMILES IDX 42 67 39 68 61 69 62 70 67 71 63 72 64 73 66 74 68 75 65 76
REMARK SMILES IDX 49 77 50 78 55 79 51 80 52 81 54 82 56 83 53 84
REMARK H PARENT 19 5 23 27 73 46 47 57
REMARK Flexibility Score: inf
ROOT
ATOM      1  C   UNL A   1      31.776  29.999  26.864  1.00  0.00     0.118 C 
ENDROOT
BRANCH   1   2
ATOM      2  N   UNL A   1      32.376  29.576  25.613  1.00  0.00    -0.352 N 
ATOM      3  C   UNL A   1      31.938  29.188  24.377  1.00  0.00     0.252 C 
ATOM      4  O   UNL A   1      32.852  28.854  23.623  1.00  0.00    -0.269 OA
ATOM      5  H   UNL A   1      33.359  29.565  25.668  1.00  0.00     0.163 HD
BRANCH   3   6
ATOM      6  C   UNL A   1      30.506  29.179  23.912  1.00  0.00     0.052 A 
ATOM      7  C   UNL A   1      29.841  27.954  23.629  1.00  0.00     0.013 A 
ATOM      8  C   UNL A   1      28.554  28.046  23.081  1.00  0.00     0.122 A 
ATOM      9  N   UNL A   1      27.895  29.194  22.823  1.00  0.00    -0.244 NA
ATOM     10  C   UNL A   1      29.793  30.368  23.734  1.00  0.00     0.055 A 
ATOM     11  C   UNL A   1      28.530  30.320  23.172  1.00  0.00     0.129 A 
ATOM     12  Cl  UNL A   1      27.655  31.761  22.857  1.00  0.00    -0.062 Cl
BRANCH   7  13
ATOM     13  C   UNL A   1      30.377  26.602  23.878  1.00  0.00    -0.015 A 
ATOM     14  C   UNL A   1      30.823  24.743  25.400  1.00  0.00     0.060 A 
ATOM     15  C   UNL A   1      31.489  24.062  24.377  1.00  0.00     0.016 A 
ATOM     16  C   UNL A   1      30.238  25.989  25.139  1.00  0.00     0.024 A 
ATOM     17  C   UNL A   1      31.576  24.624  23.105  1.00  0.00     0.002 A 
ATOM     18  C   UNL A   1      31.031  25.887  22.860  1.00  0.00     0.009 A 
BRANCH  14  19
ATOM     19  C   UNL A   1      30.818  24.138  26.758  1.00  0.00     0.337 C 
ATOM     20  O   UNL A   1      31.835  23.826  27.356  1.00  0.00    -0.246 OA
BRANCH  19  21
ATOM     21  O   UNL A   1      29.547  23.952  27.195  1.00  0.00    -0.465 OA
ATOM     22  C   UNL A   1      29.149  22.581  27.248  1.00  0.00     0.282 C 
ENDBRANCH  19  21
ENDBRANCH  14  19
ENDBRANCH   7  13
ENDBRANCH   3   6
ENDBRANCH   1   2
BRANCH   1  23
ATOM     23  C   UNL A   1      31.476  31.498  26.843  1.00  0.00     0.042 C 
BRANCH  23  24
ATOM     24  C   UNL A   1      32.734  32.366  26.740  1.00  0.00     0.118 C 
BRANCH  24  25
ATOM     25  N   UNL A   1      32.514  33.712  27.254  1.00  0.00    -0.352 N 
ATOM     26  C   UNL A   1      33.044  34.343  28.349  1.00  0.00     0.251 C 
ATOM     27  H   UNL A   1      31.883  34.255  26.730  1.00  0.00     0.163 HD
ATOM     28  O   UNL A   1      32.531  35.383  28.754  1.00  0.00    -0.269 OA
BRANCH  26  29
ATOM     29  C   UNL A   1      34.224  33.790  29.048  1.00  0.00     0.039 A 
ATOM     30  C   UNL A   1      34.027  32.846  30.060  1.00  0.00     0.014 A 
ATOM     31  C   UNL A   1      35.513  34.244  28.757  1.00  0.00     0.014 A 
ATOM     32  C   UNL A   1      35.125  32.319  30.743  1.00  0.00     0.010 A 
ATOM     33  C   UNL A   1      36.612  33.667  29.389  1.00  0.00     0.010 A 
ATOM     34  C   UNL A   1      36.430  32.703  30.392  1.00  0.00    -0.014 A 
BRANCH  34  35
ATOM     35  C   UNL A   1      37.613  32.108  31.062  1.00  0.00     0.031 A 
ATOM     36  C   UNL A   1      38.384  30.999  30.400  1.00  0.00     0.074 A 
ATOM     37  C   UNL A   1      37.951  32.521  32.299  1.00  0.00     0.049 A 
ATOM     38  N   UNL A   1      39.396  30.307  30.859  1.00  0.00    -0.248 NA
ATOM     39  C   UNL A   1      37.942  30.598  29.056  1.00  0.00     0.031 C 
ATOM     40  C   UNL A   1      37.255  33.557  33.063  1.00  0.00     0.029 A 
ATOM     41  N   UNL A   1      38.959  32.112  33.134  1.00  0.00    -0.354 N 
ATOM     42  C   UNL A   1      39.700  29.381  29.870  1.00  0.00     0.074 A 
ATOM     43  C   UNL A   1      38.733  29.565  28.809  1.00  0.00     0.031 C 
ATOM     44  C   UNL A   1      37.870  33.718  34.245  1.00  0.00     0.029 A 
ATOM     45  C   UNL A   1      38.977  32.772  34.338  1.00  0.00     0.049 A 
ATOM     46  H   UNL A   1      39.608  31.412  32.893  1.00  0.00     0.167 HD
ATOM     47  C   UNL A   1      40.706  28.474  29.839  1.00  0.00     0.037 A 
ATOM     48  C   UNL A   1      39.790  32.626  35.401  1.00  0.00     0.037 A 
ATOM     49  C   UNL A   1      41.678  28.308  30.888  1.00  0.00     0.049 A 
ATOM     50  C   UNL A   1      40.892  31.607  35.348  1.00  0.00     0.074 A 
ATOM     51  C   UNL A   1      42.771  27.460  30.927  1.00  0.00     0.029 A 
ATOM     52  N   UNL A   1      41.670  29.004  32.088  1.00  0.00    -0.354 N 
ATOM     53  N   UNL A   1      41.209  30.783  34.379  1.00  0.00    -0.248 NA
ATOM     54  C   UNL A   1      41.753  31.502  36.533  1.00  0.00     0.031 C 
ATOM     55  C   UNL A   1      43.397  27.611  32.169  1.00  0.00     0.029 A 
ATOM     56  C   UNL A   1      42.724  28.588  32.884  1.00  0.00     0.049 A 
ATOM     57  H   UNL A   1      41.011  29.692  32.337  1.00  0.00     0.167 HD
ATOM     58  C   UNL A   1      42.320  30.079  34.826  1.00  0.00     0.074 A 
ATOM     59  C   UNL A   1      42.629  30.584  36.147  1.00  0.00     0.031 C 
ATOM     60  C   UNL A   1      43.019  29.102  34.198  1.00  0.00     0.037 A 
BRANCH  47  61
ATOM     61  C   UNL A   1      40.801  27.589  28.628  1.00  0.00     0.057 A 
ATOM     62  C   UNL A   1      40.050  26.412  28.511  1.00  0.00     0.134 A 
ATOM     63  C   UNL A   1      41.635  27.930  27.556  1.00  0.00     0.134 A 
ATOM     64  F   UNL A   1      39.240  26.021  29.506  1.00  0.00    -0.206 F 
ATOM     65  C   UNL A   1      40.152  25.588  27.389  1.00  0.00     0.040 A 
ATOM     66  C   UNL A   1      41.722  27.130  26.414  1.00  0.00     0.040 A 
ATOM     67  F   UNL A   1      42.375  29.048  27.596  1.00  0.00    -0.206 F 
ATOM     68  C   UNL A   1      40.986  25.950  26.333  1.00  0.00     0.006 A 
ENDBRANCH  47  61
BRANCH  48  69
ATOM     69  C   UNL A   1      39.606  33.488  36.597  1.00  0.00     0.057 A 
ATOM     70  C   UNL A   1      40.246  34.728  36.694  1.00  0.00     0.134 A 
ATOM     71  C   UNL A   1      38.785  33.098  37.662  1.00  0.00     0.134 A 
ATOM     72  F   UNL A   1      41.058  35.147  35.712  1.00  0.00    -0.206 F 
ATOM     73  C   UNL A   1      40.089  35.546  37.814  1.00  0.00     0.040 A 
ATOM     74  C   UNL A   1      38.601  33.917  38.777  1.00  0.00     0.040 A 
ATOM     75  F   UNL A   1      38.138  31.925  37.625  1.00  0.00    -0.206 F 
ATOM     76  C   UNL A   1      39.259  35.142  38.859  1.00  0.00     0.006 A 
ENDBRANCH  48  69
BRANCH  60  77
ATOM     77  C   UNL A   1      44.206  28.537  34.922  1.00  0.00     0.057 A 
ATOM     78  C   UNL A   1      44.099  27.417  35.757  1.00  0.00     0.134 A 
ATOM     79  C   UNL A   1      45.478  29.100  34.753  1.00  0.00     0.134 A 
ATOM     80  F   UNL A   1      42.906  26.841  35.972  1.00  0.00    -0.206 F 
ATOM     81  C   UNL A   1      45.211  26.891  36.416  1.00  0.00     0.040 A 
ATOM     82  C   UNL A   1      46.602  28.565  35.385  1.00  0.00     0.040 A 
ATOM     83  F   UNL A   1      45.651  30.168  33.962  1.00  0.00    -0.206 F 
ATOM     84  C   UNL A   1      46.468  27.462  36.225  1.00  0.00     0.006 A 
ENDBRANCH  60  77
ENDBRANCH  34  35
ENDBRANCH  26  29
ENDBRANCH  24  25
ENDBRANCH  23  24
ENDBRANCH   1  23
TORSDOF 13
ENDMDL
