MODEL 1
REMARK VINA RESULT:     -12.6      0.000      0.000
REMARK SMILES O=C(C[C@@H](NS(=O)(=O)c1ccc(Cl)cc1)c1ccc(F)cc1)NCCCNC(=O)c1ccc(-c2c3nc(c(-c4c(F)cccc4F)c4ccc([nH]4)c(-c4c(F)cccc4F)c4nc(c(-c5c(F)cccc5F)c5ccc2[nH]5)C=C4)C=C3)cc1
REMARK SMILES IDX 24 1 23 2 1 3 2 4 3 6 4 7 5 8 6 10 7 11 8 12 9 13 10 14
REMARK SMILES IDX 15 15 11 16 14 17 12 18 13 19 16 20 17 21 22 22 18 23 21 24
REMARK SMILES IDX 19 25 20 26 25 27 26 28 27 29 28 30 29 32 30 33 31 34 83 35
REMARK SMILES IDX 32 36 82 37 33 38 34 39 35 40 76 41 36 42 81 43 75 44 77 45
REMARK SMILES IDX 37 46 80 47 74 48 73 49 38 51 64 52 47 53 63 54 48 55 51 56
REMARK SMILES IDX 62 57 78 58 49 59 50 60 61 62 79 63 52 64 39 65 40 66 45 67
REMARK SMILES IDX 41 68 42 69 44 70 46 71 43 72 65 73 66 74 71 75 67 76 68 77
REMARK SMILES IDX 70 78 72 79 69 80 53 81 54 82 59 83 55 84 56 85 58 86 60 87
REMARK SMILES IDX 57 88
REMARK H PARENT 23 5 5 9 27 31 77 50 51 61
REMARK Flexibility Score: inf
ROOT
ATOM      1  C   UNL A   1      31.927  30.307  26.467  1.00  0.00     0.117 C 
ENDROOT
BRANCH   1   2
ATOM      2  N   UNL A   1      32.151  30.042  25.060  1.00  0.00    -0.356 N 
ATOM      3  O   UNL A   1      33.638  28.311  25.359  1.00  0.00    -0.275 OA
ATOM      4  C   UNL A   1      32.993  29.044  24.622  1.00  0.00     0.221 C 
ATOM      5  H   UNL A   1      31.685  30.595  24.392  1.00  0.00     0.163 HD
BRANCH   4   6
ATOM      6  C   UNL A   1      33.024  28.912  23.123  1.00  0.00     0.124 C 
BRANCH   6   7
ATOM      7  C   UNL A   1      32.259  27.657  22.668  1.00  0.00     0.109 C 
BRANCH   7   8
ATOM      8  N   UNL A   1      32.672  26.481  23.492  1.00  0.00    -0.203 NA
ATOM      9  H   UNL A   1      31.903  26.274  24.129  1.00  0.00     0.142 HD
BRANCH   8  10
ATOM     10  S   UNL A   1      33.068  25.032  22.697  1.00  0.00     0.241 S 
ATOM     11  O   UNL A   1      31.915  24.170  22.797  1.00  0.00    -0.207 OA
ATOM     12  O   UNL A   1      33.587  25.442  21.408  1.00  0.00    -0.207 OA
BRANCH  10  13
ATOM     13  C   UNL A   1      34.410  24.333  23.612  1.00  0.00     0.082 A 
ATOM     14  C   UNL A   1      35.204  23.335  23.037  1.00  0.00     0.023 A 
ATOM     15  C   UNL A   1      34.669  24.795  24.908  1.00  0.00     0.023 A 
ATOM     16  C   UNL A   1      36.309  22.850  23.742  1.00  0.00     0.022 A 
ATOM     17  C   UNL A   1      35.775  24.307  25.605  1.00  0.00     0.022 A 
ATOM     18  C   UNL A   1      36.598  23.349  25.014  1.00  0.00     0.041 A 
ATOM     19  Cl  UNL A   1      37.995  22.797  25.852  1.00  0.00    -0.084 Cl
ENDBRANCH  10  13
ENDBRANCH   8  10
ENDBRANCH   7   8
BRANCH   7  20
ATOM     20  C   UNL A   1      30.778  27.960  22.817  1.00  0.00    -0.029 A 
ATOM     21  C   UNL A   1      30.240  29.135  22.270  1.00  0.00     0.008 A 
ATOM     22  C   UNL A   1      29.924  27.074  23.504  1.00  0.00     0.008 A 
ATOM     23  C   UNL A   1      28.874  29.399  22.377  1.00  0.00     0.039 A 
ATOM     24  C   UNL A   1      28.561  27.341  23.609  1.00  0.00     0.039 A 
ATOM     25  C   UNL A   1      28.047  28.498  23.037  1.00  0.00     0.123 A 
ATOM     26  F   UNL A   1      26.733  28.742  23.114  1.00  0.00    -0.207 F 
ENDBRANCH   7  20
ENDBRANCH   6   7
ENDBRANCH   4   6
ENDBRANCH   1   2
BRANCH   1  27
ATOM     27  C   UNL A   1      31.608  31.775  26.717  1.00  0.00     0.042 C 
BRANCH  27  28
ATOM     28  C   UNL A   1      32.765  32.584  27.295  1.00  0.00     0.118 C 
BRANCH  28  29
ATOM     29  N   UNL A   1      32.420  33.968  27.578  1.00  0.00    -0.352 N 
ATOM     30  C   UNL A   1      32.967  34.836  28.491  1.00  0.00     0.251 C 
ATOM     31  H   UNL A   1      31.685  34.336  27.037  1.00  0.00     0.163 HD
ATOM     32  O   UNL A   1      32.440  35.926  28.695  1.00  0.00    -0.269 OA
BRANCH  30  33
ATOM     33  C   UNL A   1      34.168  34.446  29.261  1.00  0.00     0.039 A 
ATOM     34  C   UNL A   1      34.000  33.936  30.550  1.00  0.00     0.014 A 
ATOM     35  C   UNL A   1      35.449  34.565  28.714  1.00  0.00     0.014 A 
ATOM     36  C   UNL A   1      35.106  33.461  31.257  1.00  0.00     0.010 A 
ATOM     37  C   UNL A   1      36.540  34.020  29.388  1.00  0.00     0.010 A 
ATOM     38  C   UNL A   1      36.377  33.450  30.660  1.00  0.00    -0.014 A 
BRANCH  38  39
ATOM     39  C   UNL A   1      37.536  32.806  31.330  1.00  0.00     0.031 A 
ATOM     40  C   UNL A   1      38.189  31.592  30.731  1.00  0.00     0.074 A 
ATOM     41  C   UNL A   1      37.960  33.280  32.518  1.00  0.00     0.049 A 
ATOM     42  N   UNL A   1      39.152  30.852  31.216  1.00  0.00    -0.248 NA
ATOM     43  C   UNL A   1      37.681  31.139  29.427  1.00  0.00     0.031 C 
ATOM     44  C   UNL A   1      37.392  34.435  33.217  1.00  0.00     0.029 A 
ATOM     45  N   UNL A   1      38.960  32.847  33.354  1.00  0.00    -0.354 N 
ATOM     46  C   UNL A   1      39.363  29.847  30.282  1.00  0.00     0.074 A 
ATOM     47  C   UNL A   1      38.394  30.040  29.225  1.00  0.00     0.031 C 
ATOM     48  C   UNL A   1      38.067  34.634  34.360  1.00  0.00     0.029 A 
ATOM     49  C   UNL A   1      39.081  33.593  34.502  1.00  0.00     0.049 A 
ATOM     50  H   UNL A   1      39.535  32.075  33.150  1.00  0.00     0.167 HD
ATOM     51  C   UNL A   1      40.297  28.866  30.294  1.00  0.00     0.037 A 
ATOM     52  C   UNL A   1      39.903  33.450  35.560  1.00  0.00     0.037 A 
ATOM     53  C   UNL A   1      41.270  28.688  31.340  1.00  0.00     0.049 A 
ATOM     54  C   UNL A   1      40.898  32.324  35.572  1.00  0.00     0.074 A 
ATOM     55  C   UNL A   1      42.286  27.751  31.414  1.00  0.00     0.029 A 
ATOM     56  N   UNL A   1      41.350  29.456  32.491  1.00  0.00    -0.354 N 
ATOM     57  N   UNL A   1      41.120  31.411  34.659  1.00  0.00    -0.248 NA
ATOM     58  C   UNL A   1      41.758  32.206  36.760  1.00  0.00     0.031 C 
ATOM     59  C   UNL A   1      42.940  27.912  32.637  1.00  0.00     0.029 A 
ATOM     60  C   UNL A   1      42.377  28.992  33.297  1.00  0.00     0.049 A 
ATOM     61  H   UNL A   1      40.764  30.218  32.706  1.00  0.00     0.167 HD
ATOM     62  C   UNL A   1      42.158  30.627  35.145  1.00  0.00     0.074 A 
ATOM     63  C   UNL A   1      42.530  31.177  36.433  1.00  0.00     0.031 C 
ATOM     64  C   UNL A   1      42.747  29.551  34.573  1.00  0.00     0.037 A 
BRANCH  51  65
ATOM     65  C   UNL A   1      40.327  27.907  29.140  1.00  0.00     0.057 A 
ATOM     66  C   UNL A   1      41.085  28.188  27.996  1.00  0.00     0.134 A 
ATOM     67  C   UNL A   1      39.536  26.752  29.122  1.00  0.00     0.134 A 
ATOM     68  F   UNL A   1      41.859  29.283  27.943  1.00  0.00    -0.206 F 
ATOM     69  C   UNL A   1      41.042  27.364  26.870  1.00  0.00     0.040 A 
ATOM     70  C   UNL A   1      39.506  25.904  28.013  1.00  0.00     0.040 A 
ATOM     71  F   UNL A   1      38.792  26.420  30.189  1.00  0.00    -0.206 F 
ATOM     72  C   UNL A   1      40.252  26.216  26.878  1.00  0.00     0.006 A 
ENDBRANCH  51  65
BRANCH  52  73
ATOM     73  C   UNL A   1      39.824  34.416  36.686  1.00  0.00     0.057 A 
ATOM     74  C   UNL A   1      40.539  35.621  36.672  1.00  0.00     0.134 A 
ATOM     75  C   UNL A   1      39.053  34.139  37.821  1.00  0.00     0.134 A 
ATOM     76  F   UNL A   1      41.303  35.942  35.618  1.00  0.00    -0.206 F 
ATOM     77  C   UNL A   1      40.508  36.503  37.753  1.00  0.00     0.040 A 
ATOM     78  C   UNL A   1      38.991  35.025  38.898  1.00  0.00     0.040 A 
ATOM     79  F   UNL A   1      38.331  33.011  37.886  1.00  0.00    -0.206 F 
ATOM     80  C   UNL A   1      39.729  36.207  38.869  1.00  0.00     0.006 A 
ENDBRANCH  52  73
BRANCH  64  81
ATOM     81  C   UNL A   1      43.880  28.893  35.307  1.00  0.00     0.057 A 
ATOM     82  C   UNL A   1      43.624  27.926  36.289  1.00  0.00     0.134 A 
ATOM     83  C   UNL A   1      45.209  29.293  35.124  1.00  0.00     0.134 A 
ATOM     84  F   UNL A   1      42.371  27.507  36.522  1.00  0.00    -0.206 F 
ATOM     85  C   UNL A   1      44.646  27.401  37.081  1.00  0.00     0.040 A 
ATOM     86  C   UNL A   1      46.244  28.754  35.891  1.00  0.00     0.040 A 
ATOM     87  F   UNL A   1      45.522  30.207  34.193  1.00  0.00    -0.206 F 
ATOM     88  C   UNL A   1      45.961  27.816  36.882  1.00  0.00     0.006 A 
ENDBRANCH  64  81
ENDBRANCH  38  39
ENDBRANCH  30  33
ENDBRANCH  28  29
ENDBRANCH  27  28
ENDBRANCH   1  27
TORSDOF 15
ENDMDL
MODEL 2
REMARK VINA RESULT:     -12.5      4.896      9.303
REMARK SMILES O=C(C[C@@H](NS(=O)(=O)c1ccc(Cl)cc1)c1ccc(F)cc1)NCCCNC(=O)c1ccc(-c2c3nc(c(-c4c(F)cccc4F)c4ccc([nH]4)c(-c4c(F)cccc4F)c4nc(c(-c5c(F)cccc5F)c5ccc2[nH]5)C=C4)C=C3)cc1
REMARK SMILES IDX 24 1 23 2 1 3 2 4 3 6 4 7 5 8 6 10 7 11 8 12 9 13 10 14
REMARK SMILES IDX 15 15 11 16 14 17 12 18 13 19 16 20 17 21 22 22 18 23 21 24
REMARK SMILES IDX 19 25 20 26 25 27 26 28 27 29 28 30 29 32 30 33 31 34 83 35
REMARK SMILES IDX 32 36 82 37 33 38 34 39 35 40 76 41 36 42 81 43 75 44 77 45
REMARK SMILES IDX 37 46 80 47 74 48 73 49 38 51 64 52 47 53 63 54 48 55 51 56
REMARK SMILES IDX 62 57 78 58 49 59 50 60 61 62 79 63 52 64 39 65 40 66 45 67
REMARK SMILES IDX 41 68 42 69 44 70 46 71 43 72 65 73 66 74 71 75 67 76 68 77
REMARK SMILES IDX 70 78 72 79 69 80 53 81 54 82 59 83 55 84 56 85 58 86 60 87
REMARK SMILES IDX 57 88
REMARK H PARENT 23 5 5 9 27 31 77 50 51 61
REMARK Flexibility Score: inf
ROOT
ATOM      1  C   UNL A   1      36.064  20.889  25.035  1.00  0.00     0.117 C 
ENDROOT
BRANCH   1   2
ATOM      2  N   UNL A   1      35.489  22.133  24.563  1.00  0.00    -0.356 N 
ATOM      3  O   UNL A   1      35.883  23.341  26.482  1.00  0.00    -0.275 OA
ATOM      4  C   UNL A   1      35.458  23.272  25.337  1.00  0.00     0.221 C 
ATOM      5  H   UNL A   1      35.107  22.166  23.656  1.00  0.00     0.163 HD
BRANCH   4   6
ATOM      6  C   UNL A   1      34.869  24.458  24.620  1.00  0.00     0.124 C 
BRANCH   6   7
ATOM      7  C   UNL A   1      33.349  24.535  24.845  1.00  0.00     0.109 C 
BRANCH   7   8
ATOM      8  N   UNL A   1      32.883  23.329  25.595  1.00  0.00    -0.203 NA
ATOM      9  H   UNL A   1      32.647  23.634  26.539  1.00  0.00     0.142 HD
BRANCH   8  10
ATOM     10  S   UNL A   1      31.545  22.469  24.998  1.00  0.00     0.241 S 
ATOM     11  O   UNL A   1      30.600  22.356  26.083  1.00  0.00    -0.207 OA
ATOM     12  O   UNL A   1      31.191  23.137  23.763  1.00  0.00    -0.207 OA
BRANCH  10  13
ATOM     13  C   UNL A   1      32.155  20.863  24.577  1.00  0.00     0.082 A 
ATOM     14  C   UNL A   1      32.615  20.004  25.580  1.00  0.00     0.023 A 
ATOM     15  C   UNL A   1      32.163  20.464  23.234  1.00  0.00     0.023 A 
ATOM     16  C   UNL A   1      33.018  18.709  25.239  1.00  0.00     0.022 A 
ATOM     17  C   UNL A   1      32.565  19.170  22.903  1.00  0.00     0.022 A 
ATOM     18  C   UNL A   1      32.976  18.294  23.907  1.00  0.00     0.041 A 
ATOM     19  Cl  UNL A   1      33.411  16.680  23.500  1.00  0.00    -0.084 Cl
ENDBRANCH  10  13
ENDBRANCH   8  10
ENDBRANCH   7   8
BRANCH   7  20
ATOM     20  C   UNL A   1      33.076  25.818  25.611  1.00  0.00    -0.029 A 
ATOM     21  C   UNL A   1      34.085  26.784  25.750  1.00  0.00     0.008 A 
ATOM     22  C   UNL A   1      31.815  26.058  26.192  1.00  0.00     0.008 A 
ATOM     23  C   UNL A   1      33.826  27.977  26.424  1.00  0.00     0.039 A 
ATOM     24  C   UNL A   1      31.561  27.252  26.865  1.00  0.00     0.039 A 
ATOM     25  C   UNL A   1      32.567  28.204  26.968  1.00  0.00     0.123 A 
ATOM     26  F   UNL A   1      32.315  29.362  27.591  1.00  0.00    -0.207 F 
ENDBRANCH   7  20
ENDBRANCH   6   7
ENDBRANCH   4   6
ENDBRANCH   1   2
BRANCH   1  27
ATOM     27  C   UNL A   1      37.508  20.730  24.580  1.00  0.00     0.042 C 
BRANCH  27  28
ATOM     28  C   UNL A   1      38.536  20.797  25.705  1.00  0.00     0.118 C 
BRANCH  28  29
ATOM     29  N   UNL A   1      39.523  19.730  25.651  1.00  0.00    -0.352 N 
ATOM     30  C   UNL A   1      40.861  19.761  25.966  1.00  0.00     0.251 C 
ATOM     31  H   UNL A   1      39.184  18.860  25.343  1.00  0.00     0.163 HD
ATOM     32  O   UNL A   1      41.573  18.795  25.711  1.00  0.00    -0.269 OA
BRANCH  30  33
ATOM     33  C   UNL A   1      41.454  20.971  26.574  1.00  0.00     0.039 A 
ATOM     34  C   UNL A   1      42.021  21.932  25.735  1.00  0.00     0.014 A 
ATOM     35  C   UNL A   1      41.439  21.168  27.958  1.00  0.00     0.014 A 
ATOM     36  C   UNL A   1      42.492  23.130  26.273  1.00  0.00     0.010 A 
ATOM     37  C   UNL A   1      41.836  22.395  28.485  1.00  0.00     0.010 A 
ATOM     38  C   UNL A   1      42.353  23.394  27.646  1.00  0.00    -0.014 A 
BRANCH  38  39
ATOM     39  C   UNL A   1      42.701  24.722  28.214  1.00  0.00     0.031 A 
ATOM     40  C   UNL A   1      41.646  25.776  28.395  1.00  0.00     0.074 A 
ATOM     41  C   UNL A   1      43.987  25.000  28.506  1.00  0.00     0.049 A 
ATOM     42  N   UNL A   1      41.780  27.014  28.795  1.00  0.00    -0.248 NA
ATOM     43  C   UNL A   1      40.263  25.396  28.067  1.00  0.00     0.031 C 
ATOM     44  C   UNL A   1      45.109  24.072  28.347  1.00  0.00     0.029 A 
ATOM     45  N   UNL A   1      44.572  26.145  28.987  1.00  0.00    -0.354 N 
ATOM     46  C   UNL A   1      40.504  27.562  28.764  1.00  0.00     0.074 A 
ATOM     47  C   UNL A   1      39.616  26.538  28.257  1.00  0.00     0.031 C 
ATOM     48  C   UNL A   1      46.238  24.674  28.749  1.00  0.00     0.029 A 
ATOM     49  C   UNL A   1      45.934  26.046  29.143  1.00  0.00     0.049 A 
ATOM     50  H   UNL A   1      44.064  26.961  29.200  1.00  0.00     0.167 HD
ATOM     51  C   UNL A   1      40.107  28.799  29.146  1.00  0.00     0.037 A 
ATOM     52  C   UNL A   1      46.842  26.957  29.543  1.00  0.00     0.037 A 
ATOM     53  C   UNL A   1      40.992  29.808  29.666  1.00  0.00     0.049 A 
ATOM     54  C   UNL A   1      46.382  28.340  29.916  1.00  0.00     0.074 A 
ATOM     55  C   UNL A   1      40.672  31.075  30.123  1.00  0.00     0.029 A 
ATOM     56  N   UNL A   1      42.366  29.672  29.795  1.00  0.00    -0.354 N 
ATOM     57  N   UNL A   1      45.166  28.827  29.929  1.00  0.00    -0.248 NA
ATOM     58  C   UNL A   1      47.418  29.299  30.330  1.00  0.00     0.031 C 
ATOM     59  C   UNL A   1      41.857  31.726  30.471  1.00  0.00     0.029 A 
ATOM     60  C   UNL A   1      42.911  30.844  30.294  1.00  0.00     0.049 A 
ATOM     61  H   UNL A   1      42.878  28.863  29.566  1.00  0.00     0.167 HD
ATOM     62  C   UNL A   1      45.284  30.137  30.375  1.00  0.00     0.074 A 
ATOM     63  C   UNL A   1      46.691  30.368  30.631  1.00  0.00     0.031 C 
ATOM     64  C   UNL A   1      44.311  31.062  30.555  1.00  0.00     0.037 A 
BRANCH  51  65
ATOM     65  C   UNL A   1      38.650  29.138  29.029  1.00  0.00     0.057 A 
ATOM     66  C   UNL A   1      38.118  29.601  27.818  1.00  0.00     0.134 A 
ATOM     67  C   UNL A   1      37.793  29.095  30.135  1.00  0.00     0.134 A 
ATOM     68  F   UNL A   1      38.887  29.676  26.720  1.00  0.00    -0.206 F 
ATOM     69  C   UNL A   1      36.792  30.025  27.716  1.00  0.00     0.040 A 
ATOM     70  C   UNL A   1      36.457  29.488  30.040  1.00  0.00     0.040 A 
ATOM     71  F   UNL A   1      38.236  28.654  31.323  1.00  0.00    -0.206 F 
ATOM     72  C   UNL A   1      35.956  29.966  28.830  1.00  0.00     0.006 A 
ENDBRANCH  51  65
BRANCH  52  73
ATOM     73  C   UNL A   1      48.276  26.578  29.627  1.00  0.00     0.057 A 
ATOM     74  C   UNL A   1      48.809  25.967  30.770  1.00  0.00     0.134 A 
ATOM     75  C   UNL A   1      49.156  26.849  28.573  1.00  0.00     0.134 A 
ATOM     76  F   UNL A   1      48.020  25.687  31.818  1.00  0.00    -0.206 F 
ATOM     77  C   UNL A   1      50.166  25.659  30.870  1.00  0.00     0.040 A 
ATOM     78  C   UNL A   1      50.511  26.522  28.649  1.00  0.00     0.040 A 
ATOM     79  F   UNL A   1      48.702  27.415  27.445  1.00  0.00    -0.206 F 
ATOM     80  C   UNL A   1      51.021  25.934  29.805  1.00  0.00     0.006 A 
ENDBRANCH  52  73
BRANCH  64  81
ATOM     81  C   UNL A   1      44.709  32.411  31.079  1.00  0.00     0.057 A 
ATOM     82  C   UNL A   1      44.700  32.669  32.457  1.00  0.00     0.134 A 
ATOM     83  C   UNL A   1      44.993  33.481  30.222  1.00  0.00     0.134 A 
ATOM     84  F   UNL A   1      44.425  31.691  33.332  1.00  0.00    -0.206 F 
ATOM     85  C   UNL A   1      44.931  33.950  32.961  1.00  0.00     0.040 A 
ATOM     86  C   UNL A   1      45.254  34.761  30.717  1.00  0.00     0.040 A 
ATOM     87  F   UNL A   1      45.029  33.298  28.894  1.00  0.00    -0.206 F 
ATOM     88  C   UNL A   1      45.209  35.000  32.089  1.00  0.00     0.006 A 
ENDBRANCH  64  81
ENDBRANCH  38  39
ENDBRANCH  30  33
ENDBRANCH  28  29
ENDBRANCH  27  28
ENDBRANCH   1  27
TORSDOF 15
ENDMDL
MODEL 3
REMARK VINA RESULT:     -12.5      4.960      9.057
REMARK SMILES O=C(C[C@@H](NS(=O)(=O)c1ccc(Cl)cc1)c1ccc(F)cc1)NCCCNC(=O)c1ccc(-c2c3nc(c(-c4c(F)cccc4F)c4ccc([nH]4)c(-c4c(F)cccc4F)c4nc(c(-c5c(F)cccc5F)c5ccc2[nH]5)C=C4)C=C3)cc1
REMARK SMILES IDX 24 1 23 2 1 3 2 4 3 6 4 7 5 8 6 10 7 11 8 12 9 13 10 14
REMARK SMILES IDX 15 15 11 16 14 17 12 18 13 19 16 20 17 21 22 22 18 23 21 24
REMARK SMILES IDX 19 25 20 26 25 27 26 28 27 29 28 30 29 32 30 33 31 34 83 35
REMARK SMILES IDX 32 36 82 37 33 38 34 39 35 40 76 41 36 42 81 43 75 44 77 45
REMARK SMILES IDX 37 46 80 47 74 48 73 49 38 51 64 52 47 53 63 54 48 55 51 56
REMARK SMILES IDX 62 57 78 58 49 59 50 60 61 62 79 63 52 64 39 65 40 66 45 67
REMARK SMILES IDX 41 68 42 69 44 70 46 71 43 72 65 73 66 74 71 75 67 76 68 77
REMARK SMILES IDX 70 78 72 79 69 80 53 81 54 82 59 83 55 84 56 85 58 86 60 87
REMARK SMILES IDX 57 88
REMARK H PARENT 23 5 5 9 27 31 77 50 51 61
REMARK Flexibility Score: inf
ROOT
ATOM      1  C   UNL A   1      36.267  20.710  25.002  1.00  0.00     0.117 C 
ENDROOT
BRANCH   1   2
ATOM      2  N   UNL A   1      35.948  22.107  24.782  1.00  0.00    -0.356 N 
ATOM      3  O   UNL A   1      35.090  22.507  26.880  1.00  0.00    -0.275 OA
ATOM      4  C   UNL A   1      35.388  22.898  25.759  1.00  0.00     0.221 C 
ATOM      5  H   UNL A   1      36.139  22.505  23.902  1.00  0.00     0.163 HD
BRANCH   4   6
ATOM      6  C   UNL A   1      35.200  24.328  25.327  1.00  0.00     0.124 C 
BRANCH   6   7
ATOM      7  C   UNL A   1      33.800  24.538  24.724  1.00  0.00     0.109 C 
BRANCH   7   8
ATOM      8  N   UNL A   1      33.000  23.281  24.841  1.00  0.00    -0.203 NA
ATOM      9  H   UNL A   1      32.160  23.507  25.373  1.00  0.00     0.142 HD
BRANCH   8  10
ATOM     10  S   UNL A   1      32.497  22.504  23.417  1.00  0.00     0.241 S 
ATOM     11  O   UNL A   1      31.139  22.924  23.166  1.00  0.00    -0.207 OA
ATOM     12  O   UNL A   1      33.550  22.763  22.457  1.00  0.00    -0.207 OA
BRANCH  10  13
ATOM     13  C   UNL A   1      32.523  20.773  23.779  1.00  0.00     0.082 A 
ATOM     14  C   UNL A   1      32.350  19.840  22.751  1.00  0.00     0.023 A 
ATOM     15  C   UNL A   1      32.725  20.353  25.099  1.00  0.00     0.023 A 
ATOM     16  C   UNL A   1      32.453  18.476  23.041  1.00  0.00     0.022 A 
ATOM     17  C   UNL A   1      32.829  18.990  25.380  1.00  0.00     0.022 A 
ATOM     18  C   UNL A   1      32.708  18.060  24.349  1.00  0.00     0.041 A 
ATOM     19  Cl  UNL A   1      32.898  16.384  24.690  1.00  0.00    -0.084 Cl
ENDBRANCH  10  13
ENDBRANCH   8  10
ENDBRANCH   7   8
BRANCH   7  20
ATOM     20  C   UNL A   1      33.158  25.690  25.478  1.00  0.00    -0.029 A 
ATOM     21  C   UNL A   1      31.787  25.656  25.781  1.00  0.00     0.008 A 
ATOM     22  C   UNL A   1      33.919  26.803  25.883  1.00  0.00     0.008 A 
ATOM     23  C   UNL A   1      31.201  26.696  26.502  1.00  0.00     0.039 A 
ATOM     24  C   UNL A   1      33.330  27.841  26.603  1.00  0.00     0.039 A 
ATOM     25  C   UNL A   1      31.978  27.773  26.913  1.00  0.00     0.123 A 
ATOM     26  F   UNL A   1      31.418  28.757  27.628  1.00  0.00    -0.207 F 
ENDBRANCH   7  20
ENDBRANCH   6   7
ENDBRANCH   4   6
ENDBRANCH   1   2
BRANCH   1  27
ATOM     27  C   UNL A   1      37.707  20.396  24.622  1.00  0.00     0.042 C 
BRANCH  27  28
ATOM     28  C   UNL A   1      38.708  20.539  25.764  1.00  0.00     0.118 C 
BRANCH  28  29
ATOM     29  N   UNL A   1      39.720  19.494  25.781  1.00  0.00    -0.352 N 
ATOM     30  C   UNL A   1      41.059  19.579  26.076  1.00  0.00     0.251 C 
ATOM     31  H   UNL A   1      39.397  18.594  25.546  1.00  0.00     0.163 HD
ATOM     32  O   UNL A   1      41.791  18.612  25.888  1.00  0.00    -0.269 OA
BRANCH  30  33
ATOM     33  C   UNL A   1      41.630  20.846  26.581  1.00  0.00     0.039 A 
ATOM     34  C   UNL A   1      42.177  21.746  25.663  1.00  0.00     0.014 A 
ATOM     35  C   UNL A   1      41.614  21.155  27.944  1.00  0.00     0.014 A 
ATOM     36  C   UNL A   1      42.626  22.993  26.100  1.00  0.00     0.010 A 
ATOM     37  C   UNL A   1      41.989  22.429  28.367  1.00  0.00     0.010 A 
ATOM     38  C   UNL A   1      42.485  23.365  27.447  1.00  0.00    -0.014 A 
BRANCH  38  39
ATOM     39  C   UNL A   1      42.808  24.742  27.903  1.00  0.00     0.031 A 
ATOM     40  C   UNL A   1      44.228  25.138  28.195  1.00  0.00     0.074 A 
ATOM     41  C   UNL A   1      41.808  25.619  28.116  1.00  0.00     0.049 A 
ATOM     42  N   UNL A   1      44.686  26.264  28.678  1.00  0.00    -0.248 NA
ATOM     43  C   UNL A   1      45.267  24.132  27.926  1.00  0.00     0.031 C 
ATOM     44  C   UNL A   1      40.385  25.347  27.897  1.00  0.00     0.029 A 
ATOM     45  N   UNL A   1      41.830  26.914  28.574  1.00  0.00    -0.354 N 
ATOM     46  C   UNL A   1      46.061  26.102  28.776  1.00  0.00     0.074 A 
ATOM     47  C   UNL A   1      46.360  24.752  28.350  1.00  0.00     0.031 C 
ATOM     48  C   UNL A   1      39.676  26.447  28.194  1.00  0.00     0.029 A 
ATOM     49  C   UNL A   1      40.583  27.485  28.674  1.00  0.00     0.049 A 
ATOM     50  H   UNL A   1      42.660  27.388  28.808  1.00  0.00     0.167 HD
ATOM     51  C   UNL A   1      46.992  27.006  29.163  1.00  0.00     0.037 A 
ATOM     52  C   UNL A   1      40.207  28.701  29.116  1.00  0.00     0.037 A 
ATOM     53  C   UNL A   1      46.691  28.354  29.570  1.00  0.00     0.049 A 
ATOM     54  C   UNL A   1      41.256  29.670  29.587  1.00  0.00     0.074 A 
ATOM     55  C   UNL A   1      47.573  29.356  29.934  1.00  0.00     0.029 A 
ATOM     56  N   UNL A   1      45.415  28.888  29.670  1.00  0.00    -0.354 N 
ATOM     57  N   UNL A   1      42.557  29.521  29.626  1.00  0.00    -0.248 NA
ATOM     58  C   UNL A   1      40.787  30.976  30.074  1.00  0.00     0.031 C 
ATOM     59  C   UNL A   1      46.830  30.475  30.313  1.00  0.00     0.029 A 
ATOM     60  C   UNL A   1      45.487  30.196  30.123  1.00  0.00     0.049 A 
ATOM     61  H   UNL A   1      44.582  28.410  29.454  1.00  0.00     0.167 HD
ATOM     62  C   UNL A   1      43.065  30.717  30.116  1.00  0.00     0.074 A 
ATOM     63  C   UNL A   1      41.931  31.588  30.352  1.00  0.00     0.031 C 
ATOM     64  C   UNL A   1      44.354  31.059  30.346  1.00  0.00     0.037 A 
BRANCH  51  65
ATOM     65  C   UNL A   1      48.431  26.581  29.161  1.00  0.00     0.057 A 
ATOM     66  C   UNL A   1      49.032  26.084  30.325  1.00  0.00     0.134 A 
ATOM     67  C   UNL A   1      49.246  26.748  28.035  1.00  0.00     0.134 A 
ATOM     68  F   UNL A   1      48.310  25.907  31.443  1.00  0.00    -0.206 F 
ATOM     69  C   UNL A   1      50.394  25.785  30.374  1.00  0.00     0.040 A 
ATOM     70  C   UNL A   1      50.604  26.425  28.062  1.00  0.00     0.040 A 
ATOM     71  F   UNL A   1      48.732  27.211  26.885  1.00  0.00    -0.206 F 
ATOM     72  C   UNL A   1      51.184  25.953  29.238  1.00  0.00     0.006 A 
ENDBRANCH  51  65
BRANCH  52  73
ATOM     73  C   UNL A   1      38.768  29.070  29.114  1.00  0.00     0.057 A 
ATOM     74  C   UNL A   1      38.138  29.567  27.966  1.00  0.00     0.134 A 
ATOM     75  C   UNL A   1      37.995  28.961  30.276  1.00  0.00     0.134 A 
ATOM     76  F   UNL A   1      38.825  29.702  26.822  1.00  0.00    -0.206 F 
ATOM     77  C   UNL A   1      36.801  29.964  27.979  1.00  0.00     0.040 A 
ATOM     78  C   UNL A   1      36.649  29.330  30.296  1.00  0.00     0.040 A 
ATOM     79  F   UNL A   1      38.536  28.474  31.402  1.00  0.00    -0.206 F 
ATOM     80  C   UNL A   1      36.051  29.842  29.146  1.00  0.00     0.006 A 
ENDBRANCH  52  73
BRANCH  64  81
ATOM     81  C   UNL A   1      44.637  32.442  30.858  1.00  0.00     0.057 A 
ATOM     82  C   UNL A   1      44.655  32.699  32.236  1.00  0.00     0.134 A 
ATOM     83  C   UNL A   1      44.780  33.534  29.995  1.00  0.00     0.134 A 
ATOM     84  F   UNL A   1      44.512  31.698  33.119  1.00  0.00    -0.206 F 
ATOM     85  C   UNL A   1      44.777  33.997  32.735  1.00  0.00     0.040 A 
ATOM     86  C   UNL A   1      44.931  34.834  30.483  1.00  0.00     0.040 A 
ATOM     87  F   UNL A   1      44.782  33.354  28.665  1.00  0.00    -0.206 F 
ATOM     88  C   UNL A   1      44.915  35.069  31.856  1.00  0.00     0.006 A 
ENDBRANCH  64  81
ENDBRANCH  38  39
ENDBRANCH  30  33
ENDBRANCH  28  29
ENDBRANCH  27  28
ENDBRANCH   1  27
TORSDOF 15
ENDMDL
