MODEL 1
REMARK VINA RESULT:      -9.7      0.000      0.000
REMARK SMILES C[C@H](SCCO)[C@@H](C)C(=O)NCCCNC(=O)c1ccc(-c2c3nc(c(-c4c(F)cccc4F)c4ccc([nH]4)c(-c4c(F)cccc4F)c4nc(c(-c5c(F)cccc5F)c5ccc2[nH]5)C=C4)C=C3)cc1
REMARK SMILES IDX 9 1 10 2 11 3 7 5 8 6 2 7 1 8 3 9 4 10 5 11 6 12 12 14 13 15
REMARK SMILES IDX 14 16 15 17 16 18 17 20 18 21 19 22 71 23 20 24 70 25 21 26
REMARK SMILES IDX 22 27 23 28 64 29 24 30 69 31 63 32 65 33 25 34 68 35 62 36
REMARK SMILES IDX 61 37 26 39 52 40 35 41 51 42 36 43 39 44 50 45 66 46 37 47
REMARK SMILES IDX 38 48 49 50 67 51 40 52 27 53 28 54 33 55 29 56 30 57 32 58
REMARK SMILES IDX 34 59 31 60 53 61 54 62 59 63 55 64 56 65 58 66 60 67 57 68
REMARK SMILES IDX 41 69 42 70 47 71 43 72 44 73 46 74 48 75 45 76
REMARK H PARENT 11 4 6 13 15 19 65 38 39 49
REMARK Flexibility Score: inf
ROOT
ATOM      1  C   UNL A   1      31.793  29.145  23.941  1.00  0.00     0.223 C 
ATOM      2  O   UNL A   1      32.634  28.979  23.053  1.00  0.00    -0.275 OA
ATOM      3  N   UNL A   1      32.138  29.959  24.974  1.00  0.00    -0.356 N 
ATOM      4  H   UNL A   1      33.037  30.353  24.900  1.00  0.00     0.163 HD
ENDROOT
BRANCH   1   5
ATOM      5  C   UNL A   1      30.428  28.463  23.850  1.00  0.00     0.088 C 
ATOM      6  C   UNL A   1      30.593  27.111  23.157  1.00  0.00     0.019 C 
BRANCH   5   7
ATOM      7  C   UNL A   1      29.327  29.418  23.329  1.00  0.00     0.055 C 
ATOM      8  C   UNL A   1      27.981  28.668  23.263  1.00  0.00     0.020 C 
BRANCH   7   9
ATOM      9  S   UNL A   1      29.580  30.104  21.626  1.00  0.00    -0.156 SA
BRANCH   9  10
ATOM     10  C   UNL A   1      28.029  31.007  21.250  1.00  0.00     0.098 C 
BRANCH  10  11
ATOM     11  C   UNL A   1      28.148  32.327  20.492  1.00  0.00     0.167 C 
BRANCH  11  12
ATOM     12  O   UNL A   1      27.653  33.435  21.227  1.00  0.00    -0.396 OA
ATOM     13  H   UNL A   1      28.284  34.171  21.168  1.00  0.00     0.210 HD
ENDBRANCH  11  12
ENDBRANCH  10  11
ENDBRANCH   9  10
ENDBRANCH   7   9
ENDBRANCH   5   7
ENDBRANCH   1   5
BRANCH   3  14
ATOM     14  C   UNL A   1      31.408  30.349  26.165  1.00  0.00     0.117 C 
BRANCH  14  15
ATOM     15  C   UNL A   1      31.360  31.864  26.332  1.00  0.00     0.042 C 
BRANCH  15  16
ATOM     16  C   UNL A   1      32.548  32.429  27.100  1.00  0.00     0.118 C 
BRANCH  16  17
ATOM     17  N   UNL A   1      32.351  33.818  27.487  1.00  0.00    -0.352 N 
ATOM     18  C   UNL A   1      32.980  34.573  28.446  1.00  0.00     0.251 C 
ATOM     19  H   UNL A   1      31.653  34.294  26.980  1.00  0.00     0.163 HD
ATOM     20  O   UNL A   1      32.528  35.673  28.747  1.00  0.00    -0.269 OA
BRANCH  18  21
ATOM     21  C   UNL A   1      34.187  34.062  29.129  1.00  0.00     0.039 A 
ATOM     22  C   UNL A   1      34.030  33.232  30.243  1.00  0.00     0.014 A 
ATOM     23  C   UNL A   1      35.468  34.416  28.696  1.00  0.00     0.014 A 
ATOM     24  C   UNL A   1      35.156  32.708  30.882  1.00  0.00     0.010 A 
ATOM     25  C   UNL A   1      36.585  33.825  29.279  1.00  0.00     0.010 A 
ATOM     26  C   UNL A   1      36.440  32.970  30.383  1.00  0.00    -0.014 A 
BRANCH  26  27
ATOM     27  C   UNL A   1      37.647  32.366  31.001  1.00  0.00     0.031 A 
ATOM     28  C   UNL A   1      38.310  31.177  30.362  1.00  0.00     0.074 A 
ATOM     29  C   UNL A   1      38.105  32.847  32.174  1.00  0.00     0.049 A 
ATOM     30  N   UNL A   1      39.322  30.465  30.789  1.00  0.00    -0.248 NA
ATOM     31  C   UNL A   1      37.743  30.707  29.088  1.00  0.00     0.031 C 
ATOM     32  C   UNL A   1      37.521  33.965  32.917  1.00  0.00     0.029 A 
ATOM     33  N   UNL A   1      39.162  32.448  32.953  1.00  0.00    -0.354 N 
ATOM     34  C   UNL A   1      39.501  29.460  29.848  1.00  0.00     0.074 A 
ATOM     35  C   UNL A   1      38.459  29.617  28.857  1.00  0.00     0.031 C 
ATOM     36  C   UNL A   1      38.240  34.178  34.029  1.00  0.00     0.029 A 
ATOM     37  C   UNL A   1      39.310  33.188  34.101  1.00  0.00     0.049 A 
ATOM     38  H   UNL A   1      39.758  31.703  32.711  1.00  0.00     0.167 HD
ATOM     39  C   UNL A   1      40.461  28.506  29.801  1.00  0.00     0.037 A 
ATOM     40  C   UNL A   1      40.201  33.073  35.104  1.00  0.00     0.037 A 
ATOM     41  C   UNL A   1      41.510  28.367  30.777  1.00  0.00     0.049 A 
ATOM     42  C   UNL A   1      41.250  31.999  35.032  1.00  0.00     0.074 A 
ATOM     43  C   UNL A   1      42.565  27.471  30.787  1.00  0.00     0.029 A 
ATOM     44  N   UNL A   1      41.635  29.146  31.917  1.00  0.00    -0.354 N 
ATOM     45  N   UNL A   1      41.449  31.098  34.102  1.00  0.00    -0.248 NA
ATOM     46  C   UNL A   1      42.204  31.931  36.148  1.00  0.00     0.031 C 
ATOM     47  C   UNL A   1      43.301  27.676  31.959  1.00  0.00     0.029 A 
ATOM     48  C   UNL A   1      42.736  28.735  32.651  1.00  0.00     0.049 A 
ATOM     49  H   UNL A   1      41.031  29.882  32.168  1.00  0.00     0.167 HD
ATOM     50  C   UNL A   1      42.566  30.376  34.503  1.00  0.00     0.074 A 
ATOM     51  C   UNL A   1      43.009  30.955  35.755  1.00  0.00     0.031 C 
ATOM     52  C   UNL A   1      43.169  29.328  33.891  1.00  0.00     0.037 A 
BRANCH  39  53
ATOM     53  C   UNL A   1      40.422  27.538  28.652  1.00  0.00     0.057 A 
ATOM     54  C   UNL A   1      41.170  27.745  27.485  1.00  0.00     0.134 A 
ATOM     55  C   UNL A   1      39.655  26.369  28.726  1.00  0.00     0.134 A 
ATOM     56  F   UNL A   1      41.918  28.851  27.344  1.00  0.00    -0.206 F 
ATOM     57  C   UNL A   1      41.134  26.840  26.423  1.00  0.00     0.040 A 
ATOM     58  C   UNL A   1      39.634  25.442  27.683  1.00  0.00     0.040 A 
ATOM     59  F   UNL A   1      38.919  26.104  29.816  1.00  0.00    -0.206 F 
ATOM     60  C   UNL A   1      40.369  25.679  26.524  1.00  0.00     0.006 A 
ENDBRANCH  39  53
BRANCH  40  61
ATOM     61  C   UNL A   1      40.153  34.013  36.253  1.00  0.00     0.057 A 
ATOM     62  C   UNL A   1      40.914  35.189  36.255  1.00  0.00     0.134 A 
ATOM     63  C   UNL A   1      39.359  33.758  37.378  1.00  0.00     0.134 A 
ATOM     64  F   UNL A   1      41.707  35.481  35.214  1.00  0.00    -0.206 F 
ATOM     65  C   UNL A   1      40.905  36.064  37.342  1.00  0.00     0.040 A 
ATOM     66  C   UNL A   1      39.319  34.638  38.459  1.00  0.00     0.040 A 
ATOM     67  F   UNL A   1      38.600  32.654  37.434  1.00  0.00    -0.206 F 
ATOM     68  C   UNL A   1      40.100  35.792  38.447  1.00  0.00     0.006 A 
ENDBRANCH  40  61
BRANCH  52  69
ATOM     69  C   UNL A   1      44.398  28.764  34.544  1.00  0.00     0.057 A 
ATOM     70  C   UNL A   1      44.334  27.700  35.452  1.00  0.00     0.134 A 
ATOM     71  C   UNL A   1      45.665  29.271  34.231  1.00  0.00     0.134 A 
ATOM     72  F   UNL A   1      43.149  27.178  35.805  1.00  0.00    -0.206 F 
ATOM     73  C   UNL A   1      45.483  27.175  36.042  1.00  0.00     0.040 A 
ATOM     74  C   UNL A   1      46.825  28.736  34.792  1.00  0.00     0.040 A 
ATOM     75  F   UNL A   1      45.798  30.285  33.362  1.00  0.00    -0.206 F 
ATOM     76  C   UNL A   1      46.735  27.689  35.706  1.00  0.00     0.006 A 
ENDBRANCH  52  69
ENDBRANCH  26  27
ENDBRANCH  18  21
ENDBRANCH  16  17
ENDBRANCH  15  16
ENDBRANCH  14  15
ENDBRANCH   3  14
TORSDOF 15
ENDMDL
MODEL 2
REMARK VINA RESULT:      -9.6      1.273      6.830
REMARK SMILES C[C@H](SCCO)[C@@H](C)C(=O)NCCCNC(=O)c1ccc(-c2c3nc(c(-c4c(F)cccc4F)c4ccc([nH]4)c(-c4c(F)cccc4F)c4nc(c(-c5c(F)cccc5F)c5ccc2[nH]5)C=C4)C=C3)cc1
REMARK SMILES IDX 9 1 10 2 11 3 7 5 8 6 2 7 1 8 3 9 4 10 5 11 6 12 12 14 13 15
REMARK SMILES IDX 14 16 15 17 16 18 17 20 18 21 19 22 71 23 20 24 70 25 21 26
REMARK SMILES IDX 22 27 23 28 64 29 24 30 69 31 63 32 65 33 25 34 68 35 62 36
REMARK SMILES IDX 61 37 26 39 52 40 35 41 51 42 36 43 39 44 50 45 66 46 37 47
REMARK SMILES IDX 38 48 49 50 67 51 40 52 27 53 28 54 33 55 29 56 30 57 32 58
REMARK SMILES IDX 34 59 31 60 53 61 54 62 59 63 55 64 56 65 58 66 60 67 57 68
REMARK SMILES IDX 41 69 42 70 47 71 43 72 44 73 46 74 48 75 45 76
REMARK H PARENT 11 4 6 13 15 19 65 38 39 49
REMARK Flexibility Score: inf
ROOT
ATOM      1  C   UNL A   1      32.495  28.752  26.369  1.00  0.00     0.223 C 
ATOM      2  O   UNL A   1      33.372  28.245  27.074  1.00  0.00    -0.275 OA
ATOM      3  N   UNL A   1      32.295  30.091  26.498  1.00  0.00    -0.356 N 
ATOM      4  H   UNL A   1      32.893  30.531  27.144  1.00  0.00     0.163 HD
ENDROOT
BRANCH   1   5
ATOM      5  C   UNL A   1      31.692  27.890  25.393  1.00  0.00     0.088 C 
ATOM      6  C   UNL A   1      31.058  26.731  26.161  1.00  0.00     0.019 C 
BRANCH   5   7
ATOM      7  C   UNL A   1      32.489  27.562  24.108  1.00  0.00     0.055 C 
ATOM      8  C   UNL A   1      33.366  28.771  23.722  1.00  0.00     0.020 C 
BRANCH   7   9
ATOM      9  S   UNL A   1      31.484  27.196  22.594  1.00  0.00    -0.156 SA
BRANCH   9  10
ATOM     10  C   UNL A   1      29.923  28.129  22.830  1.00  0.00     0.098 C 
BRANCH  10  11
ATOM     11  C   UNL A   1      29.932  29.617  22.488  1.00  0.00     0.167 C 
BRANCH  11  12
ATOM     12  O   UNL A   1      30.795  29.931  21.406  1.00  0.00    -0.396 OA
ATOM     13  H   UNL A   1      30.861  29.167  20.811  1.00  0.00     0.210 HD
ENDBRANCH  11  12
ENDBRANCH  10  11
ENDBRANCH   9  10
ENDBRANCH   7   9
ENDBRANCH   5   7
ENDBRANCH   1   5
BRANCH   3  14
ATOM     14  C   UNL A   1      31.355  30.981  25.847  1.00  0.00     0.117 C 
BRANCH  14  15
ATOM     15  C   UNL A   1      31.273  32.333  26.548  1.00  0.00     0.042 C 
BRANCH  15  16
ATOM     16  C   UNL A   1      32.571  32.742  27.233  1.00  0.00     0.118 C 
BRANCH  16  17
ATOM     17  N   UNL A   1      32.555  34.131  27.671  1.00  0.00    -0.352 N 
ATOM     18  C   UNL A   1      33.299  34.768  28.632  1.00  0.00     0.251 C 
ATOM     19  H   UNL A   1      31.906  34.705  27.203  1.00  0.00     0.163 HD
ATOM     20  O   UNL A   1      32.993  35.903  28.984  1.00  0.00    -0.269 OA
BRANCH  18  21
ATOM     21  C   UNL A   1      34.455  34.091  29.257  1.00  0.00     0.039 A 
ATOM     22  C   UNL A   1      34.229  33.229  30.334  1.00  0.00     0.014 A 
ATOM     23  C   UNL A   1      35.758  34.321  28.808  1.00  0.00     0.014 A 
ATOM     24  C   UNL A   1      35.301  32.551  30.917  1.00  0.00     0.010 A 
ATOM     25  C   UNL A   1      36.813  33.581  29.331  1.00  0.00     0.010 A 
ATOM     26  C   UNL A   1      36.596  32.693  30.396  1.00  0.00    -0.014 A 
BRANCH  26  27
ATOM     27  C   UNL A   1      37.740  31.926  30.952  1.00  0.00     0.031 A 
ATOM     28  C   UNL A   1      38.281  32.257  32.316  1.00  0.00     0.074 A 
ATOM     29  C   UNL A   1      38.333  30.978  30.201  1.00  0.00     0.049 A 
ATOM     30  N   UNL A   1      39.317  31.755  32.939  1.00  0.00    -0.248 NA
ATOM     31  C   UNL A   1      37.583  33.312  33.068  1.00  0.00     0.031 C 
ATOM     32  C   UNL A   1      37.931  30.597  28.845  1.00  0.00     0.029 A 
ATOM     33  N   UNL A   1      39.408  30.168  30.467  1.00  0.00    -0.354 N 
ATOM     34  C   UNL A   1      39.402  32.441  34.143  1.00  0.00     0.074 A 
ATOM     35  C   UNL A   1      38.351  33.434  34.140  1.00  0.00     0.031 C 
ATOM     36  C   UNL A   1      38.732  29.613  28.409  1.00  0.00     0.029 A 
ATOM     37  C   UNL A   1      39.729  29.321  29.433  1.00  0.00     0.049 A 
ATOM     38  H   UNL A   1      39.902  30.191  31.318  1.00  0.00     0.167 HD
ATOM     39  C   UNL A   1      40.265  32.247  35.169  1.00  0.00     0.037 A 
ATOM     40  C   UNL A   1      40.722  28.419  29.322  1.00  0.00     0.037 A 
ATOM     41  C   UNL A   1      41.296  31.242  35.177  1.00  0.00     0.049 A 
ATOM     42  C   UNL A   1      41.672  28.229  30.471  1.00  0.00     0.074 A 
ATOM     43  C   UNL A   1      42.182  30.925  36.192  1.00  0.00     0.029 A 
ATOM     44  N   UNL A   1      41.579  30.393  34.118  1.00  0.00    -0.354 N 
ATOM     45  N   UNL A   1      41.699  28.838  31.631  1.00  0.00    -0.248 NA
ATOM     46  C   UNL A   1      42.727  27.220  30.298  1.00  0.00     0.031 C 
ATOM     47  C   UNL A   1      43.034  29.917  35.728  1.00  0.00     0.029 A 
ATOM     48  C   UNL A   1      42.643  29.569  34.446  1.00  0.00     0.049 A 
ATOM     49  H   UNL A   1      41.096  30.379  33.260  1.00  0.00     0.167 HD
ATOM     50  C   UNL A   1      42.751  28.268  32.337  1.00  0.00     0.074 A 
ATOM     51  C   UNL A   1      43.328  27.253  31.478  1.00  0.00     0.031 C 
ATOM     52  C   UNL A   1      43.199  28.557  33.583  1.00  0.00     0.037 A 
BRANCH  39  53
ATOM     53  C   UNL A   1      40.127  33.138  36.371  1.00  0.00     0.057 A 
ATOM     54  C   UNL A   1      39.241  32.838  37.416  1.00  0.00     0.134 A 
ATOM     55  C   UNL A   1      40.912  34.290  36.502  1.00  0.00     0.134 A 
ATOM     56  F   UNL A   1      38.452  31.756  37.348  1.00  0.00    -0.206 F 
ATOM     57  C   UNL A   1      39.122  33.668  38.532  1.00  0.00     0.040 A 
ATOM     58  C   UNL A   1      40.822  35.111  37.627  1.00  0.00     0.040 A 
ATOM     59  F   UNL A   1      41.785  34.633  35.543  1.00  0.00    -0.206 F 
ATOM     60  C   UNL A   1      39.920  34.805  38.643  1.00  0.00     0.006 A 
ENDBRANCH  39  53
BRANCH  40  61
ATOM     61  C   UNL A   1      40.857  27.611  28.083  1.00  0.00     0.057 A 
ATOM     62  C   UNL A   1      41.655  28.049  27.019  1.00  0.00     0.134 A 
ATOM     63  C   UNL A   1      40.186  26.392  27.926  1.00  0.00     0.134 A 
ATOM     64  F   UNL A   1      42.309  29.217  27.103  1.00  0.00    -0.206 F 
ATOM     65  C   UNL A   1      41.764  27.316  25.836  1.00  0.00     0.040 A 
ATOM     66  C   UNL A   1      40.308  25.636  26.759  1.00  0.00     0.040 A 
ATOM     67  F   UNL A   1      39.414  25.912  28.911  1.00  0.00    -0.206 F 
ATOM     68  C   UNL A   1      41.092  26.102  25.706  1.00  0.00     0.006 A 
ENDBRANCH  40  61
BRANCH  52  69
ATOM     69  C   UNL A   1      44.345  27.742  34.108  1.00  0.00     0.057 A 
ATOM     70  C   UNL A   1      45.676  28.149  33.959  1.00  0.00     0.134 A 
ATOM     71  C   UNL A   1      44.107  26.551  34.806  1.00  0.00     0.134 A 
ATOM     72  F   UNL A   1      45.972  29.273  33.289  1.00  0.00    -0.206 F 
ATOM     73  C   UNL A   1      46.731  27.389  34.465  1.00  0.00     0.040 A 
ATOM     74  C   UNL A   1      45.152  25.797  35.342  1.00  0.00     0.040 A 
ATOM     75  F   UNL A   1      42.854  26.108  34.992  1.00  0.00    -0.206 F 
ATOM     76  C   UNL A   1      46.470  26.213  35.166  1.00  0.00     0.006 A 
ENDBRANCH  52  69
ENDBRANCH  26  27
ENDBRANCH  18  21
ENDBRANCH  16  17
ENDBRANCH  15  16
ENDBRANCH  14  15
ENDBRANCH   3  14
TORSDOF 15
ENDMDL
MODEL 3
REMARK VINA RESULT:      -9.6      1.837      2.846
REMARK SMILES C[C@H](SCCO)[C@@H](C)C(=O)NCCCNC(=O)c1ccc(-c2c3nc(c(-c4c(F)cccc4F)c4ccc([nH]4)c(-c4c(F)cccc4F)c4nc(c(-c5c(F)cccc5F)c5ccc2[nH]5)C=C4)C=C3)cc1
REMARK SMILES IDX 9 1 10 2 11 3 7 5 8 6 2 7 1 8 3 9 4 10 5 11 6 12 12 14 13 15
REMARK SMILES IDX 14 16 15 17 16 18 17 20 18 21 19 22 71 23 20 24 70 25 21 26
REMARK SMILES IDX 22 27 23 28 64 29 24 30 69 31 63 32 65 33 25 34 68 35 62 36
REMARK SMILES IDX 61 37 26 39 52 40 35 41 51 42 36 43 39 44 50 45 66 46 37 47
REMARK SMILES IDX 38 48 49 50 67 51 40 52 27 53 28 54 33 55 29 56 30 57 32 58
REMARK SMILES IDX 34 59 31 60 53 61 54 62 59 63 55 64 56 65 58 66 60 67 57 68
REMARK SMILES IDX 41 69 42 70 47 71 43 72 44 73 46 74 48 75 45 76
REMARK H PARENT 11 4 6 13 15 19 65 38 39 49
REMARK Flexibility Score: inf
ROOT
ATOM      1  C   UNL A   1      32.589  29.082  24.862  1.00  0.00     0.223 C 
ATOM      2  O   UNL A   1      33.039  29.017  23.715  1.00  0.00    -0.275 OA
ATOM      3  N   UNL A   1      32.060  30.272  25.253  1.00  0.00    -0.356 N 
ATOM      4  H   UNL A   1      32.079  30.972  24.562  1.00  0.00     0.163 HD
ENDROOT
BRANCH   1   5
ATOM      5  C   UNL A   1      32.625  27.857  25.777  1.00  0.00     0.088 C 
ATOM      6  C   UNL A   1      33.985  27.797  26.472  1.00  0.00     0.019 C 
BRANCH   5   7
ATOM      7  C   UNL A   1      32.114  26.579  25.069  1.00  0.00     0.055 C 
ATOM      8  C   UNL A   1      30.578  26.643  24.938  1.00  0.00     0.020 C 
BRANCH   7   9
ATOM      9  S   UNL A   1      32.456  24.975  25.930  1.00  0.00    -0.156 SA
BRANCH   9  10
ATOM     10  C   UNL A   1      30.992  23.930  25.576  1.00  0.00     0.098 C 
BRANCH  10  11
ATOM     11  C   UNL A   1      30.357  23.185  26.747  1.00  0.00     0.167 C 
BRANCH  11  12
ATOM     12  O   UNL A   1      31.314  22.622  27.630  1.00  0.00    -0.396 OA
ATOM     13  H   UNL A   1      31.840  21.958  27.157  1.00  0.00     0.210 HD
ENDBRANCH  11  12
ENDBRANCH  10  11
ENDBRANCH   9  10
ENDBRANCH   7   9
ENDBRANCH   5   7
ENDBRANCH   1   5
BRANCH   3  14
ATOM     14  C   UNL A   1      31.474  30.687  26.512  1.00  0.00     0.117 C 
BRANCH  14  15
ATOM     15  C   UNL A   1      31.365  32.204  26.616  1.00  0.00     0.042 C 
BRANCH  15  16
ATOM     16  C   UNL A   1      32.637  32.872  27.126  1.00  0.00     0.118 C 
BRANCH  16  17
ATOM     17  N   UNL A   1      32.409  34.243  27.560  1.00  0.00    -0.352 N 
ATOM     18  C   UNL A   1      33.006  34.969  28.561  1.00  0.00     0.251 C 
ATOM     19  H   UNL A   1      31.716  34.727  27.056  1.00  0.00     0.163 HD
ATOM     20  O   UNL A   1      32.531  36.050  28.893  1.00  0.00    -0.269 OA
BRANCH  18  21
ATOM     21  C   UNL A   1      34.206  34.449  29.251  1.00  0.00     0.039 A 
ATOM     22  C   UNL A   1      34.047  33.794  30.476  1.00  0.00     0.014 A 
ATOM     23  C   UNL A   1      35.483  34.628  28.715  1.00  0.00     0.014 A 
ATOM     24  C   UNL A   1      35.162  33.264  31.128  1.00  0.00     0.010 A 
ATOM     25  C   UNL A   1      36.581  34.024  29.321  1.00  0.00     0.010 A 
ATOM     26  C   UNL A   1      36.432  33.342  30.538  1.00  0.00    -0.014 A 
BRANCH  26  27
ATOM     27  C   UNL A   1      37.620  32.722  31.178  1.00  0.00     0.031 A 
ATOM     28  C   UNL A   1      38.263  31.509  30.564  1.00  0.00     0.074 A 
ATOM     29  C   UNL A   1      38.077  33.211  32.347  1.00  0.00     0.049 A 
ATOM     30  N   UNL A   1      39.256  30.783  31.012  1.00  0.00    -0.248 NA
ATOM     31  C   UNL A   1      37.698  31.031  29.291  1.00  0.00     0.031 C 
ATOM     32  C   UNL A   1      37.509  34.353  33.067  1.00  0.00     0.029 A 
ATOM     33  N   UNL A   1      39.118  32.802  33.142  1.00  0.00    -0.354 N 
ATOM     34  C   UNL A   1      39.422  29.759  30.088  1.00  0.00     0.074 A 
ATOM     35  C   UNL A   1      38.392  29.923  29.085  1.00  0.00     0.031 C 
ATOM     36  C   UNL A   1      38.223  34.569  34.183  1.00  0.00     0.029 A 
ATOM     37  C   UNL A   1      39.270  33.557  34.281  1.00  0.00     0.049 A 
ATOM     38  H   UNL A   1      39.700  32.042  32.918  1.00  0.00     0.167 HD
ATOM     39  C   UNL A   1      40.361  28.784  30.065  1.00  0.00     0.037 A 
ATOM     40  C   UNL A   1      40.149  33.439  35.294  1.00  0.00     0.037 A 
ATOM     41  C   UNL A   1      41.398  28.639  31.053  1.00  0.00     0.049 A 
ATOM     42  C   UNL A   1      41.176  32.342  35.249  1.00  0.00     0.074 A 
ATOM     43  C   UNL A   1      42.433  27.721  31.087  1.00  0.00     0.029 A 
ATOM     44  N   UNL A   1      41.529  29.433  32.182  1.00  0.00    -0.354 N 
ATOM     45  N   UNL A   1      41.364  31.422  34.335  1.00  0.00    -0.248 NA
ATOM     46  C   UNL A   1      42.118  32.271  36.375  1.00  0.00     0.031 C 
ATOM     47  C   UNL A   1      43.162  27.928  32.263  1.00  0.00     0.029 A 
ATOM     48  C   UNL A   1      42.614  29.010  32.933  1.00  0.00     0.049 A 
ATOM     49  H   UNL A   1      40.938  30.185  32.416  1.00  0.00     0.167 HD
ATOM     50  C   UNL A   1      42.461  30.683  34.757  1.00  0.00     0.074 A 
ATOM     51  C   UNL A   1      42.905  31.272  36.004  1.00  0.00     0.031 C 
ATOM     52  C   UNL A   1      43.048  29.613  34.168  1.00  0.00     0.037 A 
BRANCH  39  53
ATOM     53  C   UNL A   1      40.313  27.799  28.931  1.00  0.00     0.057 A 
ATOM     54  C   UNL A   1      41.025  28.006  27.742  1.00  0.00     0.134 A 
ATOM     55  C   UNL A   1      39.572  26.616  29.042  1.00  0.00     0.134 A 
ATOM     56  F   UNL A   1      41.745  29.124  27.565  1.00  0.00    -0.206 F 
ATOM     57  C   UNL A   1      40.980  27.084  26.694  1.00  0.00     0.040 A 
ATOM     58  C   UNL A   1      39.543  25.674  28.012  1.00  0.00     0.040 A 
ATOM     59  F   UNL A   1      38.871  26.352  30.154  1.00  0.00    -0.206 F 
ATOM     60  C   UNL A   1      40.243  25.910  26.831  1.00  0.00     0.006 A 
ENDBRANCH  39  53
BRANCH  40  61
ATOM     61  C   UNL A   1      40.111  34.398  36.427  1.00  0.00     0.057 A 
ATOM     62  C   UNL A   1      39.354  34.130  37.574  1.00  0.00     0.134 A 
ATOM     63  C   UNL A   1      40.816  35.607  36.389  1.00  0.00     0.134 A 
ATOM     64  F   UNL A   1      38.643  32.996  37.663  1.00  0.00    -0.206 F 
ATOM     65  C   UNL A   1      39.282  35.036  38.632  1.00  0.00     0.040 A 
ATOM     66  C   UNL A   1      40.775  36.511  37.452  1.00  0.00     0.040 A 
ATOM     67  F   UNL A   1      41.567  35.920  35.323  1.00  0.00    -0.206 F 
ATOM     68  C   UNL A   1      39.999  36.231  38.574  1.00  0.00     0.006 A 
ENDBRANCH  40  61
BRANCH  52  69
ATOM     69  C   UNL A   1      44.258  29.034  34.842  1.00  0.00     0.057 A 
ATOM     70  C   UNL A   1      44.161  27.995  35.776  1.00  0.00     0.134 A 
ATOM     71  C   UNL A   1      45.540  29.499  34.522  1.00  0.00     0.134 A 
ATOM     72  F   UNL A   1      42.962  27.514  36.136  1.00  0.00    -0.206 F 
ATOM     73  C   UNL A   1      45.294  27.455  36.385  1.00  0.00     0.040 A 
ATOM     74  C   UNL A   1      46.683  28.948  35.103  1.00  0.00     0.040 A 
ATOM     75  F   UNL A   1      45.704  30.486  33.628  1.00  0.00    -0.206 F 
ATOM     76  C   UNL A   1      46.561  27.926  36.043  1.00  0.00     0.006 A 
ENDBRANCH  52  69
ENDBRANCH  26  27
ENDBRANCH  18  21
ENDBRANCH  16  17
ENDBRANCH  15  16
ENDBRANCH  14  15
ENDBRANCH   3  14
TORSDOF 15
ENDMDL
