MODEL 1
REMARK VINA RESULT:     -13.7      0.000      0.000
REMARK SMILES O=C(C[C@H](NC(=O)[C@]12C[C@H]3C[C@H](C[C@H](C3)C1)C2)c1cccc([N+](=O)[O-])c1)NCCCNC(=O)c1ccc(-c2c3nc(c(-c4c(F)cccc4F)c4ccc([nH]4)c(-c4c(F)cccc4F)c4nc(c(-c5c(F)cccc5F)c5ccc2[nH]5)C=C4)C=C3)cc1
REMARK SMILES IDX 28 1 27 2 1 3 2 4 3 6 4 7 18 8 19 9 26 10 20 11 22 12 21 13
REMARK SMILES IDX 23 14 24 15 25 16 5 17 6 18 7 20 8 21 9 22 16 23 17 24 10 25
REMARK SMILES IDX 14 26 12 27 11 28 15 29 13 30 29 31 30 32 31 33 32 34 33 36
REMARK SMILES IDX 34 37 35 38 87 39 36 40 86 41 37 42 38 43 39 44 80 45 40 46
REMARK SMILES IDX 85 47 79 48 81 49 41 50 84 51 78 52 77 53 42 55 68 56 51 57
REMARK SMILES IDX 67 58 52 59 55 60 66 61 82 62 53 63 54 64 65 66 83 67 56 68
REMARK SMILES IDX 43 69 44 70 49 71 45 72 46 73 48 74 50 75 47 76 69 77 70 78
REMARK SMILES IDX 75 79 71 80 72 81 74 82 76 83 73 84 57 85 58 86 63 87 59 88
REMARK SMILES IDX 60 89 62 90 64 91 61 92
REMARK H PARENT 27 5 5 19 31 35 81 54 55 65
REMARK Flexibility Score: inf
ROOT
ATOM      1  C   UNL A   1      31.655  30.609  26.508  1.00  0.00     0.117 C 
ENDROOT
BRANCH   1   2
ATOM      2  N   UNL A   1      31.854  30.316  25.101  1.00  0.00    -0.356 N 
ATOM      3  O   UNL A   1      33.659  28.977  25.449  1.00  0.00    -0.275 OA
ATOM      4  C   UNL A   1      32.788  29.401  24.689  1.00  0.00     0.222 C 
ATOM      5  H   UNL A   1      31.307  30.783  24.428  1.00  0.00     0.163 HD
BRANCH   4   6
ATOM      6  C   UNL A   1      32.783  28.993  23.229  1.00  0.00     0.129 C 
BRANCH   6   7
ATOM      7  C   UNL A   1      31.773  27.925  22.774  1.00  0.00     0.122 C 
BRANCH   7   8
ATOM      8  C   UNL A   1      30.356  28.493  22.613  1.00  0.00    -0.018 A 
ATOM      9  C   UNL A   1      29.264  27.796  23.168  1.00  0.00     0.006 A 
ATOM     10  C   UNL A   1      30.083  29.703  21.957  1.00  0.00     0.091 A 
ATOM     11  C   UNL A   1      27.970  28.328  23.152  1.00  0.00     0.007 A 
ATOM     12  C   UNL A   1      28.799  30.271  22.006  1.00  0.00     0.269 A 
ATOM     13  C   UNL A   1      27.737  29.584  22.599  1.00  0.00     0.085 A 
BRANCH  12  14
ATOM     14  N   UNL A   1      28.587  31.631  21.493  1.00  0.00     0.062 N 
ATOM     15  O   UNL A   1      28.026  31.751  20.394  1.00  0.00    -0.258 OA
ATOM     16  O   UNL A   1      28.957  32.580  22.199  1.00  0.00    -0.258 OA
ENDBRANCH  12  14
ENDBRANCH   7   8
BRANCH   7  17
ATOM     17  N   UNL A   1      32.179  27.003  21.700  1.00  0.00    -0.348 N 
ATOM     18  C   UNL A   1      32.680  25.756  21.515  1.00  0.00     0.226 C 
ATOM     19  H   UNL A   1      32.042  27.434  20.826  1.00  0.00     0.164 HD
ATOM     20  O   UNL A   1      32.961  25.516  20.332  1.00  0.00    -0.274 OA
BRANCH  18  21
ATOM     21  C   UNL A   1      32.857  24.659  22.585  1.00  0.00     0.050 C 
ATOM     22  C   UNL A   1      33.288  23.299  22.011  1.00  0.00     0.020 C 
ATOM     23  C   UNL A   1      31.496  24.412  23.317  1.00  0.00     0.020 C 
ATOM     24  C   UNL A   1      33.835  25.134  23.673  1.00  0.00     0.020 C 
ATOM     25  C   UNL A   1      33.476  22.250  23.111  1.00  0.00    -0.010 C 
ATOM     26  C   UNL A   1      31.645  23.351  24.427  1.00  0.00    -0.010 C 
ATOM     27  C   UNL A   1      34.027  24.071  24.761  1.00  0.00    -0.010 C 
ATOM     28  C   UNL A   1      34.519  22.767  24.113  1.00  0.00     0.007 C 
ATOM     29  C   UNL A   1      32.130  22.030  23.814  1.00  0.00     0.007 C 
ATOM     30  C   UNL A   1      32.683  23.825  25.457  1.00  0.00     0.007 C 
ENDBRANCH  18  21
ENDBRANCH   7  17
ENDBRANCH   6   7
ENDBRANCH   4   6
ENDBRANCH   1   2
BRANCH   1  31
ATOM     31  C   UNL A   1      31.423  32.082  26.827  1.00  0.00     0.042 C 
BRANCH  31  32
ATOM     32  C   UNL A   1      32.682  32.855  27.194  1.00  0.00     0.118 C 
BRANCH  32  33
ATOM     33  N   UNL A   1      32.411  34.226  27.601  1.00  0.00    -0.352 N 
ATOM     34  C   UNL A   1      33.000  34.991  28.575  1.00  0.00     0.251 C 
ATOM     35  H   UNL A   1      31.692  34.675  27.099  1.00  0.00     0.163 HD
ATOM     36  O   UNL A   1      32.524  36.089  28.857  1.00  0.00    -0.269 OA
BRANCH  34  37
ATOM     37  C   UNL A   1      34.185  34.494  29.305  1.00  0.00     0.039 A 
ATOM     38  C   UNL A   1      34.002  33.900  30.557  1.00  0.00     0.014 A 
ATOM     39  C   UNL A   1      35.471  34.620  28.771  1.00  0.00     0.014 A 
ATOM     40  C   UNL A   1      35.098  33.374  31.242  1.00  0.00     0.010 A 
ATOM     41  C   UNL A   1      36.550  34.023  29.417  1.00  0.00     0.010 A 
ATOM     42  C   UNL A   1      36.377  33.396  30.660  1.00  0.00    -0.014 A 
BRANCH  42  43
ATOM     43  C   UNL A   1      37.541  32.768  31.336  1.00  0.00     0.031 A 
ATOM     44  C   UNL A   1      38.212  31.566  30.731  1.00  0.00     0.074 A 
ATOM     45  C   UNL A   1      37.956  33.245  32.526  1.00  0.00     0.049 A 
ATOM     46  N   UNL A   1      39.198  30.846  31.202  1.00  0.00    -0.248 NA
ATOM     47  C   UNL A   1      37.690  31.096  29.437  1.00  0.00     0.031 C 
ATOM     48  C   UNL A   1      37.360  34.377  33.238  1.00  0.00     0.029 A 
ATOM     49  N   UNL A   1      38.971  32.832  33.351  1.00  0.00    -0.354 N 
ATOM     50  C   UNL A   1      39.406  29.835  30.271  1.00  0.00     0.074 A 
ATOM     51  C   UNL A   1      38.406  30.000  29.238  1.00  0.00     0.031 C 
ATOM     52  C   UNL A   1      38.036  34.582  34.380  1.00  0.00     0.029 A 
ATOM     53  C   UNL A   1      39.082  33.572  34.502  1.00  0.00     0.049 A 
ATOM     54  H   UNL A   1      39.564  32.075  33.138  1.00  0.00     0.167 HD
ATOM     55  C   UNL A   1      40.357  28.871  30.266  1.00  0.00     0.037 A 
ATOM     56  C   UNL A   1      39.924  33.445  35.546  1.00  0.00     0.037 A 
ATOM     57  C   UNL A   1      41.360  28.719  31.287  1.00  0.00     0.049 A 
ATOM     58  C   UNL A   1      40.955  32.350  35.527  1.00  0.00     0.074 A 
ATOM     59  C   UNL A   1      42.401  27.810  31.344  1.00  0.00     0.029 A 
ATOM     60  N   UNL A   1      41.442  29.492  32.436  1.00  0.00    -0.354 N 
ATOM     61  N   UNL A   1      41.185  31.446  34.606  1.00  0.00    -0.248 NA
ATOM     62  C   UNL A   1      41.847  32.262  36.692  1.00  0.00     0.031 C 
ATOM     63  C   UNL A   1      43.079  27.995  32.553  1.00  0.00     0.029 A 
ATOM     64  C   UNL A   1      42.498  29.061  33.222  1.00  0.00     0.049 A 
ATOM     65  H   UNL A   1      40.838  30.237  32.660  1.00  0.00     0.167 HD
ATOM     66  C   UNL A   1      42.264  30.702  35.066  1.00  0.00     0.074 A 
ATOM     67  C   UNL A   1      42.653  31.272  36.339  1.00  0.00     0.031 C 
ATOM     68  C   UNL A   1      42.877  29.640  34.486  1.00  0.00     0.037 A 
BRANCH  55  69
ATOM     69  C   UNL A   1      40.357  27.903  29.116  1.00  0.00     0.057 A 
ATOM     70  C   UNL A   1      39.560  26.751  29.117  1.00  0.00     0.134 A 
ATOM     71  C   UNL A   1      41.139  28.144  27.978  1.00  0.00     0.134 A 
ATOM     72  F   UNL A   1      38.796  26.452  30.178  1.00  0.00    -0.206 F 
ATOM     73  C   UNL A   1      39.562  25.858  28.043  1.00  0.00     0.040 A 
ATOM     74  C   UNL A   1      41.126  27.276  26.885  1.00  0.00     0.040 A 
ATOM     75  F   UNL A   1      41.921  29.232  27.906  1.00  0.00    -0.206 F 
ATOM     76  C   UNL A   1      40.342  26.125  26.919  1.00  0.00     0.006 A 
ENDBRANCH  55  69
BRANCH  56  77
ATOM     77  C   UNL A   1      39.838  34.387  36.693  1.00  0.00     0.057 A 
ATOM     78  C   UNL A   1      40.505  35.617  36.669  1.00  0.00     0.134 A 
ATOM     79  C   UNL A   1      39.102  34.075  37.842  1.00  0.00     0.134 A 
ATOM     80  F   UNL A   1      41.242  35.965  35.604  1.00  0.00    -0.206 F 
ATOM     81  C   UNL A   1      40.463  36.493  37.755  1.00  0.00     0.040 A 
ATOM     82  C   UNL A   1      39.027  34.954  38.924  1.00  0.00     0.040 A 
ATOM     83  F   UNL A   1      38.433  32.916  37.925  1.00  0.00    -0.206 F 
ATOM     84  C   UNL A   1      39.717  36.164  38.885  1.00  0.00     0.006 A 
ENDBRANCH  56  77
BRANCH  68  85
ATOM     85  C   UNL A   1      44.054  29.047  35.206  1.00  0.00     0.057 A 
ATOM     86  C   UNL A   1      45.366  29.477  34.963  1.00  0.00     0.134 A 
ATOM     87  C   UNL A   1      43.869  28.061  36.183  1.00  0.00     0.134 A 
ATOM     88  F   UNL A   1      45.614  30.409  34.030  1.00  0.00    -0.206 F 
ATOM     89  C   UNL A   1      46.452  28.926  35.644  1.00  0.00     0.040 A 
ATOM     90  C   UNL A   1      44.944  27.525  36.894  1.00  0.00     0.040 A 
ATOM     91  F   UNL A   1      42.639  27.612  36.474  1.00  0.00    -0.206 F 
ATOM     92  C   UNL A   1      46.241  27.953  36.620  1.00  0.00     0.006 A 
ENDBRANCH  68  85
ENDBRANCH  42  43
ENDBRANCH  34  37
ENDBRANCH  32  33
ENDBRANCH  31  32
ENDBRANCH   1  31
TORSDOF 15
ENDMDL
MODEL 2
REMARK VINA RESULT:     -13.6      0.097      1.731
REMARK SMILES O=C(C[C@H](NC(=O)[C@]12C[C@H]3C[C@H](C[C@H](C3)C1)C2)c1cccc([N+](=O)[O-])c1)NCCCNC(=O)c1ccc(-c2c3nc(c(-c4c(F)cccc4F)c4ccc([nH]4)c(-c4c(F)cccc4F)c4nc(c(-c5c(F)cccc5F)c5ccc2[nH]5)C=C4)C=C3)cc1
REMARK SMILES IDX 28 1 27 2 1 3 2 4 3 6 4 7 18 8 19 9 26 10 20 11 22 12 21 13
REMARK SMILES IDX 23 14 24 15 25 16 5 17 6 18 7 20 8 21 9 22 16 23 17 24 10 25
REMARK SMILES IDX 14 26 12 27 11 28 15 29 13 30 29 31 30 32 31 33 32 34 33 36
REMARK SMILES IDX 34 37 35 38 87 39 36 40 86 41 37 42 38 43 39 44 80 45 40 46
REMARK SMILES IDX 85 47 79 48 81 49 41 50 84 51 78 52 77 53 42 55 68 56 51 57
REMARK SMILES IDX 67 58 52 59 55 60 66 61 82 62 53 63 54 64 65 66 83 67 56 68
REMARK SMILES IDX 43 69 44 70 49 71 45 72 46 73 48 74 50 75 47 76 69 77 70 78
REMARK SMILES IDX 75 79 71 80 72 81 74 82 76 83 73 84 57 85 58 86 63 87 59 88
REMARK SMILES IDX 60 89 62 90 64 91 61 92
REMARK H PARENT 27 5 5 19 31 35 81 54 55 65
REMARK Flexibility Score: inf
ROOT
ATOM      1  C   UNL A   1      31.608  30.614  26.493  1.00  0.00     0.117 C 
ENDROOT
BRANCH   1   2
ATOM      2  N   UNL A   1      31.800  30.305  25.088  1.00  0.00    -0.356 N 
ATOM      3  O   UNL A   1      33.593  28.952  25.445  1.00  0.00    -0.275 OA
ATOM      4  C   UNL A   1      32.724  29.377  24.683  1.00  0.00     0.222 C 
ATOM      5  H   UNL A   1      31.256  30.770  24.412  1.00  0.00     0.163 HD
BRANCH   4   6
ATOM      6  C   UNL A   1      32.711  28.953  23.228  1.00  0.00     0.129 C 
BRANCH   6   7
ATOM      7  C   UNL A   1      31.683  27.898  22.784  1.00  0.00     0.122 C 
BRANCH   7   8
ATOM      8  C   UNL A   1      30.274  28.487  22.624  1.00  0.00    -0.018 A 
ATOM      9  C   UNL A   1      29.168  27.782  23.140  1.00  0.00     0.006 A 
ATOM     10  C   UNL A   1      30.023  29.721  22.008  1.00  0.00     0.091 A 
ATOM     11  C   UNL A   1      27.880  28.329  23.126  1.00  0.00     0.007 A 
ATOM     12  C   UNL A   1      28.744  30.302  22.059  1.00  0.00     0.269 A 
ATOM     13  C   UNL A   1      27.668  29.606  22.614  1.00  0.00     0.085 A 
BRANCH  12  14
ATOM     14  N   UNL A   1      28.553  31.681  21.591  1.00  0.00     0.062 N 
ATOM     15  O   UNL A   1      28.011  31.845  20.488  1.00  0.00    -0.258 OA
ATOM     16  O   UNL A   1      28.922  32.600  22.335  1.00  0.00    -0.258 OA
ENDBRANCH  12  14
ENDBRANCH   7   8
BRANCH   7  17
ATOM     17  N   UNL A   1      32.071  26.962  21.715  1.00  0.00    -0.348 N 
ATOM     18  C   UNL A   1      32.539  25.701  21.537  1.00  0.00     0.226 C 
ATOM     19  H   UNL A   1      31.951  27.394  20.839  1.00  0.00     0.164 HD
ATOM     20  O   UNL A   1      32.821  25.450  20.357  1.00  0.00    -0.274 OA
BRANCH  18  21
ATOM     21  C   UNL A   1      32.680  24.603  22.611  1.00  0.00     0.050 C 
ATOM     22  C   UNL A   1      31.367  24.285  23.348  1.00  0.00     0.020 C 
ATOM     23  C   UNL A   1      33.695  25.067  23.709  1.00  0.00     0.020 C 
ATOM     24  C   UNL A   1      33.288  23.333  21.992  1.00  0.00     0.020 C 
ATOM     25  C   UNL A   1      31.552  23.173  24.385  1.00  0.00    -0.010 C 
ATOM     26  C   UNL A   1      33.897  23.974  24.779  1.00  0.00    -0.010 C 
ATOM     27  C   UNL A   1      33.454  22.222  23.036  1.00  0.00    -0.010 C 
ATOM     28  C   UNL A   1      32.089  21.921  23.676  1.00  0.00     0.007 C 
ATOM     29  C   UNL A   1      32.552  23.652  25.445  1.00  0.00     0.007 C 
ATOM     30  C   UNL A   1      34.436  22.697  24.115  1.00  0.00     0.007 C 
ENDBRANCH  18  21
ENDBRANCH   7  17
ENDBRANCH   6   7
ENDBRANCH   4   6
ENDBRANCH   1   2
BRANCH   1  31
ATOM     31  C   UNL A   1      31.398  32.094  26.798  1.00  0.00     0.042 C 
BRANCH  31  32
ATOM     32  C   UNL A   1      32.652  32.829  27.251  1.00  0.00     0.118 C 
BRANCH  32  33
ATOM     33  N   UNL A   1      32.395  34.206  27.645  1.00  0.00    -0.352 N 
ATOM     34  C   UNL A   1      32.997  34.976  28.607  1.00  0.00     0.251 C 
ATOM     35  H   UNL A   1      31.677  34.656  27.142  1.00  0.00     0.163 HD
ATOM     36  O   UNL A   1      32.531  36.081  28.880  1.00  0.00    -0.269 OA
BRANCH  34  37
ATOM     37  C   UNL A   1      34.182  34.477  29.336  1.00  0.00     0.039 A 
ATOM     38  C   UNL A   1      34.003  33.909  30.599  1.00  0.00     0.014 A 
ATOM     39  C   UNL A   1      35.464  34.576  28.787  1.00  0.00     0.014 A 
ATOM     40  C   UNL A   1      35.100  33.381  31.284  1.00  0.00     0.010 A 
ATOM     41  C   UNL A   1      36.542  33.978  29.433  1.00  0.00     0.010 A 
ATOM     42  C   UNL A   1      36.372  33.376  30.689  1.00  0.00    -0.014 A 
BRANCH  42  43
ATOM     43  C   UNL A   1      37.535  32.745  31.366  1.00  0.00     0.031 A 
ATOM     44  C   UNL A   1      38.214  31.553  30.752  1.00  0.00     0.074 A 
ATOM     45  C   UNL A   1      37.940  33.212  32.564  1.00  0.00     0.049 A 
ATOM     46  N   UNL A   1      39.201  30.831  31.221  1.00  0.00    -0.248 NA
ATOM     47  C   UNL A   1      37.702  31.094  29.451  1.00  0.00     0.031 C 
ATOM     48  C   UNL A   1      37.336  34.333  33.284  1.00  0.00     0.029 A 
ATOM     49  N   UNL A   1      38.953  32.793  33.390  1.00  0.00    -0.354 N 
ATOM     50  C   UNL A   1      39.418  29.831  30.282  1.00  0.00     0.074 A 
ATOM     51  C   UNL A   1      38.424  30.004  29.244  1.00  0.00     0.031 C 
ATOM     52  C   UNL A   1      38.004  34.529  34.432  1.00  0.00     0.029 A 
ATOM     53  C   UNL A   1      39.053  33.522  34.550  1.00  0.00     0.049 A 
ATOM     54  H   UNL A   1      39.550  32.041  33.173  1.00  0.00     0.167 HD
ATOM     55  C   UNL A   1      40.373  28.871  30.272  1.00  0.00     0.037 A 
ATOM     56  C   UNL A   1      39.889  33.387  35.598  1.00  0.00     0.037 A 
ATOM     57  C   UNL A   1      41.370  28.712  31.298  1.00  0.00     0.049 A 
ATOM     58  C   UNL A   1      40.924  32.296  35.573  1.00  0.00     0.074 A 
ATOM     59  C   UNL A   1      42.415  27.807  31.351  1.00  0.00     0.029 A 
ATOM     60  N   UNL A   1      41.442  29.474  32.455  1.00  0.00    -0.354 N 
ATOM     61  N   UNL A   1      41.164  31.403  34.645  1.00  0.00    -0.248 NA
ATOM     62  C   UNL A   1      41.810  32.200  36.743  1.00  0.00     0.031 C 
ATOM     63  C   UNL A   1      43.084  27.982  32.567  1.00  0.00     0.029 A 
ATOM     64  C   UNL A   1      42.495  29.038  33.243  1.00  0.00     0.049 A 
ATOM     65  H   UNL A   1      40.834  30.213  32.684  1.00  0.00     0.167 HD
ATOM     66  C   UNL A   1      42.243  30.658  35.103  1.00  0.00     0.074 A 
ATOM     67  C   UNL A   1      42.622  31.216  36.384  1.00  0.00     0.031 C 
ATOM     68  C   UNL A   1      42.863  29.605  34.516  1.00  0.00     0.037 A 
BRANCH  55  69
ATOM     69  C   UNL A   1      40.384  27.916  29.112  1.00  0.00     0.057 A 
ATOM     70  C   UNL A   1      41.151  28.152  27.964  1.00  0.00     0.134 A 
ATOM     71  C   UNL A   1      39.646  26.726  29.158  1.00  0.00     0.134 A 
ATOM     72  F   UNL A   1      41.874  29.277  27.847  1.00  0.00    -0.206 F 
ATOM     73  C   UNL A   1      41.161  27.257  26.892  1.00  0.00     0.040 A 
ATOM     74  C   UNL A   1      39.672  25.808  28.107  1.00  0.00     0.040 A 
ATOM     75  F   UNL A   1      38.894  26.431  30.230  1.00  0.00    -0.206 F 
ATOM     76  C   UNL A   1      40.424  26.076  26.966  1.00  0.00     0.006 A 
ENDBRANCH  55  69
BRANCH  56  77
ATOM     77  C   UNL A   1      39.792  34.316  36.754  1.00  0.00     0.057 A 
ATOM     78  C   UNL A   1      39.037  33.984  37.885  1.00  0.00     0.134 A 
ATOM     79  C   UNL A   1      40.436  35.559  36.751  1.00  0.00     0.134 A 
ATOM     80  F   UNL A   1      38.380  32.817  37.940  1.00  0.00    -0.206 F 
ATOM     81  C   UNL A   1      38.906  34.864  38.961  1.00  0.00     0.040 A 
ATOM     82  C   UNL A   1      40.339  36.436  37.832  1.00  0.00     0.040 A 
ATOM     83  F   UNL A   1      41.182  35.933  35.701  1.00  0.00    -0.206 F 
ATOM     84  C   UNL A   1      39.563  36.093  38.938  1.00  0.00     0.006 A 
ENDBRANCH  56  77
BRANCH  68  85
ATOM     85  C   UNL A   1      44.039  29.009  35.237  1.00  0.00     0.057 A 
ATOM     86  C   UNL A   1      43.890  27.978  36.174  1.00  0.00     0.134 A 
ATOM     87  C   UNL A   1      45.340  29.449  34.962  1.00  0.00     0.134 A 
ATOM     88  F   UNL A   1      42.670  27.520  36.493  1.00  0.00    -0.206 F 
ATOM     89  C   UNL A   1      44.990  27.425  36.831  1.00  0.00     0.040 A 
ATOM     90  C   UNL A   1      46.451  28.882  35.588  1.00  0.00     0.040 A 
ATOM     91  F   UNL A   1      45.555  30.425  34.067  1.00  0.00    -0.206 F 
ATOM     92  C   UNL A   1      46.277  27.872  36.532  1.00  0.00     0.006 A 
ENDBRANCH  68  85
ENDBRANCH  42  43
ENDBRANCH  34  37
ENDBRANCH  32  33
ENDBRANCH  31  32
ENDBRANCH   1  31
TORSDOF 15
ENDMDL
MODEL 3
REMARK VINA RESULT:     -13.6      1.221      6.121
REMARK SMILES O=C(C[C@H](NC(=O)[C@]12C[C@H]3C[C@H](C[C@H](C3)C1)C2)c1cccc([N+](=O)[O-])c1)NCCCNC(=O)c1ccc(-c2c3nc(c(-c4c(F)cccc4F)c4ccc([nH]4)c(-c4c(F)cccc4F)c4nc(c(-c5c(F)cccc5F)c5ccc2[nH]5)C=C4)C=C3)cc1
REMARK SMILES IDX 28 1 27 2 1 3 2 4 3 6 4 7 18 8 19 9 26 10 20 11 22 12 21 13
REMARK SMILES IDX 23 14 24 15 25 16 5 17 6 18 7 20 8 21 9 22 16 23 17 24 10 25
REMARK SMILES IDX 14 26 12 27 11 28 15 29 13 30 29 31 30 32 31 33 32 34 33 36
REMARK SMILES IDX 34 37 35 38 87 39 36 40 86 41 37 42 38 43 39 44 80 45 40 46
REMARK SMILES IDX 85 47 79 48 81 49 41 50 84 51 78 52 77 53 42 55 68 56 51 57
REMARK SMILES IDX 67 58 52 59 55 60 66 61 82 62 53 63 54 64 65 66 83 67 56 68
REMARK SMILES IDX 43 69 44 70 49 71 45 72 46 73 48 74 50 75 47 76 69 77 70 78
REMARK SMILES IDX 75 79 71 80 72 81 74 82 76 83 73 84 57 85 58 86 63 87 59 88
REMARK SMILES IDX 60 89 62 90 64 91 61 92
REMARK H PARENT 27 5 5 19 31 35 81 54 55 65
REMARK Flexibility Score: inf
ROOT
ATOM      1  C   UNL A   1      31.689  30.558  26.570  1.00  0.00     0.117 C 
ENDROOT
BRANCH   1   2
ATOM      2  N   UNL A   1      31.869  30.299  25.154  1.00  0.00    -0.356 N 
ATOM      3  O   UNL A   1      33.644  28.909  25.450  1.00  0.00    -0.275 OA
ATOM      4  C   UNL A   1      32.778  29.374  24.709  1.00  0.00     0.222 C 
ATOM      5  H   UNL A   1      31.328  30.797  24.499  1.00  0.00     0.163 HD
BRANCH   4   6
ATOM      6  C   UNL A   1      32.752  29.006  23.239  1.00  0.00     0.129 C 
BRANCH   6   7
ATOM      7  C   UNL A   1      31.755  27.930  22.774  1.00  0.00     0.122 C 
BRANCH   7   8
ATOM      8  C   UNL A   1      30.335  28.486  22.599  1.00  0.00    -0.018 A 
ATOM      9  C   UNL A   1      29.244  27.785  23.151  1.00  0.00     0.006 A 
ATOM     10  C   UNL A   1      30.057  29.689  21.934  1.00  0.00     0.091 A 
ATOM     11  C   UNL A   1      27.946  28.307  23.123  1.00  0.00     0.007 A 
ATOM     12  C   UNL A   1      28.769  30.249  21.969  1.00  0.00     0.269 A 
ATOM     13  C   UNL A   1      27.708  29.558  22.560  1.00  0.00     0.085 A 
BRANCH  12  14
ATOM     14  N   UNL A   1      28.550  31.604  21.446  1.00  0.00     0.062 N 
ATOM     15  O   UNL A   1      27.889  31.719  20.404  1.00  0.00    -0.258 OA
ATOM     16  O   UNL A   1      29.018  32.554  22.088  1.00  0.00    -0.258 OA
ENDBRANCH  12  14
ENDBRANCH   7   8
BRANCH   7  17
ATOM     17  N   UNL A   1      32.179  27.011  21.704  1.00  0.00    -0.348 N 
ATOM     18  C   UNL A   1      32.684  25.765  21.525  1.00  0.00     0.226 C 
ATOM     19  H   UNL A   1      32.054  27.444  20.829  1.00  0.00     0.164 HD
ATOM     20  O   UNL A   1      32.984  25.528  20.346  1.00  0.00    -0.274 OA
BRANCH  18  21
ATOM     21  C   UNL A   1      32.847  24.666  22.594  1.00  0.00     0.050 C 
ATOM     22  C   UNL A   1      33.283  23.306  22.023  1.00  0.00     0.020 C 
ATOM     23  C   UNL A   1      31.477  24.420  23.310  1.00  0.00     0.020 C 
ATOM     24  C   UNL A   1      33.812  25.138  23.695  1.00  0.00     0.020 C 
ATOM     25  C   UNL A   1      33.455  22.255  23.124  1.00  0.00    -0.010 C 
ATOM     26  C   UNL A   1      31.610  23.356  24.420  1.00  0.00    -0.010 C 
ATOM     27  C   UNL A   1      33.989  24.072  24.784  1.00  0.00    -0.010 C 
ATOM     28  C   UNL A   1      34.487  22.768  24.139  1.00  0.00     0.007 C 
ATOM     29  C   UNL A   1      32.100  22.035  23.810  1.00  0.00     0.007 C 
ATOM     30  C   UNL A   1      32.636  23.827  25.463  1.00  0.00     0.007 C 
ENDBRANCH  18  21
ENDBRANCH   7  17
ENDBRANCH   6   7
ENDBRANCH   4   6
ENDBRANCH   1   2
BRANCH   1  31
ATOM     31  C   UNL A   1      31.449  32.022  26.926  1.00  0.00     0.042 C 
BRANCH  31  32
ATOM     32  C   UNL A   1      32.718  32.845  27.098  1.00  0.00     0.118 C 
BRANCH  32  33
ATOM     33  N   UNL A   1      32.478  34.136  27.728  1.00  0.00    -0.352 N 
ATOM     34  C   UNL A   1      33.154  34.761  28.744  1.00  0.00     0.251 C 
ATOM     35  H   UNL A   1      31.712  34.639  27.368  1.00  0.00     0.163 HD
ATOM     36  O   UNL A   1      32.700  35.795  29.230  1.00  0.00    -0.269 OA
BRANCH  34  37
ATOM     37  C   UNL A   1      34.407  34.186  29.278  1.00  0.00     0.039 A 
ATOM     38  C   UNL A   1      34.348  33.400  30.431  1.00  0.00     0.014 A 
ATOM     39  C   UNL A   1      35.636  34.426  28.656  1.00  0.00     0.014 A 
ATOM     40  C   UNL A   1      35.509  32.802  30.923  1.00  0.00     0.010 A 
ATOM     41  C   UNL A   1      36.778  33.764  29.100  1.00  0.00     0.010 A 
ATOM     42  C   UNL A   1      36.727  32.947  30.239  1.00  0.00    -0.014 A 
BRANCH  42  43
ATOM     43  C   UNL A   1      37.956  32.251  30.700  1.00  0.00     0.031 A 
ATOM     44  C   UNL A   1      38.787  32.833  31.810  1.00  0.00     0.074 A 
ATOM     45  C   UNL A   1      38.355  31.123  30.079  1.00  0.00     0.049 A 
ATOM     46  N   UNL A   1      39.920  32.405  32.306  1.00  0.00    -0.248 NA
ATOM     47  C   UNL A   1      38.293  34.075  32.427  1.00  0.00     0.031 C 
ATOM     48  C   UNL A   1      37.660  30.483  28.961  1.00  0.00     0.029 A 
ATOM     49  N   UNL A   1      39.447  30.322  30.294  1.00  0.00    -0.354 N 
ATOM     50  C   UNL A   1      40.278  33.327  33.282  1.00  0.00     0.074 A 
ATOM     51  C   UNL A   1      39.273  34.369  33.268  1.00  0.00     0.031 C 
ATOM     52  C   UNL A   1      38.329  29.374  28.606  1.00  0.00     0.029 A 
ATOM     53  C   UNL A   1      39.521  29.250  29.438  1.00  0.00     0.049 A 
ATOM     54  H   UNL A   1      40.115  30.498  30.995  1.00  0.00     0.167 HD
ATOM     55  C   UNL A   1      41.335  33.299  34.128  1.00  0.00     0.037 A 
ATOM     56  C   UNL A   1      40.451  28.282  29.327  1.00  0.00     0.037 A 
ATOM     57  C   UNL A   1      42.325  32.253  34.149  1.00  0.00     0.049 A 
ATOM     58  C   UNL A   1      41.629  28.287  30.263  1.00  0.00     0.074 A 
ATOM     59  C   UNL A   1      43.401  32.103  35.006  1.00  0.00     0.029 A 
ATOM     60  N   UNL A   1      42.362  31.182  33.269  1.00  0.00    -0.354 N 
ATOM     61  N   UNL A   1      41.916  29.126  31.227  1.00  0.00    -0.248 NA
ATOM     62  C   UNL A   1      42.609  27.204  30.096  1.00  0.00     0.031 C 
ATOM     63  C   UNL A   1      44.123  30.973  34.608  1.00  0.00     0.029 A 
ATOM     64  C   UNL A   1      43.462  30.384  33.543  1.00  0.00     0.049 A 
ATOM     65  H   UNL A   1      41.706  31.014  32.555  1.00  0.00     0.167 HD
ATOM     66  C   UNL A   1      43.092  28.659  31.800  1.00  0.00     0.074 A 
ATOM     67  C   UNL A   1      43.454  27.453  31.086  1.00  0.00     0.031 C 
ATOM     68  C   UNL A   1      43.809  29.183  32.825  1.00  0.00     0.037 A 
BRANCH  55  69
ATOM     69  C   UNL A   1      41.476  34.434  35.102  1.00  0.00     0.057 A 
ATOM     70  C   UNL A   1      40.893  34.394  36.376  1.00  0.00     0.134 A 
ATOM     71  C   UNL A   1      42.232  35.567  34.776  1.00  0.00     0.134 A 
ATOM     72  F   UNL A   1      40.145  33.345  36.750  1.00  0.00    -0.206 F 
ATOM     73  C   UNL A   1      41.032  35.452  37.278  1.00  0.00     0.040 A 
ATOM     74  C   UNL A   1      42.405  36.616  35.680  1.00  0.00     0.040 A 
ATOM     75  F   UNL A   1      42.825  35.670  33.576  1.00  0.00    -0.206 F 
ATOM     76  C   UNL A   1      41.797  36.564  36.932  1.00  0.00     0.006 A 
ENDBRANCH  55  69
BRANCH  56  77
ATOM     77  C   UNL A   1      40.302  27.218  28.300  1.00  0.00     0.057 A 
ATOM     78  C   UNL A   1      39.553  26.065  28.558  1.00  0.00     0.134 A 
ATOM     79  C   UNL A   1      40.914  27.322  27.045  1.00  0.00     0.134 A 
ATOM     80  F   UNL A   1      38.958  25.898  29.748  1.00  0.00    -0.206 F 
ATOM     81  C   UNL A   1      39.437  25.041  27.616  1.00  0.00     0.040 A 
ATOM     82  C   UNL A   1      40.783  26.320  26.082  1.00  0.00     0.040 A 
ATOM     83  F   UNL A   1      41.639  28.406  26.732  1.00  0.00    -0.206 F 
ATOM     84  C   UNL A   1      40.049  25.170  26.371  1.00  0.00     0.006 A 
ENDBRANCH  56  77
BRANCH  68  85
ATOM     85  C   UNL A   1      45.037  28.435  33.259  1.00  0.00     0.057 A 
ATOM     86  C   UNL A   1      44.983  27.407  34.210  1.00  0.00     0.134 A 
ATOM     87  C   UNL A   1      46.284  28.724  32.690  1.00  0.00     0.134 A 
ATOM     88  F   UNL A   1      43.822  27.089  34.803  1.00  0.00    -0.206 F 
ATOM     89  C   UNL A   1      46.129  26.712  34.598  1.00  0.00     0.040 A 
ATOM     90  C   UNL A   1      47.432  28.014  33.048  1.00  0.00     0.040 A 
ATOM     91  F   UNL A   1      46.405  29.688  31.766  1.00  0.00    -0.206 F 
ATOM     92  C   UNL A   1      47.358  27.010  34.009  1.00  0.00     0.006 A 
ENDBRANCH  68  85
ENDBRANCH  42  43
ENDBRANCH  34  37
ENDBRANCH  32  33
ENDBRANCH  31  32
ENDBRANCH   1  31
TORSDOF 15
ENDMDL
