MODEL 1
REMARK VINA RESULT:      -9.1      0.000      0.000
REMARK SMILES C[C@@](O)(CC1(C(=O)NCCCNC(=O)c2ccc(-c3c4nc(c(-c5c(F)cccc5F)c5ccc([nH]5)c(-c5c(F)cccc5F)c5nc(c(-c6c(F)cccc6F)c6ccc3[nH]6)C=C5)C=C4)cc2)CC1)c1ccccc1
REMARK SMILES IDX 9 1 8 2 6 3 7 4 5 6 69 7 70 8 4 9 2 10 1 11 3 12 71 14 72 15
REMARK SMILES IDX 76 16 73 17 75 18 74 19 10 20 11 21 12 22 13 23 14 25 15 26
REMARK SMILES IDX 16 27 68 28 17 29 67 30 18 31 19 32 20 33 61 34 21 35 66 36
REMARK SMILES IDX 60 37 62 38 22 39 65 40 59 41 58 42 23 44 49 45 32 46 48 47
REMARK SMILES IDX 33 48 36 49 47 50 63 51 34 52 35 53 46 55 64 56 37 57 24 58
REMARK SMILES IDX 25 59 30 60 26 61 27 62 29 63 31 64 28 65 50 66 51 67 56 68
REMARK SMILES IDX 52 69 53 70 55 71 57 72 54 73 38 74 39 75 44 76 40 77 41 78
REMARK SMILES IDX 43 79 45 80 42 81
REMARK H PARENT 8 5 3 13 12 24 62 43 36 54
REMARK Flexibility Score: inf
ROOT
ATOM      1  C   UNL A   1      34.776  33.078  30.926  1.00  0.00     0.117 C 
ENDROOT
BRANCH   1   2
ATOM      2  N   UNL A   1      35.383  34.181  31.637  1.00  0.00    -0.356 N 
ATOM      3  C   UNL A   1      36.521  34.253  32.390  1.00  0.00     0.226 C 
ATOM      4  O   UNL A   1      36.522  35.039  33.331  1.00  0.00    -0.274 OA
ATOM      5  H   UNL A   1      34.890  35.031  31.565  1.00  0.00     0.163 HD
BRANCH   3   6
ATOM      6  C   UNL A   1      37.800  33.538  32.047  1.00  0.00     0.052 C 
ATOM      7  C   UNL A   1      39.221  34.071  32.185  1.00  0.00     0.018 C 
ATOM      8  C   UNL A   1      38.538  34.198  30.870  1.00  0.00     0.018 C 
BRANCH   6   9
ATOM      9  C   UNL A   1      37.656  32.005  31.904  1.00  0.00     0.056 C 
BRANCH   9  10
ATOM     10  C   UNL A   1      37.749  31.085  33.154  1.00  0.00     0.088 C 
ATOM     11  C   UNL A   1      37.526  31.781  34.504  1.00  0.00     0.047 C 
BRANCH  10  12
ATOM     12  O   UNL A   1      36.637  30.171  32.967  1.00  0.00    -0.385 OA
ATOM     13  H   UNL A   1      36.898  29.281  33.253  1.00  0.00     0.211 HD
ENDBRANCH  10  12
BRANCH  10  14
ATOM     14  C   UNL A   1      39.026  30.242  33.220  1.00  0.00    -0.017 A 
ATOM     15  C   UNL A   1      40.228  30.781  33.719  1.00  0.00     0.007 A 
ATOM     16  C   UNL A   1      39.065  28.927  32.731  1.00  0.00     0.007 A 
ATOM     17  C   UNL A   1      41.404  30.027  33.761  1.00  0.00     0.000 A 
ATOM     18  C   UNL A   1      40.235  28.164  32.794  1.00  0.00     0.000 A 
ATOM     19  C   UNL A   1      41.403  28.713  33.311  1.00  0.00     0.000 A 
ENDBRANCH  10  14
ENDBRANCH   9  10
ENDBRANCH   6   9
ENDBRANCH   3   6
ENDBRANCH   1   2
BRANCH   1  20
ATOM     20  C   UNL A   1      34.321  33.528  29.536  1.00  0.00     0.042 C 
BRANCH  20  21
ATOM     21  C   UNL A   1      34.907  32.691  28.395  1.00  0.00     0.118 C 
BRANCH  21  22
ATOM     22  N   UNL A   1      34.185  31.442  28.191  1.00  0.00    -0.352 N 
ATOM     23  C   UNL A   1      34.658  30.163  28.033  1.00  0.00     0.251 C 
ATOM     24  H   UNL A   1      33.205  31.529  28.159  1.00  0.00     0.163 HD
ATOM     25  O   UNL A   1      33.893  29.272  27.678  1.00  0.00    -0.269 OA
BRANCH  23  26
ATOM     26  C   UNL A   1      36.083  29.854  28.274  1.00  0.00     0.039 A 
ATOM     27  C   UNL A   1      36.459  29.346  29.521  1.00  0.00     0.014 A 
ATOM     28  C   UNL A   1      37.050  30.094  27.295  1.00  0.00     0.014 A 
ATOM     29  C   UNL A   1      37.796  29.022  29.764  1.00  0.00     0.010 A 
ATOM     30  C   UNL A   1      38.371  29.708  27.515  1.00  0.00     0.010 A 
ATOM     31  C   UNL A   1      38.757  29.172  28.752  1.00  0.00    -0.014 A 
BRANCH  31  32
ATOM     32  C   UNL A   1      40.172  28.778  28.969  1.00  0.00     0.031 A 
ATOM     33  C   UNL A   1      41.141  29.741  29.592  1.00  0.00     0.074 A 
ATOM     34  C   UNL A   1      40.599  27.572  28.547  1.00  0.00     0.049 A 
ATOM     35  N   UNL A   1      42.425  29.605  29.802  1.00  0.00    -0.248 NA
ATOM     36  C   UNL A   1      40.597  31.042  30.013  1.00  0.00     0.031 C 
ATOM     37  C   UNL A   1      39.767  26.559  27.894  1.00  0.00     0.029 A 
ATOM     38  N   UNL A   1      41.843  26.997  28.600  1.00  0.00    -0.354 N 
ATOM     39  C   UNL A   1      42.846  30.806  30.359  1.00  0.00     0.074 A 
ATOM     40  C   UNL A   1      41.691  31.676  30.408  1.00  0.00     0.031 C 
ATOM     41  C   UNL A   1      40.517  25.475  27.638  1.00  0.00     0.029 A 
ATOM     42  C   UNL A   1      41.887  25.730  28.073  1.00  0.00     0.049 A 
ATOM     43  H   UNL A   1      42.631  27.451  28.979  1.00  0.00     0.167 HD
ATOM     44  C   UNL A   1      44.077  31.146  30.811  1.00  0.00     0.037 A 
ATOM     45  C   UNL A   1      42.916  24.870  27.954  1.00  0.00     0.037 A 
ATOM     46  C   UNL A   1      45.220  30.273  30.784  1.00  0.00     0.049 A 
ATOM     47  C   UNL A   1      44.276  25.275  28.447  1.00  0.00     0.074 A 
ATOM     48  C   UNL A   1      46.497  30.503  31.269  1.00  0.00     0.029 A 
ATOM     49  N   UNL A   1      45.226  28.997  30.239  1.00  0.00    -0.354 N 
ATOM     50  N   UNL A   1      44.648  26.393  29.021  1.00  0.00    -0.248 NA
ATOM     51  C   UNL A   1      45.358  24.297  28.274  1.00  0.00     0.031 C 
ATOM     52  C   UNL A   1      47.283  29.381  30.984  1.00  0.00     0.029 A 
ATOM     53  C   UNL A   1      46.486  28.436  30.357  1.00  0.00     0.049 A 
ATOM     54  H   UNL A   1      44.448  28.557  29.827  1.00  0.00     0.167 HD
ATOM     55  C   UNL A   1      45.999  26.243  29.304  1.00  0.00     0.074 A 
ATOM     56  C   UNL A   1      46.379  24.923  28.844  1.00  0.00     0.031 C 
ATOM     57  C   UNL A   1      46.847  27.119  29.897  1.00  0.00     0.037 A 
BRANCH  44  58
ATOM     58  C   UNL A   1      44.240  32.530  31.371  1.00  0.00     0.057 A 
ATOM     59  C   UNL A   1      44.093  32.795  32.740  1.00  0.00     0.134 A 
ATOM     60  C   UNL A   1      44.540  33.611  30.534  1.00  0.00     0.134 A 
ATOM     61  F   UNL A   1      43.792  31.805  33.594  1.00  0.00    -0.206 F 
ATOM     62  C   UNL A   1      44.201  34.090  33.249  1.00  0.00     0.040 A 
ATOM     63  C   UNL A   1      44.677  34.907  31.036  1.00  0.00     0.040 A 
ATOM     64  F   UNL A   1      44.700  33.428  29.214  1.00  0.00    -0.206 F 
ATOM     65  C   UNL A   1      44.497  35.150  32.395  1.00  0.00     0.006 A 
ENDBRANCH  44  58
BRANCH  45  66
ATOM     66  C   UNL A   1      42.686  23.521  27.386  1.00  0.00     0.057 A 
ATOM     67  C   UNL A   1      42.313  22.454  28.212  1.00  0.00     0.134 A 
ATOM     68  C   UNL A   1      42.814  23.265  26.016  1.00  0.00     0.134 A 
ATOM     69  F   UNL A   1      42.192  22.636  29.535  1.00  0.00    -0.206 F 
ATOM     70  C   UNL A   1      42.084  21.177  27.697  1.00  0.00     0.040 A 
ATOM     71  C   UNL A   1      42.569  21.997  25.486  1.00  0.00     0.040 A 
ATOM     72  F   UNL A   1      43.161  24.248  25.174  1.00  0.00    -0.206 F 
ATOM     73  C   UNL A   1      42.206  20.948  26.329  1.00  0.00     0.006 A 
ENDBRANCH  45  66
BRANCH  57  74
ATOM     74  C   UNL A   1      48.260  26.664  30.109  1.00  0.00     0.057 A 
ATOM     75  C   UNL A   1      48.642  25.943  31.247  1.00  0.00     0.134 A 
ATOM     76  C   UNL A   1      49.244  26.925  29.147  1.00  0.00     0.134 A 
ATOM     77  F   UNL A   1      47.750  25.674  32.213  1.00  0.00    -0.206 F 
ATOM     78  C   UNL A   1      49.958  25.514  31.430  1.00  0.00     0.040 A 
ATOM     79  C   UNL A   1      50.557  26.482  29.308  1.00  0.00     0.040 A 
ATOM     80  F   UNL A   1      48.942  27.606  28.032  1.00  0.00    -0.206 F 
ATOM     81  C   UNL A   1      50.918  25.778  30.456  1.00  0.00     0.006 A 
ENDBRANCH  57  74
ENDBRANCH  31  32
ENDBRANCH  23  26
ENDBRANCH  21  22
ENDBRANCH  20  21
ENDBRANCH   1  20
TORSDOF 14
ENDMDL
MODEL 2
REMARK VINA RESULT:      -9.0      4.187     10.019
REMARK SMILES C[C@@](O)(CC1(C(=O)NCCCNC(=O)c2ccc(-c3c4nc(c(-c5c(F)cccc5F)c5ccc([nH]5)c(-c5c(F)cccc5F)c5nc(c(-c6c(F)cccc6F)c6ccc3[nH]6)C=C5)C=C4)cc2)CC1)c1ccccc1
REMARK SMILES IDX 9 1 8 2 6 3 7 4 5 6 69 7 70 8 4 9 2 10 1 11 3 12 71 14 72 15
REMARK SMILES IDX 76 16 73 17 75 18 74 19 10 20 11 21 12 22 13 23 14 25 15 26
REMARK SMILES IDX 16 27 68 28 17 29 67 30 18 31 19 32 20 33 61 34 21 35 66 36
REMARK SMILES IDX 60 37 62 38 22 39 65 40 59 41 58 42 23 44 49 45 32 46 48 47
REMARK SMILES IDX 33 48 36 49 47 50 63 51 34 52 35 53 46 55 64 56 37 57 24 58
REMARK SMILES IDX 25 59 30 60 26 61 27 62 29 63 31 64 28 65 50 66 51 67 56 68
REMARK SMILES IDX 52 69 53 70 55 71 57 72 54 73 38 74 39 75 44 76 40 77 41 78
REMARK SMILES IDX 43 79 45 80 42 81
REMARK H PARENT 8 5 3 13 12 24 62 43 36 54
REMARK Flexibility Score: inf
ROOT
ATOM      1  C   UNL A   1      31.585  30.830  25.942  1.00  0.00     0.117 C 
ENDROOT
BRANCH   1   2
ATOM      2  N   UNL A   1      31.620  29.820  26.977  1.00  0.00    -0.356 N 
ATOM      3  C   UNL A   1      31.666  28.457  26.906  1.00  0.00     0.226 C 
ATOM      4  O   UNL A   1      31.106  27.830  27.798  1.00  0.00    -0.274 OA
ATOM      5  H   UNL A   1      31.610  30.179  27.894  1.00  0.00     0.163 HD
BRANCH   3   6
ATOM      6  C   UNL A   1      32.475  27.696  25.890  1.00  0.00     0.052 C 
ATOM      7  C   UNL A   1      33.412  26.522  26.146  1.00  0.00     0.018 C 
ATOM      8  C   UNL A   1      33.988  27.891  26.086  1.00  0.00     0.018 C 
BRANCH   6   9
ATOM      9  C   UNL A   1      32.012  27.894  24.428  1.00  0.00     0.056 C 
BRANCH   9  10
ATOM     10  C   UNL A   1      30.713  27.208  23.913  1.00  0.00     0.088 C 
ATOM     11  C   UNL A   1      30.913  26.170  22.801  1.00  0.00     0.047 C 
BRANCH  10  12
ATOM     12  O   UNL A   1      30.245  26.484  25.081  1.00  0.00    -0.385 OA
ATOM     13  H   UNL A   1      30.595  25.579  25.061  1.00  0.00     0.211 HD
ENDBRANCH  10  12
BRANCH  10  14
ATOM     14  C   UNL A   1      29.606  28.184  23.508  1.00  0.00    -0.017 A 
ATOM     15  C   UNL A   1      29.893  29.535  23.230  1.00  0.00     0.007 A 
ATOM     16  C   UNL A   1      28.260  27.789  23.458  1.00  0.00     0.007 A 
ATOM     17  C   UNL A   1      28.885  30.438  22.881  1.00  0.00     0.000 A 
ATOM     18  C   UNL A   1      27.253  28.686  23.086  1.00  0.00     0.000 A 
ATOM     19  C   UNL A   1      27.567  30.010  22.796  1.00  0.00     0.000 A 
ENDBRANCH  10  14
ENDBRANCH   9  10
ENDBRANCH   6   9
ENDBRANCH   3   6
ENDBRANCH   1   2
BRANCH   1  20
ATOM     20  C   UNL A   1      31.344  32.211  26.556  1.00  0.00     0.042 C 
BRANCH  20  21
ATOM     21  C   UNL A   1      32.566  32.785  27.278  1.00  0.00     0.118 C 
BRANCH  21  22
ATOM     22  N   UNL A   1      32.394  34.186  27.643  1.00  0.00    -0.352 N 
ATOM     23  C   UNL A   1      33.023  34.933  28.606  1.00  0.00     0.251 C 
ATOM     24  H   UNL A   1      31.719  34.672  27.115  1.00  0.00     0.163 HD
ATOM     25  O   UNL A   1      32.596  36.049  28.886  1.00  0.00    -0.269 OA
BRANCH  23  26
ATOM     26  C   UNL A   1      34.202  34.399  29.320  1.00  0.00     0.039 A 
ATOM     27  C   UNL A   1      34.016  33.788  30.563  1.00  0.00     0.014 A 
ATOM     28  C   UNL A   1      35.488  34.531  28.790  1.00  0.00     0.014 A 
ATOM     29  C   UNL A   1      35.111  33.254  31.246  1.00  0.00     0.010 A 
ATOM     30  C   UNL A   1      36.570  33.939  29.439  1.00  0.00     0.010 A 
ATOM     31  C   UNL A   1      36.393  33.298  30.674  1.00  0.00    -0.014 A 
BRANCH  31  32
ATOM     32  C   UNL A   1      37.561  32.684  31.354  1.00  0.00     0.031 A 
ATOM     33  C   UNL A   1      38.254  31.498  30.746  1.00  0.00     0.074 A 
ATOM     34  C   UNL A   1      37.959  33.155  32.550  1.00  0.00     0.049 A 
ATOM     35  N   UNL A   1      39.245  30.786  31.218  1.00  0.00    -0.248 NA
ATOM     36  C   UNL A   1      37.749  31.036  29.443  1.00  0.00     0.031 C 
ATOM     37  C   UNL A   1      37.347  34.277  33.265  1.00  0.00     0.029 A 
ATOM     38  N   UNL A   1      38.971  32.745  33.380  1.00  0.00    -0.354 N 
ATOM     39  C   UNL A   1      39.469  29.783  30.284  1.00  0.00     0.074 A 
ATOM     40  C   UNL A   1      38.477  29.949  29.242  1.00  0.00     0.031 C 
ATOM     41  C   UNL A   1      38.018  34.486  34.410  1.00  0.00     0.029 A 
ATOM     42  C   UNL A   1      39.079  33.491  34.527  1.00  0.00     0.049 A 
ATOM     43  H   UNL A   1      39.563  31.985  33.173  1.00  0.00     0.167 HD
ATOM     44  C   UNL A   1      40.427  28.825  30.280  1.00  0.00     0.037 A 
ATOM     45  C   UNL A   1      39.940  33.387  35.557  1.00  0.00     0.037 A 
ATOM     46  C   UNL A   1      41.427  28.675  31.304  1.00  0.00     0.049 A 
ATOM     47  C   UNL A   1      40.983  32.306  35.540  1.00  0.00     0.074 A 
ATOM     48  C   UNL A   1      42.474  27.772  31.364  1.00  0.00     0.029 A 
ATOM     49  N   UNL A   1      41.501  29.449  32.453  1.00  0.00    -0.354 N 
ATOM     50  N   UNL A   1      41.217  31.398  34.625  1.00  0.00    -0.248 NA
ATOM     51  C   UNL A   1      41.880  32.237  36.702  1.00  0.00     0.031 C 
ATOM     52  C   UNL A   1      43.161  27.976  32.566  1.00  0.00     0.029 A 
ATOM     53  C   UNL A   1      42.565  29.032  33.237  1.00  0.00     0.049 A 
ATOM     54  H   UNL A   1      40.888  30.185  32.678  1.00  0.00     0.167 HD
ATOM     55  C   UNL A   1      42.306  30.668  35.084  1.00  0.00     0.074 A 
ATOM     56  C   UNL A   1      42.688  31.244  36.357  1.00  0.00     0.031 C 
ATOM     57  C   UNL A   1      42.934  29.619  34.500  1.00  0.00     0.037 A 
BRANCH  44  58
ATOM     58  C   UNL A   1      40.427  27.865  29.125  1.00  0.00     0.057 A 
ATOM     59  C   UNL A   1      41.237  28.065  27.999  1.00  0.00     0.134 A 
ATOM     60  C   UNL A   1      39.606  26.732  29.136  1.00  0.00     0.134 A 
ATOM     61  F   UNL A   1      42.037  29.139  27.921  1.00  0.00    -0.206 F 
ATOM     62  C   UNL A   1      41.200  27.195  26.909  1.00  0.00     0.040 A 
ATOM     63  C   UNL A   1      39.581  25.838  28.063  1.00  0.00     0.040 A 
ATOM     64  F   UNL A   1      38.810  26.474  30.185  1.00  0.00    -0.206 F 
ATOM     65  C   UNL A   1      40.372  26.075  26.941  1.00  0.00     0.006 A 
ENDBRANCH  44  58
BRANCH  45  66
ATOM     66  C   UNL A   1      39.879  34.365  36.669  1.00  0.00     0.057 A 
ATOM     67  C   UNL A   1      40.564  35.584  36.584  1.00  0.00     0.134 A 
ATOM     68  C   UNL A   1      39.132  34.122  37.827  1.00  0.00     0.134 A 
ATOM     69  F   UNL A   1      41.311  35.863  35.506  1.00  0.00    -0.206 F 
ATOM     70  C   UNL A   1      40.515  36.522  37.616  1.00  0.00     0.040 A 
ATOM     71  C   UNL A   1      39.058  35.061  38.857  1.00  0.00     0.040 A 
ATOM     72  F   UNL A   1      38.448  32.977  37.963  1.00  0.00    -0.206 F 
ATOM     73  C   UNL A   1      39.755  36.264  38.754  1.00  0.00     0.006 A 
ENDBRANCH  45  66
BRANCH  57  74
ATOM     74  C   UNL A   1      44.120  29.048  35.219  1.00  0.00     0.057 A 
ATOM     75  C   UNL A   1      43.990  28.016  36.156  1.00  0.00     0.134 A 
ATOM     76  C   UNL A   1      45.411  29.517  34.947  1.00  0.00     0.134 A 
ATOM     77  F   UNL A   1      42.779  27.534  36.473  1.00  0.00    -0.206 F 
ATOM     78  C   UNL A   1      45.102  27.483  36.812  1.00  0.00     0.040 A 
ATOM     79  C   UNL A   1      46.532  28.977  35.578  1.00  0.00     0.040 A 
ATOM     80  F   UNL A   1      45.604  30.500  34.054  1.00  0.00    -0.206 F 
ATOM     81  C   UNL A   1      46.377  27.960  36.518  1.00  0.00     0.006 A 
ENDBRANCH  57  74
ENDBRANCH  31  32
ENDBRANCH  23  26
ENDBRANCH  21  22
ENDBRANCH  20  21
ENDBRANCH   1  20
TORSDOF 14
ENDMDL
MODEL 3
REMARK VINA RESULT:      -9.0      3.391      5.988
REMARK SMILES C[C@@](O)(CC1(C(=O)NCCCNC(=O)c2ccc(-c3c4nc(c(-c5c(F)cccc5F)c5ccc([nH]5)c(-c5c(F)cccc5F)c5nc(c(-c6c(F)cccc6F)c6ccc3[nH]6)C=C5)C=C4)cc2)CC1)c1ccccc1
REMARK SMILES IDX 9 1 8 2 6 3 7 4 5 6 69 7 70 8 4 9 2 10 1 11 3 12 71 14 72 15
REMARK SMILES IDX 76 16 73 17 75 18 74 19 10 20 11 21 12 22 13 23 14 25 15 26
REMARK SMILES IDX 16 27 68 28 17 29 67 30 18 31 19 32 20 33 61 34 21 35 66 36
REMARK SMILES IDX 60 37 62 38 22 39 65 40 59 41 58 42 23 44 49 45 32 46 48 47
REMARK SMILES IDX 33 48 36 49 47 50 63 51 34 52 35 53 46 55 64 56 37 57 24 58
REMARK SMILES IDX 25 59 30 60 26 61 27 62 29 63 31 64 28 65 50 66 51 67 56 68
REMARK SMILES IDX 52 69 53 70 55 71 57 72 54 73 38 74 39 75 44 76 40 77 41 78
REMARK SMILES IDX 43 79 45 80 42 81
REMARK H PARENT 8 5 3 13 12 24 62 43 36 54
REMARK Flexibility Score: inf
ROOT
ATOM      1  C   UNL A   1      32.240  26.621  26.167  1.00  0.00     0.117 C 
ENDROOT
BRANCH   1   2
ATOM      2  N   UNL A   1      31.712  25.490  26.898  1.00  0.00    -0.356 N 
ATOM      3  C   UNL A   1      31.237  24.283  26.472  1.00  0.00     0.226 C 
ATOM      4  O   UNL A   1      30.340  23.769  27.131  1.00  0.00    -0.274 OA
ATOM      5  H   UNL A   1      31.694  25.612  27.875  1.00  0.00     0.163 HD
BRANCH   3   6
ATOM      6  C   UNL A   1      31.840  23.496  25.339  1.00  0.00     0.052 C 
ATOM      7  C   UNL A   1      32.458  24.045  24.059  1.00  0.00     0.018 C 
ATOM      8  C   UNL A   1      31.030  23.634  24.038  1.00  0.00     0.018 C 
BRANCH   6   9
ATOM      9  C   UNL A   1      32.191  22.033  25.694  1.00  0.00     0.056 C 
BRANCH   9  10
ATOM     10  C   UNL A   1      33.419  21.714  26.595  1.00  0.00     0.088 C 
ATOM     11  C   UNL A   1      33.348  22.264  28.025  1.00  0.00     0.047 C 
BRANCH  10  12
ATOM     12  O   UNL A   1      33.375  20.267  26.702  1.00  0.00    -0.385 OA
ATOM     13  H   UNL A   1      33.080  19.889  25.857  1.00  0.00     0.211 HD
ENDBRANCH  10  12
BRANCH  10  14
ATOM     14  C   UNL A   1      34.768  22.084  25.972  1.00  0.00    -0.017 A 
ATOM     15  C   UNL A   1      35.345  23.351  26.188  1.00  0.00     0.007 A 
ATOM     16  C   UNL A   1      35.448  21.205  25.116  1.00  0.00     0.007 A 
ATOM     17  C   UNL A   1      36.564  23.706  25.605  1.00  0.00     0.000 A 
ATOM     18  C   UNL A   1      36.680  21.550  24.551  1.00  0.00     0.000 A 
ATOM     19  C   UNL A   1      37.238  22.800  24.797  1.00  0.00     0.000 A 
ENDBRANCH  10  14
ENDBRANCH   9  10
ENDBRANCH   6   9
ENDBRANCH   3   6
ENDBRANCH   1   2
BRANCH   1  20
ATOM     20  C   UNL A   1      32.269  27.864  27.060  1.00  0.00     0.042 C 
BRANCH  20  21
ATOM     21  C   UNL A   1      33.666  28.465  27.236  1.00  0.00     0.118 C 
BRANCH  21  22
ATOM     22  N   UNL A   1      33.627  29.874  27.605  1.00  0.00    -0.352 N 
ATOM     23  C   UNL A   1      34.570  30.651  28.229  1.00  0.00     0.251 C 
ATOM     24  H   UNL A   1      32.793  30.341  27.370  1.00  0.00     0.163 HD
ATOM     25  O   UNL A   1      34.268  31.772  28.626  1.00  0.00    -0.269 OA
BRANCH  23  26
ATOM     26  C   UNL A   1      35.942  30.144  28.440  1.00  0.00     0.039 A 
ATOM     27  C   UNL A   1      36.856  30.217  27.385  1.00  0.00     0.014 A 
ATOM     28  C   UNL A   1      36.319  29.566  29.655  1.00  0.00     0.014 A 
ATOM     29  C   UNL A   1      38.165  29.767  27.569  1.00  0.00     0.010 A 
ATOM     30  C   UNL A   1      37.642  29.180  29.859  1.00  0.00     0.010 A 
ATOM     31  C   UNL A   1      38.577  29.273  28.817  1.00  0.00    -0.014 A 
BRANCH  31  32
ATOM     32  C   UNL A   1      39.979  28.846  29.051  1.00  0.00     0.031 A 
ATOM     33  C   UNL A   1      40.954  29.776  29.715  1.00  0.00     0.074 A 
ATOM     34  C   UNL A   1      40.392  27.643  28.610  1.00  0.00     0.049 A 
ATOM     35  N   UNL A   1      42.231  29.610  29.947  1.00  0.00    -0.248 NA
ATOM     36  C   UNL A   1      40.427  31.078  30.155  1.00  0.00     0.031 C 
ATOM     37  C   UNL A   1      39.554  26.661  27.918  1.00  0.00     0.029 A 
ATOM     38  N   UNL A   1      41.623  27.042  28.674  1.00  0.00    -0.354 N 
ATOM     39  C   UNL A   1      42.664  30.790  30.540  1.00  0.00     0.074 A 
ATOM     40  C   UNL A   1      41.525  31.681  30.586  1.00  0.00     0.031 C 
ATOM     41  C   UNL A   1      40.288  25.569  27.652  1.00  0.00     0.029 A 
ATOM     42  C   UNL A   1      41.653  25.787  28.118  1.00  0.00     0.049 A 
ATOM     43  H   UNL A   1      42.412  27.472  29.079  1.00  0.00     0.167 HD
ATOM     44  C   UNL A   1      43.892  31.096  31.023  1.00  0.00     0.037 A 
ATOM     45  C   UNL A   1      42.667  24.910  28.000  1.00  0.00     0.037 A 
ATOM     46  C   UNL A   1      45.019  30.200  30.998  1.00  0.00     0.049 A 
ATOM     47  C   UNL A   1      44.025  25.277  28.528  1.00  0.00     0.074 A 
ATOM     48  C   UNL A   1      46.289  30.394  31.513  1.00  0.00     0.029 A 
ATOM     49  N   UNL A   1      45.011  28.938  30.423  1.00  0.00    -0.354 N 
ATOM     50  N   UNL A   1      44.407  26.374  29.135  1.00  0.00    -0.248 NA
ATOM     51  C   UNL A   1      45.092  24.282  28.353  1.00  0.00     0.031 C 
ATOM     52  C   UNL A   1      47.059  29.264  31.217  1.00  0.00     0.029 A 
ATOM     53  C   UNL A   1      46.258  28.349  30.553  1.00  0.00     0.049 A 
ATOM     54  H   UNL A   1      44.232  28.522  29.987  1.00  0.00     0.167 HD
ATOM     55  C   UNL A   1      45.750  26.191  29.440  1.00  0.00     0.074 A 
ATOM     56  C   UNL A   1      46.113  24.874  28.957  1.00  0.00     0.031 C 
ATOM     57  C   UNL A   1      46.602  27.036  30.069  1.00  0.00     0.037 A 
BRANCH  44  58
ATOM     58  C   UNL A   1      44.070  32.463  31.617  1.00  0.00     0.057 A 
ATOM     59  C   UNL A   1      44.483  33.556  30.843  1.00  0.00     0.134 A 
ATOM     60  C   UNL A   1      43.832  32.690  32.977  1.00  0.00     0.134 A 
ATOM     61  F   UNL A   1      44.741  33.403  29.536  1.00  0.00    -0.206 F 
ATOM     62  C   UNL A   1      44.691  34.815  31.409  1.00  0.00     0.040 A 
ATOM     63  C   UNL A   1      44.009  33.951  33.549  1.00  0.00     0.040 A 
ATOM     64  F   UNL A   1      43.427  31.690  33.776  1.00  0.00    -0.206 F 
ATOM     65  C   UNL A   1      44.450  35.015  32.766  1.00  0.00     0.006 A 
ENDBRANCH  44  58
BRANCH  45  66
ATOM     66  C   UNL A   1      42.423  23.579  27.396  1.00  0.00     0.057 A 
ATOM     67  C   UNL A   1      42.077  22.485  28.199  1.00  0.00     0.134 A 
ATOM     68  C   UNL A   1      42.510  23.366  26.015  1.00  0.00     0.134 A 
ATOM     69  F   UNL A   1      41.996  22.625  29.530  1.00  0.00    -0.206 F 
ATOM     70  C   UNL A   1      41.835  21.224  27.651  1.00  0.00     0.040 A 
ATOM     71  C   UNL A   1      42.251  22.116  25.453  1.00  0.00     0.040 A 
ATOM     72  F   UNL A   1      42.830  24.377  25.195  1.00  0.00    -0.206 F 
ATOM     73  C   UNL A   1      41.916  21.040  26.273  1.00  0.00     0.006 A 
ENDBRANCH  45  66
BRANCH  57  74
ATOM     74  C   UNL A   1      48.001  26.549  30.298  1.00  0.00     0.057 A 
ATOM     75  C   UNL A   1      48.357  25.835  31.449  1.00  0.00     0.134 A 
ATOM     76  C   UNL A   1      48.998  26.771  29.340  1.00  0.00     0.134 A 
ATOM     77  F   UNL A   1      47.452  25.603  32.412  1.00  0.00    -0.206 F 
ATOM     78  C   UNL A   1      49.661  25.376  31.648  1.00  0.00     0.040 A 
ATOM     79  C   UNL A   1      50.298  26.297  29.516  1.00  0.00     0.040 A 
ATOM     80  F   UNL A   1      48.721  27.443  28.212  1.00  0.00    -0.206 F 
ATOM     81  C   UNL A   1      50.634  25.602  30.676  1.00  0.00     0.006 A 
ENDBRANCH  57  74
ENDBRANCH  31  32
ENDBRANCH  23  26
ENDBRANCH  21  22
ENDBRANCH  20  21
ENDBRANCH   1  20
TORSDOF 14
ENDMDL
