MODEL 1
REMARK VINA RESULT:     -12.2      0.000      0.000
REMARK SMILES O=C(NCCCNC(=O)[C@@]1(Cl)C=CC=C(c2ccccc2)[C@H]1Cl)c1ccc(-c2c3nc(c(-c4c(F)cccc4F)c4ccc([nH]4)c(-c4c(F)cccc4F)c4nc(c(-c5c(F)cccc5F)c5ccc2[nH]5)C=C4)C=C3)cc1
REMARK SMILES IDX 4 1 3 2 1 3 2 4 24 6 25 7 77 8 26 9 76 10 27 11 28 12 29 13
REMARK SMILES IDX 70 14 30 15 75 16 69 17 71 18 31 19 74 20 68 21 67 22 32 24
REMARK SMILES IDX 58 25 41 26 57 27 42 28 45 29 56 30 72 31 43 32 44 33 55 35
REMARK SMILES IDX 73 36 46 37 33 38 34 39 39 40 35 41 36 42 38 43 40 44 37 45
REMARK SMILES IDX 59 46 60 47 65 48 61 49 62 50 64 51 66 52 63 53 47 54 48 55
REMARK SMILES IDX 53 56 49 57 50 58 52 59 54 60 51 61 5 62 6 63 7 64 8 65 9 67
REMARK SMILES IDX 10 68 11 69 12 70 22 71 13 72 15 73 23 74 14 75 16 76 17 77
REMARK SMILES IDX 21 78 18 79 20 80 19 81
REMARK H PARENT 3 5 71 23 45 34 7 66
REMARK Flexibility Score: inf
ROOT
ATOM      1  C   UNL A   1      38.854  20.079  25.764  1.00  0.00     0.118 C 
ENDROOT
BRANCH   1   2
ATOM      2  N   UNL A   1      40.017  19.199  25.817  1.00  0.00    -0.352 N 
ATOM      3  O   UNL A   1      42.211  18.678  25.901  1.00  0.00    -0.269 OA
ATOM      4  C   UNL A   1      41.325  19.504  26.096  1.00  0.00     0.251 C 
ATOM      5  H   UNL A   1      39.836  18.251  25.624  1.00  0.00     0.163 HD
BRANCH   4   6
ATOM      6  C   UNL A   1      41.659  20.844  26.619  1.00  0.00     0.039 A 
ATOM      7  C   UNL A   1      41.981  21.876  25.736  1.00  0.00     0.014 A 
ATOM      8  C   UNL A   1      41.655  21.070  27.998  1.00  0.00     0.014 A 
ATOM      9  C   UNL A   1      42.461  23.078  26.228  1.00  0.00     0.010 A 
ATOM     10  C   UNL A   1      42.025  22.324  28.491  1.00  0.00     0.010 A 
ATOM     11  C   UNL A   1      42.452  23.330  27.610  1.00  0.00    -0.014 A 
BRANCH  11  12
ATOM     12  C   UNL A   1      42.786  24.694  28.081  1.00  0.00     0.031 A 
ATOM     13  C   UNL A   1      41.722  25.720  28.342  1.00  0.00     0.074 A 
ATOM     14  C   UNL A   1      44.084  24.980  28.305  1.00  0.00     0.049 A 
ATOM     15  N   UNL A   1      41.858  26.951  28.765  1.00  0.00    -0.248 NA
ATOM     16  C   UNL A   1      40.327  25.324  28.091  1.00  0.00     0.031 C 
ATOM     17  C   UNL A   1      45.201  24.058  28.069  1.00  0.00     0.029 A 
ATOM     18  N   UNL A   1      44.686  26.106  28.798  1.00  0.00    -0.354 N 
ATOM     19  C   UNL A   1      40.578  27.485  28.807  1.00  0.00     0.074 A 
ATOM     20  C   UNL A   1      39.674  26.449  28.355  1.00  0.00     0.031 C 
ATOM     21  C   UNL A   1      46.341  24.634  28.469  1.00  0.00     0.029 A 
ATOM     22  C   UNL A   1      46.050  25.989  28.913  1.00  0.00     0.049 A 
ATOM     23  H   UNL A   1      44.190  26.919  29.047  1.00  0.00     0.167 HD
ATOM     24  C   UNL A   1      40.199  28.728  29.191  1.00  0.00     0.037 A 
ATOM     25  C   UNL A   1      46.973  26.885  29.307  1.00  0.00     0.037 A 
ATOM     26  C   UNL A   1      41.109  29.741  29.664  1.00  0.00     0.049 A 
ATOM     27  C   UNL A   1      46.519  28.253  29.713  1.00  0.00     0.074 A 
ATOM     28  C   UNL A   1      40.816  31.014  30.122  1.00  0.00     0.029 A 
ATOM     29  N   UNL A   1      42.486  29.596  29.738  1.00  0.00    -0.354 N 
ATOM     30  N   UNL A   1      45.301  28.732  29.778  1.00  0.00    -0.248 NA
ATOM     31  C   UNL A   1      47.567  29.210  30.088  1.00  0.00     0.031 C 
ATOM     32  C   UNL A   1      42.020  31.656  30.430  1.00  0.00     0.029 A 
ATOM     33  C   UNL A   1      43.059  30.768  30.208  1.00  0.00     0.049 A 
ATOM     34  H   UNL A   1      42.983  28.783  29.493  1.00  0.00     0.167 HD
ATOM     35  C   UNL A   1      45.433  30.043  30.208  1.00  0.00     0.074 A 
ATOM     36  C   UNL A   1      46.848  30.274  30.417  1.00  0.00     0.031 C 
ATOM     37  C   UNL A   1      44.470  30.976  30.405  1.00  0.00     0.037 A 
BRANCH  24  38
ATOM     38  C   UNL A   1      38.743  29.080  29.106  1.00  0.00     0.057 A 
ATOM     39  C   UNL A   1      37.894  29.001  30.216  1.00  0.00     0.134 A 
ATOM     40  C   UNL A   1      38.206  29.589  27.916  1.00  0.00     0.134 A 
ATOM     41  F   UNL A   1      38.343  28.513  31.382  1.00  0.00    -0.206 F 
ATOM     42  C   UNL A   1      36.560  29.408  30.144  1.00  0.00     0.040 A 
ATOM     43  C   UNL A   1      36.880  30.020  27.838  1.00  0.00     0.040 A 
ATOM     44  F   UNL A   1      38.967  29.699  26.816  1.00  0.00    -0.206 F 
ATOM     45  C   UNL A   1      36.053  29.929  28.955  1.00  0.00     0.006 A 
ENDBRANCH  24  38
BRANCH  25  46
ATOM     46  C   UNL A   1      48.410  26.519  29.301  1.00  0.00     0.057 A 
ATOM     47  C   UNL A   1      48.999  25.867  30.390  1.00  0.00     0.134 A 
ATOM     48  C   UNL A   1      49.230  26.810  28.202  1.00  0.00     0.134 A 
ATOM     49  F   UNL A   1      48.270  25.573  31.476  1.00  0.00    -0.206 F 
ATOM     50  C   UNL A   1      50.355  25.535  30.394  1.00  0.00     0.040 A 
ATOM     51  C   UNL A   1      50.578  26.456  28.181  1.00  0.00     0.040 A 
ATOM     52  F   UNL A   1      48.721  27.424  27.123  1.00  0.00    -0.206 F 
ATOM     53  C   UNL A   1      51.147  25.825  29.285  1.00  0.00     0.006 A 
ENDBRANCH  25  46
BRANCH  37  54
ATOM     54  C   UNL A   1      44.925  32.320  30.884  1.00  0.00     0.057 A 
ATOM     55  C   UNL A   1      45.233  33.353  29.990  1.00  0.00     0.134 A 
ATOM     56  C   UNL A   1      45.047  32.587  32.254  1.00  0.00     0.134 A 
ATOM     57  F   UNL A   1      45.154  33.152  28.666  1.00  0.00    -0.206 F 
ATOM     58  C   UNL A   1      45.669  34.599  30.442  1.00  0.00     0.040 A 
ATOM     59  C   UNL A   1      45.457  33.836  32.717  1.00  0.00     0.040 A 
ATOM     60  F   UNL A   1      44.761  31.640  33.160  1.00  0.00    -0.206 F 
ATOM     61  C   UNL A   1      45.776  34.844  31.809  1.00  0.00     0.006 A 
ENDBRANCH  37  54
ENDBRANCH  11  12
ENDBRANCH   4   6
ENDBRANCH   1   2
BRANCH   1  62
ATOM     62  C   UNL A   1      37.686  19.465  25.008  1.00  0.00     0.042 C 
BRANCH  62  63
ATOM     63  C   UNL A   1      36.684  20.491  24.499  1.00  0.00     0.117 C 
BRANCH  63  64
ATOM     64  N   UNL A   1      35.569  20.628  25.421  1.00  0.00    -0.354 N 
ATOM     65  C   UNL A   1      35.134  21.736  26.093  1.00  0.00     0.247 C 
ATOM     66  H   UNL A   1      35.053  19.805  25.586  1.00  0.00     0.163 HD
ATOM     67  O   UNL A   1      34.758  21.534  27.252  1.00  0.00    -0.273 OA
BRANCH  65  68
ATOM     68  C   UNL A   1      35.152  23.151  25.448  1.00  0.00     0.161 C 
ATOM     69  Cl  UNL A   1      36.854  23.761  25.714  1.00  0.00    -0.102 Cl
ATOM     70  C   UNL A   1      34.924  23.163  23.940  1.00  0.00     0.008 C 
ATOM     71  C   UNL A   1      34.154  24.113  26.189  1.00  0.00     0.146 C 
ATOM     72  C   UNL A   1      34.366  24.202  23.305  1.00  0.00    -0.002 C 
ATOM     73  C   UNL A   1      33.793  25.345  25.363  1.00  0.00    -0.020 C 
ATOM     74  Cl  UNL A   1      32.545  23.314  26.530  1.00  0.00    -0.115 Cl
ATOM     75  C   UNL A   1      33.927  25.366  24.025  1.00  0.00     0.006 C 
BRANCH  73  76
ATOM     76  C   UNL A   1      33.168  26.495  26.028  1.00  0.00    -0.021 A 
ATOM     77  C   UNL A   1      33.935  27.653  26.237  1.00  0.00     0.008 A 
ATOM     78  C   UNL A   1      31.843  26.462  26.467  1.00  0.00     0.008 A 
ATOM     79  C   UNL A   1      33.387  28.762  26.876  1.00  0.00     0.001 A 
ATOM     80  C   UNL A   1      31.297  27.575  27.113  1.00  0.00     0.001 A 
ATOM     81  C   UNL A   1      32.067  28.722  27.317  1.00  0.00     0.000 A 
ENDBRANCH  73  76
ENDBRANCH  65  68
ENDBRANCH  63  64
ENDBRANCH  62  63
ENDBRANCH   1  62
TORSDOF 11
ENDMDL
MODEL 2
REMARK VINA RESULT:     -12.2      0.244      6.430
REMARK SMILES O=C(NCCCNC(=O)[C@@]1(Cl)C=CC=C(c2ccccc2)[C@H]1Cl)c1ccc(-c2c3nc(c(-c4c(F)cccc4F)c4ccc([nH]4)c(-c4c(F)cccc4F)c4nc(c(-c5c(F)cccc5F)c5ccc2[nH]5)C=C4)C=C3)cc1
REMARK SMILES IDX 4 1 3 2 1 3 2 4 24 6 25 7 77 8 26 9 76 10 27 11 28 12 29 13
REMARK SMILES IDX 70 14 30 15 75 16 69 17 71 18 31 19 74 20 68 21 67 22 32 24
REMARK SMILES IDX 58 25 41 26 57 27 42 28 45 29 56 30 72 31 43 32 44 33 55 35
REMARK SMILES IDX 73 36 46 37 33 38 34 39 39 40 35 41 36 42 38 43 40 44 37 45
REMARK SMILES IDX 59 46 60 47 65 48 61 49 62 50 64 51 66 52 63 53 47 54 48 55
REMARK SMILES IDX 53 56 49 57 50 58 52 59 54 60 51 61 5 62 6 63 7 64 8 65 9 67
REMARK SMILES IDX 10 68 11 69 12 70 22 71 13 72 15 73 23 74 14 75 16 76 17 77
REMARK SMILES IDX 21 78 18 79 20 80 19 81
REMARK H PARENT 3 5 71 23 45 34 7 66
REMARK Flexibility Score: inf
ROOT
ATOM      1  C   UNL A   1      39.016  20.094  25.758  1.00  0.00     0.118 C 
ENDROOT
BRANCH   1   2
ATOM      2  N   UNL A   1      40.150  19.181  25.852  1.00  0.00    -0.352 N 
ATOM      3  O   UNL A   1      42.326  18.592  25.961  1.00  0.00    -0.269 OA
ATOM      4  C   UNL A   1      41.468  19.455  26.118  1.00  0.00     0.251 C 
ATOM      5  H   UNL A   1      39.938  18.230  25.702  1.00  0.00     0.163 HD
BRANCH   4   6
ATOM      6  C   UNL A   1      41.845  20.806  26.579  1.00  0.00     0.039 A 
ATOM      7  C   UNL A   1      41.772  21.123  27.936  1.00  0.00     0.014 A 
ATOM      8  C   UNL A   1      42.271  21.761  25.652  1.00  0.00     0.014 A 
ATOM      9  C   UNL A   1      41.958  22.433  28.347  1.00  0.00     0.010 A 
ATOM     10  C   UNL A   1      42.575  23.053  26.087  1.00  0.00     0.010 A 
ATOM     11  C   UNL A   1      42.399  23.404  27.434  1.00  0.00    -0.014 A 
BRANCH  11  12
ATOM     12  C   UNL A   1      42.775  24.741  27.952  1.00  0.00     0.031 A 
ATOM     13  C   UNL A   1      44.209  25.126  28.171  1.00  0.00     0.074 A 
ATOM     14  C   UNL A   1      41.783  25.622  28.190  1.00  0.00     0.049 A 
ATOM     15  N   UNL A   1      44.693  26.260  28.609  1.00  0.00    -0.248 NA
ATOM     16  C   UNL A   1      45.233  24.114  27.869  1.00  0.00     0.031 C 
ATOM     17  C   UNL A   1      40.352  25.343  28.024  1.00  0.00     0.029 A 
ATOM     18  N   UNL A   1      41.818  26.929  28.596  1.00  0.00    -0.354 N 
ATOM     19  C   UNL A   1      46.070  26.094  28.661  1.00  0.00     0.074 A 
ATOM     20  C   UNL A   1      46.347  24.743  28.221  1.00  0.00     0.031 C 
ATOM     21  C   UNL A   1      39.653  26.458  28.271  1.00  0.00     0.029 A 
ATOM     22  C   UNL A   1      40.574  27.505  28.688  1.00  0.00     0.049 A 
ATOM     23  H   UNL A   1      42.653  27.409  28.801  1.00  0.00     0.167 HD
ATOM     24  C   UNL A   1      47.010  26.992  29.042  1.00  0.00     0.037 A 
ATOM     25  C   UNL A   1      40.209  28.735  29.092  1.00  0.00     0.037 A 
ATOM     26  C   UNL A   1      46.720  28.342  29.453  1.00  0.00     0.049 A 
ATOM     27  C   UNL A   1      41.275  29.697  29.518  1.00  0.00     0.074 A 
ATOM     28  C   UNL A   1      47.608  29.342  29.811  1.00  0.00     0.029 A 
ATOM     29  N   UNL A   1      45.446  28.880  29.563  1.00  0.00    -0.354 N 
ATOM     30  N   UNL A   1      42.576  29.534  29.531  1.00  0.00    -0.248 NA
ATOM     31  C   UNL A   1      40.824  31.009  29.996  1.00  0.00     0.031 C 
ATOM     32  C   UNL A   1      46.869  30.472  30.180  1.00  0.00     0.029 A 
ATOM     33  C   UNL A   1      45.524  30.190  30.009  1.00  0.00     0.049 A 
ATOM     34  H   UNL A   1      44.611  28.402  29.355  1.00  0.00     0.167 HD
ATOM     35  C   UNL A   1      43.101  30.724  30.011  1.00  0.00     0.074 A 
ATOM     36  C   UNL A   1      41.979  31.610  30.249  1.00  0.00     0.031 C 
ATOM     37  C   UNL A   1      44.394  31.052  30.242  1.00  0.00     0.037 A 
BRANCH  24  38
ATOM     38  C   UNL A   1      48.445  26.550  29.052  1.00  0.00     0.057 A 
ATOM     39  C   UNL A   1      49.297  26.775  27.965  1.00  0.00     0.134 A 
ATOM     40  C   UNL A   1      49.000  25.971  30.201  1.00  0.00     0.134 A 
ATOM     41  F   UNL A   1      48.826  27.316  26.832  1.00  0.00    -0.206 F 
ATOM     42  C   UNL A   1      50.650  26.433  28.017  1.00  0.00     0.040 A 
ATOM     43  C   UNL A   1      50.355  25.644  30.272  1.00  0.00     0.040 A 
ATOM     44  F   UNL A   1      48.239  25.735  31.281  1.00  0.00    -0.206 F 
ATOM     45  C   UNL A   1      51.185  25.875  29.177  1.00  0.00     0.006 A 
ENDBRANCH  24  38
BRANCH  25  46
ATOM     46  C   UNL A   1      38.773  29.103  29.142  1.00  0.00     0.057 A 
ATOM     47  C   UNL A   1      38.037  28.999  30.327  1.00  0.00     0.134 A 
ATOM     48  C   UNL A   1      38.103  29.571  28.004  1.00  0.00     0.134 A 
ATOM     49  F   UNL A   1      38.619  28.545  31.446  1.00  0.00    -0.206 F 
ATOM     50  C   UNL A   1      36.682  29.330  30.375  1.00  0.00     0.040 A 
ATOM     51  C   UNL A   1      36.758  29.934  28.045  1.00  0.00     0.040 A 
ATOM     52  F   UNL A   1      38.757  29.703  26.840  1.00  0.00    -0.206 F 
ATOM     53  C   UNL A   1      36.040  29.804  29.232  1.00  0.00     0.006 A 
ENDBRANCH  25  46
BRANCH  37  54
ATOM     54  C   UNL A   1      44.655  32.432  30.763  1.00  0.00     0.057 A 
ATOM     55  C   UNL A   1      44.732  32.695  32.137  1.00  0.00     0.134 A 
ATOM     56  C   UNL A   1      44.842  33.505  29.883  1.00  0.00     0.134 A 
ATOM     57  F   UNL A   1      44.542  31.712  33.029  1.00  0.00    -0.206 F 
ATOM     58  C   UNL A   1      44.961  33.985  32.617  1.00  0.00     0.040 A 
ATOM     59  C   UNL A   1      45.098  34.793  30.352  1.00  0.00     0.040 A 
ATOM     60  F   UNL A   1      44.786  33.314  28.556  1.00  0.00    -0.206 F 
ATOM     61  C   UNL A   1      45.150  35.037  31.723  1.00  0.00     0.006 A 
ENDBRANCH  37  54
ENDBRANCH  11  12
ENDBRANCH   4   6
ENDBRANCH   1   2
BRANCH   1  62
ATOM     62  C   UNL A   1      37.840  19.496  25.001  1.00  0.00     0.042 C 
BRANCH  62  63
ATOM     63  C   UNL A   1      36.855  20.536  24.488  1.00  0.00     0.117 C 
BRANCH  63  64
ATOM     64  N   UNL A   1      35.703  20.638  25.369  1.00  0.00    -0.354 N 
ATOM     65  C   UNL A   1      35.190  21.740  25.994  1.00  0.00     0.247 C 
ATOM     66  H   UNL A   1      35.225  19.794  25.539  1.00  0.00     0.163 HD
ATOM     67  O   UNL A   1      34.785  21.548  27.146  1.00  0.00    -0.273 OA
BRANCH  65  68
ATOM     68  C   UNL A   1      35.157  23.136  25.312  1.00  0.00     0.161 C 
ATOM     69  Cl  UNL A   1      36.872  23.756  25.441  1.00  0.00    -0.102 Cl
ATOM     70  C   UNL A   1      34.824  23.106  23.824  1.00  0.00     0.008 C 
ATOM     71  C   UNL A   1      34.211  24.117  26.095  1.00  0.00     0.146 C 
ATOM     72  C   UNL A   1      34.219  24.127  23.201  1.00  0.00    -0.002 C 
ATOM     73  C   UNL A   1      33.788  25.324  25.263  1.00  0.00    -0.020 C 
ATOM     74  Cl  UNL A   1      32.632  23.324  26.569  1.00  0.00    -0.115 Cl
ATOM     75  C   UNL A   1      33.828  25.309  23.918  1.00  0.00     0.006 C 
BRANCH  73  76
ATOM     76  C   UNL A   1      33.208  26.491  25.939  1.00  0.00    -0.021 A 
ATOM     77  C   UNL A   1      34.028  27.602  26.192  1.00  0.00     0.008 A 
ATOM     78  C   UNL A   1      31.872  26.519  26.344  1.00  0.00     0.008 A 
ATOM     79  C   UNL A   1      33.523  28.725  26.842  1.00  0.00     0.001 A 
ATOM     80  C   UNL A   1      31.369  27.646  27.002  1.00  0.00     0.001 A 
ATOM     81  C   UNL A   1      32.192  28.745  27.250  1.00  0.00     0.000 A 
ENDBRANCH  73  76
ENDBRANCH  65  68
ENDBRANCH  63  64
ENDBRANCH  62  63
ENDBRANCH   1  62
TORSDOF 11
ENDMDL
MODEL 3
REMARK VINA RESULT:     -12.1      4.030      8.832
REMARK SMILES O=C(NCCCNC(=O)[C@@]1(Cl)C=CC=C(c2ccccc2)[C@H]1Cl)c1ccc(-c2c3nc(c(-c4c(F)cccc4F)c4ccc([nH]4)c(-c4c(F)cccc4F)c4nc(c(-c5c(F)cccc5F)c5ccc2[nH]5)C=C4)C=C3)cc1
REMARK SMILES IDX 4 1 3 2 1 3 2 4 24 6 25 7 77 8 26 9 76 10 27 11 28 12 29 13
REMARK SMILES IDX 70 14 30 15 75 16 69 17 71 18 31 19 74 20 68 21 67 22 32 24
REMARK SMILES IDX 58 25 41 26 57 27 42 28 45 29 56 30 72 31 43 32 44 33 55 35
REMARK SMILES IDX 73 36 46 37 33 38 34 39 39 40 35 41 36 42 38 43 40 44 37 45
REMARK SMILES IDX 59 46 60 47 65 48 61 49 62 50 64 51 66 52 63 53 47 54 48 55
REMARK SMILES IDX 53 56 49 57 50 58 52 59 54 60 51 61 5 62 6 63 7 64 8 65 9 67
REMARK SMILES IDX 10 68 11 69 12 70 22 71 13 72 15 73 23 74 14 75 16 76 17 77
REMARK SMILES IDX 21 78 18 79 20 80 19 81
REMARK H PARENT 3 5 71 23 45 34 7 66
REMARK Flexibility Score: inf
ROOT
ATOM      1  C   UNL A   1      32.685  32.632  27.000  1.00  0.00     0.118 C 
ENDROOT
BRANCH   1   2
ATOM      2  N   UNL A   1      32.459  33.930  27.626  1.00  0.00    -0.352 N 
ATOM      3  O   UNL A   1      32.690  35.535  29.197  1.00  0.00    -0.269 OA
ATOM      4  C   UNL A   1      33.137  34.526  28.660  1.00  0.00     0.251 C 
ATOM      5  H   UNL A   1      31.712  34.454  27.254  1.00  0.00     0.163 HD
BRANCH   4   6
ATOM      6  C   UNL A   1      34.404  33.931  29.130  1.00  0.00     0.039 A 
ATOM      7  C   UNL A   1      35.594  34.201  28.452  1.00  0.00     0.014 A 
ATOM      8  C   UNL A   1      34.403  33.097  30.251  1.00  0.00     0.014 A 
ATOM      9  C   UNL A   1      36.747  33.510  28.786  1.00  0.00     0.010 A 
ATOM     10  C   UNL A   1      35.595  32.494  30.661  1.00  0.00     0.010 A 
ATOM     11  C   UNL A   1      36.771  32.678  29.916  1.00  0.00    -0.014 A 
BRANCH  11  12
ATOM     12  C   UNL A   1      38.070  32.115  30.352  1.00  0.00     0.031 A 
ATOM     13  C   UNL A   1      38.905  32.783  31.405  1.00  0.00     0.074 A 
ATOM     14  C   UNL A   1      38.469  30.955  29.795  1.00  0.00     0.049 A 
ATOM     15  N   UNL A   1      40.058  32.406  31.896  1.00  0.00    -0.248 NA
ATOM     16  C   UNL A   1      38.391  34.037  31.979  1.00  0.00     0.031 C 
ATOM     17  C   UNL A   1      37.738  30.229  28.749  1.00  0.00     0.029 A 
ATOM     18  N   UNL A   1      39.563  30.168  30.036  1.00  0.00    -0.354 N 
ATOM     19  C   UNL A   1      40.421  33.382  32.813  1.00  0.00     0.074 A 
ATOM     20  C   UNL A   1      39.372  34.379  32.805  1.00  0.00     0.031 C 
ATOM     21  C   UNL A   1      38.372  29.081  28.481  1.00  0.00     0.029 A 
ATOM     22  C   UNL A   1      39.593  29.026  29.273  1.00  0.00     0.049 A 
ATOM     23  H   UNL A   1      40.260  30.399  30.692  1.00  0.00     0.167 HD
ATOM     24  C   UNL A   1      41.531  33.434  33.589  1.00  0.00     0.037 A 
ATOM     25  C   UNL A   1      40.516  28.051  29.197  1.00  0.00     0.037 A 
ATOM     26  C   UNL A   1      42.555  32.420  33.605  1.00  0.00     0.049 A 
ATOM     27  C   UNL A   1      41.736  28.148  30.060  1.00  0.00     0.074 A 
ATOM     28  C   UNL A   1      43.692  32.358  34.392  1.00  0.00     0.029 A 
ATOM     29  N   UNL A   1      42.565  31.292  32.797  1.00  0.00    -0.354 N 
ATOM     30  N   UNL A   1      42.049  29.061  30.946  1.00  0.00    -0.248 NA
ATOM     31  C   UNL A   1      42.737  27.085  29.907  1.00  0.00     0.031 C 
ATOM     32  C   UNL A   1      44.415  31.216  34.028  1.00  0.00     0.029 A 
ATOM     33  C   UNL A   1      43.705  30.543  33.047  1.00  0.00     0.049 A 
ATOM     34  H   UNL A   1      41.868  31.059  32.143  1.00  0.00     0.167 HD
ATOM     35  C   UNL A   1      43.278  28.683  31.462  1.00  0.00     0.074 A 
ATOM     36  C   UNL A   1      43.639  27.440  30.811  1.00  0.00     0.031 C 
ATOM     37  C   UNL A   1      44.045  29.311  32.385  1.00  0.00     0.037 A 
BRANCH  24  38
ATOM     38  C   UNL A   1      41.716  34.629  34.478  1.00  0.00     0.057 A 
ATOM     39  C   UNL A   1      41.320  34.624  35.820  1.00  0.00     0.134 A 
ATOM     40  C   UNL A   1      42.380  35.768  34.004  1.00  0.00     0.134 A 
ATOM     41  F   UNL A   1      40.671  33.568  36.333  1.00  0.00    -0.206 F 
ATOM     42  C   UNL A   1      41.571  35.712  36.659  1.00  0.00     0.040 A 
ATOM     43  C   UNL A   1      42.655  36.854  34.838  1.00  0.00     0.040 A 
ATOM     44  F   UNL A   1      42.792  35.836  32.728  1.00  0.00    -0.206 F 
ATOM     45  C   UNL A   1      42.249  36.827  36.170  1.00  0.00     0.006 A 
ENDBRANCH  24  38
BRANCH  25  46
ATOM     46  C   UNL A   1      40.330  26.927  28.247  1.00  0.00     0.057 A 
ATOM     47  C   UNL A   1      39.519  25.833  28.565  1.00  0.00     0.134 A 
ATOM     48  C   UNL A   1      40.958  26.924  26.994  1.00  0.00     0.134 A 
ATOM     49  F   UNL A   1      38.902  25.772  29.754  1.00  0.00    -0.206 F 
ATOM     50  C   UNL A   1      39.354  24.767  27.679  1.00  0.00     0.040 A 
ATOM     51  C   UNL A   1      40.777  25.881  26.087  1.00  0.00     0.040 A 
ATOM     52  F   UNL A   1      41.740  27.951  26.626  1.00  0.00    -0.206 F 
ATOM     53  C   UNL A   1      39.980  24.791  26.434  1.00  0.00     0.006 A 
ENDBRANCH  25  46
BRANCH  37  54
ATOM     54  C   UNL A   1      45.338  28.647  32.749  1.00  0.00     0.057 A 
ATOM     55  C   UNL A   1      45.409  27.688  33.767  1.00  0.00     0.134 A 
ATOM     56  C   UNL A   1      46.520  28.963  32.068  1.00  0.00     0.134 A 
ATOM     57  F   UNL A   1      44.314  27.357  34.467  1.00  0.00    -0.206 F 
ATOM     58  C   UNL A   1      46.618  27.082  34.111  1.00  0.00     0.040 A 
ATOM     59  C   UNL A   1      47.729  28.345  32.387  1.00  0.00     0.040 A 
ATOM     60  F   UNL A   1      46.515  29.871  31.080  1.00  0.00    -0.206 F 
ATOM     61  C   UNL A   1      47.781  27.407  33.415  1.00  0.00     0.006 A 
ENDBRANCH  37  54
ENDBRANCH  11  12
ENDBRANCH   4   6
ENDBRANCH   1   2
BRANCH   1  62
ATOM     62  C   UNL A   1      31.399  31.989  26.501  1.00  0.00     0.042 C 
BRANCH  62  63
ATOM     63  C   UNL A   1      31.455  30.470  26.463  1.00  0.00     0.117 C 
BRANCH  63  64
ATOM     64  N   UNL A   1      31.745  29.995  25.120  1.00  0.00    -0.354 N 
ATOM     65  C   UNL A   1      32.684  29.090  24.708  1.00  0.00     0.247 C 
ATOM     66  H   UNL A   1      31.187  30.380  24.405  1.00  0.00     0.163 HD
ATOM     67  O   UNL A   1      33.248  29.367  23.644  1.00  0.00    -0.273 OA
BRANCH  65  68
ATOM     68  C   UNL A   1      33.035  27.828  25.544  1.00  0.00     0.161 C 
ATOM     69  Cl  UNL A   1      34.097  28.448  26.897  1.00  0.00    -0.102 Cl
ATOM     70  C   UNL A   1      31.840  27.157  26.211  1.00  0.00     0.008 C 
ATOM     71  C   UNL A   1      33.866  26.805  24.686  1.00  0.00     0.146 C 
ATOM     72  C   UNL A   1      31.807  25.844  26.479  1.00  0.00    -0.002 C 
ATOM     73  C   UNL A   1      33.861  25.396  25.273  1.00  0.00    -0.020 C 
ATOM     74  Cl  UNL A   1      33.177  26.593  23.005  1.00  0.00    -0.115 Cl
ATOM     75  C   UNL A   1      32.905  24.986  26.126  1.00  0.00     0.006 C 
BRANCH  73  76
ATOM     76  C   UNL A   1      34.854  24.422  24.804  1.00  0.00    -0.021 A 
ATOM     77  C   UNL A   1      35.917  24.078  25.654  1.00  0.00     0.008 A 
ATOM     78  C   UNL A   1      34.776  23.842  23.537  1.00  0.00     0.008 A 
ATOM     79  C   UNL A   1      36.889  23.169  25.246  1.00  0.00     0.001 A 
ATOM     80  C   UNL A   1      35.756  22.934  23.126  1.00  0.00     0.001 A 
ATOM     81  C   UNL A   1      36.810  22.598  23.979  1.00  0.00     0.000 A 
ENDBRANCH  73  76
ENDBRANCH  65  68
ENDBRANCH  63  64
ENDBRANCH  62  63
ENDBRANCH   1  62
TORSDOF 11
ENDMDL
