MODEL 1
REMARK VINA RESULT:     -10.2      0.000      0.000
REMARK SMILES Cc1ccsc1[C@@H]1[NH2+][C@@H](C(=O)NCCCNC(=O)c2ccc(-c3c4nc(c(-c5c(F)cccc5F)c5ccc([nH]5)c(-c5c(F)cccc5F)c5nc(c(-c6c(F)cccc6F)c6ccc3[nH]6)C=C5)C=C4)cc2)CS1
REMARK SMILES IDX 14 1 13 2 12 3 10 4 11 5 9 7 7 8 8 9 74 10 73 13 6 14 1 15
REMARK SMILES IDX 2 16 3 17 4 18 5 19 15 20 16 21 17 22 18 24 19 25 20 26
REMARK SMILES IDX 72 27 21 28 71 29 22 30 23 31 24 32 65 33 25 34 70 35 64 36
REMARK SMILES IDX 66 37 26 38 69 39 63 40 62 41 27 43 53 44 36 45 52 46 37 47
REMARK SMILES IDX 40 48 51 49 67 50 38 51 39 52 50 54 68 55 41 56 28 57 29 58
REMARK SMILES IDX 34 59 30 60 31 61 33 62 35 63 32 64 54 65 55 66 60 67 56 68
REMARK SMILES IDX 57 69 59 70 61 71 58 72 42 73 43 74 48 75 44 76 45 77 47 78
REMARK SMILES IDX 49 79 46 80
REMARK H PARENT 12 6 8 11 8 12 16 23 66 42 40 53
REMARK Flexibility Score: inf
ROOT
ATOM      1  C   UNL A   1      33.429  33.655  28.166  1.00  0.00     0.042 C 
ENDROOT
BRANCH   1   2
ATOM      2  C   UNL A   1      33.800  34.943  28.900  1.00  0.00     0.118 C 
BRANCH   2   3
ATOM      3  N   UNL A   1      33.015  35.089  30.107  1.00  0.00    -0.351 N 
ATOM      4  C   UNL A   1      33.359  35.184  31.415  1.00  0.00     0.279 C 
ATOM      5  O   UNL A   1      32.410  35.258  32.199  1.00  0.00    -0.268 OA
ATOM      6  H   UNL A   1      32.044  35.127  29.946  1.00  0.00     0.163 HD
BRANCH   4   7
ATOM      7  C   UNL A   1      34.839  35.274  31.867  1.00  0.00     0.283 C 
ATOM      8  C   UNL A   1      36.023  33.167  32.238  1.00  0.00     0.284 C 
ATOM      9  N   UNL A   1      35.721  34.227  31.255  1.00  0.00    -0.320 N 
ATOM     10  S   UNL A   1      34.945  33.398  33.671  1.00  0.00    -0.087 SA
ATOM     11  H   UNL A   1      35.245  33.815  30.452  1.00  0.00     0.348 HD
ATOM     12  H   UNL A   1      36.595  34.662  30.958  1.00  0.00     0.348 HD
ATOM     13  C   UNL A   1      34.891  35.179  33.392  1.00  0.00     0.151 C 
BRANCH   8  14
ATOM     14  C   UNL A   1      37.508  33.082  32.612  1.00  0.00     0.075 A 
ATOM     15  C   UNL A   1      37.720  30.603  33.316  1.00  0.00     0.046 C 
ATOM     16  C   UNL A   1      38.214  32.003  33.151  1.00  0.00    -0.030 A 
ATOM     17  C   UNL A   1      39.515  32.401  33.621  1.00  0.00     0.015 A 
ATOM     18  C   UNL A   1      39.806  33.711  33.345  1.00  0.00     0.065 A 
ATOM     19  S   UNL A   1      38.568  34.445  32.449  1.00  0.00    -0.141 S 
ENDBRANCH   8  14
ENDBRANCH   4   7
ENDBRANCH   2   3
ENDBRANCH   1   2
BRANCH   1  20
ATOM     20  C   UNL A   1      34.415  32.497  28.346  1.00  0.00     0.118 C 
BRANCH  20  21
ATOM     21  N   UNL A   1      33.846  31.194  28.033  1.00  0.00    -0.352 N 
ATOM     22  C   UNL A   1      34.457  29.970  27.909  1.00  0.00     0.251 C 
ATOM     23  H   UNL A   1      32.872  31.191  27.888  1.00  0.00     0.163 HD
ATOM     24  O   UNL A   1      33.808  29.007  27.501  1.00  0.00    -0.269 OA
BRANCH  22  25
ATOM     25  C   UNL A   1      35.893  29.800  28.226  1.00  0.00     0.039 A 
ATOM     26  C   UNL A   1      36.251  29.405  29.519  1.00  0.00     0.014 A 
ATOM     27  C   UNL A   1      36.886  30.036  27.272  1.00  0.00     0.014 A 
ATOM     28  C   UNL A   1      37.593  29.170  29.829  1.00  0.00     0.010 A 
ATOM     29  C   UNL A   1      38.215  29.731  27.561  1.00  0.00     0.010 A 
ATOM     30  C   UNL A   1      38.583  29.284  28.840  1.00  0.00    -0.014 A 
BRANCH  30  31
ATOM     31  C   UNL A   1      39.995  28.905  29.120  1.00  0.00     0.031 A 
ATOM     32  C   UNL A   1      40.935  29.872  29.784  1.00  0.00     0.074 A 
ATOM     33  C   UNL A   1      40.449  27.701  28.716  1.00  0.00     0.049 A 
ATOM     34  N   UNL A   1      42.210  29.734  30.053  1.00  0.00    -0.248 NA
ATOM     35  C   UNL A   1      40.377  31.173  30.181  1.00  0.00     0.031 C 
ATOM     36  C   UNL A   1      39.654  26.686  28.022  1.00  0.00     0.029 A 
ATOM     37  N   UNL A   1      41.694  27.130  28.821  1.00  0.00    -0.354 N 
ATOM     38  C   UNL A   1      42.607  30.929  30.639  1.00  0.00     0.074 A 
ATOM     39  C   UNL A   1      41.451  31.800  30.639  1.00  0.00     0.031 C 
ATOM     40  C   UNL A   1      40.420  25.611  27.785  1.00  0.00     0.029 A 
ATOM     41  C   UNL A   1      41.773  25.874  28.268  1.00  0.00     0.049 A 
ATOM     42  H   UNL A   1      42.458  27.577  29.250  1.00  0.00     0.167 HD
ATOM     43  C   UNL A   1      43.817  31.263  31.150  1.00  0.00     0.037 A 
ATOM     44  C   UNL A   1      42.817  25.031  28.150  1.00  0.00     0.037 A 
ATOM     45  C   UNL A   1      44.964  30.391  31.158  1.00  0.00     0.049 A 
ATOM     46  C   UNL A   1      44.157  25.438  28.698  1.00  0.00     0.074 A 
ATOM     47  C   UNL A   1      46.217  30.622  31.701  1.00  0.00     0.029 A 
ATOM     48  N   UNL A   1      45.003  29.128  30.589  1.00  0.00    -0.354 N 
ATOM     49  N   UNL A   1      44.497  26.545  29.313  1.00  0.00    -0.248 NA
ATOM     50  C   UNL A   1      45.257  24.476  28.540  1.00  0.00     0.031 C 
ATOM     51  C   UNL A   1      47.030  29.521  31.410  1.00  0.00     0.029 A 
ATOM     52  C   UNL A   1      46.266  28.578  30.741  1.00  0.00     0.049 A 
ATOM     53  H   UNL A   1      44.245  28.684  30.143  1.00  0.00     0.167 HD
ATOM     54  C   UNL A   1      45.839  26.401  29.640  1.00  0.00     0.074 A 
ATOM     55  C   UNL A   1      46.246  25.093  29.170  1.00  0.00     0.031 C 
ATOM     56  C   UNL A   1      46.661  27.273  30.273  1.00  0.00     0.037 A 
BRANCH  43  57
ATOM     57  C   UNL A   1      43.965  32.637  31.742  1.00  0.00     0.057 A 
ATOM     58  C   UNL A   1      43.630  32.908  33.076  1.00  0.00     0.134 A 
ATOM     59  C   UNL A   1      44.491  33.691  30.983  1.00  0.00     0.134 A 
ATOM     60  F   UNL A   1      43.115  31.947  33.856  1.00  0.00    -0.206 F 
ATOM     61  C   UNL A   1      43.786  34.183  33.624  1.00  0.00     0.040 A 
ATOM     62  C   UNL A   1      44.680  34.962  31.529  1.00  0.00     0.040 A 
ATOM     63  F   UNL A   1      44.843  33.499  29.703  1.00  0.00    -0.206 F 
ATOM     64  C   UNL A   1      44.319  35.213  32.851  1.00  0.00     0.006 A 
ENDBRANCH  43  57
BRANCH  44  65
ATOM     65  C   UNL A   1      42.638  23.710  27.495  1.00  0.00     0.057 A 
ATOM     66  C   UNL A   1      42.757  23.569  26.107  1.00  0.00     0.134 A 
ATOM     67  C   UNL A   1      42.331  22.560  28.235  1.00  0.00     0.134 A 
ATOM     68  F   UNL A   1      43.030  24.636  25.342  1.00  0.00    -0.206 F 
ATOM     69  C   UNL A   1      42.555  22.341  25.476  1.00  0.00     0.040 A 
ATOM     70  C   UNL A   1      42.155  21.320  27.619  1.00  0.00     0.040 A 
ATOM     71  F   UNL A   1      42.212  22.625  29.568  1.00  0.00    -0.206 F 
ATOM     72  C   UNL A   1      42.257  21.211  26.234  1.00  0.00     0.006 A 
ENDBRANCH  44  65
BRANCH  56  73
ATOM     73  C   UNL A   1      48.074  26.829  30.528  1.00  0.00     0.057 A 
ATOM     74  C   UNL A   1      48.422  26.064  31.649  1.00  0.00     0.134 A 
ATOM     75  C   UNL A   1      49.093  27.144  29.620  1.00  0.00     0.134 A 
ATOM     76  F   UNL A   1      47.496  25.739  32.565  1.00  0.00    -0.206 F 
ATOM     77  C   UNL A   1      49.737  25.652  31.871  1.00  0.00     0.040 A 
ATOM     78  C   UNL A   1      50.406  26.711  29.815  1.00  0.00     0.040 A 
ATOM     79  F   UNL A   1      48.829  27.865  28.520  1.00  0.00    -0.206 F 
ATOM     80  C   UNL A   1      50.732  25.970  30.948  1.00  0.00     0.006 A 
ENDBRANCH  56  73
ENDBRANCH  30  31
ENDBRANCH  22  25
ENDBRANCH  20  21
ENDBRANCH   1  20
TORSDOF 11
ENDMDL
MODEL 2
REMARK VINA RESULT:     -10.0      4.372      9.676
REMARK SMILES Cc1ccsc1[C@@H]1[NH2+][C@@H](C(=O)NCCCNC(=O)c2ccc(-c3c4nc(c(-c5c(F)cccc5F)c5ccc([nH]5)c(-c5c(F)cccc5F)c5nc(c(-c6c(F)cccc6F)c6ccc3[nH]6)C=C5)C=C4)cc2)CS1
REMARK SMILES IDX 14 1 13 2 12 3 10 4 11 5 9 7 7 8 8 9 74 10 73 13 6 14 1 15
REMARK SMILES IDX 2 16 3 17 4 18 5 19 15 20 16 21 17 22 18 24 19 25 20 26
REMARK SMILES IDX 72 27 21 28 71 29 22 30 23 31 24 32 65 33 25 34 70 35 64 36
REMARK SMILES IDX 66 37 26 38 69 39 63 40 62 41 27 43 53 44 36 45 52 46 37 47
REMARK SMILES IDX 40 48 51 49 67 50 38 51 39 52 50 54 68 55 41 56 28 57 29 58
REMARK SMILES IDX 34 59 30 60 31 61 33 62 35 63 32 64 54 65 55 66 60 67 56 68
REMARK SMILES IDX 57 69 59 70 61 71 58 72 42 73 43 74 48 75 44 76 45 77 47 78
REMARK SMILES IDX 49 79 46 80
REMARK H PARENT 12 6 8 11 8 12 16 23 66 42 40 53
REMARK Flexibility Score: inf
ROOT
ATOM      1  C   UNL A   1      37.566  19.867  24.967  1.00  0.00     0.042 C 
ENDROOT
BRANCH   1   2
ATOM      2  C   UNL A   1      36.454  20.901  24.796  1.00  0.00     0.118 C 
BRANCH   2   3
ATOM      3  N   UNL A   1      35.669  21.013  26.006  1.00  0.00    -0.351 N 
ATOM      4  C   UNL A   1      34.709  21.889  26.395  1.00  0.00     0.279 C 
ATOM      5  O   UNL A   1      34.272  21.710  27.535  1.00  0.00    -0.268 OA
ATOM      6  H   UNL A   1      35.871  20.320  26.676  1.00  0.00     0.163 HD
BRANCH   4   7
ATOM      7  C   UNL A   1      34.157  22.975  25.437  1.00  0.00     0.283 C 
ATOM      8  C   UNL A   1      31.997  23.970  26.005  1.00  0.00     0.284 C 
ATOM      9  N   UNL A   1      33.462  24.102  26.141  1.00  0.00    -0.320 N 
ATOM     10  S   UNL A   1      31.634  22.334  25.328  1.00  0.00    -0.087 SA
ATOM     11  H   UNL A   1      33.711  24.085  27.130  1.00  0.00     0.348 HD
ATOM     12  H   UNL A   1      33.755  24.985  25.721  1.00  0.00     0.348 HD
ATOM     13  C   UNL A   1      33.205  22.310  24.442  1.00  0.00     0.151 C 
BRANCH   8  14
ATOM     14  C   UNL A   1      31.349  25.108  25.206  1.00  0.00     0.075 A 
ATOM     15  C   UNL A   1      31.726  27.123  26.781  1.00  0.00     0.046 C 
ATOM     16  C   UNL A   1      31.162  26.442  25.577  1.00  0.00    -0.030 A 
ATOM     17  C   UNL A   1      30.271  27.125  24.676  1.00  0.00     0.015 A 
ATOM     18  C   UNL A   1      29.891  26.351  23.611  1.00  0.00     0.065 A 
ATOM     19  S   UNL A   1      30.664  24.842  23.635  1.00  0.00    -0.141 S 
ENDBRANCH   8  14
ENDBRANCH   4   7
ENDBRANCH   2   3
ENDBRANCH   1   2
BRANCH   1  20
ATOM     20  C   UNL A   1      38.812  20.367  25.705  1.00  0.00     0.118 C 
BRANCH  20  21
ATOM     21  N   UNL A   1      39.898  19.398  25.737  1.00  0.00    -0.352 N 
ATOM     22  C   UNL A   1      41.219  19.564  26.073  1.00  0.00     0.251 C 
ATOM     23  H   UNL A   1      39.645  18.483  25.476  1.00  0.00     0.163 HD
ATOM     24  O   UNL A   1      42.010  18.637  25.900  1.00  0.00    -0.269 OA
BRANCH  22  25
ATOM     25  C   UNL A   1      41.713  20.853  26.608  1.00  0.00     0.039 A 
ATOM     26  C   UNL A   1      42.177  21.818  25.708  1.00  0.00     0.014 A 
ATOM     27  C   UNL A   1      41.736  21.115  27.981  1.00  0.00     0.014 A 
ATOM     28  C   UNL A   1      42.584  23.070  26.177  1.00  0.00     0.010 A 
ATOM     29  C   UNL A   1      42.073  22.388  28.439  1.00  0.00     0.010 A 
ATOM     30  C   UNL A   1      42.491  23.384  27.542  1.00  0.00    -0.014 A 
BRANCH  30  31
ATOM     31  C   UNL A   1      42.791  24.755  28.036  1.00  0.00     0.031 A 
ATOM     32  C   UNL A   1      44.191  25.144  28.425  1.00  0.00     0.074 A 
ATOM     33  C   UNL A   1      41.783  25.636  28.195  1.00  0.00     0.049 A 
ATOM     34  N   UNL A   1      44.625  26.273  28.929  1.00  0.00    -0.248 NA
ATOM     35  C   UNL A   1      45.237  24.127  28.244  1.00  0.00     0.031 C 
ATOM     36  C   UNL A   1      40.374  25.373  27.896  1.00  0.00     0.029 A 
ATOM     37  N   UNL A   1      41.786  26.930  28.655  1.00  0.00    -0.354 N 
ATOM     38  C   UNL A   1      45.988  26.098  29.133  1.00  0.00     0.074 A 
ATOM     39  C   UNL A   1      46.299  24.738  28.748  1.00  0.00     0.031 C 
ATOM     40  C   UNL A   1      39.654  26.474  28.157  1.00  0.00     0.029 A 
ATOM     41  C   UNL A   1      40.540  27.508  28.684  1.00  0.00     0.049 A 
ATOM     42  H   UNL A   1      42.604  27.400  28.938  1.00  0.00     0.167 HD
ATOM     43  C   UNL A   1      46.901  26.995  29.579  1.00  0.00     0.037 A 
ATOM     44  C   UNL A   1      40.148  28.729  29.100  1.00  0.00     0.037 A 
ATOM     45  C   UNL A   1      46.592  28.352  29.953  1.00  0.00     0.049 A 
ATOM     46  C   UNL A   1      41.177  29.694  29.619  1.00  0.00     0.074 A 
ATOM     47  C   UNL A   1      47.457  29.350  30.365  1.00  0.00     0.029 A 
ATOM     48  N   UNL A   1      45.317  28.899  29.968  1.00  0.00    -0.354 N 
ATOM     49  N   UNL A   1      42.472  29.537  29.740  1.00  0.00    -0.248 NA
ATOM     50  C   UNL A   1      40.688  31.010  30.057  1.00  0.00     0.031 C 
ATOM     51  C   UNL A   1      46.701  30.483  30.685  1.00  0.00     0.029 A 
ATOM     52  C   UNL A   1      45.370  30.211  30.412  1.00  0.00     0.049 A 
ATOM     53  H   UNL A   1      44.496  28.426  29.702  1.00  0.00     0.167 HD
ATOM     54  C   UNL A   1      42.956  30.740  30.238  1.00  0.00     0.074 A 
ATOM     55  C   UNL A   1      41.817  31.622  30.381  1.00  0.00     0.031 C 
ATOM     56  C   UNL A   1      44.230  31.083  30.548  1.00  0.00     0.037 A 
BRANCH  43  57
ATOM     57  C   UNL A   1      48.327  26.535  29.694  1.00  0.00     0.057 A 
ATOM     58  C   UNL A   1      49.260  26.756  28.671  1.00  0.00     0.134 A 
ATOM     59  C   UNL A   1      48.785  25.905  30.858  1.00  0.00     0.134 A 
ATOM     60  F   UNL A   1      48.887  27.348  27.527  1.00  0.00    -0.206 F 
ATOM     61  C   UNL A   1      50.588  26.340  28.791  1.00  0.00     0.040 A 
ATOM     62  C   UNL A   1      50.117  25.512  31.001  1.00  0.00     0.040 A 
ATOM     63  F   UNL A   1      47.949  25.672  31.881  1.00  0.00    -0.206 F 
ATOM     64  C   UNL A   1      51.021  25.722  29.963  1.00  0.00     0.006 A 
ENDBRANCH  43  57
BRANCH  44  65
ATOM     65  C   UNL A   1      38.714  29.114  29.031  1.00  0.00     0.057 A 
ATOM     66  C   UNL A   1      37.892  29.045  30.163  1.00  0.00     0.134 A 
ATOM     67  C   UNL A   1      38.128  29.548  27.835  1.00  0.00     0.134 A 
ATOM     68  F   UNL A   1      38.390  28.619  31.333  1.00  0.00    -0.206 F 
ATOM     69  C   UNL A   1      36.536  29.369  30.103  1.00  0.00     0.040 A 
ATOM     70  C   UNL A   1      36.780  29.903  27.768  1.00  0.00     0.040 A 
ATOM     71  F   UNL A   1      38.863  29.645  26.718  1.00  0.00    -0.206 F 
ATOM     72  C   UNL A   1      35.978  29.804  28.903  1.00  0.00     0.006 A 
ENDBRANCH  44  65
BRANCH  56  73
ATOM     73  C   UNL A   1      44.468  32.483  31.039  1.00  0.00     0.057 A 
ATOM     74  C   UNL A   1      44.713  33.547  30.162  1.00  0.00     0.134 A 
ATOM     75  C   UNL A   1      44.416  32.775  32.409  1.00  0.00     0.134 A 
ATOM     76  F   UNL A   1      44.790  33.335  28.839  1.00  0.00    -0.206 F 
ATOM     77  C   UNL A   1      44.925  34.845  30.631  1.00  0.00     0.040 A 
ATOM     78  C   UNL A   1      44.595  34.074  32.887  1.00  0.00     0.040 A 
ATOM     79  F   UNL A   1      44.175  31.805  33.305  1.00  0.00    -0.206 F 
ATOM     80  C   UNL A   1      44.859  35.112  31.997  1.00  0.00     0.006 A 
ENDBRANCH  56  73
ENDBRANCH  30  31
ENDBRANCH  22  25
ENDBRANCH  20  21
ENDBRANCH   1  20
TORSDOF 11
ENDMDL
MODEL 3
REMARK VINA RESULT:     -10.0      4.563      9.622
REMARK SMILES Cc1ccsc1[C@@H]1[NH2+][C@@H](C(=O)NCCCNC(=O)c2ccc(-c3c4nc(c(-c5c(F)cccc5F)c5ccc([nH]5)c(-c5c(F)cccc5F)c5nc(c(-c6c(F)cccc6F)c6ccc3[nH]6)C=C5)C=C4)cc2)CS1
REMARK SMILES IDX 14 1 13 2 12 3 10 4 11 5 9 7 7 8 8 9 74 10 73 13 6 14 1 15
REMARK SMILES IDX 2 16 3 17 4 18 5 19 15 20 16 21 17 22 18 24 19 25 20 26
REMARK SMILES IDX 72 27 21 28 71 29 22 30 23 31 24 32 65 33 25 34 70 35 64 36
REMARK SMILES IDX 66 37 26 38 69 39 63 40 62 41 27 43 53 44 36 45 52 46 37 47
REMARK SMILES IDX 40 48 51 49 67 50 38 51 39 52 50 54 68 55 41 56 28 57 29 58
REMARK SMILES IDX 34 59 30 60 31 61 33 62 35 63 32 64 54 65 55 66 60 67 56 68
REMARK SMILES IDX 57 69 59 70 61 71 58 72 42 73 43 74 48 75 44 76 45 77 47 78
REMARK SMILES IDX 49 79 46 80
REMARK H PARENT 12 6 8 11 8 12 16 23 66 42 40 53
REMARK Flexibility Score: inf
ROOT
ATOM      1  C   UNL A   1      37.716  19.573  25.000  1.00  0.00     0.042 C 
ENDROOT
BRANCH   1   2
ATOM      2  C   UNL A   1      36.689  20.662  24.691  1.00  0.00     0.118 C 
BRANCH   2   3
ATOM      3  N   UNL A   1      35.600  20.623  25.644  1.00  0.00    -0.351 N 
ATOM      4  C   UNL A   1      34.470  21.361  25.770  1.00  0.00     0.279 C 
ATOM      5  O   UNL A   1      33.769  21.078  26.744  1.00  0.00    -0.268 OA
ATOM      6  H   UNL A   1      35.700  19.926  26.332  1.00  0.00     0.163 HD
BRANCH   4   7
ATOM      7  C   UNL A   1      34.064  22.422  24.715  1.00  0.00     0.283 C 
ATOM      8  C   UNL A   1      34.146  24.767  25.401  1.00  0.00     0.284 C 
ATOM      9  N   UNL A   1      34.897  23.667  24.760  1.00  0.00    -0.320 N 
ATOM     10  S   UNL A   1      32.657  24.074  26.156  1.00  0.00    -0.087 SA
ATOM     11  H   UNL A   1      35.746  23.484  25.296  1.00  0.00     0.348 HD
ATOM     12  H   UNL A   1      35.137  23.941  23.807  1.00  0.00     0.348 HD
ATOM     13  C   UNL A   1      32.587  22.768  24.914  1.00  0.00     0.151 C 
BRANCH   8  14
ATOM     14  C   UNL A   1      33.850  25.939  24.456  1.00  0.00     0.075 A 
ATOM     15  C   UNL A   1      33.876  27.939  26.094  1.00  0.00     0.046 C 
ATOM     16  C   UNL A   1      33.654  27.287  24.769  1.00  0.00    -0.030 A 
ATOM     17  C   UNL A   1      33.126  28.021  23.650  1.00  0.00     0.015 A 
ATOM     18  C   UNL A   1      33.030  27.265  22.510  1.00  0.00     0.065 A 
ATOM     19  S   UNL A   1      33.653  25.706  22.749  1.00  0.00    -0.141 S 
ENDBRANCH   8  14
ENDBRANCH   4   7
ENDBRANCH   2   3
ENDBRANCH   1   2
BRANCH   1  20
ATOM     20  C   UNL A   1      38.962  20.048  25.754  1.00  0.00     0.118 C 
BRANCH  20  21
ATOM     21  N   UNL A   1      40.020  19.049  25.817  1.00  0.00    -0.352 N 
ATOM     22  C   UNL A   1      41.366  19.203  26.045  1.00  0.00     0.251 C 
ATOM     23  H   UNL A   1      39.724  18.122  25.674  1.00  0.00     0.163 HD
ATOM     24  O   UNL A   1      42.116  18.235  25.920  1.00  0.00    -0.269 OA
BRANCH  22  25
ATOM     25  C   UNL A   1      41.932  20.522  26.404  1.00  0.00     0.039 A 
ATOM     26  C   UNL A   1      42.340  21.378  25.376  1.00  0.00     0.014 A 
ATOM     27  C   UNL A   1      42.076  20.919  27.737  1.00  0.00     0.014 A 
ATOM     28  C   UNL A   1      42.814  22.657  25.681  1.00  0.00     0.010 A 
ATOM     29  C   UNL A   1      42.480  22.220  28.035  1.00  0.00     0.010 A 
ATOM     30  C   UNL A   1      42.843  23.108  27.010  1.00  0.00    -0.014 A 
BRANCH  30  31
ATOM     31  C   UNL A   1      43.215  24.512  27.337  1.00  0.00     0.031 A 
ATOM     32  C   UNL A   1      44.653  24.951  27.321  1.00  0.00     0.074 A 
ATOM     33  C   UNL A   1      42.254  25.380  27.711  1.00  0.00     0.049 A 
ATOM     34  N   UNL A   1      45.165  26.115  27.633  1.00  0.00    -0.248 NA
ATOM     35  C   UNL A   1      45.649  23.945  26.922  1.00  0.00     0.031 C 
ATOM     36  C   UNL A   1      40.826  25.071  27.810  1.00  0.00     0.029 A 
ATOM     37  N   UNL A   1      42.333  26.699  28.087  1.00  0.00    -0.354 N 
ATOM     38  C   UNL A   1      46.539  25.980  27.478  1.00  0.00     0.074 A 
ATOM     39  C   UNL A   1      46.785  24.606  27.095  1.00  0.00     0.031 C 
ATOM     40  C   UNL A   1      40.163  26.172  28.196  1.00  0.00     0.029 A 
ATOM     41  C   UNL A   1      41.119  27.252  28.416  1.00  0.00     0.049 A 
ATOM     42  H   UNL A   1      43.179  27.200  28.119  1.00  0.00     0.167 HD
ATOM     43  C   UNL A   1      47.505  26.920  27.620  1.00  0.00     0.037 A 
ATOM     44  C   UNL A   1      40.808  28.487  28.857  1.00  0.00     0.037 A 
ATOM     45  C   UNL A   1      47.258  28.290  27.992  1.00  0.00     0.049 A 
ATOM     46  C   UNL A   1      41.903  29.502  29.036  1.00  0.00     0.074 A 
ATOM     47  C   UNL A   1      48.167  29.328  28.109  1.00  0.00     0.029 A 
ATOM     48  N   UNL A   1      46.015  28.811  28.316  1.00  0.00    -0.354 N 
ATOM     49  N   UNL A   1      43.190  29.378  28.817  1.00  0.00    -0.248 NA
ATOM     50  C   UNL A   1      41.502  30.830  29.519  1.00  0.00     0.031 C 
ATOM     51  C   UNL A   1      47.483  30.462  28.560  1.00  0.00     0.029 A 
ATOM     52  C   UNL A   1      46.137  30.147  28.663  1.00  0.00     0.049 A 
ATOM     53  H   UNL A   1      45.169  28.307  28.302  1.00  0.00     0.167 HD
ATOM     54  C   UNL A   1      43.746  30.617  29.107  1.00  0.00     0.074 A 
ATOM     55  C   UNL A   1      42.654  31.483  29.502  1.00  0.00     0.031 C 
ATOM     56  C   UNL A   1      45.044  31.003  29.051  1.00  0.00     0.037 A 
BRANCH  43  57
ATOM     57  C   UNL A   1      48.927  26.496  27.376  1.00  0.00     0.057 A 
ATOM     58  C   UNL A   1      49.750  26.039  28.414  1.00  0.00     0.134 A 
ATOM     59  C   UNL A   1      49.464  26.502  26.082  1.00  0.00     0.134 A 
ATOM     60  F   UNL A   1      49.301  26.014  29.678  1.00  0.00    -0.206 F 
ATOM     61  C   UNL A   1      51.066  25.631  28.178  1.00  0.00     0.040 A 
ATOM     62  C   UNL A   1      50.767  26.068  25.830  1.00  0.00     0.040 A 
ATOM     63  F   UNL A   1      48.729  26.917  25.040  1.00  0.00    -0.206 F 
ATOM     64  C   UNL A   1      51.574  25.639  26.882  1.00  0.00     0.006 A 
ENDBRANCH  43  57
BRANCH  44  65
ATOM     65  C   UNL A   1      39.395  28.839  29.151  1.00  0.00     0.057 A 
ATOM     66  C   UNL A   1      38.576  29.419  28.174  1.00  0.00     0.134 A 
ATOM     67  C   UNL A   1      38.832  28.619  30.415  1.00  0.00     0.134 A 
ATOM     68  F   UNL A   1      39.062  29.672  26.950  1.00  0.00    -0.206 F 
ATOM     69  C   UNL A   1      37.258  29.788  28.449  1.00  0.00     0.040 A 
ATOM     70  C   UNL A   1      37.507  28.957  30.694  1.00  0.00     0.040 A 
ATOM     71  F   UNL A   1      39.561  28.059  31.392  1.00  0.00    -0.206 F 
ATOM     72  C   UNL A   1      36.720  29.552  29.712  1.00  0.00     0.006 A 
ENDBRANCH  44  65
BRANCH  56  73
ATOM     73  C   UNL A   1      45.353  32.434  29.390  1.00  0.00     0.057 A 
ATOM     74  C   UNL A   1      45.729  32.828  30.680  1.00  0.00     0.134 A 
ATOM     75  C   UNL A   1      45.307  33.425  28.400  1.00  0.00     0.134 A 
ATOM     76  F   UNL A   1      45.781  31.932  31.678  1.00  0.00    -0.206 F 
ATOM     77  C   UNL A   1      46.021  34.160  30.980  1.00  0.00     0.040 A 
ATOM     78  C   UNL A   1      45.626  34.754  28.681  1.00  0.00     0.040 A 
ATOM     79  F   UNL A   1      44.963  33.117  27.140  1.00  0.00    -0.206 F 
ATOM     80  C   UNL A   1      45.977  35.126  29.977  1.00  0.00     0.006 A 
ENDBRANCH  56  73
ENDBRANCH  30  31
ENDBRANCH  22  25
ENDBRANCH  20  21
ENDBRANCH   1  20
TORSDOF 11
ENDMDL
