MODEL 1
REMARK VINA RESULT:     -12.3      0.000      0.000
REMARK SMILES Cc1nsc(N(C)C(=O)c2ccc(=O)n(C)n2)c1C(=O)NCCCNC(=O)c1ccc(-c2c3nc(c(-c4c(F)cccc4F)c4ccc([nH]4)c(-c4c(F)cccc4F)c4nc(c(-c5c(F)cccc5F)c5ccc2[nH]5)C=C4)C=C3)cc1
REMARK SMILES IDX 22 1 21 2 19 3 20 4 18 6 1 7 2 8 3 9 4 10 5 11 6 12 7 13
REMARK SMILES IDX 8 14 9 15 10 16 11 17 17 18 12 19 15 20 13 21 16 22 14 23
REMARK SMILES IDX 23 24 24 25 25 26 26 27 27 29 28 30 29 31 81 32 30 33 80 34
REMARK SMILES IDX 31 35 32 36 33 37 74 38 34 39 79 40 73 41 75 42 35 43 78 44
REMARK SMILES IDX 72 45 71 46 36 48 62 49 45 50 61 51 46 52 49 53 60 54 76 55
REMARK SMILES IDX 47 56 48 57 59 59 77 60 50 61 37 62 38 63 43 64 39 65 40 66
REMARK SMILES IDX 42 67 44 68 41 69 63 70 64 71 69 72 65 73 66 74 68 75 70 76
REMARK SMILES IDX 67 77 51 78 52 79 57 80 53 81 54 82 56 83 58 84 55 85
REMARK H PARENT 21 5 25 28 75 47 49 58
REMARK Flexibility Score: inf
ROOT
ATOM      1  C   UNL A   1      33.624  28.036  26.854  1.00  0.00     0.118 C 
ENDROOT
BRANCH   1   2
ATOM      2  N   UNL A   1      32.210  27.799  26.671  1.00  0.00    -0.352 N 
ATOM      3  C   UNL A   1      31.599  26.642  26.208  1.00  0.00     0.256 C 
ATOM      4  O   UNL A   1      30.422  26.453  26.523  1.00  0.00    -0.269 OA
ATOM      5  H   UNL A   1      31.610  28.545  26.903  1.00  0.00     0.163 HD
BRANCH   3   6
ATOM      6  C   UNL A   1      32.318  25.691  25.351  1.00  0.00     0.097 A 
ATOM      7  C   UNL A   1      32.281  23.449  26.835  1.00  0.00     0.069 C 
ATOM      8  C   UNL A   1      32.626  24.283  25.641  1.00  0.00     0.066 A 
ATOM      9  N   UNL A   1      33.302  23.624  24.704  1.00  0.00    -0.195 NA
ATOM     10  S   UNL A   1      33.443  24.562  23.382  1.00  0.00    -0.017 S 
ATOM     11  C   UNL A   1      32.673  25.962  24.015  1.00  0.00     0.131 A 
BRANCH  11  12
ATOM     12  N   UNL A   1      32.556  27.069  23.129  1.00  0.00    -0.299 N 
ATOM     13  C   UNL A   1      33.420  28.256  23.221  1.00  0.00     0.154 C 
BRANCH  12  14
ATOM     14  C   UNL A   1      31.558  27.034  22.133  1.00  0.00     0.279 C 
ATOM     15  O   UNL A   1      31.587  26.326  21.127  1.00  0.00    -0.267 OA
BRANCH  14  16
ATOM     16  C   UNL A   1      30.253  27.826  22.376  1.00  0.00     0.149 A 
ATOM     17  C   UNL A   1      29.242  27.150  23.219  1.00  0.00     0.042 A 
ATOM     18  N   UNL A   1      30.091  29.011  21.863  1.00  0.00    -0.165 NA
ATOM     19  C   UNL A   1      28.134  27.831  23.514  1.00  0.00     0.076 A 
ATOM     20  N   UNL A   1      28.934  29.699  22.186  1.00  0.00    -0.232 N 
ATOM     21  C   UNL A   1      27.936  29.208  23.018  1.00  0.00     0.266 A 
ATOM     22  C   UNL A   1      28.785  31.035  21.642  1.00  0.00     0.178 C 
ATOM     23  O   UNL A   1      26.931  29.827  23.355  1.00  0.00    -0.268 OA
ENDBRANCH  14  16
ENDBRANCH  12  14
ENDBRANCH  11  12
ENDBRANCH   3   6
ENDBRANCH   1   2
BRANCH   1  24
ATOM     24  C   UNL A   1      34.152  29.439  27.086  1.00  0.00     0.042 C 
BRANCH  24  25
ATOM     25  C   UNL A   1      35.521  29.521  27.699  1.00  0.00     0.118 C 
BRANCH  25  26
ATOM     26  N   UNL A   1      35.576  29.722  29.147  1.00  0.00    -0.352 N 
ATOM     27  C   UNL A   1      36.614  29.347  29.989  1.00  0.00     0.251 C 
ATOM     28  H   UNL A   1      34.802  30.165  29.565  1.00  0.00     0.163 HD
ATOM     29  O   UNL A   1      36.478  29.328  31.210  1.00  0.00    -0.269 OA
BRANCH  27  30
ATOM     30  C   UNL A   1      37.895  28.954  29.370  1.00  0.00     0.039 A 
ATOM     31  C   UNL A   1      38.453  29.649  28.297  1.00  0.00     0.014 A 
ATOM     32  C   UNL A   1      38.591  27.914  29.978  1.00  0.00     0.014 A 
ATOM     33  C   UNL A   1      39.754  29.327  27.913  1.00  0.00     0.010 A 
ATOM     34  C   UNL A   1      39.935  27.791  29.780  1.00  0.00     0.010 A 
ATOM     35  C   UNL A   1      40.496  28.415  28.685  1.00  0.00    -0.014 A 
BRANCH  35  36
ATOM     36  C   UNL A   1      41.882  28.106  28.381  1.00  0.00     0.031 A 
ATOM     37  C   UNL A   1      42.079  26.874  27.587  1.00  0.00     0.074 A 
ATOM     38  C   UNL A   1      42.914  28.921  28.685  1.00  0.00     0.049 A 
ATOM     39  N   UNL A   1      42.426  25.721  28.045  1.00  0.00    -0.248 NA
ATOM     40  C   UNL A   1      41.699  26.869  26.169  1.00  0.00     0.031 C 
ATOM     41  C   UNL A   1      42.914  30.300  29.189  1.00  0.00     0.029 A 
ATOM     42  N   UNL A   1      44.239  28.654  28.556  1.00  0.00    -0.354 N 
ATOM     43  C   UNL A   1      42.518  24.880  26.944  1.00  0.00     0.074 A 
ATOM     44  C   UNL A   1      41.892  25.584  25.853  1.00  0.00     0.031 C 
ATOM     45  C   UNL A   1      44.165  30.810  29.124  1.00  0.00     0.029 A 
ATOM     46  C   UNL A   1      45.076  29.742  28.760  1.00  0.00     0.049 A 
ATOM     47  H   UNL A   1      44.580  27.758  28.333  1.00  0.00     0.167 HD
ATOM     48  C   UNL A   1      43.314  23.777  26.988  1.00  0.00     0.037 A 
ATOM     49  C   UNL A   1      46.425  29.748  28.643  1.00  0.00     0.037 A 
ATOM     50  C   UNL A   1      43.709  23.477  28.346  1.00  0.00     0.049 A 
ATOM     51  C   UNL A   1      46.882  28.342  28.786  1.00  0.00     0.074 A 
ATOM     52  C   UNL A   1      43.029  23.175  29.510  1.00  0.00     0.029 A 
ATOM     53  N   UNL A   1      44.965  23.874  28.744  1.00  0.00    -0.354 N 
ATOM     54  N   UNL A   1      46.806  27.671  29.903  1.00  0.00    -0.248 NA
ATOM     55  C   UNL A   1      46.959  27.533  27.579  1.00  0.00     0.031 C 
ATOM     56  C   UNL A   1      43.728  23.880  30.537  1.00  0.00     0.029 A 
ATOM     57  C   UNL A   1      44.829  24.507  29.954  1.00  0.00     0.049 A 
ATOM     58  H   UNL A   1      45.805  23.729  28.252  1.00  0.00     0.167 HD
ATOM     59  C   UNL A   1      46.384  26.403  29.529  1.00  0.00     0.074 A 
ATOM     60  C   UNL A   1      46.573  26.354  28.079  1.00  0.00     0.031 C 
ATOM     61  C   UNL A   1      45.656  25.617  30.376  1.00  0.00     0.037 A 
BRANCH  48  62
ATOM     62  C   UNL A   1      44.054  23.206  25.806  1.00  0.00     0.057 A 
ATOM     63  C   UNL A   1      45.058  23.889  25.092  1.00  0.00     0.134 A 
ATOM     64  C   UNL A   1      43.989  21.820  25.572  1.00  0.00     0.134 A 
ATOM     65  F   UNL A   1      45.287  25.198  25.245  1.00  0.00    -0.206 F 
ATOM     66  C   UNL A   1      45.962  23.236  24.251  1.00  0.00     0.040 A 
ATOM     67  C   UNL A   1      44.921  21.150  24.772  1.00  0.00     0.040 A 
ATOM     68  F   UNL A   1      43.070  21.060  26.187  1.00  0.00    -0.206 F 
ATOM     69  C   UNL A   1      45.921  21.858  24.119  1.00  0.00     0.006 A 
ENDBRANCH  48  62
BRANCH  49  70
ATOM     70  C   UNL A   1      47.297  30.825  28.131  1.00  0.00     0.057 A 
ATOM     71  C   UNL A   1      48.196  31.499  28.977  1.00  0.00     0.134 A 
ATOM     72  C   UNL A   1      47.069  31.413  26.879  1.00  0.00     0.134 A 
ATOM     73  F   UNL A   1      48.433  31.063  30.223  1.00  0.00    -0.206 F 
ATOM     74  C   UNL A   1      48.810  32.701  28.612  1.00  0.00     0.040 A 
ATOM     75  C   UNL A   1      47.678  32.618  26.501  1.00  0.00     0.040 A 
ATOM     76  F   UNL A   1      46.199  30.866  26.019  1.00  0.00    -0.206 F 
ATOM     77  C   UNL A   1      48.541  33.273  27.375  1.00  0.00     0.006 A 
ENDBRANCH  49  70
BRANCH  61  78
ATOM     78  C   UNL A   1      45.521  26.064  31.808  1.00  0.00     0.057 A 
ATOM     79  C   UNL A   1      46.483  25.650  32.736  1.00  0.00     0.134 A 
ATOM     80  C   UNL A   1      44.419  26.769  32.317  1.00  0.00     0.134 A 
ATOM     81  F   UNL A   1      47.536  24.920  32.336  1.00  0.00    -0.206 F 
ATOM     82  C   UNL A   1      46.368  25.935  34.099  1.00  0.00     0.040 A 
ATOM     83  C   UNL A   1      44.307  27.091  33.674  1.00  0.00     0.040 A 
ATOM     84  F   UNL A   1      43.396  27.121  31.530  1.00  0.00    -0.206 F 
ATOM     85  C   UNL A   1      45.284  26.670  34.572  1.00  0.00     0.006 A 
ENDBRANCH  61  78
ENDBRANCH  35  36
ENDBRANCH  27  30
ENDBRANCH  25  26
ENDBRANCH  24  25
ENDBRANCH   1  24
TORSDOF 13
ENDMDL
MODEL 2
REMARK VINA RESULT:     -12.2      2.551      7.137
REMARK SMILES Cc1nsc(N(C)C(=O)c2ccc(=O)n(C)n2)c1C(=O)NCCCNC(=O)c1ccc(-c2c3nc(c(-c4c(F)cccc4F)c4ccc([nH]4)c(-c4c(F)cccc4F)c4nc(c(-c5c(F)cccc5F)c5ccc2[nH]5)C=C4)C=C3)cc1
REMARK SMILES IDX 22 1 21 2 19 3 20 4 18 6 1 7 2 8 3 9 4 10 5 11 6 12 7 13
REMARK SMILES IDX 8 14 9 15 10 16 11 17 17 18 12 19 15 20 13 21 16 22 14 23
REMARK SMILES IDX 23 24 24 25 25 26 26 27 27 29 28 30 29 31 81 32 30 33 80 34
REMARK SMILES IDX 31 35 32 36 33 37 74 38 34 39 79 40 73 41 75 42 35 43 78 44
REMARK SMILES IDX 72 45 71 46 36 48 62 49 45 50 61 51 46 52 49 53 60 54 76 55
REMARK SMILES IDX 47 56 48 57 59 59 77 60 50 61 37 62 38 63 43 64 39 65 40 66
REMARK SMILES IDX 42 67 44 68 41 69 63 70 64 71 69 72 65 73 66 74 68 75 70 76
REMARK SMILES IDX 67 77 51 78 52 79 57 80 53 81 54 82 56 83 58 84 55 85
REMARK H PARENT 21 5 25 28 75 47 49 58
REMARK Flexibility Score: inf
ROOT
ATOM      1  C   UNL A   1      32.471  30.067  25.866  1.00  0.00     0.118 C 
ENDROOT
BRANCH   1   2
ATOM      2  N   UNL A   1      33.274  29.684  24.727  1.00  0.00    -0.352 N 
ATOM      3  C   UNL A   1      32.917  28.834  23.688  1.00  0.00     0.256 C 
ATOM      4  O   UNL A   1      33.516  28.961  22.617  1.00  0.00    -0.269 OA
ATOM      5  H   UNL A   1      34.179  30.070  24.682  1.00  0.00     0.163 HD
BRANCH   3   6
ATOM      6  C   UNL A   1      31.885  27.805  23.865  1.00  0.00     0.097 A 
ATOM      7  C   UNL A   1      29.667  29.077  23.032  1.00  0.00     0.069 C 
ATOM      8  C   UNL A   1      30.447  27.924  23.584  1.00  0.00     0.066 A 
ATOM      9  N   UNL A   1      29.708  26.848  23.835  1.00  0.00    -0.195 NA
ATOM     10  S   UNL A   1      30.682  25.607  24.234  1.00  0.00    -0.017 S 
ATOM     11  C   UNL A   1      32.171  26.462  24.178  1.00  0.00     0.131 A 
BRANCH  11  12
ATOM     12  N   UNL A   1      33.342  25.702  24.452  1.00  0.00    -0.299 N 
ATOM     13  C   UNL A   1      34.032  25.744  25.751  1.00  0.00     0.154 C 
BRANCH  12  14
ATOM     14  C   UNL A   1      33.875  24.888  23.430  1.00  0.00     0.279 C 
ATOM     15  O   UNL A   1      34.019  25.232  22.258  1.00  0.00    -0.267 OA
BRANCH  14  16
ATOM     16  C   UNL A   1      34.464  23.514  23.820  1.00  0.00     0.149 A 
ATOM     17  C   UNL A   1      35.915  23.349  23.583  1.00  0.00     0.042 A 
ATOM     18  N   UNL A   1      33.704  22.587  24.328  1.00  0.00    -0.165 NA
ATOM     19  C   UNL A   1      36.475  22.204  23.976  1.00  0.00     0.076 A 
ATOM     20  N   UNL A   1      34.309  21.408  24.729  1.00  0.00    -0.232 N 
ATOM     21  C   UNL A   1      35.669  21.150  24.625  1.00  0.00     0.266 A 
ATOM     22  C   UNL A   1      33.458  20.400  25.332  1.00  0.00     0.178 C 
ATOM     23  O   UNL A   1      36.226  20.132  25.026  1.00  0.00    -0.268 OA
ENDBRANCH  14  16
ENDBRANCH  12  14
ENDBRANCH  11  12
ENDBRANCH   3   6
ENDBRANCH   1   2
BRANCH   1  24
ATOM     24  C   UNL A   1      33.083  30.159  27.250  1.00  0.00     0.042 C 
BRANCH  24  25
ATOM     25  C   UNL A   1      34.259  31.087  27.376  1.00  0.00     0.118 C 
BRANCH  25  26
ATOM     26  N   UNL A   1      34.271  31.969  28.543  1.00  0.00    -0.352 N 
ATOM     27  C   UNL A   1      35.177  31.927  29.595  1.00  0.00     0.251 C 
ATOM     28  H   UNL A   1      33.569  32.659  28.587  1.00  0.00     0.163 HD
ATOM     29  O   UNL A   1      34.974  32.534  30.643  1.00  0.00    -0.269 OA
BRANCH  27  30
ATOM     30  C   UNL A   1      36.396  31.114  29.421  1.00  0.00     0.039 A 
ATOM     31  C   UNL A   1      37.641  31.680  29.146  1.00  0.00     0.014 A 
ATOM     32  C   UNL A   1      36.275  29.748  29.653  1.00  0.00     0.014 A 
ATOM     33  C   UNL A   1      38.762  30.853  29.198  1.00  0.00     0.010 A 
ATOM     34  C   UNL A   1      37.381  29.013  29.964  1.00  0.00     0.010 A 
ATOM     35  C   UNL A   1      38.621  29.525  29.639  1.00  0.00    -0.014 A 
BRANCH  35  36
ATOM     36  C   UNL A   1      39.765  28.644  29.792  1.00  0.00     0.031 A 
ATOM     37  C   UNL A   1      40.232  28.476  31.186  1.00  0.00     0.074 A 
ATOM     38  C   UNL A   1      40.304  27.934  28.779  1.00  0.00     0.049 A 
ATOM     39  N   UNL A   1      41.232  29.079  31.732  1.00  0.00    -0.248 NA
ATOM     40  C   UNL A   1      39.418  27.690  32.122  1.00  0.00     0.031 C 
ATOM     41  C   UNL A   1      39.819  27.723  27.409  1.00  0.00     0.029 A 
ATOM     42  N   UNL A   1      41.443  27.194  28.806  1.00  0.00    -0.354 N 
ATOM     43  C   UNL A   1      41.313  28.592  33.029  1.00  0.00     0.074 A 
ATOM     44  C   UNL A   1      40.080  27.886  33.267  1.00  0.00     0.031 C 
ATOM     45  C   UNL A   1      40.546  26.750  26.812  1.00  0.00     0.029 A 
ATOM     46  C   UNL A   1      41.658  26.412  27.680  1.00  0.00     0.049 A 
ATOM     47  H   UNL A   1      42.067  27.211  29.567  1.00  0.00     0.167 HD
ATOM     48  C   UNL A   1      42.497  28.623  33.700  1.00  0.00     0.037 A 
ATOM     49  C   UNL A   1      42.688  25.556  27.485  1.00  0.00     0.037 A 
ATOM     50  C   UNL A   1      43.447  29.483  33.033  1.00  0.00     0.049 A 
ATOM     51  C   UNL A   1      43.784  25.976  28.396  1.00  0.00     0.074 A 
ATOM     52  C   UNL A   1      43.473  30.823  32.694  1.00  0.00     0.029 A 
ATOM     53  N   UNL A   1      44.401  28.885  32.242  1.00  0.00    -0.354 N 
ATOM     54  N   UNL A   1      44.451  27.088  28.252  1.00  0.00    -0.248 NA
ATOM     55  C   UNL A   1      43.800  25.409  29.736  1.00  0.00     0.031 C 
ATOM     56  C   UNL A   1      44.060  30.861  31.392  1.00  0.00     0.029 A 
ATOM     57  C   UNL A   1      44.424  29.559  31.047  1.00  0.00     0.049 A 
ATOM     58  H   UNL A   1      44.963  28.115  32.488  1.00  0.00     0.167 HD
ATOM     59  C   UNL A   1      44.593  27.586  29.540  1.00  0.00     0.074 A 
ATOM     60  C   UNL A   1      44.243  26.471  30.418  1.00  0.00     0.031 C 
ATOM     61  C   UNL A   1      44.698  28.928  29.775  1.00  0.00     0.037 A 
BRANCH  48  62
ATOM     62  C   UNL A   1      42.936  27.597  34.713  1.00  0.00     0.057 A 
ATOM     63  C   UNL A   1      43.459  26.331  34.385  1.00  0.00     0.134 A 
ATOM     64  C   UNL A   1      43.141  28.004  36.044  1.00  0.00     0.134 A 
ATOM     65  F   UNL A   1      43.398  25.823  33.149  1.00  0.00    -0.206 F 
ATOM     66  C   UNL A   1      44.178  25.553  35.296  1.00  0.00     0.040 A 
ATOM     67  C   UNL A   1      43.901  27.256  36.948  1.00  0.00     0.040 A 
ATOM     68  F   UNL A   1      42.683  29.188  36.480  1.00  0.00    -0.206 F 
ATOM     69  C   UNL A   1      44.435  26.031  36.570  1.00  0.00     0.006 A 
ENDBRANCH  48  62
BRANCH  49  70
ATOM     70  C   UNL A   1      42.677  24.249  26.794  1.00  0.00     0.057 A 
ATOM     71  C   UNL A   1      42.257  23.080  27.454  1.00  0.00     0.134 A 
ATOM     72  C   UNL A   1      43.345  24.064  25.576  1.00  0.00     0.134 A 
ATOM     73  F   UNL A   1      41.671  23.139  28.659  1.00  0.00    -0.206 F 
ATOM     74  C   UNL A   1      42.509  21.802  26.946  1.00  0.00     0.040 A 
ATOM     75  C   UNL A   1      43.605  22.789  25.057  1.00  0.00     0.040 A 
ATOM     76  F   UNL A   1      43.819  25.115  24.894  1.00  0.00    -0.206 F 
ATOM     77  C   UNL A   1      43.199  21.651  25.750  1.00  0.00     0.006 A 
ENDBRANCH  49  70
BRANCH  61  78
ATOM     78  C   UNL A   1      44.893  29.836  28.589  1.00  0.00     0.057 A 
ATOM     79  C   UNL A   1      46.192  30.214  28.236  1.00  0.00     0.134 A 
ATOM     80  C   UNL A   1      43.846  30.445  27.878  1.00  0.00     0.134 A 
ATOM     81  F   UNL A   1      47.245  29.722  28.908  1.00  0.00    -0.206 F 
ATOM     82  C   UNL A   1      46.444  31.136  27.217  1.00  0.00     0.040 A 
ATOM     83  C   UNL A   1      44.084  31.344  26.833  1.00  0.00     0.040 A 
ATOM     84  F   UNL A   1      42.567  30.229  28.206  1.00  0.00    -0.206 F 
ATOM     85  C   UNL A   1      45.389  31.696  26.501  1.00  0.00     0.006 A 
ENDBRANCH  61  78
ENDBRANCH  35  36
ENDBRANCH  27  30
ENDBRANCH  25  26
ENDBRANCH  24  25
ENDBRANCH   1  24
TORSDOF 13
ENDMDL
MODEL 3
REMARK VINA RESULT:     -12.1      1.925      6.179
REMARK SMILES Cc1nsc(N(C)C(=O)c2ccc(=O)n(C)n2)c1C(=O)NCCCNC(=O)c1ccc(-c2c3nc(c(-c4c(F)cccc4F)c4ccc([nH]4)c(-c4c(F)cccc4F)c4nc(c(-c5c(F)cccc5F)c5ccc2[nH]5)C=C4)C=C3)cc1
REMARK SMILES IDX 22 1 21 2 19 3 20 4 18 6 1 7 2 8 3 9 4 10 5 11 6 12 7 13
REMARK SMILES IDX 8 14 9 15 10 16 11 17 17 18 12 19 15 20 13 21 16 22 14 23
REMARK SMILES IDX 23 24 24 25 25 26 26 27 27 29 28 30 29 31 81 32 30 33 80 34
REMARK SMILES IDX 31 35 32 36 33 37 74 38 34 39 79 40 73 41 75 42 35 43 78 44
REMARK SMILES IDX 72 45 71 46 36 48 62 49 45 50 61 51 46 52 49 53 60 54 76 55
REMARK SMILES IDX 47 56 48 57 59 59 77 60 50 61 37 62 38 63 43 64 39 65 40 66
REMARK SMILES IDX 42 67 44 68 41 69 63 70 64 71 69 72 65 73 66 74 68 75 70 76
REMARK SMILES IDX 67 77 51 78 52 79 57 80 53 81 54 82 56 83 58 84 55 85
REMARK H PARENT 21 5 25 28 75 47 49 58
REMARK Flexibility Score: inf
ROOT
ATOM      1  C   UNL A   1      32.574  28.340  27.239  1.00  0.00     0.118 C 
ENDROOT
BRANCH   1   2
ATOM      2  N   UNL A   1      31.352  27.668  26.855  1.00  0.00    -0.352 N 
ATOM      3  C   UNL A   1      31.217  26.378  26.360  1.00  0.00     0.256 C 
ATOM      4  O   UNL A   1      30.124  25.824  26.502  1.00  0.00    -0.269 OA
ATOM      5  H   UNL A   1      30.521  28.184  26.958  1.00  0.00     0.163 HD
BRANCH   3   6
ATOM      6  C   UNL A   1      32.325  25.707  25.668  1.00  0.00     0.097 A 
ATOM      7  C   UNL A   1      32.608  23.451  27.103  1.00  0.00     0.069 C 
ATOM      8  C   UNL A   1      32.942  24.417  26.010  1.00  0.00     0.066 A 
ATOM      9  N   UNL A   1      33.945  24.020  25.232  1.00  0.00    -0.195 NA
ATOM     10  S   UNL A   1      34.083  25.040  23.971  1.00  0.00    -0.017 S 
ATOM     11  C   UNL A   1      32.850  26.143  24.436  1.00  0.00     0.131 A 
BRANCH  11  12
ATOM     12  N   UNL A   1      32.613  27.229  23.548  1.00  0.00    -0.299 N 
ATOM     13  C   UNL A   1      33.282  28.532  23.689  1.00  0.00     0.154 C 
BRANCH  12  14
ATOM     14  C   UNL A   1      31.683  27.057  22.502  1.00  0.00     0.279 C 
ATOM     15  O   UNL A   1      31.796  26.247  21.582  1.00  0.00    -0.267 OA
BRANCH  14  16
ATOM     16  C   UNL A   1      30.345  27.826  22.577  1.00  0.00     0.149 A 
ATOM     17  C   UNL A   1      29.270  27.166  23.350  1.00  0.00     0.042 A 
ATOM     18  N   UNL A   1      30.210  28.981  21.992  1.00  0.00    -0.165 NA
ATOM     19  C   UNL A   1      28.124  27.833  23.501  1.00  0.00     0.076 A 
ATOM     20  N   UNL A   1      29.013  29.654  22.164  1.00  0.00    -0.232 N 
ATOM     21  C   UNL A   1      27.949  29.178  22.919  1.00  0.00     0.266 A 
ATOM     22  C   UNL A   1      28.891  30.958  21.542  1.00  0.00     0.178 C 
ATOM     23  O   UNL A   1      26.903  29.788  23.125  1.00  0.00    -0.268 OA
ENDBRANCH  14  16
ENDBRANCH  12  14
ENDBRANCH  11  12
ENDBRANCH   3   6
ENDBRANCH   1   2
BRANCH   1  24
ATOM     24  C   UNL A   1      32.713  29.842  27.081  1.00  0.00     0.042 C 
BRANCH  24  25
ATOM     25  C   UNL A   1      34.069  30.402  27.407  1.00  0.00     0.118 C 
BRANCH  25  26
ATOM     26  N   UNL A   1      34.100  31.546  28.319  1.00  0.00    -0.352 N 
ATOM     27  C   UNL A   1      35.095  31.832  29.244  1.00  0.00     0.251 C 
ATOM     28  H   UNL A   1      33.342  32.173  28.272  1.00  0.00     0.163 HD
ATOM     29  O   UNL A   1      34.928  32.665  30.131  1.00  0.00    -0.269 OA
BRANCH  27  30
ATOM     30  C   UNL A   1      36.366  31.091  29.139  1.00  0.00     0.039 A 
ATOM     31  C   UNL A   1      37.607  31.727  29.126  1.00  0.00     0.014 A 
ATOM     32  C   UNL A   1      36.283  29.702  29.165  1.00  0.00     0.014 A 
ATOM     33  C   UNL A   1      38.751  30.936  29.227  1.00  0.00     0.010 A 
ATOM     34  C   UNL A   1      37.372  28.965  29.529  1.00  0.00     0.010 A 
ATOM     35  C   UNL A   1      38.617  29.555  29.459  1.00  0.00    -0.014 A 
BRANCH  35  36
ATOM     36  C   UNL A   1      39.772  28.698  29.655  1.00  0.00     0.031 A 
ATOM     37  C   UNL A   1      40.199  28.551  31.063  1.00  0.00     0.074 A 
ATOM     38  C   UNL A   1      40.354  27.989  28.665  1.00  0.00     0.049 A 
ATOM     39  N   UNL A   1      41.171  29.177  31.633  1.00  0.00    -0.248 NA
ATOM     40  C   UNL A   1      39.373  27.758  31.982  1.00  0.00     0.031 C 
ATOM     41  C   UNL A   1      39.915  27.756  27.283  1.00  0.00     0.029 A 
ATOM     42  N   UNL A   1      41.505  27.271  28.733  1.00  0.00    -0.354 N 
ATOM     43  C   UNL A   1      41.222  28.703  32.938  1.00  0.00     0.074 A 
ATOM     44  C   UNL A   1      39.995  27.976  33.145  1.00  0.00     0.031 C 
ATOM     45  C   UNL A   1      40.678  26.792  26.718  1.00  0.00     0.029 A 
ATOM     46  C   UNL A   1      41.768  26.483  27.622  1.00  0.00     0.049 A 
ATOM     47  H   UNL A   1      42.106  27.306  29.512  1.00  0.00     0.167 HD
ATOM     48  C   UNL A   1      42.384  28.762  33.643  1.00  0.00     0.037 A 
ATOM     49  C   UNL A   1      42.819  25.644  27.466  1.00  0.00     0.037 A 
ATOM     50  C   UNL A   1      43.338  29.635  32.997  1.00  0.00     0.049 A 
ATOM     51  C   UNL A   1      43.879  26.092  28.405  1.00  0.00     0.074 A 
ATOM     52  C   UNL A   1      43.350  30.971  32.646  1.00  0.00     0.029 A 
ATOM     53  N   UNL A   1      44.326  29.047  32.241  1.00  0.00    -0.354 N 
ATOM     54  N   UNL A   1      44.530  27.215  28.271  1.00  0.00    -0.248 NA
ATOM     55  C   UNL A   1      43.865  25.538  29.751  1.00  0.00     0.031 C 
ATOM     56  C   UNL A   1      43.975  31.008  31.362  1.00  0.00     0.029 A 
ATOM     57  C   UNL A   1      44.373  29.710  31.040  1.00  0.00     0.049 A 
ATOM     58  H   UNL A   1      44.895  28.290  32.511  1.00  0.00     0.167 HD
ATOM     59  C   UNL A   1      44.624  27.728  29.557  1.00  0.00     0.074 A 
ATOM     60  C   UNL A   1      44.268  26.614  30.436  1.00  0.00     0.031 C 
ATOM     61  C   UNL A   1      44.697  29.073  29.783  1.00  0.00     0.037 A 
BRANCH  48  62
ATOM     62  C   UNL A   1      42.811  27.754  34.678  1.00  0.00     0.057 A 
ATOM     63  C   UNL A   1      43.228  26.442  34.384  1.00  0.00     0.134 A 
ATOM     64  C   UNL A   1      43.120  28.204  35.975  1.00  0.00     0.134 A 
ATOM     65  F   UNL A   1      43.061  25.885  33.179  1.00  0.00    -0.206 F 
ATOM     66  C   UNL A   1      43.945  25.656  35.290  1.00  0.00     0.040 A 
ATOM     67  C   UNL A   1      43.880  27.445  36.871  1.00  0.00     0.040 A 
ATOM     68  F   UNL A   1      42.768  29.435  36.379  1.00  0.00    -0.206 F 
ATOM     69  C   UNL A   1      44.307  26.170  36.524  1.00  0.00     0.006 A 
ENDBRANCH  48  62
BRANCH  49  70
ATOM     70  C   UNL A   1      42.853  24.331  26.788  1.00  0.00     0.057 A 
ATOM     71  C   UNL A   1      42.421  23.163  27.440  1.00  0.00     0.134 A 
ATOM     72  C   UNL A   1      43.574  24.144  25.600  1.00  0.00     0.134 A 
ATOM     73  F   UNL A   1      41.784  23.224  28.620  1.00  0.00    -0.206 F 
ATOM     74  C   UNL A   1      42.709  21.884  26.956  1.00  0.00     0.040 A 
ATOM     75  C   UNL A   1      43.871  22.867  25.104  1.00  0.00     0.040 A 
ATOM     76  F   UNL A   1      44.063  25.195  24.928  1.00  0.00    -0.206 F 
ATOM     77  C   UNL A   1      43.450  21.731  25.790  1.00  0.00     0.006 A 
ENDBRANCH  49  70
BRANCH  61  78
ATOM     78  C   UNL A   1      44.911  29.974  28.595  1.00  0.00     0.057 A 
ATOM     79  C   UNL A   1      46.210  30.395  28.294  1.00  0.00     0.134 A 
ATOM     80  C   UNL A   1      43.875  30.537  27.832  1.00  0.00     0.134 A 
ATOM     81  F   UNL A   1      47.249  29.949  29.017  1.00  0.00    -0.206 F 
ATOM     82  C   UNL A   1      46.473  31.314  27.274  1.00  0.00     0.040 A 
ATOM     83  C   UNL A   1      44.127  31.432  26.786  1.00  0.00     0.040 A 
ATOM     84  F   UNL A   1      42.591  30.278  28.106  1.00  0.00    -0.206 F 
ATOM     85  C   UNL A   1      45.431  31.827  26.507  1.00  0.00     0.006 A 
ENDBRANCH  61  78
ENDBRANCH  35  36
ENDBRANCH  27  30
ENDBRANCH  25  26
ENDBRANCH  24  25
ENDBRANCH   1  24
TORSDOF 13
ENDMDL
