MODEL 1
REMARK VINA RESULT:     -11.0      0.000      0.000
REMARK SMILES Cc1oc(C[N@H+]2C[C@@H](C)[C@@H](C)C2)cc1C(=O)NCCCNC(=O)c1ccc(-c2c3nc(c(-c4c(F)cccc4F)c4ccc([nH]4)c(-c4c(F)cccc4F)c4nc(c(-c5c(F)cccc5F)c5ccc2[nH]5)C=C4)C=C3)cc1
REMARK SMILES IDX 19 1 18 2 17 3 15 4 16 5 14 7 1 8 2 9 3 10 4 11 13 12 5 13
REMARK SMILES IDX 6 14 7 15 12 16 8 18 10 19 9 20 11 21 20 22 21 23 22 24
REMARK SMILES IDX 23 26 24 27 25 28 77 29 26 30 76 31 27 32 28 33 29 34 70 35
REMARK SMILES IDX 30 36 75 37 69 38 71 39 31 40 74 41 68 42 67 43 32 45 58 46
REMARK SMILES IDX 41 47 57 48 42 49 45 50 56 51 72 52 43 53 44 54 55 56 73 57
REMARK SMILES IDX 46 58 33 59 34 60 39 61 35 62 36 63 38 64 40 65 37 66 59 67
REMARK SMILES IDX 60 68 65 69 61 70 62 71 64 72 66 73 63 74 47 75 48 76 53 77
REMARK SMILES IDX 49 78 50 79 52 80 54 81 51 82
REMARK H PARENT 17 6 6 17 21 25 71 44 45 55
REMARK Flexibility Score: inf
ROOT
ATOM      1  C   UNL A   1      37.432  19.467  25.005  1.00  0.00     0.042 C 
ENDROOT
BRANCH   1   2
ATOM      2  C   UNL A   1      36.275  20.407  24.668  1.00  0.00     0.118 C 
BRANCH   2   3
ATOM      3  N   UNL A   1      35.345  20.486  25.766  1.00  0.00    -0.352 N 
ATOM      4  C   UNL A   1      34.717  21.522  26.388  1.00  0.00     0.254 C 
ATOM      5  O   UNL A   1      33.943  21.178  27.293  1.00  0.00    -0.269 OA
ATOM      6  H   UNL A   1      35.116  19.607  26.146  1.00  0.00     0.163 HD
BRANCH   4   7
ATOM      7  C   UNL A   1      34.861  22.940  26.061  1.00  0.00     0.081 A 
ATOM      8  C   UNL A   1      37.397  23.819  25.779  1.00  0.00     0.088 C 
ATOM      9  C   UNL A   1      35.921  23.810  25.816  1.00  0.00     0.114 A 
ATOM     10  O   UNL A   1      35.450  25.071  25.599  1.00  0.00    -0.460 OA
ATOM     11  C   UNL A   1      34.118  25.081  25.820  1.00  0.00     0.159 A 
ATOM     12  C   UNL A   1      33.694  23.795  26.030  1.00  0.00     0.066 A 
BRANCH  11  13
ATOM     13  C   UNL A   1      33.455  26.415  25.886  1.00  0.00     0.338 C 
BRANCH  13  14
ATOM     14  N   UNL A   1      32.635  26.748  24.712  1.00  0.00    -0.328 N 
ATOM     15  C   UNL A   1      33.204  26.333  23.430  1.00  0.00     0.266 C 
ATOM     16  C   UNL A   1      31.244  26.284  24.777  1.00  0.00     0.266 C 
ATOM     17  H   UNL A   1      32.635  27.767  24.751  1.00  0.00     0.348 HD
ATOM     18  C   UNL A   1      32.004  26.375  22.491  1.00  0.00     0.049 C 
ATOM     19  C   UNL A   1      30.866  25.822  23.359  1.00  0.00     0.049 C 
ATOM     20  C   UNL A   1      32.265  25.647  21.179  1.00  0.00     0.014 C 
ATOM     21  C   UNL A   1      30.699  24.303  23.294  1.00  0.00     0.014 C 
ENDBRANCH  13  14
ENDBRANCH  11  13
ENDBRANCH   4   7
ENDBRANCH   2   3
ENDBRANCH   1   2
BRANCH   1  22
ATOM     22  C   UNL A   1      38.693  20.190  25.458  1.00  0.00     0.118 C 
BRANCH  22  23
ATOM     23  N   UNL A   1      39.777  19.248  25.711  1.00  0.00    -0.352 N 
ATOM     24  C   UNL A   1      41.070  19.479  26.085  1.00  0.00     0.251 C 
ATOM     25  H   UNL A   1      39.540  18.300  25.594  1.00  0.00     0.163 HD
ATOM     26  O   UNL A   1      41.898  18.565  25.984  1.00  0.00    -0.269 OA
BRANCH  24  27
ATOM     27  C   UNL A   1      41.494  20.793  26.605  1.00  0.00     0.039 A 
ATOM     28  C   UNL A   1      41.923  21.770  25.702  1.00  0.00     0.014 A 
ATOM     29  C   UNL A   1      41.526  21.050  27.979  1.00  0.00     0.014 A 
ATOM     30  C   UNL A   1      42.346  23.014  26.172  1.00  0.00     0.010 A 
ATOM     31  C   UNL A   1      41.872  22.317  28.442  1.00  0.00     0.010 A 
ATOM     32  C   UNL A   1      42.299  23.305  27.545  1.00  0.00    -0.014 A 
BRANCH  32  33
ATOM     33  C   UNL A   1      42.707  24.634  28.061  1.00  0.00     0.031 A 
ATOM     34  C   UNL A   1      41.673  25.697  28.310  1.00  0.00     0.074 A 
ATOM     35  C   UNL A   1      44.014  24.899  28.247  1.00  0.00     0.049 A 
ATOM     36  N   UNL A   1      41.838  26.937  28.693  1.00  0.00    -0.248 NA
ATOM     37  C   UNL A   1      40.270  25.326  28.067  1.00  0.00     0.031 C 
ATOM     38  C   UNL A   1      45.110  23.963  27.994  1.00  0.00     0.029 A 
ATOM     39  N   UNL A   1      44.642  26.038  28.682  1.00  0.00    -0.354 N 
ATOM     40  C   UNL A   1      40.566  27.496  28.721  1.00  0.00     0.074 A 
ATOM     41  C   UNL A   1      39.646  26.478  28.266  1.00  0.00     0.031 C 
ATOM     42  C   UNL A   1      46.274  24.558  28.300  1.00  0.00     0.029 A 
ATOM     43  C   UNL A   1      46.010  25.926  28.732  1.00  0.00     0.049 A 
ATOM     44  H   UNL A   1      44.159  26.858  28.933  1.00  0.00     0.167 HD
ATOM     45  C   UNL A   1      40.198  28.738  29.115  1.00  0.00     0.037 A 
ATOM     46  C   UNL A   1      46.945  26.828  29.083  1.00  0.00     0.037 A 
ATOM     47  C   UNL A   1      41.117  29.738  29.592  1.00  0.00     0.049 A 
ATOM     48  C   UNL A   1      46.509  28.200  29.517  1.00  0.00     0.074 A 
ATOM     49  C   UNL A   1      40.840  31.007  30.070  1.00  0.00     0.029 A 
ATOM     50  N   UNL A   1      42.494  29.580  29.650  1.00  0.00    -0.354 N 
ATOM     51  N   UNL A   1      45.298  28.694  29.602  1.00  0.00    -0.248 NA
ATOM     52  C   UNL A   1      47.570  29.137  29.910  1.00  0.00     0.031 C 
ATOM     53  C   UNL A   1      42.053  31.632  30.376  1.00  0.00     0.029 A 
ATOM     54  C   UNL A   1      43.082  30.736  30.137  1.00  0.00     0.049 A 
ATOM     55  H   UNL A   1      42.981  28.766  29.384  1.00  0.00     0.167 HD
ATOM     56  C   UNL A   1      45.448  29.988  30.084  1.00  0.00     0.074 A 
ATOM     57  C   UNL A   1      46.867  30.195  30.287  1.00  0.00     0.031 C 
ATOM     58  C   UNL A   1      44.497  30.920  30.337  1.00  0.00     0.037 A 
BRANCH  45  59
ATOM     59  C   UNL A   1      38.737  29.082  29.047  1.00  0.00     0.057 A 
ATOM     60  C   UNL A   1      37.898  28.966  30.164  1.00  0.00     0.134 A 
ATOM     61  C   UNL A   1      38.168  29.561  27.861  1.00  0.00     0.134 A 
ATOM     62  F   UNL A   1      38.376  28.501  31.328  1.00  0.00    -0.206 F 
ATOM     63  C   UNL A   1      36.541  29.288  30.095  1.00  0.00     0.040 A 
ATOM     64  C   UNL A   1      36.819  29.914  27.788  1.00  0.00     0.040 A 
ATOM     65  F   UNL A   1      38.914  29.703  26.755  1.00  0.00    -0.206 F 
ATOM     66  C   UNL A   1      35.999  29.770  28.906  1.00  0.00     0.006 A 
ENDBRANCH  45  59
BRANCH  46  67
ATOM     67  C   UNL A   1      48.382  26.455  29.061  1.00  0.00     0.057 A 
ATOM     68  C   UNL A   1      48.981  25.831  30.161  1.00  0.00     0.134 A 
ATOM     69  C   UNL A   1      49.188  26.712  27.947  1.00  0.00     0.134 A 
ATOM     70  F   UNL A   1      48.263  25.572  31.264  1.00  0.00    -0.206 F 
ATOM     71  C   UNL A   1      50.335  25.493  30.162  1.00  0.00     0.040 A 
ATOM     72  C   UNL A   1      50.537  26.357  27.924  1.00  0.00     0.040 A 
ATOM     73  F   UNL A   1      48.671  27.298  26.856  1.00  0.00    -0.206 F 
ATOM     74  C   UNL A   1      51.116  25.752  29.038  1.00  0.00     0.006 A 
ENDBRANCH  46  67
BRANCH  58  75
ATOM     75  C   UNL A   1      44.959  32.235  30.891  1.00  0.00     0.057 A 
ATOM     76  C   UNL A   1      45.109  32.448  32.268  1.00  0.00     0.134 A 
ATOM     77  C   UNL A   1      45.293  33.291  30.033  1.00  0.00     0.134 A 
ATOM     78  F   UNL A   1      44.793  31.481  33.142  1.00  0.00    -0.206 F 
ATOM     79  C   UNL A   1      45.550  33.672  32.772  1.00  0.00     0.040 A 
ATOM     80  C   UNL A   1      45.762  34.509  30.523  1.00  0.00     0.040 A 
ATOM     81  F   UNL A   1      45.181  33.149  28.703  1.00  0.00    -0.206 F 
ATOM     82  C   UNL A   1      45.885  34.705  31.897  1.00  0.00     0.006 A 
ENDBRANCH  58  75
ENDBRANCH  32  33
ENDBRANCH  24  27
ENDBRANCH  22  23
ENDBRANCH   1  22
TORSDOF 12
ENDMDL
MODEL 2
REMARK VINA RESULT:     -11.0      0.498      6.408
REMARK SMILES Cc1oc(C[N@H+]2C[C@@H](C)[C@@H](C)C2)cc1C(=O)NCCCNC(=O)c1ccc(-c2c3nc(c(-c4c(F)cccc4F)c4ccc([nH]4)c(-c4c(F)cccc4F)c4nc(c(-c5c(F)cccc5F)c5ccc2[nH]5)C=C4)C=C3)cc1
REMARK SMILES IDX 19 1 18 2 17 3 15 4 16 5 14 7 1 8 2 9 3 10 4 11 13 12 5 13
REMARK SMILES IDX 6 14 7 15 12 16 8 18 10 19 9 20 11 21 20 22 21 23 22 24
REMARK SMILES IDX 23 26 24 27 25 28 77 29 26 30 76 31 27 32 28 33 29 34 70 35
REMARK SMILES IDX 30 36 75 37 69 38 71 39 31 40 74 41 68 42 67 43 32 45 58 46
REMARK SMILES IDX 41 47 57 48 42 49 45 50 56 51 72 52 43 53 44 54 55 56 73 57
REMARK SMILES IDX 46 58 33 59 34 60 39 61 35 62 36 63 38 64 40 65 37 66 59 67
REMARK SMILES IDX 60 68 65 69 61 70 62 71 64 72 66 73 63 74 47 75 48 76 53 77
REMARK SMILES IDX 49 78 50 79 52 80 54 81 51 82
REMARK H PARENT 17 6 6 17 21 25 71 44 45 55
REMARK Flexibility Score: inf
ROOT
ATOM      1  C   UNL A   1      37.391  19.412  25.003  1.00  0.00     0.042 C 
ENDROOT
BRANCH   1   2
ATOM      2  C   UNL A   1      36.200  20.300  24.642  1.00  0.00     0.118 C 
BRANCH   2   3
ATOM      3  N   UNL A   1      35.304  20.431  25.763  1.00  0.00    -0.352 N 
ATOM      4  C   UNL A   1      34.730  21.501  26.381  1.00  0.00     0.254 C 
ATOM      5  O   UNL A   1      33.970  21.202  27.314  1.00  0.00    -0.269 OA
ATOM      6  H   UNL A   1      35.054  19.569  26.167  1.00  0.00     0.163 HD
BRANCH   4   7
ATOM      7  C   UNL A   1      34.914  22.907  26.023  1.00  0.00     0.081 A 
ATOM      8  C   UNL A   1      37.475  23.709  25.733  1.00  0.00     0.088 C 
ATOM      9  C   UNL A   1      35.999  23.742  25.762  1.00  0.00     0.114 A 
ATOM     10  O   UNL A   1      35.564  25.010  25.515  1.00  0.00    -0.460 OA
ATOM     11  C   UNL A   1      34.231  25.061  25.728  1.00  0.00     0.159 A 
ATOM     12  C   UNL A   1      33.771  23.792  25.966  1.00  0.00     0.066 A 
BRANCH  11  13
ATOM     13  C   UNL A   1      33.605  26.414  25.761  1.00  0.00     0.338 C 
BRANCH  13  14
ATOM     14  N   UNL A   1      32.710  26.700  24.629  1.00  0.00    -0.328 N 
ATOM     15  C   UNL A   1      33.257  26.360  23.315  1.00  0.00     0.266 C 
ATOM     16  C   UNL A   1      31.368  26.117  24.741  1.00  0.00     0.266 C 
ATOM     17  H   UNL A   1      32.626  27.714  24.693  1.00  0.00     0.348 HD
ATOM     18  C   UNL A   1      32.017  26.318  22.428  1.00  0.00     0.049 C 
ATOM     19  C   UNL A   1      30.968  25.653  23.329  1.00  0.00     0.049 C 
ATOM     20  C   UNL A   1      32.282  25.641  21.090  1.00  0.00     0.014 C 
ATOM     21  C   UNL A   1      30.928  24.126  23.235  1.00  0.00     0.014 C 
ENDBRANCH  13  14
ENDBRANCH  11  13
ENDBRANCH   4   7
ENDBRANCH   2   3
ENDBRANCH   1   2
BRANCH   1  22
ATOM     22  C   UNL A   1      38.628  20.194  25.425  1.00  0.00     0.118 C 
BRANCH  22  23
ATOM     23  N   UNL A   1      39.750  19.302  25.685  1.00  0.00    -0.352 N 
ATOM     24  C   UNL A   1      41.028  19.589  26.074  1.00  0.00     0.251 C 
ATOM     25  H   UNL A   1      39.558  18.344  25.562  1.00  0.00     0.163 HD
ATOM     26  O   UNL A   1      41.897  18.715  25.978  1.00  0.00    -0.269 OA
BRANCH  24  27
ATOM     27  C   UNL A   1      41.385  20.919  26.605  1.00  0.00     0.039 A 
ATOM     28  C   UNL A   1      41.870  21.889  25.723  1.00  0.00     0.014 A 
ATOM     29  C   UNL A   1      41.301  21.198  27.973  1.00  0.00     0.014 A 
ATOM     30  C   UNL A   1      42.233  23.147  26.204  1.00  0.00     0.010 A 
ATOM     31  C   UNL A   1      41.587  22.477  28.440  1.00  0.00     0.010 A 
ATOM     32  C   UNL A   1      42.069  23.459  27.564  1.00  0.00    -0.014 A 
BRANCH  32  33
ATOM     33  C   UNL A   1      42.411  24.803  28.089  1.00  0.00     0.031 A 
ATOM     34  C   UNL A   1      43.823  25.118  28.497  1.00  0.00     0.074 A 
ATOM     35  C   UNL A   1      41.436  25.718  28.250  1.00  0.00     0.049 A 
ATOM     36  N   UNL A   1      44.303  26.208  29.040  1.00  0.00    -0.248 NA
ATOM     37  C   UNL A   1      44.822  24.056  28.300  1.00  0.00     0.031 C 
ATOM     38  C   UNL A   1      40.022  25.511  27.932  1.00  0.00     0.029 A 
ATOM     39  N   UNL A   1      41.484  27.001  28.732  1.00  0.00    -0.354 N 
ATOM     40  C   UNL A   1      45.652  25.957  29.261  1.00  0.00     0.074 A 
ATOM     41  C   UNL A   1      45.902  24.595  28.845  1.00  0.00     0.031 C 
ATOM     42  C   UNL A   1      39.341  26.636  28.206  1.00  0.00     0.029 A 
ATOM     43  C   UNL A   1      40.262  27.626  28.754  1.00  0.00     0.049 A 
ATOM     44  H   UNL A   1      42.316  27.432  29.034  1.00  0.00     0.167 HD
ATOM     45  C   UNL A   1      46.599  26.795  29.745  1.00  0.00     0.037 A 
ATOM     46  C   UNL A   1      39.922  28.859  29.174  1.00  0.00     0.037 A 
ATOM     47  C   UNL A   1      46.347  28.158  30.132  1.00  0.00     0.049 A 
ATOM     48  C   UNL A   1      40.993  29.770  29.705  1.00  0.00     0.074 A 
ATOM     49  C   UNL A   1      47.248  29.109  30.579  1.00  0.00     0.029 A 
ATOM     50  N   UNL A   1      45.099  28.763  30.119  1.00  0.00    -0.354 N 
ATOM     51  N   UNL A   1      42.276  29.542  29.847  1.00  0.00    -0.248 NA
ATOM     52  C   UNL A   1      40.569  31.112  30.128  1.00  0.00     0.031 C 
ATOM     53  C   UNL A   1      46.537  30.276  30.877  1.00  0.00     0.029 A 
ATOM     54  C   UNL A   1      45.203  30.069  30.569  1.00  0.00     0.049 A 
ATOM     55  H   UNL A   1      44.263  28.329  29.833  1.00  0.00     0.167 HD
ATOM     56  C   UNL A   1      42.818  30.719  30.349  1.00  0.00     0.074 A 
ATOM     57  C   UNL A   1      41.725  31.662  30.472  1.00  0.00     0.031 C 
ATOM     58  C   UNL A   1      44.103  30.994  30.678  1.00  0.00     0.037 A 
BRANCH  45  59
ATOM     59  C   UNL A   1      47.996  26.259  29.878  1.00  0.00     0.057 A 
ATOM     60  C   UNL A   1      48.910  26.306  28.817  1.00  0.00     0.134 A 
ATOM     61  C   UNL A   1      48.442  25.715  31.089  1.00  0.00     0.134 A 
ATOM     62  F   UNL A   1      48.545  26.802  27.625  1.00  0.00    -0.206 F 
ATOM     63  C   UNL A   1      50.208  25.807  28.948  1.00  0.00     0.040 A 
ATOM     64  C   UNL A   1      49.746  25.239  31.240  1.00  0.00     0.040 A 
ATOM     65  F   UNL A   1      47.622  25.644  32.149  1.00  0.00    -0.206 F 
ATOM     66  C   UNL A   1      50.631  25.278  30.165  1.00  0.00     0.006 A 
ENDBRANCH  45  59
BRANCH  46  67
ATOM     67  C   UNL A   1      38.510  29.310  29.086  1.00  0.00     0.057 A 
ATOM     68  C   UNL A   1      37.973  29.765  27.876  1.00  0.00     0.134 A 
ATOM     69  C   UNL A   1      37.667  29.299  30.202  1.00  0.00     0.134 A 
ATOM     70  F   UNL A   1      38.737  29.813  26.774  1.00  0.00    -0.206 F 
ATOM     71  C   UNL A   1      36.655  30.211  27.783  1.00  0.00     0.040 A 
ATOM     72  C   UNL A   1      36.339  29.719  30.118  1.00  0.00     0.040 A 
ATOM     73  F   UNL A   1      38.118  28.865  31.388  1.00  0.00    -0.206 F 
ATOM     74  C   UNL A   1      35.832  30.184  28.907  1.00  0.00     0.006 A 
ENDBRANCH  46  67
BRANCH  58  75
ATOM     75  C   UNL A   1      44.401  32.380  31.170  1.00  0.00     0.057 A 
ATOM     76  C   UNL A   1      44.397  32.699  32.534  1.00  0.00     0.134 A 
ATOM     77  C   UNL A   1      44.732  33.399  30.267  1.00  0.00     0.134 A 
ATOM     78  F   UNL A   1      44.074  31.771  33.447  1.00  0.00    -0.206 F 
ATOM     79  C   UNL A   1      44.686  33.989  32.980  1.00  0.00     0.040 A 
ATOM     80  C   UNL A   1      45.051  34.685  30.703  1.00  0.00     0.040 A 
ATOM     81  F   UNL A   1      44.764  33.157  28.948  1.00  0.00    -0.206 F 
ATOM     82  C   UNL A   1      45.022  34.984  32.063  1.00  0.00     0.006 A 
ENDBRANCH  58  75
ENDBRANCH  32  33
ENDBRANCH  24  27
ENDBRANCH  22  23
ENDBRANCH   1  22
TORSDOF 12
ENDMDL
MODEL 3
REMARK VINA RESULT:     -11.0      1.230      2.035
REMARK SMILES Cc1oc(C[N@H+]2C[C@@H](C)[C@@H](C)C2)cc1C(=O)NCCCNC(=O)c1ccc(-c2c3nc(c(-c4c(F)cccc4F)c4ccc([nH]4)c(-c4c(F)cccc4F)c4nc(c(-c5c(F)cccc5F)c5ccc2[nH]5)C=C4)C=C3)cc1
REMARK SMILES IDX 19 1 18 2 17 3 15 4 16 5 14 7 1 8 2 9 3 10 4 11 13 12 5 13
REMARK SMILES IDX 6 14 7 15 12 16 8 18 10 19 9 20 11 21 20 22 21 23 22 24
REMARK SMILES IDX 23 26 24 27 25 28 77 29 26 30 76 31 27 32 28 33 29 34 70 35
REMARK SMILES IDX 30 36 75 37 69 38 71 39 31 40 74 41 68 42 67 43 32 45 58 46
REMARK SMILES IDX 41 47 57 48 42 49 45 50 56 51 72 52 43 53 44 54 55 56 73 57
REMARK SMILES IDX 46 58 33 59 34 60 39 61 35 62 36 63 38 64 40 65 37 66 59 67
REMARK SMILES IDX 60 68 65 69 61 70 62 71 64 72 66 73 63 74 47 75 48 76 53 77
REMARK SMILES IDX 49 78 50 79 52 80 54 81 51 82
REMARK H PARENT 17 6 6 17 21 25 71 44 45 55
REMARK Flexibility Score: inf
ROOT
ATOM      1  C   UNL A   1      37.375  19.466  24.957  1.00  0.00     0.042 C 
ENDROOT
BRANCH   1   2
ATOM      2  C   UNL A   1      36.095  20.298  25.020  1.00  0.00     0.118 C 
BRANCH   2   3
ATOM      3  N   UNL A   1      34.937  19.447  25.125  1.00  0.00    -0.352 N 
ATOM      4  C   UNL A   1      33.596  19.682  25.084  1.00  0.00     0.254 C 
ATOM      5  O   UNL A   1      32.897  18.662  25.178  1.00  0.00    -0.269 OA
ATOM      6  H   UNL A   1      35.162  18.497  25.254  1.00  0.00     0.163 HD
BRANCH   4   7
ATOM      7  C   UNL A   1      32.952  20.984  24.916  1.00  0.00     0.081 A 
ATOM      8  C   UNL A   1      32.113  21.555  22.415  1.00  0.00     0.088 C 
ATOM      9  C   UNL A   1      32.370  21.687  23.863  1.00  0.00     0.114 A 
ATOM     10  O   UNL A   1      31.958  22.914  24.291  1.00  0.00    -0.460 OA
ATOM     11  C   UNL A   1      32.366  23.089  25.567  1.00  0.00     0.159 A 
ATOM     12  C   UNL A   1      32.910  21.917  26.023  1.00  0.00     0.066 A 
BRANCH  11  13
ATOM     13  C   UNL A   1      32.240  24.463  26.132  1.00  0.00     0.338 C 
BRANCH  13  14
ATOM     14  N   UNL A   1      32.341  25.543  25.139  1.00  0.00    -0.328 N 
ATOM     15  C   UNL A   1      31.369  26.624  25.311  1.00  0.00     0.266 C 
ATOM     16  C   UNL A   1      33.676  26.135  25.003  1.00  0.00     0.266 C 
ATOM     17  H   UNL A   1      32.121  25.043  24.279  1.00  0.00     0.348 HD
ATOM     18  C   UNL A   1      31.971  27.760  24.492  1.00  0.00     0.049 C 
ATOM     19  C   UNL A   1      33.472  27.645  24.790  1.00  0.00     0.049 C 
ATOM     20  C   UNL A   1      31.325  29.104  24.797  1.00  0.00     0.014 C 
ATOM     21  C   UNL A   1      33.940  28.447  26.006  1.00  0.00     0.014 C 
ENDBRANCH  13  14
ENDBRANCH  11  13
ENDBRANCH   4   7
ENDBRANCH   2   3
ENDBRANCH   1   2
BRANCH   1  22
ATOM     22  C   UNL A   1      38.614  20.215  25.429  1.00  0.00     0.118 C 
BRANCH  22  23
ATOM     23  N   UNL A   1      39.721  19.300  25.673  1.00  0.00    -0.352 N 
ATOM     24  C   UNL A   1      41.009  19.560  26.047  1.00  0.00     0.251 C 
ATOM     25  H   UNL A   1      39.508  18.346  25.550  1.00  0.00     0.163 HD
ATOM     26  O   UNL A   1      41.859  18.669  25.937  1.00  0.00    -0.269 OA
BRANCH  24  27
ATOM     27  C   UNL A   1      41.399  20.881  26.577  1.00  0.00     0.039 A 
ATOM     28  C   UNL A   1      41.282  21.118  27.949  1.00  0.00     0.014 A 
ATOM     29  C   UNL A   1      41.825  21.905  25.724  1.00  0.00     0.014 A 
ATOM     30  C   UNL A   1      41.627  22.366  28.471  1.00  0.00     0.010 A 
ATOM     31  C   UNL A   1      42.245  23.122  26.254  1.00  0.00     0.010 A 
ATOM     32  C   UNL A   1      42.136  23.369  27.630  1.00  0.00    -0.014 A 
BRANCH  32  33
ATOM     33  C   UNL A   1      42.546  24.687  28.170  1.00  0.00     0.031 A 
ATOM     34  C   UNL A   1      41.523  25.766  28.386  1.00  0.00     0.074 A 
ATOM     35  C   UNL A   1      43.850  24.928  28.409  1.00  0.00     0.049 A 
ATOM     36  N   UNL A   1      41.695  27.002  28.784  1.00  0.00    -0.248 NA
ATOM     37  C   UNL A   1      40.123  25.422  28.087  1.00  0.00     0.031 C 
ATOM     38  C   UNL A   1      44.939  23.974  28.193  1.00  0.00     0.029 A 
ATOM     39  N   UNL A   1      44.481  26.053  28.876  1.00  0.00    -0.354 N 
ATOM     40  C   UNL A   1      40.432  27.583  28.767  1.00  0.00     0.074 A 
ATOM     41  C   UNL A   1      39.513  26.584  28.269  1.00  0.00     0.031 C 
ATOM     42  C   UNL A   1      46.100  24.546  28.548  1.00  0.00     0.029 A 
ATOM     43  C   UNL A   1      45.843  25.916  28.979  1.00  0.00     0.049 A 
ATOM     44  H   UNL A   1      44.002  26.879  29.114  1.00  0.00     0.167 HD
ATOM     45  C   UNL A   1      40.070  28.829  29.154  1.00  0.00     0.037 A 
ATOM     46  C   UNL A   1      46.779  26.799  29.372  1.00  0.00     0.037 A 
ATOM     47  C   UNL A   1      40.988  29.809  29.674  1.00  0.00     0.049 A 
ATOM     48  C   UNL A   1      46.351  28.175  29.798  1.00  0.00     0.074 A 
ATOM     49  C   UNL A   1      40.715  31.079  30.149  1.00  0.00     0.029 A 
ATOM     50  N   UNL A   1      42.358  29.626  29.784  1.00  0.00    -0.354 N 
ATOM     51  N   UNL A   1      45.146  28.690  29.839  1.00  0.00    -0.248 NA
ATOM     52  C   UNL A   1      47.412  29.091  30.239  1.00  0.00     0.031 C 
ATOM     53  C   UNL A   1      41.926  31.681  30.507  1.00  0.00     0.029 A 
ATOM     54  C   UNL A   1      42.947  30.768  30.301  1.00  0.00     0.049 A 
ATOM     55  H   UNL A   1      42.841  28.806  29.532  1.00  0.00     0.167 HD
ATOM     56  C   UNL A   1      45.300  29.979  30.336  1.00  0.00     0.074 A 
ATOM     57  C   UNL A   1      46.713  30.160  30.595  1.00  0.00     0.031 C 
ATOM     58  C   UNL A   1      44.357  30.926  30.558  1.00  0.00     0.037 A 
BRANCH  45  59
ATOM     59  C   UNL A   1      38.619  29.199  29.032  1.00  0.00     0.057 A 
ATOM     60  C   UNL A   1      37.748  29.141  30.127  1.00  0.00     0.134 A 
ATOM     61  C   UNL A   1      38.095  29.646  27.813  1.00  0.00     0.134 A 
ATOM     62  F   UNL A   1      38.182  28.709  31.321  1.00  0.00    -0.206 F 
ATOM     63  C   UNL A   1      36.400  29.487  30.008  1.00  0.00     0.040 A 
ATOM     64  C   UNL A   1      36.755  30.022  27.689  1.00  0.00     0.040 A 
ATOM     65  F   UNL A   1      38.874  29.732  26.725  1.00  0.00    -0.206 F 
ATOM     66  C   UNL A   1      35.902  29.936  28.787  1.00  0.00     0.006 A 
ENDBRANCH  45  59
BRANCH  46  67
ATOM     67  C   UNL A   1      48.209  26.401  29.403  1.00  0.00     0.057 A 
ATOM     68  C   UNL A   1      49.045  26.627  28.304  1.00  0.00     0.134 A 
ATOM     69  C   UNL A   1      48.773  25.787  30.527  1.00  0.00     0.134 A 
ATOM     70  F   UNL A   1      48.558  27.198  27.192  1.00  0.00    -0.206 F 
ATOM     71  C   UNL A   1      50.385  26.239  28.313  1.00  0.00     0.040 A 
ATOM     72  C   UNL A   1      50.118  25.417  30.559  1.00  0.00     0.040 A 
ATOM     73  F   UNL A   1      48.028  25.552  31.618  1.00  0.00    -0.206 F 
ATOM     74  C   UNL A   1      50.926  25.636  29.446  1.00  0.00     0.006 A 
ENDBRANCH  46  67
BRANCH  58  75
ATOM     75  C   UNL A   1      44.820  32.229  31.139  1.00  0.00     0.057 A 
ATOM     76  C   UNL A   1      44.896  32.438  32.522  1.00  0.00     0.134 A 
ATOM     77  C   UNL A   1      45.229  33.275  30.302  1.00  0.00     0.134 A 
ATOM     78  F   UNL A   1      44.506  31.481  33.376  1.00  0.00    -0.206 F 
ATOM     79  C   UNL A   1      45.339  33.651  33.051  1.00  0.00     0.040 A 
ATOM     80  C   UNL A   1      45.699  34.482  30.819  1.00  0.00     0.040 A 
ATOM     81  F   UNL A   1      45.189  33.136  28.968  1.00  0.00    -0.206 F 
ATOM     82  C   UNL A   1      45.749  34.675  32.198  1.00  0.00     0.006 A 
ENDBRANCH  58  75
ENDBRANCH  32  33
ENDBRANCH  24  27
ENDBRANCH  22  23
ENDBRANCH   1  22
TORSDOF 12
ENDMDL
