MODEL 1
REMARK VINA RESULT:     -12.3      0.000      0.000
REMARK SMILES O=C(Cc1c(C(=O)c2cccc(Cl)c2)[nH]c2ccccc12)NCCCNC(=O)c1ccc(-c2c3nc(c(-c4c(F)cccc4F)c4ccc([nH]4)c(-c4c(F)cccc4F)c4nc(c(-c5c(F)cccc5F)c5ccc2[nH]5)C=C4)C=C3)cc1
REMARK SMILES IDX 23 1 22 2 1 3 2 4 3 6 4 7 5 8 21 9 15 10 16 11 20 12 17 14
REMARK SMILES IDX 19 15 18 16 6 17 7 18 8 19 9 20 14 21 10 22 12 23 11 24
REMARK SMILES IDX 13 25 24 26 25 27 26 28 27 29 28 31 29 32 30 33 82 34 31 35
REMARK SMILES IDX 81 36 32 37 33 38 34 39 75 40 35 41 80 42 74 43 76 44 36 45
REMARK SMILES IDX 79 46 73 47 72 48 37 50 63 51 46 52 62 53 47 54 50 55 61 56
REMARK SMILES IDX 77 57 48 58 49 59 60 61 78 62 51 63 38 64 39 65 44 66 40 67
REMARK SMILES IDX 41 68 43 69 45 70 42 71 64 72 65 73 70 74 66 75 67 76 69 77
REMARK SMILES IDX 71 78 68 79 52 80 53 81 58 82 54 83 55 84 57 85 59 86 56 87
REMARK H PARENT 22 5 15 13 26 30 76 49 50 60
REMARK Flexibility Score: inf
ROOT
ATOM      1  C   UNL A   1      32.020  27.094  26.904  1.00  0.00     0.117 C 
ENDROOT
BRANCH   1   2
ATOM      2  N   UNL A   1      33.010  26.445  26.064  1.00  0.00    -0.356 N 
ATOM      3  O   UNL A   1      32.339  24.313  26.592  1.00  0.00    -0.275 OA
ATOM      4  C   UNL A   1      33.042  25.067  25.926  1.00  0.00     0.224 C 
ATOM      5  H   UNL A   1      33.669  26.994  25.583  1.00  0.00     0.163 HD
BRANCH   4   6
ATOM      6  C   UNL A   1      34.011  24.564  24.873  1.00  0.00     0.138 C 
BRANCH   6   7
ATOM      7  C   UNL A   1      33.413  23.703  23.781  1.00  0.00    -0.002 A 
ATOM      8  C   UNL A   1      32.960  24.210  22.556  1.00  0.00     0.092 A 
ATOM      9  C   UNL A   1      33.177  22.279  23.759  1.00  0.00     0.004 A 
ATOM     10  N   UNL A   1      32.460  23.145  21.843  1.00  0.00    -0.352 N 
ATOM     11  C   UNL A   1      32.508  21.989  22.573  1.00  0.00     0.046 A 
ATOM     12  C   UNL A   1      33.450  21.194  24.620  1.00  0.00     0.010 A 
ATOM     13  H   UNL A   1      32.111  23.208  20.924  1.00  0.00     0.167 HD
ATOM     14  C   UNL A   1      32.033  20.710  22.247  1.00  0.00     0.027 A 
ATOM     15  C   UNL A   1      32.972  19.912  24.327  1.00  0.00     0.001 A 
ATOM     16  C   UNL A   1      32.259  19.679  23.160  1.00  0.00     0.002 A 
BRANCH   8  17
ATOM     17  C   UNL A   1      33.017  25.584  22.069  1.00  0.00     0.209 C 
ATOM     18  O   UNL A   1      33.770  25.969  21.178  1.00  0.00    -0.287 OA
BRANCH  17  19
ATOM     19  C   UNL A   1      32.079  26.585  22.627  1.00  0.00     0.026 A 
ATOM     20  C   UNL A   1      32.468  27.921  22.792  1.00  0.00     0.012 A 
ATOM     21  C   UNL A   1      30.793  26.166  22.980  1.00  0.00     0.032 A 
ATOM     22  C   UNL A   1      31.572  28.834  23.352  1.00  0.00     0.002 A 
ATOM     23  C   UNL A   1      29.908  27.087  23.535  1.00  0.00     0.041 A 
ATOM     24  C   UNL A   1      30.294  28.414  23.729  1.00  0.00     0.020 A 
ATOM     25  Cl  UNL A   1      28.329  26.584  23.994  1.00  0.00    -0.084 Cl
ENDBRANCH  17  19
ENDBRANCH   8  17
ENDBRANCH   6   7
ENDBRANCH   4   6
ENDBRANCH   1   2
BRANCH   1  26
ATOM     26  C   UNL A   1      32.193  28.600  26.997  1.00  0.00     0.042 C 
BRANCH  26  27
ATOM     27  C   UNL A   1      33.609  29.070  27.305  1.00  0.00     0.118 C 
BRANCH  27  28
ATOM     28  N   UNL A   1      33.681  30.395  27.906  1.00  0.00    -0.352 N 
ATOM     29  C   UNL A   1      34.723  31.005  28.565  1.00  0.00     0.251 C 
ATOM     30  H   UNL A   1      32.861  30.935  27.829  1.00  0.00     0.163 HD
ATOM     31  O   UNL A   1      34.562  32.104  29.088  1.00  0.00    -0.269 OA
BRANCH  29  32
ATOM     32  C   UNL A   1      36.032  30.321  28.684  1.00  0.00     0.039 A 
ATOM     33  C   UNL A   1      36.905  30.339  27.593  1.00  0.00     0.014 A 
ATOM     34  C   UNL A   1      36.411  29.686  29.869  1.00  0.00     0.014 A 
ATOM     35  C   UNL A   1      38.192  29.810  27.724  1.00  0.00     0.010 A 
ATOM     36  C   UNL A   1      37.719  29.235  30.026  1.00  0.00     0.010 A 
ATOM     37  C   UNL A   1      38.628  29.301  28.958  1.00  0.00    -0.014 A 
BRANCH  37  38
ATOM     38  C   UNL A   1      40.031  28.857  29.165  1.00  0.00     0.031 A 
ATOM     39  C   UNL A   1      41.050  29.798  29.747  1.00  0.00     0.074 A 
ATOM     40  C   UNL A   1      40.412  27.632  28.749  1.00  0.00     0.049 A 
ATOM     41  N   UNL A   1      42.338  29.628  29.907  1.00  0.00    -0.248 NA
ATOM     42  C   UNL A   1      40.560  31.116  30.178  1.00  0.00     0.031 C 
ATOM     43  C   UNL A   1      39.538  26.638  28.123  1.00  0.00     0.029 A 
ATOM     44  N   UNL A   1      41.640  27.018  28.778  1.00  0.00    -0.354 N 
ATOM     45  C   UNL A   1      42.813  30.821  30.437  1.00  0.00     0.074 A 
ATOM     46  C   UNL A   1      41.685  31.723  30.526  1.00  0.00     0.031 C 
ATOM     47  C   UNL A   1      40.251  25.535  27.845  1.00  0.00     0.029 A 
ATOM     48  C   UNL A   1      41.641  25.756  28.235  1.00  0.00     0.049 A 
ATOM     49  H   UNL A   1      42.446  27.444  29.152  1.00  0.00     0.167 HD
ATOM     50  C   UNL A   1      44.070  31.129  30.836  1.00  0.00     0.037 A 
ATOM     51  C   UNL A   1      42.647  24.878  28.060  1.00  0.00     0.037 A 
ATOM     52  C   UNL A   1      45.187  30.223  30.776  1.00  0.00     0.049 A 
ATOM     53  C   UNL A   1      44.033  25.246  28.508  1.00  0.00     0.074 A 
ATOM     54  C   UNL A   1      46.484  30.424  31.217  1.00  0.00     0.029 A 
ATOM     55  N   UNL A   1      45.140  28.945  30.241  1.00  0.00    -0.354 N 
ATOM     56  N   UNL A   1      44.454  26.353  29.068  1.00  0.00    -0.248 NA
ATOM     57  C   UNL A   1      45.085  24.240  28.300  1.00  0.00     0.031 C 
ATOM     58  C   UNL A   1      47.231  29.280  30.912  1.00  0.00     0.029 A 
ATOM     59  C   UNL A   1      46.389  28.353  30.322  1.00  0.00     0.049 A 
ATOM     60  H   UNL A   1      44.337  28.521  29.860  1.00  0.00     0.167 HD
ATOM     61  C   UNL A   1      45.810  26.167  29.307  1.00  0.00     0.074 A 
ATOM     62  C   UNL A   1      46.139  24.837  28.841  1.00  0.00     0.031 C 
ATOM     63  C   UNL A   1      46.702  27.024  29.862  1.00  0.00     0.037 A 
BRANCH  50  64
ATOM     64  C   UNL A   1      44.304  32.508  31.380  1.00  0.00     0.057 A 
ATOM     65  C   UNL A   1      44.673  33.575  30.550  1.00  0.00     0.134 A 
ATOM     66  C   UNL A   1      44.126  32.781  32.742  1.00  0.00     0.134 A 
ATOM     67  F   UNL A   1      44.871  33.379  29.238  1.00  0.00    -0.206 F 
ATOM     68  C   UNL A   1      44.882  34.858  31.059  1.00  0.00     0.040 A 
ATOM     69  C   UNL A   1      44.305  34.065  33.259  1.00  0.00     0.040 A 
ATOM     70  F   UNL A   1      43.767  31.806  33.591  1.00  0.00    -0.206 F 
ATOM     71  C   UNL A   1      44.690  35.107  32.417  1.00  0.00     0.006 A 
ENDBRANCH  50  64
BRANCH  51  72
ATOM     72  C   UNL A   1      42.378  23.553  27.446  1.00  0.00     0.057 A 
ATOM     73  C   UNL A   1      42.021  22.454  28.236  1.00  0.00     0.134 A 
ATOM     74  C   UNL A   1      42.481  23.349  26.066  1.00  0.00     0.134 A 
ATOM     75  F   UNL A   1      41.927  22.583  29.568  1.00  0.00    -0.206 F 
ATOM     76  C   UNL A   1      41.794  21.196  27.679  1.00  0.00     0.040 A 
ATOM     77  C   UNL A   1      42.232  22.102  25.491  1.00  0.00     0.040 A 
ATOM     78  F   UNL A   1      42.814  24.364  25.254  1.00  0.00    -0.206 F 
ATOM     79  C   UNL A   1      41.894  21.018  26.300  1.00  0.00     0.006 A 
ENDBRANCH  51  72
BRANCH  63  80
ATOM     80  C   UNL A   1      48.111  26.537  30.030  1.00  0.00     0.057 A 
ATOM     81  C   UNL A   1      48.532  25.875  31.189  1.00  0.00     0.134 A 
ATOM     82  C   UNL A   1      49.046  26.699  29.000  1.00  0.00     0.134 A 
ATOM     83  F   UNL A   1      47.688  25.700  32.217  1.00  0.00    -0.206 F 
ATOM     84  C   UNL A   1      49.839  25.405  31.326  1.00  0.00     0.040 A 
ATOM     85  C   UNL A   1      50.350  26.212  29.114  1.00  0.00     0.040 A 
ATOM     86  F   UNL A   1      48.705  27.318  27.860  1.00  0.00    -0.206 F 
ATOM     87  C   UNL A   1      50.750  25.568  30.283  1.00  0.00     0.006 A 
ENDBRANCH  63  80
ENDBRANCH  37  38
ENDBRANCH  29  32
ENDBRANCH  27  28
ENDBRANCH  26  27
ENDBRANCH   1  26
TORSDOF 13
ENDMDL
MODEL 2
REMARK VINA RESULT:     -12.3      2.325      7.402
REMARK SMILES O=C(Cc1c(C(=O)c2cccc(Cl)c2)[nH]c2ccccc12)NCCCNC(=O)c1ccc(-c2c3nc(c(-c4c(F)cccc4F)c4ccc([nH]4)c(-c4c(F)cccc4F)c4nc(c(-c5c(F)cccc5F)c5ccc2[nH]5)C=C4)C=C3)cc1
REMARK SMILES IDX 23 1 22 2 1 3 2 4 3 6 4 7 5 8 21 9 15 10 16 11 20 12 17 14
REMARK SMILES IDX 19 15 18 16 6 17 7 18 8 19 9 20 14 21 10 22 12 23 11 24
REMARK SMILES IDX 13 25 24 26 25 27 26 28 27 29 28 31 29 32 30 33 82 34 31 35
REMARK SMILES IDX 81 36 32 37 33 38 34 39 75 40 35 41 80 42 74 43 76 44 36 45
REMARK SMILES IDX 79 46 73 47 72 48 37 50 63 51 46 52 62 53 47 54 50 55 61 56
REMARK SMILES IDX 77 57 48 58 49 59 60 61 78 62 51 63 38 64 39 65 44 66 40 67
REMARK SMILES IDX 41 68 43 69 45 70 42 71 64 72 65 73 70 74 66 75 67 76 69 77
REMARK SMILES IDX 71 78 68 79 52 80 53 81 58 82 54 83 55 84 57 85 59 86 56 87
REMARK H PARENT 22 5 15 13 26 30 76 49 50 60
REMARK Flexibility Score: inf
ROOT
ATOM      1  C   UNL A   1      36.504  21.910  24.177  1.00  0.00     0.117 C 
ENDROOT
BRANCH   1   2
ATOM      2  N   UNL A   1      36.094  22.963  25.087  1.00  0.00    -0.356 N 
ATOM      3  O   UNL A   1      34.914  24.134  23.502  1.00  0.00    -0.275 OA
ATOM      4  C   UNL A   1      35.253  23.983  24.672  1.00  0.00     0.224 C 
ATOM      5  H   UNL A   1      36.419  22.952  26.016  1.00  0.00     0.163 HD
BRANCH   4   6
ATOM      6  C   UNL A   1      34.773  24.893  25.786  1.00  0.00     0.138 C 
BRANCH   6   7
ATOM      7  C   UNL A   1      33.410  25.519  25.588  1.00  0.00    -0.002 A 
ATOM      8  C   UNL A   1      32.207  24.878  25.914  1.00  0.00     0.092 A 
ATOM      9  C   UNL A   1      33.062  26.812  25.046  1.00  0.00     0.004 A 
ATOM     10  N   UNL A   1      31.190  25.736  25.567  1.00  0.00    -0.352 N 
ATOM     11  C   UNL A   1      31.673  26.871  24.974  1.00  0.00     0.046 A 
ATOM     12  C   UNL A   1      33.774  27.946  24.597  1.00  0.00     0.010 A 
ATOM     13  H   UNL A   1      30.235  25.557  25.727  1.00  0.00     0.167 HD
ATOM     14  C   UNL A   1      30.974  27.948  24.411  1.00  0.00     0.027 A 
ATOM     15  C   UNL A   1      33.101  29.027  24.015  1.00  0.00     0.001 A 
ATOM     16  C   UNL A   1      31.717  29.018  23.911  1.00  0.00     0.002 A 
BRANCH   8  17
ATOM     17  C   UNL A   1      32.019  23.572  26.536  1.00  0.00     0.209 C 
ATOM     18  O   UNL A   1      31.521  23.402  27.646  1.00  0.00    -0.287 OA
BRANCH  17  19
ATOM     19  C   UNL A   1      32.390  22.355  25.778  1.00  0.00     0.026 A 
ATOM     20  C   UNL A   1      33.116  21.323  26.387  1.00  0.00     0.012 A 
ATOM     21  C   UNL A   1      31.993  22.257  24.442  1.00  0.00     0.032 A 
ATOM     22  C   UNL A   1      33.480  20.203  25.637  1.00  0.00     0.002 A 
ATOM     23  C   UNL A   1      32.359  21.134  23.705  1.00  0.00     0.041 A 
ATOM     24  C   UNL A   1      33.106  20.112  24.294  1.00  0.00     0.020 A 
ATOM     25  Cl  UNL A   1      31.895  21.006  22.054  1.00  0.00    -0.084 Cl
ENDBRANCH  17  19
ENDBRANCH   8  17
ENDBRANCH   6   7
ENDBRANCH   4   6
ENDBRANCH   1   2
BRANCH   1  26
ATOM     26  C   UNL A   1      37.133  20.715  24.873  1.00  0.00     0.042 C 
BRANCH  26  27
ATOM     27  C   UNL A   1      38.449  21.001  25.586  1.00  0.00     0.118 C 
BRANCH  27  28
ATOM     28  N   UNL A   1      39.391  19.890  25.569  1.00  0.00    -0.352 N 
ATOM     29  C   UNL A   1      40.707  19.849  25.970  1.00  0.00     0.251 C 
ATOM     30  H   UNL A   1      39.033  19.042  25.219  1.00  0.00     0.163 HD
ATOM     31  O   UNL A   1      41.373  18.833  25.792  1.00  0.00    -0.269 OA
BRANCH  29  32
ATOM     32  C   UNL A   1      41.338  21.042  26.580  1.00  0.00     0.039 A 
ATOM     33  C   UNL A   1      41.920  22.000  25.745  1.00  0.00     0.014 A 
ATOM     34  C   UNL A   1      41.336  21.234  27.963  1.00  0.00     0.014 A 
ATOM     35  C   UNL A   1      42.409  23.191  26.288  1.00  0.00     0.010 A 
ATOM     36  C   UNL A   1      41.746  22.454  28.494  1.00  0.00     0.010 A 
ATOM     37  C   UNL A   1      42.278  23.451  27.661  1.00  0.00    -0.014 A 
BRANCH  37  38
ATOM     38  C   UNL A   1      42.664  24.762  28.246  1.00  0.00     0.031 A 
ATOM     39  C   UNL A   1      41.634  25.838  28.450  1.00  0.00     0.074 A 
ATOM     40  C   UNL A   1      43.961  25.017  28.515  1.00  0.00     0.049 A 
ATOM     41  N   UNL A   1      41.795  27.074  28.848  1.00  0.00    -0.248 NA
ATOM     42  C   UNL A   1      40.240  25.486  28.135  1.00  0.00     0.031 C 
ATOM     43  C   UNL A   1      45.069  24.081  28.317  1.00  0.00     0.029 A 
ATOM     44  N   UNL A   1      44.569  26.149  28.999  1.00  0.00    -0.354 N 
ATOM     45  C   UNL A   1      40.532  27.651  28.813  1.00  0.00     0.074 A 
ATOM     46  C   UNL A   1      39.622  26.645  28.309  1.00  0.00     0.031 C 
ATOM     47  C   UNL A   1      46.216  24.668  28.693  1.00  0.00     0.029 A 
ATOM     48  C   UNL A   1      45.933  26.035  29.122  1.00  0.00     0.049 A 
ATOM     49  H   UNL A   1      44.073  26.967  29.236  1.00  0.00     0.167 HD
ATOM     50  C   UNL A   1      40.159  28.897  29.189  1.00  0.00     0.037 A 
ATOM     51  C   UNL A   1      46.854  26.931  29.523  1.00  0.00     0.037 A 
ATOM     52  C   UNL A   1      41.057  29.890  29.720  1.00  0.00     0.049 A 
ATOM     53  C   UNL A   1      46.414  28.309  29.932  1.00  0.00     0.074 A 
ATOM     54  C   UNL A   1      40.760  31.157  30.189  1.00  0.00     0.029 A 
ATOM     55  N   UNL A   1      42.427  29.725  29.850  1.00  0.00    -0.354 N 
ATOM     56  N   UNL A   1      45.207  28.818  29.957  1.00  0.00    -0.248 NA
ATOM     57  C   UNL A   1      47.467  29.237  30.372  1.00  0.00     0.031 C 
ATOM     58  C   UNL A   1      41.957  31.775  30.567  1.00  0.00     0.029 A 
ATOM     59  C   UNL A   1      42.993  30.876  30.373  1.00  0.00     0.049 A 
ATOM     60  H   UNL A   1      42.925  28.911  29.607  1.00  0.00     0.167 HD
ATOM     61  C   UNL A   1      45.349  30.113  30.440  1.00  0.00     0.074 A 
ATOM     62  C   UNL A   1      46.759  30.307  30.707  1.00  0.00     0.031 C 
ATOM     63  C   UNL A   1      44.397  31.054  30.643  1.00  0.00     0.037 A 
BRANCH  50  64
ATOM     64  C   UNL A   1      38.709  29.258  29.045  1.00  0.00     0.057 A 
ATOM     65  C   UNL A   1      38.161  29.627  27.809  1.00  0.00     0.134 A 
ATOM     66  C   UNL A   1      37.844  29.203  30.145  1.00  0.00     0.134 A 
ATOM     67  F   UNL A   1      38.938  29.712  26.719  1.00  0.00    -0.206 F 
ATOM     68  C   UNL A   1      36.810  29.954  27.679  1.00  0.00     0.040 A 
ATOM     69  C   UNL A   1      36.486  29.500  30.022  1.00  0.00     0.040 A 
ATOM     70  F   UNL A   1      38.302  28.849  31.356  1.00  0.00    -0.206 F 
ATOM     71  C   UNL A   1      35.967  29.884  28.786  1.00  0.00     0.006 A 
ENDBRANCH  50  64
BRANCH  51  72
ATOM     72  C   UNL A   1      48.288  26.549  29.577  1.00  0.00     0.057 A 
ATOM     73  C   UNL A   1      48.819  25.906  30.700  1.00  0.00     0.134 A 
ATOM     74  C   UNL A   1      49.161  26.826  28.518  1.00  0.00     0.134 A 
ATOM     75  F   UNL A   1      48.036  25.633  31.755  1.00  0.00    -0.206 F 
ATOM     76  C   UNL A   1      50.170  25.567  30.778  1.00  0.00     0.040 A 
ATOM     77  C   UNL A   1      50.509  26.470  28.572  1.00  0.00     0.040 A 
ATOM     78  F   UNL A   1      48.712  27.435  27.411  1.00  0.00    -0.206 F 
ATOM     79  C   UNL A   1      51.019  25.844  29.708  1.00  0.00     0.006 A 
ENDBRANCH  51  72
BRANCH  63  80
ATOM     80  C   UNL A   1      44.840  32.369  31.214  1.00  0.00     0.057 A 
ATOM     81  C   UNL A   1      45.210  33.443  30.397  1.00  0.00     0.134 A 
ATOM     82  C   UNL A   1      44.859  32.572  32.600  1.00  0.00     0.134 A 
ATOM     83  F   UNL A   1      45.226  33.308  29.062  1.00  0.00    -0.206 F 
ATOM     84  C   UNL A   1      45.599  34.670  30.938  1.00  0.00     0.040 A 
ATOM     85  C   UNL A   1      45.222  33.801  33.153  1.00  0.00     0.040 A 
ATOM     86  F   UNL A   1      44.509  31.586  33.439  1.00  0.00    -0.206 F 
ATOM     87  C   UNL A   1      45.599  34.853  32.319  1.00  0.00     0.006 A 
ENDBRANCH  63  80
ENDBRANCH  37  38
ENDBRANCH  29  32
ENDBRANCH  27  28
ENDBRANCH  26  27
ENDBRANCH   1  26
TORSDOF 13
ENDMDL
MODEL 3
REMARK VINA RESULT:     -12.2      2.919      7.915
REMARK SMILES O=C(Cc1c(C(=O)c2cccc(Cl)c2)[nH]c2ccccc12)NCCCNC(=O)c1ccc(-c2c3nc(c(-c4c(F)cccc4F)c4ccc([nH]4)c(-c4c(F)cccc4F)c4nc(c(-c5c(F)cccc5F)c5ccc2[nH]5)C=C4)C=C3)cc1
REMARK SMILES IDX 23 1 22 2 1 3 2 4 3 6 4 7 5 8 21 9 15 10 16 11 20 12 17 14
REMARK SMILES IDX 19 15 18 16 6 17 7 18 8 19 9 20 14 21 10 22 12 23 11 24
REMARK SMILES IDX 13 25 24 26 25 27 26 28 27 29 28 31 29 32 30 33 82 34 31 35
REMARK SMILES IDX 81 36 32 37 33 38 34 39 75 40 35 41 80 42 74 43 76 44 36 45
REMARK SMILES IDX 79 46 73 47 72 48 37 50 63 51 46 52 62 53 47 54 50 55 61 56
REMARK SMILES IDX 77 57 48 58 49 59 60 61 78 62 51 63 38 64 39 65 44 66 40 67
REMARK SMILES IDX 41 68 43 69 45 70 42 71 64 72 65 73 70 74 66 75 67 76 69 77
REMARK SMILES IDX 71 78 68 79 52 80 53 81 58 82 54 83 55 84 57 85 59 86 56 87
REMARK H PARENT 22 5 15 13 26 30 76 49 50 60
REMARK Flexibility Score: inf
ROOT
ATOM      1  C   UNL A   1      35.525  23.332  23.434  1.00  0.00     0.117 C 
ENDROOT
BRANCH   1   2
ATOM      2  N   UNL A   1      34.868  24.200  24.394  1.00  0.00    -0.356 N 
ATOM      3  O   UNL A   1      33.955  25.585  22.806  1.00  0.00    -0.275 OA
ATOM      4  C   UNL A   1      34.061  25.246  23.981  1.00  0.00     0.224 C 
ATOM      5  H   UNL A   1      34.999  24.041  25.356  1.00  0.00     0.163 HD
BRANCH   4   6
ATOM      6  C   UNL A   1      33.304  25.935  25.100  1.00  0.00     0.138 C 
BRANCH   6   7
ATOM      7  C   UNL A   1      31.795  25.851  25.028  1.00  0.00    -0.002 A 
ATOM      8  C   UNL A   1      31.049  24.812  25.600  1.00  0.00     0.092 A 
ATOM      9  C   UNL A   1      30.854  26.742  24.393  1.00  0.00     0.004 A 
ATOM     10  N   UNL A   1      29.728  25.059  25.305  1.00  0.00    -0.352 N 
ATOM     11  C   UNL A   1      29.591  26.169  24.517  1.00  0.00     0.046 A 
ATOM     12  C   UNL A   1      30.930  27.978  23.714  1.00  0.00     0.010 A 
ATOM     13  H   UNL A   1      28.977  24.507  25.621  1.00  0.00     0.167 HD
ATOM     14  C   UNL A   1      28.436  26.712  23.937  1.00  0.00     0.027 A 
ATOM     15  C   UNL A   1      29.795  28.532  23.110  1.00  0.00     0.001 A 
ATOM     16  C   UNL A   1      28.566  27.896  23.210  1.00  0.00     0.002 A 
BRANCH   8  17
ATOM     17  C   UNL A   1      31.528  23.685  26.394  1.00  0.00     0.209 C 
ATOM     18  O   UNL A   1      31.404  23.598  27.613  1.00  0.00    -0.287 OA
BRANCH  17  19
ATOM     19  C   UNL A   1      32.155  22.535  25.704  1.00  0.00     0.026 A 
ATOM     20  C   UNL A   1      33.098  21.732  26.358  1.00  0.00     0.012 A 
ATOM     21  C   UNL A   1      31.779  22.265  24.385  1.00  0.00     0.032 A 
ATOM     22  C   UNL A   1      33.697  20.675  25.670  1.00  0.00     0.002 A 
ATOM     23  C   UNL A   1      32.380  21.206  23.711  1.00  0.00     0.041 A 
ATOM     24  C   UNL A   1      33.341  20.416  24.345  1.00  0.00     0.020 A 
ATOM     25  Cl  UNL A   1      31.943  20.872  22.081  1.00  0.00    -0.084 Cl
ENDBRANCH  17  19
ENDBRANCH   8  17
ENDBRANCH   6   7
ENDBRANCH   4   6
ENDBRANCH   1   2
BRANCH   1  26
ATOM     26  C   UNL A   1      36.624  22.476  24.039  1.00  0.00     0.042 C 
BRANCH  26  27
ATOM     27  C   UNL A   1      37.161  22.964  25.378  1.00  0.00     0.118 C 
BRANCH  27  28
ATOM     28  N   UNL A   1      38.249  22.157  25.916  1.00  0.00    -0.352 N 
ATOM     29  C   UNL A   1      39.377  22.548  26.600  1.00  0.00     0.251 C 
ATOM     30  H   UNL A   1      38.164  21.187  25.766  1.00  0.00     0.163 HD
ATOM     31  O   UNL A   1      40.235  21.721  26.896  1.00  0.00    -0.269 OA
BRANCH  29  32
ATOM     32  C   UNL A   1      39.581  23.974  26.947  1.00  0.00     0.039 A 
ATOM     33  C   UNL A   1      39.299  24.400  28.247  1.00  0.00     0.014 A 
ATOM     34  C   UNL A   1      40.072  24.883  26.007  1.00  0.00     0.014 A 
ATOM     35  C   UNL A   1      39.603  25.709  28.631  1.00  0.00     0.010 A 
ATOM     36  C   UNL A   1      40.451  26.160  26.411  1.00  0.00     0.010 A 
ATOM     37  C   UNL A   1      40.231  26.585  27.731  1.00  0.00    -0.014 A 
BRANCH  37  38
ATOM     38  C   UNL A   1      40.688  27.936  28.149  1.00  0.00     0.031 A 
ATOM     39  C   UNL A   1      42.152  28.274  28.161  1.00  0.00     0.074 A 
ATOM     40  C   UNL A   1      39.789  28.834  28.602  1.00  0.00     0.049 A 
ATOM     41  N   UNL A   1      42.749  29.358  28.589  1.00  0.00    -0.248 NA
ATOM     42  C   UNL A   1      43.072  27.245  27.651  1.00  0.00     0.031 C 
ATOM     43  C   UNL A   1      38.344  28.618  28.691  1.00  0.00     0.029 A 
ATOM     44  N   UNL A   1      39.962  30.107  29.088  1.00  0.00    -0.354 N 
ATOM     45  C   UNL A   1      44.109  29.134  28.419  1.00  0.00     0.074 A 
ATOM     46  C   UNL A   1      44.254  27.793  27.895  1.00  0.00     0.031 C 
ATOM     47  C   UNL A   1      37.762  29.724  29.182  1.00  0.00     0.029 A 
ATOM     48  C   UNL A   1      38.793  30.713  29.479  1.00  0.00     0.049 A 
ATOM     49  H   UNL A   1      40.843  30.544  29.150  1.00  0.00     0.167 HD
ATOM     50  C   UNL A   1      45.142  29.976  28.655  1.00  0.00     0.037 A 
ATOM     51  C   UNL A   1      38.575  31.924  30.027  1.00  0.00     0.037 A 
ATOM     52  C   UNL A   1      44.999  31.322  29.148  1.00  0.00     0.049 A 
ATOM     53  C   UNL A   1      39.740  32.839  30.282  1.00  0.00     0.074 A 
ATOM     54  C   UNL A   1      45.983  32.272  29.357  1.00  0.00     0.029 A 
ATOM     55  N   UNL A   1      43.794  31.906  29.510  1.00  0.00    -0.354 N 
ATOM     56  N   UNL A   1      41.014  32.638  30.054  1.00  0.00    -0.248 NA
ATOM     57  C   UNL A   1      39.434  34.152  30.869  1.00  0.00     0.031 C 
ATOM     58  C   UNL A   1      45.378  33.419  29.883  1.00  0.00     0.029 A 
ATOM     59  C   UNL A   1      44.013  33.197  29.960  1.00  0.00     0.049 A 
ATOM     60  H   UNL A   1      42.914  31.467  29.454  1.00  0.00     0.167 HD
ATOM     61  C   UNL A   1      41.660  33.805  30.442  1.00  0.00     0.074 A 
ATOM     62  C   UNL A   1      40.634  34.715  30.909  1.00  0.00     0.031 C 
ATOM     63  C   UNL A   1      42.983  34.096  30.413  1.00  0.00     0.037 A 
BRANCH  50  64
ATOM     64  C   UNL A   1      46.527  29.467  28.377  1.00  0.00     0.057 A 
ATOM     65  C   UNL A   1      47.131  29.621  27.122  1.00  0.00     0.134 A 
ATOM     66  C   UNL A   1      47.277  28.846  29.384  1.00  0.00     0.134 A 
ATOM     67  F   UNL A   1      46.461  30.195  26.112  1.00  0.00    -0.206 F 
ATOM     68  C   UNL A   1      48.422  29.152  26.871  1.00  0.00     0.040 A 
ATOM     69  C   UNL A   1      48.579  28.399  29.153  1.00  0.00     0.040 A 
ATOM     70  F   UNL A   1      46.762  28.674  30.611  1.00  0.00    -0.206 F 
ATOM     71  C   UNL A   1      49.152  28.546  27.891  1.00  0.00     0.006 A 
ENDBRANCH  50  64
BRANCH  51  72
ATOM     72  C   UNL A   1      37.192  32.353  30.354  1.00  0.00     0.057 A 
ATOM     73  C   UNL A   1      36.623  32.057  31.598  1.00  0.00     0.134 A 
ATOM     74  C   UNL A   1      36.405  33.056  29.435  1.00  0.00     0.134 A 
ATOM     75  F   UNL A   1      37.321  31.368  32.513  1.00  0.00    -0.206 F 
ATOM     76  C   UNL A   1      35.314  32.428  31.911  1.00  0.00     0.040 A 
ATOM     77  C   UNL A   1      35.103  33.455  29.743  1.00  0.00     0.040 A 
ATOM     78  F   UNL A   1      36.894  33.375  28.228  1.00  0.00    -0.206 F 
ATOM     79  C   UNL A   1      34.552  33.134  30.982  1.00  0.00     0.006 A 
ENDBRANCH  51  72
BRANCH  63  80
ATOM     80  C   UNL A   1      43.396  35.465  30.867  1.00  0.00     0.057 A 
ATOM     81  C   UNL A   1      43.537  36.530  29.969  1.00  0.00     0.134 A 
ATOM     82  C   UNL A   1      43.616  35.728  32.225  1.00  0.00     0.134 A 
ATOM     83  F   UNL A   1      43.353  36.340  28.654  1.00  0.00    -0.206 F 
ATOM     84  C   UNL A   1      43.900  37.806  30.404  1.00  0.00     0.040 A 
ATOM     85  C   UNL A   1      43.956  37.005  32.675  1.00  0.00     0.040 A 
ATOM     86  F   UNL A   1      43.491  34.753  33.137  1.00  0.00    -0.206 F 
ATOM     87  C   UNL A   1      44.104  38.047  31.762  1.00  0.00     0.006 A 
ENDBRANCH  63  80
ENDBRANCH  37  38
ENDBRANCH  29  32
ENDBRANCH  27  28
ENDBRANCH  26  27
ENDBRANCH   1  26
TORSDOF 13
ENDMDL
