MODEL 1
REMARK VINA RESULT:     -12.0      0.000      0.000
REMARK SMILES Cc1nc2scc(C)n2c1CNc1ccc(C(=O)NCCCNC(=O)c2ccc(-c3c4nc(c(-c5c(F)cccc5F)c5ccc([nH]5)c(-c5c(F)cccc5F)c5nc(c(-c6c(F)cccc6F)c6ccc3[nH]6)C=C5)C=C4)cc2)cc1
REMARK SMILES IDX 20 1 19 2 17 3 18 4 16 6 13 7 14 8 81 9 15 10 80 11 12 12
REMARK SMILES IDX 11 14 10 15 1 16 2 17 3 18 4 19 9 20 5 21 7 22 6 23 8 24
REMARK SMILES IDX 21 25 22 26 23 27 24 28 25 30 26 31 27 32 79 33 28 34 78 35
REMARK SMILES IDX 29 36 30 37 31 38 72 39 32 40 77 41 71 42 73 43 33 44 76 45
REMARK SMILES IDX 70 46 69 47 34 49 60 50 43 51 59 52 44 53 47 54 58 55 74 56
REMARK SMILES IDX 45 57 46 58 57 60 75 61 48 62 35 63 36 64 41 65 37 66 38 67
REMARK SMILES IDX 40 68 42 69 39 70 61 71 62 72 67 73 63 74 64 75 66 76 68 77
REMARK SMILES IDX 65 78 49 79 50 80 55 81 51 82 52 83 54 84 56 85 53 86
REMARK H PARENT 19 5 12 13 23 29 73 48 47 59
REMARK Flexibility Score: inf
ROOT
ATOM      1  C   UNL A   1      33.589  29.081  25.226  1.00  0.00     0.118 C 
ENDROOT
BRANCH   1   2
ATOM      2  N   UNL A   1      32.304  29.549  24.731  1.00  0.00    -0.352 N 
ATOM      3  C   UNL A   1      31.215  28.894  24.213  1.00  0.00     0.251 C 
ATOM      4  O   UNL A   1      30.228  29.575  23.931  1.00  0.00    -0.269 OA
ATOM      5  H   UNL A   1      32.195  30.527  24.775  1.00  0.00     0.163 HD
BRANCH   3   6
ATOM      6  C   UNL A   1      31.149  27.414  24.039  1.00  0.00     0.039 A 
ATOM      7  C   UNL A   1      31.210  24.586  23.946  1.00  0.00     0.034 A 
ATOM      8  C   UNL A   1      30.820  25.253  25.108  1.00  0.00     0.026 A 
ATOM      9  C   UNL A   1      31.469  25.347  22.809  1.00  0.00     0.026 A 
ATOM     10  C   UNL A   1      30.809  26.651  25.163  1.00  0.00     0.016 A 
ATOM     11  C   UNL A   1      31.402  26.742  22.845  1.00  0.00     0.016 A 
BRANCH   7  12
ATOM     12  N   UNL A   1      31.467  23.229  23.992  1.00  0.00    -0.379 N 
ATOM     13  H   UNL A   1      31.312  22.673  23.194  1.00  0.00     0.160 HD
BRANCH  12  14
ATOM     14  C   UNL A   1      31.963  22.622  25.212  1.00  0.00     0.169 C 
BRANCH  14  15
ATOM     15  C   UNL A   1      33.252  21.922  25.016  1.00  0.00     0.066 A 
ATOM     16  C   UNL A   1      32.529  19.460  24.646  1.00  0.00     0.069 C 
ATOM     17  C   UNL A   1      33.503  20.571  24.777  1.00  0.00     0.062 A 
ATOM     18  N   UNL A   1      34.854  20.317  24.677  1.00  0.00    -0.224 NA
ATOM     19  C   UNL A   1      35.394  21.489  24.845  1.00  0.00     0.194 A 
ATOM     20  N   UNL A   1      34.500  22.508  25.038  1.00  0.00    -0.290 N 
ATOM     21  S   UNL A   1      37.035  22.047  24.870  1.00  0.00    -0.105 S 
ATOM     22  C   UNL A   1      35.087  23.763  25.194  1.00  0.00     0.032 A 
ATOM     23  C   UNL A   1      36.433  23.681  25.128  1.00  0.00     0.090 A 
ATOM     24  C   UNL A   1      34.360  25.044  25.385  1.00  0.00     0.066 C 
ENDBRANCH  14  15
ENDBRANCH  12  14
ENDBRANCH   7  12
ENDBRANCH   3   6
ENDBRANCH   1   2
BRANCH   1  25
ATOM     25  C   UNL A   1      33.650  29.110  26.760  1.00  0.00     0.042 C 
BRANCH  25  26
ATOM     26  C   UNL A   1      35.078  29.098  27.277  1.00  0.00     0.118 C 
BRANCH  26  27
ATOM     27  N   UNL A   1      35.248  29.971  28.438  1.00  0.00    -0.352 N 
ATOM     28  C   UNL A   1      36.267  29.980  29.363  1.00  0.00     0.251 C 
ATOM     29  H   UNL A   1      34.540  30.640  28.577  1.00  0.00     0.163 HD
ATOM     30  O   UNL A   1      36.100  30.508  30.464  1.00  0.00    -0.269 OA
BRANCH  28  31
ATOM     31  C   UNL A   1      37.556  29.354  29.031  1.00  0.00     0.039 A 
ATOM     32  C   UNL A   1      38.234  29.685  27.856  1.00  0.00     0.014 A 
ATOM     33  C   UNL A   1      38.090  28.423  29.921  1.00  0.00     0.014 A 
ATOM     34  C   UNL A   1      39.488  29.131  27.624  1.00  0.00     0.010 A 
ATOM     35  C   UNL A   1      39.385  27.999  29.772  1.00  0.00     0.010 A 
ATOM     36  C   UNL A   1      40.068  28.306  28.602  1.00  0.00    -0.014 A 
BRANCH  36  37
ATOM     37  C   UNL A   1      41.462  27.891  28.495  1.00  0.00     0.031 A 
ATOM     38  C   UNL A   1      41.625  26.607  27.764  1.00  0.00     0.074 A 
ATOM     39  C   UNL A   1      42.498  28.700  28.812  1.00  0.00     0.049 A 
ATOM     40  N   UNL A   1      41.978  25.465  28.251  1.00  0.00    -0.248 NA
ATOM     41  C   UNL A   1      41.153  26.531  26.369  1.00  0.00     0.031 C 
ATOM     42  C   UNL A   1      42.440  30.107  29.232  1.00  0.00     0.029 A 
ATOM     43  N   UNL A   1      43.841  28.472  28.731  1.00  0.00    -0.354 N 
ATOM     44  C   UNL A   1      42.020  24.587  27.168  1.00  0.00     0.074 A 
ATOM     45  C   UNL A   1      41.290  25.228  26.110  1.00  0.00     0.031 C 
ATOM     46  C   UNL A   1      43.668  30.664  29.143  1.00  0.00     0.029 A 
ATOM     47  C   UNL A   1      44.627  29.621  28.832  1.00  0.00     0.049 A 
ATOM     48  H   UNL A   1      44.224  27.574  28.610  1.00  0.00     0.167 HD
ATOM     49  C   UNL A   1      42.922  23.566  27.149  1.00  0.00     0.037 A 
ATOM     50  C   UNL A   1      45.971  29.707  28.666  1.00  0.00     0.037 A 
ATOM     51  C   UNL A   1      43.481  23.383  28.467  1.00  0.00     0.049 A 
ATOM     52  C   UNL A   1      46.515  28.342  28.829  1.00  0.00     0.074 A 
ATOM     53  C   UNL A   1      43.030  22.947  29.693  1.00  0.00     0.029 A 
ATOM     54  N   UNL A   1      44.624  24.108  28.689  1.00  0.00    -0.354 N 
ATOM     55  N   UNL A   1      46.519  27.699  29.961  1.00  0.00    -0.248 NA
ATOM     56  C   UNL A   1      46.714  27.522  27.643  1.00  0.00     0.031 C 
ATOM     57  C   UNL A   1      43.792  23.663  30.664  1.00  0.00     0.029 A 
ATOM     58  C   UNL A   1      44.730  24.460  30.004  1.00  0.00     0.049 A 
ATOM     59  H   UNL A   1      45.280  24.344  27.993  1.00  0.00     0.167 HD
ATOM     60  C   UNL A   1      46.266  26.386  29.610  1.00  0.00     0.074 A 
ATOM     61  C   UNL A   1      46.571  26.309  28.185  1.00  0.00     0.031 C 
ATOM     62  C   UNL A   1      45.532  25.584  30.437  1.00  0.00     0.037 A 
BRANCH  49  63
ATOM     63  C   UNL A   1      43.685  23.100  25.919  1.00  0.00     0.057 A 
ATOM     64  C   UNL A   1      43.768  21.713  25.667  1.00  0.00     0.134 A 
ATOM     65  C   UNL A   1      44.588  23.884  25.172  1.00  0.00     0.134 A 
ATOM     66  F   UNL A   1      42.967  20.847  26.304  1.00  0.00    -0.206 F 
ATOM     67  C   UNL A   1      44.735  21.153  24.819  1.00  0.00     0.040 A 
ATOM     68  C   UNL A   1      45.527  23.336  24.290  1.00  0.00     0.040 A 
ATOM     69  F   UNL A   1      44.690  25.209  25.314  1.00  0.00    -0.206 F 
ATOM     70  C   UNL A   1      45.628  21.965  24.137  1.00  0.00     0.006 A 
ENDBRANCH  49  63
BRANCH  50  71
ATOM     71  C   UNL A   1      46.808  30.823  28.168  1.00  0.00     0.057 A 
ATOM     72  C   UNL A   1      46.626  31.355  26.881  1.00  0.00     0.134 A 
ATOM     73  C   UNL A   1      47.592  31.588  29.045  1.00  0.00     0.134 A 
ATOM     74  F   UNL A   1      45.866  30.715  25.981  1.00  0.00    -0.206 F 
ATOM     75  C   UNL A   1      47.162  32.594  26.502  1.00  0.00     0.040 A 
ATOM     76  C   UNL A   1      48.135  32.825  28.678  1.00  0.00     0.040 A 
ATOM     77  F   UNL A   1      47.778  31.204  30.316  1.00  0.00    -0.206 F 
ATOM     78  C   UNL A   1      47.907  33.340  27.408  1.00  0.00     0.006 A 
ENDBRANCH  50  71
BRANCH  62  79
ATOM     79  C   UNL A   1      45.414  26.000  31.875  1.00  0.00     0.057 A 
ATOM     80  C   UNL A   1      44.323  26.687  32.427  1.00  0.00     0.134 A 
ATOM     81  C   UNL A   1      46.416  25.587  32.759  1.00  0.00     0.134 A 
ATOM     82  F   UNL A   1      43.278  27.054  31.676  1.00  0.00    -0.206 F 
ATOM     83  C   UNL A   1      44.254  26.979  33.793  1.00  0.00     0.040 A 
ATOM     84  C   UNL A   1      46.343  25.840  34.129  1.00  0.00     0.040 A 
ATOM     85  F   UNL A   1      47.470  24.889  32.306  1.00  0.00    -0.206 F 
ATOM     86  C   UNL A   1      45.264  26.548  34.649  1.00  0.00     0.006 A 
ENDBRANCH  62  79
ENDBRANCH  36  37
ENDBRANCH  28  31
ENDBRANCH  26  27
ENDBRANCH  25  26
ENDBRANCH   1  25
TORSDOF 13
ENDMDL
MODEL 2
REMARK VINA RESULT:     -12.0      3.094      7.613
REMARK SMILES Cc1nc2scc(C)n2c1CNc1ccc(C(=O)NCCCNC(=O)c2ccc(-c3c4nc(c(-c5c(F)cccc5F)c5ccc([nH]5)c(-c5c(F)cccc5F)c5nc(c(-c6c(F)cccc6F)c6ccc3[nH]6)C=C5)C=C4)cc2)cc1
REMARK SMILES IDX 20 1 19 2 17 3 18 4 16 6 13 7 14 8 81 9 15 10 80 11 12 12
REMARK SMILES IDX 11 14 10 15 1 16 2 17 3 18 4 19 9 20 5 21 7 22 6 23 8 24
REMARK SMILES IDX 21 25 22 26 23 27 24 28 25 30 26 31 27 32 79 33 28 34 78 35
REMARK SMILES IDX 29 36 30 37 31 38 72 39 32 40 77 41 71 42 73 43 33 44 76 45
REMARK SMILES IDX 70 46 69 47 34 49 60 50 43 51 59 52 44 53 47 54 58 55 74 56
REMARK SMILES IDX 45 57 46 58 57 60 75 61 48 62 35 63 36 64 41 65 37 66 38 67
REMARK SMILES IDX 40 68 42 69 39 70 61 71 62 72 67 73 63 74 64 75 66 76 68 77
REMARK SMILES IDX 65 78 49 79 50 80 55 81 51 82 52 83 54 84 56 85 53 86
REMARK H PARENT 19 5 12 13 23 29 73 48 47 59
REMARK Flexibility Score: inf
ROOT
ATOM      1  C   UNL A   1      36.415  20.537  25.033  1.00  0.00     0.118 C 
ENDROOT
BRANCH   1   2
ATOM      2  N   UNL A   1      35.432  19.465  25.015  1.00  0.00    -0.352 N 
ATOM      3  C   UNL A   1      34.064  19.463  24.900  1.00  0.00     0.251 C 
ATOM      4  O   UNL A   1      33.503  18.367  24.855  1.00  0.00    -0.269 OA
ATOM      5  H   UNL A   1      35.824  18.566  25.101  1.00  0.00     0.163 HD
BRANCH   3   6
ATOM      6  C   UNL A   1      33.245  20.703  24.766  1.00  0.00     0.039 A 
ATOM      7  C   UNL A   1      31.510  22.938  24.723  1.00  0.00     0.034 A 
ATOM      8  C   UNL A   1      32.116  22.529  25.912  1.00  0.00     0.026 A 
ATOM      9  C   UNL A   1      31.862  22.281  23.547  1.00  0.00     0.026 A 
ATOM     10  C   UNL A   1      32.957  21.412  25.940  1.00  0.00     0.016 A 
ATOM     11  C   UNL A   1      32.748  21.201  23.563  1.00  0.00     0.016 A 
BRANCH   7  12
ATOM     12  N   UNL A   1      30.489  23.868  24.763  1.00  0.00    -0.379 N 
ATOM     13  H   UNL A   1      29.670  23.721  24.236  1.00  0.00     0.160 HD
BRANCH  12  14
ATOM     14  C   UNL A   1      30.620  25.060  25.580  1.00  0.00     0.169 C 
BRANCH  14  15
ATOM     15  C   UNL A   1      31.264  26.178  24.856  1.00  0.00     0.066 A 
ATOM     16  C   UNL A   1      33.765  25.919  25.489  1.00  0.00     0.069 C 
ATOM     17  C   UNL A   1      32.607  26.554  24.814  1.00  0.00     0.062 A 
ATOM     18  N   UNL A   1      32.794  27.676  24.037  1.00  0.00    -0.224 NA
ATOM     19  C   UNL A   1      31.594  27.958  23.620  1.00  0.00     0.194 A 
ATOM     20  N   UNL A   1      30.621  27.097  24.053  1.00  0.00    -0.290 N 
ATOM     21  S   UNL A   1      30.952  29.210  22.606  1.00  0.00    -0.105 S 
ATOM     22  C   UNL A   1      29.343  27.392  23.582  1.00  0.00     0.032 A 
ATOM     23  C   UNL A   1      29.357  28.490  22.798  1.00  0.00     0.090 A 
ATOM     24  C   UNL A   1      28.111  26.612  23.865  1.00  0.00     0.066 C 
ENDBRANCH  14  15
ENDBRANCH  12  14
ENDBRANCH   7  12
ENDBRANCH   3   6
ENDBRANCH   1   2
BRANCH   1  25
ATOM     25  C   UNL A   1      37.817  20.026  24.672  1.00  0.00     0.042 C 
BRANCH  25  26
ATOM     26  C   UNL A   1      38.831  20.319  25.764  1.00  0.00     0.118 C 
BRANCH  26  27
ATOM     27  N   UNL A   1      39.943  19.369  25.747  1.00  0.00    -0.352 N 
ATOM     28  C   UNL A   1      41.288  19.618  25.906  1.00  0.00     0.251 C 
ATOM     29  H   UNL A   1      39.698  18.427  25.604  1.00  0.00     0.163 HD
ATOM     30  O   UNL A   1      42.121  18.798  25.514  1.00  0.00    -0.269 OA
BRANCH  28  31
ATOM     31  C   UNL A   1      41.725  20.869  26.543  1.00  0.00     0.039 A 
ATOM     32  C   UNL A   1      42.130  21.963  25.774  1.00  0.00     0.014 A 
ATOM     33  C   UNL A   1      41.722  20.942  27.934  1.00  0.00     0.014 A 
ATOM     34  C   UNL A   1      42.456  23.153  26.417  1.00  0.00     0.010 A 
ATOM     35  C   UNL A   1      41.890  22.151  28.557  1.00  0.00     0.010 A 
ATOM     36  C   UNL A   1      42.309  23.245  27.811  1.00  0.00    -0.014 A 
BRANCH  36  37
ATOM     37  C   UNL A   1      42.425  24.531  28.488  1.00  0.00     0.031 A 
ATOM     38  C   UNL A   1      41.251  25.413  28.251  1.00  0.00     0.074 A 
ATOM     39  C   UNL A   1      43.374  24.794  29.415  1.00  0.00     0.049 A 
ATOM     40  N   UNL A   1      41.210  26.496  27.550  1.00  0.00    -0.248 NA
ATOM     41  C   UNL A   1      39.921  24.938  28.677  1.00  0.00     0.031 C 
ATOM     42  C   UNL A   1      44.377  23.868  29.955  1.00  0.00     0.029 A 
ATOM     43  N   UNL A   1      43.585  25.922  30.153  1.00  0.00    -0.354 N 
ATOM     44  C   UNL A   1      39.904  26.972  27.663  1.00  0.00     0.074 A 
ATOM     45  C   UNL A   1      39.123  25.873  28.156  1.00  0.00     0.031 C 
ATOM     46  C   UNL A   1      44.925  24.387  31.076  1.00  0.00     0.029 A 
ATOM     47  C   UNL A   1      44.445  25.747  31.237  1.00  0.00     0.049 A 
ATOM     48  H   UNL A   1      43.165  26.786  29.940  1.00  0.00     0.167 HD
ATOM     49  C   UNL A   1      39.661  28.313  27.643  1.00  0.00     0.037 A 
ATOM     50  C   UNL A   1      44.737  26.655  32.202  1.00  0.00     0.037 A 
ATOM     51  C   UNL A   1      40.828  29.015  27.165  1.00  0.00     0.049 A 
ATOM     52  C   UNL A   1      44.376  27.985  31.667  1.00  0.00     0.074 A 
ATOM     53  C   UNL A   1      41.505  29.131  25.971  1.00  0.00     0.029 A 
ATOM     54  N   UNL A   1      41.689  29.399  28.160  1.00  0.00    -0.354 N 
ATOM     55  N   UNL A   1      45.009  28.562  30.686  1.00  0.00    -0.248 NA
ATOM     56  C   UNL A   1      43.058  28.526  31.965  1.00  0.00     0.031 C 
ATOM     57  C   UNL A   1      42.873  29.339  26.321  1.00  0.00     0.029 A 
ATOM     58  C   UNL A   1      42.979  29.412  27.712  1.00  0.00     0.049 A 
ATOM     59  H   UNL A   1      41.414  29.634  29.077  1.00  0.00     0.167 HD
ATOM     60  C   UNL A   1      44.017  29.206  29.970  1.00  0.00     0.074 A 
ATOM     61  C   UNL A   1      42.887  29.298  30.889  1.00  0.00     0.031 C 
ATOM     62  C   UNL A   1      44.107  29.308  28.611  1.00  0.00     0.037 A 
BRANCH  49  63
ATOM     63  C   UNL A   1      38.638  29.026  28.514  1.00  0.00     0.057 A 
ATOM     64  C   UNL A   1      38.668  28.798  29.907  1.00  0.00     0.134 A 
ATOM     65  C   UNL A   1      37.460  29.647  28.048  1.00  0.00     0.134 A 
ATOM     66  F   UNL A   1      39.727  28.217  30.488  1.00  0.00    -0.206 F 
ATOM     67  C   UNL A   1      37.577  29.074  30.744  1.00  0.00     0.040 A 
ATOM     68  C   UNL A   1      36.385  29.967  28.884  1.00  0.00     0.040 A 
ATOM     69  F   UNL A   1      37.232  29.895  26.755  1.00  0.00    -0.206 F 
ATOM     70  C   UNL A   1      36.424  29.650  30.230  1.00  0.00     0.006 A 
ENDBRANCH  49  63
BRANCH  50  71
ATOM     71  C   UNL A   1      45.100  26.462  33.625  1.00  0.00     0.057 A 
ATOM     72  C   UNL A   1      44.188  25.921  34.545  1.00  0.00     0.134 A 
ATOM     73  C   UNL A   1      46.438  26.520  34.046  1.00  0.00     0.134 A 
ATOM     74  F   UNL A   1      42.892  25.792  34.224  1.00  0.00    -0.206 F 
ATOM     75  C   UNL A   1      44.589  25.430  35.795  1.00  0.00     0.040 A 
ATOM     76  C   UNL A   1      46.852  26.036  35.293  1.00  0.00     0.040 A 
ATOM     77  F   UNL A   1      47.400  26.961  33.224  1.00  0.00    -0.206 F 
ATOM     78  C   UNL A   1      45.929  25.473  36.166  1.00  0.00     0.006 A 
ENDBRANCH  50  71
BRANCH  62  79
ATOM     79  C   UNL A   1      45.464  29.129  27.995  1.00  0.00     0.057 A 
ATOM     80  C   UNL A   1      45.977  27.914  27.518  1.00  0.00     0.134 A 
ATOM     81  C   UNL A   1      46.242  30.272  27.783  1.00  0.00     0.134 A 
ATOM     82  F   UNL A   1      45.274  26.779  27.603  1.00  0.00    -0.206 F 
ATOM     83  C   UNL A   1      47.226  27.839  26.891  1.00  0.00     0.040 A 
ATOM     84  C   UNL A   1      47.472  30.218  27.128  1.00  0.00     0.040 A 
ATOM     85  F   UNL A   1      45.794  31.475  28.176  1.00  0.00    -0.206 F 
ATOM     86  C   UNL A   1      47.973  28.996  26.689  1.00  0.00     0.006 A 
ENDBRANCH  62  79
ENDBRANCH  36  37
ENDBRANCH  28  31
ENDBRANCH  26  27
ENDBRANCH  25  26
ENDBRANCH   1  25
TORSDOF 13
ENDMDL
MODEL 3
REMARK VINA RESULT:     -11.9      2.224      6.318
REMARK SMILES Cc1nc2scc(C)n2c1CNc1ccc(C(=O)NCCCNC(=O)c2ccc(-c3c4nc(c(-c5c(F)cccc5F)c5ccc([nH]5)c(-c5c(F)cccc5F)c5nc(c(-c6c(F)cccc6F)c6ccc3[nH]6)C=C5)C=C4)cc2)cc1
REMARK SMILES IDX 20 1 19 2 17 3 18 4 16 6 13 7 14 8 81 9 15 10 80 11 12 12
REMARK SMILES IDX 11 14 10 15 1 16 2 17 3 18 4 19 9 20 5 21 7 22 6 23 8 24
REMARK SMILES IDX 21 25 22 26 23 27 24 28 25 30 26 31 27 32 79 33 28 34 78 35
REMARK SMILES IDX 29 36 30 37 31 38 72 39 32 40 77 41 71 42 73 43 33 44 76 45
REMARK SMILES IDX 70 46 69 47 34 49 60 50 43 51 59 52 44 53 47 54 58 55 74 56
REMARK SMILES IDX 45 57 46 58 57 60 75 61 48 62 35 63 36 64 41 65 37 66 38 67
REMARK SMILES IDX 40 68 42 69 39 70 61 71 62 72 67 73 63 74 64 75 66 76 68 77
REMARK SMILES IDX 65 78 49 79 50 80 55 81 51 82 52 83 54 84 56 85 53 86
REMARK H PARENT 19 5 12 13 23 29 73 48 47 59
REMARK Flexibility Score: inf
ROOT
ATOM      1  C   UNL A   1      32.924  30.708  27.039  1.00  0.00     0.118 C 
ENDROOT
BRANCH   1   2
ATOM      2  N   UNL A   1      32.060  29.685  27.607  1.00  0.00    -0.352 N 
ATOM      3  C   UNL A   1      31.797  28.387  27.246  1.00  0.00     0.251 C 
ATOM      4  O   UNL A   1      31.048  27.739  27.978  1.00  0.00    -0.269 OA
ATOM      5  H   UNL A   1      31.568  29.982  28.407  1.00  0.00     0.163 HD
BRANCH   3   6
ATOM      6  C   UNL A   1      32.415  27.718  26.066  1.00  0.00     0.039 A 
ATOM      7  C   UNL A   1      33.337  26.282  23.808  1.00  0.00     0.034 A 
ATOM      8  C   UNL A   1      32.131  26.983  23.763  1.00  0.00     0.026 A 
ATOM      9  C   UNL A   1      34.118  26.393  24.955  1.00  0.00     0.026 A 
ATOM     10  C   UNL A   1      31.663  27.676  24.884  1.00  0.00     0.016 A 
ATOM     11  C   UNL A   1      33.680  27.133  26.056  1.00  0.00     0.016 A 
BRANCH   7  12
ATOM     12  N   UNL A   1      33.649  25.397  22.794  1.00  0.00    -0.379 N 
ATOM     13  H   UNL A   1      34.099  25.722  21.980  1.00  0.00     0.160 HD
BRANCH  12  14
ATOM     14  C   UNL A   1      33.316  23.991  22.924  1.00  0.00     0.169 C 
BRANCH  14  15
ATOM     15  C   UNL A   1      34.017  23.342  24.054  1.00  0.00     0.066 A 
ATOM     16  C   UNL A   1      36.403  22.956  23.117  1.00  0.00     0.069 C 
ATOM     17  C   UNL A   1      35.335  22.894  24.144  1.00  0.00     0.062 A 
ATOM     18  N   UNL A   1      35.592  22.321  25.370  1.00  0.00    -0.224 NA
ATOM     19  C   UNL A   1      34.457  22.430  25.998  1.00  0.00     0.194 A 
ATOM     20  N   UNL A   1      33.465  23.047  25.283  1.00  0.00    -0.290 N 
ATOM     21  S   UNL A   1      33.925  21.960  27.580  1.00  0.00    -0.105 S 
ATOM     22  C   UNL A   1      32.262  23.182  25.972  1.00  0.00     0.032 A 
ATOM     23  C   UNL A   1      32.349  22.651  27.210  1.00  0.00     0.090 A 
ATOM     24  C   UNL A   1      31.032  23.837  25.455  1.00  0.00     0.066 C 
ENDBRANCH  14  15
ENDBRANCH  12  14
ENDBRANCH   7  12
ENDBRANCH   3   6
ENDBRANCH   1   2
BRANCH   1  25
ATOM     25  C   UNL A   1      34.404  30.434  27.344  1.00  0.00     0.042 C 
BRANCH  25  26
ATOM     26  C   UNL A   1      35.174  31.709  27.637  1.00  0.00     0.118 C 
BRANCH  26  27
ATOM     27  N   UNL A   1      34.765  32.317  28.903  1.00  0.00    -0.352 N 
ATOM     28  C   UNL A   1      35.168  31.997  30.179  1.00  0.00     0.251 C 
ATOM     29  H   UNL A   1      34.115  33.053  28.834  1.00  0.00     0.163 HD
ATOM     30  O   UNL A   1      34.486  32.334  31.149  1.00  0.00    -0.269 OA
BRANCH  28  31
ATOM     31  C   UNL A   1      36.417  31.247  30.380  1.00  0.00     0.039 A 
ATOM     32  C   UNL A   1      36.404  29.860  30.548  1.00  0.00     0.014 A 
ATOM     33  C   UNL A   1      37.620  31.952  30.393  1.00  0.00     0.014 A 
ATOM     34  C   UNL A   1      37.615  29.184  30.651  1.00  0.00     0.010 A 
ATOM     35  C   UNL A   1      38.811  31.275  30.338  1.00  0.00     0.010 A 
ATOM     36  C   UNL A   1      38.817  29.898  30.520  1.00  0.00    -0.014 A 
BRANCH  36  37
ATOM     37  C   UNL A   1      40.090  29.198  30.399  1.00  0.00     0.031 A 
ATOM     38  C   UNL A   1      40.784  29.039  31.704  1.00  0.00     0.074 A 
ATOM     39  C   UNL A   1      40.476  28.560  29.271  1.00  0.00     0.049 A 
ATOM     40  N   UNL A   1      41.863  29.627  32.098  1.00  0.00    -0.248 NA
ATOM     41  C   UNL A   1      40.099  28.290  32.774  1.00  0.00     0.031 C 
ATOM     42  C   UNL A   1      39.705  28.384  28.034  1.00  0.00     0.029 A 
ATOM     43  N   UNL A   1      41.606  27.838  29.019  1.00  0.00    -0.354 N 
ATOM     44  C   UNL A   1      42.128  29.122  33.370  1.00  0.00     0.074 A 
ATOM     45  C   UNL A   1      40.911  28.503  33.813  1.00  0.00     0.031 C 
ATOM     46  C   UNL A   1      40.278  27.430  27.267  1.00  0.00     0.029 A 
ATOM     47  C   UNL A   1      41.543  27.052  27.868  1.00  0.00     0.049 A 
ATOM     48  H   UNL A   1      42.400  27.867  29.601  1.00  0.00     0.167 HD
ATOM     49  C   UNL A   1      43.415  28.986  33.797  1.00  0.00     0.037 A 
ATOM     50  C   UNL A   1      42.463  26.150  27.444  1.00  0.00     0.037 A 
ATOM     51  C   UNL A   1      44.300  29.724  32.929  1.00  0.00     0.049 A 
ATOM     52  C   UNL A   1      43.733  26.474  28.129  1.00  0.00     0.074 A 
ATOM     53  C   UNL A   1      44.547  31.049  32.646  1.00  0.00     0.029 A 
ATOM     54  N   UNL A   1      44.791  28.987  31.882  1.00  0.00    -0.354 N 
ATOM     55  N   UNL A   1      44.423  27.553  27.893  1.00  0.00    -0.248 NA
ATOM     56  C   UNL A   1      44.056  25.784  29.369  1.00  0.00     0.031 C 
ATOM     57  C   UNL A   1      44.956  31.084  31.280  1.00  0.00     0.029 A 
ATOM     58  C   UNL A   1      45.014  29.777  30.791  1.00  0.00     0.049 A 
ATOM     59  H   UNL A   1      44.960  28.017  31.914  1.00  0.00     0.167 HD
ATOM     60  C   UNL A   1      44.921  27.918  29.130  1.00  0.00     0.074 A 
ATOM     61  C   UNL A   1      44.817  26.716  29.950  1.00  0.00     0.031 C 
ATOM     62  C   UNL A   1      45.066  29.238  29.450  1.00  0.00     0.037 A 
BRANCH  49  63
ATOM     63  C   UNL A   1      43.942  27.818  34.618  1.00  0.00     0.057 A 
ATOM     64  C   UNL A   1      43.796  26.513  34.099  1.00  0.00     0.134 A 
ATOM     65  C   UNL A   1      44.278  27.868  35.987  1.00  0.00     0.134 A 
ATOM     66  F   UNL A   1      43.479  26.315  32.811  1.00  0.00    -0.206 F 
ATOM     67  C   UNL A   1      43.879  25.365  34.899  1.00  0.00     0.040 A 
ATOM     68  C   UNL A   1      44.408  26.724  36.783  1.00  0.00     0.040 A 
ATOM     69  F   UNL A   1      44.407  29.013  36.662  1.00  0.00    -0.206 F 
ATOM     70  C   UNL A   1      44.174  25.469  36.250  1.00  0.00     0.006 A 
ENDBRANCH  49  63
BRANCH  50  71
ATOM     71  C   UNL A   1      42.298  24.902  26.665  1.00  0.00     0.057 A 
ATOM     72  C   UNL A   1      43.049  24.662  25.502  1.00  0.00     0.134 A 
ATOM     73  C   UNL A   1      41.628  23.793  27.204  1.00  0.00     0.134 A 
ATOM     74  F   UNL A   1      43.752  25.649  24.930  1.00  0.00    -0.206 F 
ATOM     75  C   UNL A   1      43.157  23.385  24.933  1.00  0.00     0.040 A 
ATOM     76  C   UNL A   1      41.725  22.514  26.644  1.00  0.00     0.040 A 
ATOM     77  F   UNL A   1      40.933  23.897  28.346  1.00  0.00    -0.206 F 
ATOM     78  C   UNL A   1      42.506  22.303  25.514  1.00  0.00     0.006 A 
ENDBRANCH  50  71
BRANCH  62  79
ATOM     79  C   UNL A   1      45.113  30.221  28.315  1.00  0.00     0.057 A 
ATOM     80  C   UNL A   1      44.006  30.913  27.803  1.00  0.00     0.134 A 
ATOM     81  C   UNL A   1      46.366  30.553  27.790  1.00  0.00     0.134 A 
ATOM     82  F   UNL A   1      42.776  30.722  28.295  1.00  0.00    -0.206 F 
ATOM     83  C   UNL A   1      44.141  31.867  26.788  1.00  0.00     0.040 A 
ATOM     84  C   UNL A   1      46.520  31.528  26.804  1.00  0.00     0.040 A 
ATOM     85  F   UNL A   1      47.474  29.960  28.263  1.00  0.00    -0.206 F 
ATOM     86  C   UNL A   1      45.403  32.181  26.292  1.00  0.00     0.006 A 
ENDBRANCH  62  79
ENDBRANCH  36  37
ENDBRANCH  28  31
ENDBRANCH  26  27
ENDBRANCH  25  26
ENDBRANCH   1  25
TORSDOF 13
ENDMDL
