MODEL 1
REMARK VINA RESULT:     -11.0      0.000      0.000
REMARK SMILES C[C@H](C[N@H+](C)[C@H]1CC[C@H]([NH3+])CC1)C(=O)NCCCNC(=O)c1ccc(-c2c3nc(c(-c4c(F)cccc4F)c4ccc([nH]4)c(-c4c(F)cccc4F)c4nc(c(-c5c(F)cccc5F)c5ccc2[nH]5)C=C4)C=C3)cc1
REMARK SMILES IDX 16 1 15 2 13 3 14 4 2 6 1 7 3 8 4 9 5 10 6 12 7 13 12 14
REMARK SMILES IDX 8 15 11 16 9 17 10 18 17 22 18 23 19 24 20 25 21 27 22 28
REMARK SMILES IDX 23 29 75 30 24 31 74 32 25 33 26 34 27 35 68 36 28 37 73 38
REMARK SMILES IDX 67 39 69 40 29 41 72 42 66 43 65 44 30 46 56 47 39 48 55 49
REMARK SMILES IDX 40 50 43 51 54 52 70 53 41 54 42 55 53 57 71 58 44 59 31 60
REMARK SMILES IDX 32 61 37 62 33 63 34 64 36 65 38 66 35 67 57 68 58 69 63 70
REMARK SMILES IDX 59 71 60 72 62 73 64 74 61 75 45 76 46 77 51 78 47 79 48 80
REMARK SMILES IDX 50 81 52 82 49 83
REMARK H PARENT 15 5 4 11 10 19 10 20 10 21 19 26 69 45 43 56
REMARK Flexibility Score: inf
ROOT
ATOM      1  C   UNL A   1      31.774  30.612  26.133  1.00  0.00     0.117 C 
ENDROOT
BRANCH   1   2
ATOM      2  N   UNL A   1      33.128  30.216  26.480  1.00  0.00    -0.356 N 
ATOM      3  C   UNL A   1      33.778  29.035  26.314  1.00  0.00     0.228 C 
ATOM      4  O   UNL A   1      34.903  28.932  26.806  1.00  0.00    -0.275 OA
ATOM      5  H   UNL A   1      33.665  30.922  26.907  1.00  0.00     0.163 HD
BRANCH   3   6
ATOM      6  C   UNL A   1      33.158  27.886  25.539  1.00  0.00     0.130 C 
ATOM      7  C   UNL A   1      33.645  26.532  26.069  1.00  0.00     0.024 C 
BRANCH   6   8
ATOM      8  C   UNL A   1      33.278  28.099  24.014  1.00  0.00     0.275 C 
BRANCH   8   9
ATOM      9  N   UNL A   1      32.494  27.165  23.175  1.00  0.00    -0.334 N 
ATOM     10  C   UNL A   1      33.290  26.717  22.031  1.00  0.00     0.332 C 
ATOM     11  H   UNL A   1      32.289  26.338  23.737  1.00  0.00     0.348 HD
BRANCH   9  12
ATOM     12  C   UNL A   1      31.155  27.675  22.822  1.00  0.00     0.184 C 
ATOM     13  C   UNL A   1      31.151  29.198  22.598  1.00  0.00     0.071 C 
ATOM     14  C   UNL A   1      30.021  27.265  23.778  1.00  0.00     0.071 C 
ATOM     15  C   UNL A   1      29.800  29.650  22.039  1.00  0.00     0.071 C 
ATOM     16  C   UNL A   1      28.667  27.719  23.232  1.00  0.00     0.071 C 
ATOM     17  C   UNL A   1      28.648  29.227  22.960  1.00  0.00     0.181 C 
BRANCH  17  18
ATOM     18  N   UNL A   1      27.363  29.598  22.373  1.00  0.00    -0.355 N 
ATOM     19  H   UNL A   1      26.989  28.809  21.846  1.00  0.00     0.344 HD
ATOM     20  H   UNL A   1      27.491  30.394  21.749  1.00  0.00     0.344 HD
ATOM     21  H   UNL A   1      26.710  29.850  23.116  1.00  0.00     0.344 HD
ENDBRANCH  17  18
ENDBRANCH   9  12
ENDBRANCH   8   9
ENDBRANCH   6   8
ENDBRANCH   3   6
ENDBRANCH   1   2
BRANCH   1  22
ATOM     22  C   UNL A   1      31.443  31.984  26.702  1.00  0.00     0.042 C 
BRANCH  22  23
ATOM     23  C   UNL A   1      32.645  32.675  27.330  1.00  0.00     0.118 C 
BRANCH  23  24
ATOM     24  N   UNL A   1      32.401  34.091  27.579  1.00  0.00    -0.352 N 
ATOM     25  C   UNL A   1      32.961  34.927  28.510  1.00  0.00     0.251 C 
ATOM     26  H   UNL A   1      31.732  34.509  26.990  1.00  0.00     0.163 HD
ATOM     27  O   UNL A   1      32.459  36.025  28.735  1.00  0.00    -0.269 OA
BRANCH  25  28
ATOM     28  C   UNL A   1      34.159  34.493  29.254  1.00  0.00     0.039 A 
ATOM     29  C   UNL A   1      34.007  33.953  30.532  1.00  0.00     0.014 A 
ATOM     30  C   UNL A   1      35.428  34.611  28.681  1.00  0.00     0.014 A 
ATOM     31  C   UNL A   1      35.124  33.455  31.203  1.00  0.00     0.010 A 
ATOM     32  C   UNL A   1      36.523  34.033  29.312  1.00  0.00     0.010 A 
ATOM     33  C   UNL A   1      36.381  33.447  30.577  1.00  0.00    -0.014 A 
BRANCH  33  34
ATOM     34  C   UNL A   1      37.559  32.813  31.218  1.00  0.00     0.031 A 
ATOM     35  C   UNL A   1      38.200  31.606  30.594  1.00  0.00     0.074 A 
ATOM     36  C   UNL A   1      37.999  33.281  32.402  1.00  0.00     0.049 A 
ATOM     37  N   UNL A   1      39.178  30.864  31.048  1.00  0.00    -0.248 NA
ATOM     38  C   UNL A   1      37.653  31.157  29.304  1.00  0.00     0.031 C 
ATOM     39  C   UNL A   1      37.428  34.419  33.129  1.00  0.00     0.029 A 
ATOM     40  N   UNL A   1      39.019  32.849  33.211  1.00  0.00    -0.354 N 
ATOM     41  C   UNL A   1      39.355  29.857  30.107  1.00  0.00     0.074 A 
ATOM     42  C   UNL A   1      38.347  30.050  29.086  1.00  0.00     0.031 C 
ATOM     43  C   UNL A   1      38.121  34.607  34.263  1.00  0.00     0.029 A 
ATOM     44  C   UNL A   1      39.150  33.578  34.368  1.00  0.00     0.049 A 
ATOM     45  H   UNL A   1      39.602  32.089  32.984  1.00  0.00     0.167 HD
ATOM     46  C   UNL A   1      40.286  28.876  30.085  1.00  0.00     0.037 A 
ATOM     47  C   UNL A   1      39.994  33.425  35.405  1.00  0.00     0.037 A 
ATOM     48  C   UNL A   1      41.294  28.697  31.097  1.00  0.00     0.049 A 
ATOM     49  C   UNL A   1      41.000  32.308  35.371  1.00  0.00     0.074 A 
ATOM     50  C   UNL A   1      42.320  27.770  31.137  1.00  0.00     0.029 A 
ATOM     51  N   UNL A   1      41.397  29.458  32.253  1.00  0.00    -0.354 N 
ATOM     52  N   UNL A   1      41.203  31.406  34.440  1.00  0.00    -0.248 NA
ATOM     53  C   UNL A   1      41.892  32.185  36.531  1.00  0.00     0.031 C 
ATOM     54  C   UNL A   1      43.008  27.931  32.344  1.00  0.00     0.029 A 
ATOM     55  C   UNL A   1      42.448  28.998  33.028  1.00  0.00     0.049 A 
ATOM     56  H   UNL A   1      40.809  30.212  32.487  1.00  0.00     0.167 HD
ATOM     57  C   UNL A   1      42.262  30.627  34.889  1.00  0.00     0.074 A 
ATOM     58  C   UNL A   1      42.670  31.175  36.166  1.00  0.00     0.031 C 
ATOM     59  C   UNL A   1      42.842  29.553  34.299  1.00  0.00     0.037 A 
BRANCH  46  60
ATOM     60  C   UNL A   1      40.256  27.917  28.929  1.00  0.00     0.057 A 
ATOM     61  C   UNL A   1      40.971  28.158  27.748  1.00  0.00     0.134 A 
ATOM     62  C   UNL A   1      39.532  26.721  29.011  1.00  0.00     0.134 A 
ATOM     63  F   UNL A   1      41.676  29.290  27.598  1.00  0.00    -0.206 F 
ATOM     64  C   UNL A   1      40.943  27.259  26.681  1.00  0.00     0.040 A 
ATOM     65  C   UNL A   1      39.521  25.800  27.963  1.00  0.00     0.040 A 
ATOM     66  F   UNL A   1      38.829  26.423  30.115  1.00  0.00    -0.206 F 
ATOM     67  C   UNL A   1      40.223  26.072  26.790  1.00  0.00     0.006 A 
ENDBRANCH  46  60
BRANCH  47  68
ATOM     68  C   UNL A   1      39.932  34.356  36.561  1.00  0.00     0.057 A 
ATOM     69  C   UNL A   1      39.180  34.045  37.699  1.00  0.00     0.134 A 
ATOM     70  C   UNL A   1      40.611  35.581  36.553  1.00  0.00     0.134 A 
ATOM     71  F   UNL A   1      38.492  32.895  37.760  1.00  0.00    -0.206 F 
ATOM     72  C   UNL A   1      39.085  34.927  38.777  1.00  0.00     0.040 A 
ATOM     73  C   UNL A   1      40.548  36.460  37.635  1.00  0.00     0.040 A 
ATOM     74  F   UNL A   1      41.357  35.935  35.496  1.00  0.00    -0.206 F 
ATOM     75  C   UNL A   1      39.775  36.136  38.749  1.00  0.00     0.006 A 
ENDBRANCH  47  68
BRANCH  59  76
ATOM     76  C   UNL A   1      43.996  28.916  35.017  1.00  0.00     0.057 A 
ATOM     77  C   UNL A   1      43.811  27.897  35.958  1.00  0.00     0.134 A 
ATOM     78  C   UNL A   1      45.313  29.305  34.735  1.00  0.00     0.134 A 
ATOM     79  F   UNL A   1      42.575  27.489  36.285  1.00  0.00    -0.206 F 
ATOM     80  C   UNL A   1      44.891  27.301  36.611  1.00  0.00     0.040 A 
ATOM     81  C   UNL A   1      46.403  28.695  35.359  1.00  0.00     0.040 A 
ATOM     82  F   UNL A   1      45.562  30.269  33.838  1.00  0.00    -0.206 F 
ATOM     83  C   UNL A   1      46.192  27.696  36.305  1.00  0.00     0.006 A 
ENDBRANCH  59  76
ENDBRANCH  33  34
ENDBRANCH  25  28
ENDBRANCH  23  24
ENDBRANCH  22  23
ENDBRANCH   1  22
TORSDOF 14
ENDMDL
MODEL 2
REMARK VINA RESULT:     -10.9      0.495      6.499
REMARK SMILES C[C@H](C[N@H+](C)[C@H]1CC[C@H]([NH3+])CC1)C(=O)NCCCNC(=O)c1ccc(-c2c3nc(c(-c4c(F)cccc4F)c4ccc([nH]4)c(-c4c(F)cccc4F)c4nc(c(-c5c(F)cccc5F)c5ccc2[nH]5)C=C4)C=C3)cc1
REMARK SMILES IDX 16 1 15 2 13 3 14 4 2 6 1 7 3 8 4 9 5 10 6 12 7 13 12 14
REMARK SMILES IDX 8 15 11 16 9 17 10 18 17 22 18 23 19 24 20 25 21 27 22 28
REMARK SMILES IDX 23 29 75 30 24 31 74 32 25 33 26 34 27 35 68 36 28 37 73 38
REMARK SMILES IDX 67 39 69 40 29 41 72 42 66 43 65 44 30 46 56 47 39 48 55 49
REMARK SMILES IDX 40 50 43 51 54 52 70 53 41 54 42 55 53 57 71 58 44 59 31 60
REMARK SMILES IDX 32 61 37 62 33 63 34 64 36 65 38 66 35 67 57 68 58 69 63 70
REMARK SMILES IDX 59 71 60 72 62 73 64 74 61 75 45 76 46 77 51 78 47 79 48 80
REMARK SMILES IDX 50 81 52 82 49 83
REMARK H PARENT 15 5 4 11 10 19 10 20 10 21 19 26 69 45 43 56
REMARK Flexibility Score: inf
ROOT
ATOM      1  C   UNL A   1      31.654  30.655  26.506  1.00  0.00     0.117 C 
ENDROOT
BRANCH   1   2
ATOM      2  N   UNL A   1      33.031  30.257  26.740  1.00  0.00    -0.356 N 
ATOM      3  C   UNL A   1      33.677  29.094  26.472  1.00  0.00     0.228 C 
ATOM      4  O   UNL A   1      34.834  28.979  26.881  1.00  0.00    -0.275 OA
ATOM      5  H   UNL A   1      33.590  30.947  27.165  1.00  0.00     0.163 HD
BRANCH   3   6
ATOM      6  C   UNL A   1      33.016  27.977  25.684  1.00  0.00     0.130 C 
ATOM      7  C   UNL A   1      33.530  26.603  26.129  1.00  0.00     0.024 C 
BRANCH   6   8
ATOM      8  C   UNL A   1      33.053  28.255  24.165  1.00  0.00     0.275 C 
BRANCH   8   9
ATOM      9  N   UNL A   1      32.421  27.223  23.312  1.00  0.00    -0.334 N 
ATOM     10  C   UNL A   1      33.243  26.967  22.128  1.00  0.00     0.332 C 
ATOM     11  H   UNL A   1      32.389  26.354  23.846  1.00  0.00     0.348 HD
BRANCH   9  12
ATOM     12  C   UNL A   1      31.000  27.493  23.019  1.00  0.00     0.184 C 
ATOM     13  C   UNL A   1      30.714  28.997  22.857  1.00  0.00     0.071 C 
ATOM     14  C   UNL A   1      29.994  26.851  23.990  1.00  0.00     0.071 C 
ATOM     15  C   UNL A   1      29.283  29.214  22.356  1.00  0.00     0.071 C 
ATOM     16  C   UNL A   1      28.562  27.070  23.502  1.00  0.00     0.071 C 
ATOM     17  C   UNL A   1      28.261  28.558  23.292  1.00  0.00     0.181 C 
BRANCH  17  18
ATOM     18  N   UNL A   1      26.909  28.708  22.758  1.00  0.00    -0.355 N 
ATOM     19  H   UNL A   1      26.452  27.797  22.727  1.00  0.00     0.344 HD
ATOM     20  H   UNL A   1      26.958  29.097  21.816  1.00  0.00     0.344 HD
ATOM     21  H   UNL A   1      26.375  29.337  23.359  1.00  0.00     0.344 HD
ENDBRANCH  17  18
ENDBRANCH   9  12
ENDBRANCH   8   9
ENDBRANCH   6   8
ENDBRANCH   3   6
ENDBRANCH   1   2
BRANCH   1  22
ATOM     22  C   UNL A   1      31.469  32.148  26.729  1.00  0.00     0.042 C 
BRANCH  22  23
ATOM     23  C   UNL A   1      32.740  32.842  27.202  1.00  0.00     0.118 C 
BRANCH  23  24
ATOM     24  N   UNL A   1      32.495  34.214  27.628  1.00  0.00    -0.352 N 
ATOM     25  C   UNL A   1      33.034  34.916  28.675  1.00  0.00     0.251 C 
ATOM     26  H   UNL A   1      31.844  34.711  27.082  1.00  0.00     0.163 HD
ATOM     27  O   UNL A   1      32.531  35.980  29.029  1.00  0.00    -0.269 OA
BRANCH  25  28
ATOM     28  C   UNL A   1      34.209  34.380  29.386  1.00  0.00     0.039 A 
ATOM     29  C   UNL A   1      34.026  33.723  30.604  1.00  0.00     0.014 A 
ATOM     30  C   UNL A   1      35.489  34.519  28.843  1.00  0.00     0.014 A 
ATOM     31  C   UNL A   1      35.120  33.131  31.236  1.00  0.00     0.010 A 
ATOM     32  C   UNL A   1      36.559  33.852  29.426  1.00  0.00     0.010 A 
ATOM     33  C   UNL A   1      36.385  33.150  30.626  1.00  0.00    -0.014 A 
BRANCH  33  34
ATOM     34  C   UNL A   1      37.537  32.425  31.216  1.00  0.00     0.031 A 
ATOM     35  C   UNL A   1      38.178  32.927  32.479  1.00  0.00     0.074 A 
ATOM     36  C   UNL A   1      38.053  31.363  30.567  1.00  0.00     0.049 A 
ATOM     37  N   UNL A   1      39.243  32.483  33.096  1.00  0.00    -0.248 NA
ATOM     38  C   UNL A   1      37.556  34.096  33.119  1.00  0.00     0.031 C 
ATOM     39  C   UNL A   1      37.545  30.812  29.308  1.00  0.00     0.029 A 
ATOM     40  N   UNL A   1      39.126  30.565  30.870  1.00  0.00    -0.354 N 
ATOM     41  C   UNL A   1      39.424  33.324  34.187  1.00  0.00     0.074 A 
ATOM     42  C   UNL A   1      38.394  34.337  34.116  1.00  0.00     0.031 C 
ATOM     43  C   UNL A   1      38.293  29.753  28.959  1.00  0.00     0.029 A 
ATOM     44  C   UNL A   1      39.360  29.581  29.941  1.00  0.00     0.049 A 
ATOM     45  H   UNL A   1      39.678  30.687  31.676  1.00  0.00     0.167 HD
ATOM     46  C   UNL A   1      40.351  33.245  35.170  1.00  0.00     0.037 A 
ATOM     47  C   UNL A   1      40.332  28.653  29.878  1.00  0.00     0.037 A 
ATOM     48  C   UNL A   1      41.366  32.226  35.242  1.00  0.00     0.049 A 
ATOM     49  C   UNL A   1      41.369  28.605  30.966  1.00  0.00     0.074 A 
ATOM     50  C   UNL A   1      42.315  32.023  36.228  1.00  0.00     0.029 A 
ATOM     51  N   UNL A   1      41.568  31.243  34.284  1.00  0.00    -0.354 N 
ATOM     52  N   UNL A   1      41.485  29.362  32.031  1.00  0.00    -0.248 NA
ATOM     53  C   UNL A   1      42.410  27.576  30.845  1.00  0.00     0.031 C 
ATOM     54  C   UNL A   1      43.128  30.954  35.839  1.00  0.00     0.029 A 
ATOM     55  C   UNL A   1      42.649  30.453  34.639  1.00  0.00     0.049 A 
ATOM     56  H   UNL A   1      41.025  31.125  33.471  1.00  0.00     0.167 HD
ATOM     57  C   UNL A   1      42.594  28.885  32.718  1.00  0.00     0.074 A 
ATOM     58  C   UNL A   1      43.103  27.761  31.959  1.00  0.00     0.031 C 
ATOM     59  C   UNL A   1      43.144  29.337  33.872  1.00  0.00     0.037 A 
BRANCH  46  60
ATOM     60  C   UNL A   1      40.311  34.291  36.247  1.00  0.00     0.057 A 
ATOM     61  C   UNL A   1      41.037  35.485  36.148  1.00  0.00     0.134 A 
ATOM     62  C   UNL A   1      39.511  34.116  37.383  1.00  0.00     0.134 A 
ATOM     63  F   UNL A   1      41.833  35.711  35.091  1.00  0.00    -0.206 F 
ATOM     64  C   UNL A   1      40.990  36.455  37.151  1.00  0.00     0.040 A 
ATOM     65  C   UNL A   1      39.431  35.091  38.378  1.00  0.00     0.040 A 
ATOM     66  F   UNL A   1      38.784  32.999  37.542  1.00  0.00    -0.206 F 
ATOM     67  C   UNL A   1      40.179  36.262  38.266  1.00  0.00     0.006 A 
ENDBRANCH  46  60
BRANCH  47  68
ATOM     68  C   UNL A   1      40.371  27.688  28.750  1.00  0.00     0.057 A 
ATOM     69  C   UNL A   1      41.127  27.950  27.601  1.00  0.00     0.134 A 
ATOM     70  C   UNL A   1      39.647  26.489  28.785  1.00  0.00     0.134 A 
ATOM     71  F   UNL A   1      41.827  29.089  27.499  1.00  0.00    -0.206 F 
ATOM     72  C   UNL A   1      41.143  27.068  26.519  1.00  0.00     0.040 A 
ATOM     73  C   UNL A   1      39.677  25.585  27.722  1.00  0.00     0.040 A 
ATOM     74  F   UNL A   1      38.910  26.175  29.860  1.00  0.00    -0.206 F 
ATOM     75  C   UNL A   1      40.421  25.878  26.581  1.00  0.00     0.006 A 
ENDBRANCH  47  68
BRANCH  59  76
ATOM     76  C   UNL A   1      44.342  28.601  34.396  1.00  0.00     0.057 A 
ATOM     77  C   UNL A   1      45.649  28.992  34.080  1.00  0.00     0.134 A 
ATOM     78  C   UNL A   1      44.186  27.508  35.259  1.00  0.00     0.134 A 
ATOM     79  F   UNL A   1      45.868  30.021  33.247  1.00  0.00    -0.206 F 
ATOM     80  C   UNL A   1      46.757  28.309  34.582  1.00  0.00     0.040 A 
ATOM     81  C   UNL A   1      45.286  26.836  35.793  1.00  0.00     0.040 A 
ATOM     82  F   UNL A   1      42.963  27.085  35.610  1.00  0.00    -0.206 F 
ATOM     83  C   UNL A   1      46.576  27.232  35.449  1.00  0.00     0.006 A 
ENDBRANCH  59  76
ENDBRANCH  33  34
ENDBRANCH  25  28
ENDBRANCH  23  24
ENDBRANCH  22  23
ENDBRANCH   1  22
TORSDOF 14
ENDMDL
MODEL 3
REMARK VINA RESULT:     -10.9      5.355      9.791
REMARK SMILES C[C@H](C[N@H+](C)[C@H]1CC[C@H]([NH3+])CC1)C(=O)NCCCNC(=O)c1ccc(-c2c3nc(c(-c4c(F)cccc4F)c4ccc([nH]4)c(-c4c(F)cccc4F)c4nc(c(-c5c(F)cccc5F)c5ccc2[nH]5)C=C4)C=C3)cc1
REMARK SMILES IDX 16 1 15 2 13 3 14 4 2 6 1 7 3 8 4 9 5 10 6 12 7 13 12 14
REMARK SMILES IDX 8 15 11 16 9 17 10 18 17 22 18 23 19 24 20 25 21 27 22 28
REMARK SMILES IDX 23 29 75 30 24 31 74 32 25 33 26 34 27 35 68 36 28 37 73 38
REMARK SMILES IDX 67 39 69 40 29 41 72 42 66 43 65 44 30 46 56 47 39 48 55 49
REMARK SMILES IDX 40 50 43 51 54 52 70 53 41 54 42 55 53 57 71 58 44 59 31 60
REMARK SMILES IDX 32 61 37 62 33 63 34 64 36 65 38 66 35 67 57 68 58 69 63 70
REMARK SMILES IDX 59 71 60 72 62 73 64 74 61 75 45 76 46 77 51 78 47 79 48 80
REMARK SMILES IDX 50 81 52 82 49 83
REMARK H PARENT 15 5 4 11 10 19 10 20 10 21 19 26 69 45 43 56
REMARK Flexibility Score: inf
ROOT
ATOM      1  C   UNL A   1      36.498  20.645  25.001  1.00  0.00     0.117 C 
ENDROOT
BRANCH   1   2
ATOM      2  N   UNL A   1      36.694  21.939  25.631  1.00  0.00    -0.356 N 
ATOM      3  C   UNL A   1      35.957  23.078  25.569  1.00  0.00     0.228 C 
ATOM      4  O   UNL A   1      36.415  24.082  26.119  1.00  0.00    -0.275 OA
ATOM      5  H   UNL A   1      37.497  22.001  26.198  1.00  0.00     0.163 HD
BRANCH   3   6
ATOM      6  C   UNL A   1      34.612  23.120  24.868  1.00  0.00     0.130 C 
ATOM      7  C   UNL A   1      34.382  24.475  24.186  1.00  0.00     0.024 C 
BRANCH   6   8
ATOM      8  C   UNL A   1      33.475  22.624  25.788  1.00  0.00     0.275 C 
BRANCH   8   9
ATOM      9  N   UNL A   1      32.231  22.210  25.101  1.00  0.00    -0.334 N 
ATOM     10  C   UNL A   1      31.060  22.722  25.815  1.00  0.00     0.332 C 
ATOM     11  H   UNL A   1      32.228  22.642  24.176  1.00  0.00     0.348 HD
BRANCH   9  12
ATOM     12  C   UNL A   1      32.177  20.767  24.799  1.00  0.00     0.184 C 
ATOM     13  C   UNL A   1      33.049  19.938  25.761  1.00  0.00     0.071 C 
ATOM     14  C   UNL A   1      32.473  20.388  23.338  1.00  0.00     0.071 C 
ATOM     15  C   UNL A   1      32.805  18.442  25.544  1.00  0.00     0.071 C 
ATOM     16  C   UNL A   1      32.239  18.893  23.113  1.00  0.00     0.071 C 
ATOM     17  C   UNL A   1      33.064  18.043  24.085  1.00  0.00     0.181 C 
BRANCH  17  18
ATOM     18  N   UNL A   1      32.751  16.631  23.880  1.00  0.00    -0.355 N 
ATOM     19  H   UNL A   1      33.292  16.064  24.534  1.00  0.00     0.344 HD
ATOM     20  H   UNL A   1      32.988  16.366  22.924  1.00  0.00     0.344 HD
ATOM     21  H   UNL A   1      31.755  16.477  24.039  1.00  0.00     0.344 HD
ENDBRANCH  17  18
ENDBRANCH   9  12
ENDBRANCH   8   9
ENDBRANCH   6   8
ENDBRANCH   3   6
ENDBRANCH   1   2
BRANCH   1  22
ATOM     22  C   UNL A   1      37.829  19.955  24.740  1.00  0.00     0.042 C 
BRANCH  22  23
ATOM     23  C   UNL A   1      38.918  20.371  25.720  1.00  0.00     0.118 C 
BRANCH  23  24
ATOM     24  N   UNL A   1      39.970  19.369  25.833  1.00  0.00    -0.352 N 
ATOM     25  C   UNL A   1      41.306  19.527  26.103  1.00  0.00     0.251 C 
ATOM     26  H   UNL A   1      39.679  18.439  25.694  1.00  0.00     0.163 HD
ATOM     27  O   UNL A   1      42.086  18.596  25.919  1.00  0.00    -0.269 OA
BRANCH  25  28
ATOM     28  C   UNL A   1      41.803  20.824  26.597  1.00  0.00     0.039 A 
ATOM     29  C   UNL A   1      42.311  21.750  25.685  1.00  0.00     0.014 A 
ATOM     30  C   UNL A   1      41.755  21.127  27.960  1.00  0.00     0.014 A 
ATOM     31  C   UNL A   1      42.695  23.014  26.132  1.00  0.00     0.010 A 
ATOM     32  C   UNL A   1      42.052  22.415  28.389  1.00  0.00     0.010 A 
ATOM     33  C   UNL A   1      42.522  23.371  27.479  1.00  0.00    -0.014 A 
BRANCH  33  34
ATOM     34  C   UNL A   1      42.808  24.747  27.957  1.00  0.00     0.031 A 
ATOM     35  C   UNL A   1      44.206  25.134  28.350  1.00  0.00     0.074 A 
ATOM     36  C   UNL A   1      41.793  25.618  28.110  1.00  0.00     0.049 A 
ATOM     37  N   UNL A   1      44.635  26.255  28.871  1.00  0.00    -0.248 NA
ATOM     38  C   UNL A   1      45.254  24.119  28.157  1.00  0.00     0.031 C 
ATOM     39  C   UNL A   1      40.386  25.342  27.806  1.00  0.00     0.029 A 
ATOM     40  N   UNL A   1      41.784  26.909  28.572  1.00  0.00    -0.354 N 
ATOM     41  C   UNL A   1      45.998  26.076  29.077  1.00  0.00     0.074 A 
ATOM     42  C   UNL A   1      46.312  24.721  28.679  1.00  0.00     0.031 C 
ATOM     43  C   UNL A   1      39.656  26.437  28.069  1.00  0.00     0.029 A 
ATOM     44  C   UNL A   1      40.533  27.475  28.604  1.00  0.00     0.049 A 
ATOM     45  H   UNL A   1      42.598  27.385  28.856  1.00  0.00     0.167 HD
ATOM     46  C   UNL A   1      46.906  26.967  29.537  1.00  0.00     0.037 A 
ATOM     47  C   UNL A   1      40.133  28.686  29.031  1.00  0.00     0.037 A 
ATOM     48  C   UNL A   1      46.589  28.319  29.919  1.00  0.00     0.049 A 
ATOM     49  C   UNL A   1      41.158  29.648  29.566  1.00  0.00     0.074 A 
ATOM     50  C   UNL A   1      47.447  29.319  30.341  1.00  0.00     0.029 A 
ATOM     51  N   UNL A   1      45.310  28.856  29.934  1.00  0.00    -0.354 N 
ATOM     52  N   UNL A   1      42.454  29.491  29.689  1.00  0.00    -0.248 NA
ATOM     53  C   UNL A   1      40.665  30.954  30.023  1.00  0.00     0.031 C 
ATOM     54  C   UNL A   1      46.681  30.443  30.666  1.00  0.00     0.029 A 
ATOM     55  C   UNL A   1      45.352  30.163  30.390  1.00  0.00     0.049 A 
ATOM     56  H   UNL A   1      44.493  28.379  29.662  1.00  0.00     0.167 HD
ATOM     57  C   UNL A   1      42.935  30.685  30.211  1.00  0.00     0.074 A 
ATOM     58  C   UNL A   1      41.792  31.563  30.363  1.00  0.00     0.031 C 
ATOM     59  C   UNL A   1      44.206  31.024  30.537  1.00  0.00     0.037 A 
BRANCH  46  60
ATOM     60  C   UNL A   1      48.332  26.508  29.652  1.00  0.00     0.057 A 
ATOM     61  C   UNL A   1      49.262  26.713  28.625  1.00  0.00     0.134 A 
ATOM     62  C   UNL A   1      48.788  25.883  30.819  1.00  0.00     0.134 A 
ATOM     63  F   UNL A   1      48.888  27.296  27.475  1.00  0.00    -0.206 F 
ATOM     64  C   UNL A   1      50.587  26.290  28.742  1.00  0.00     0.040 A 
ATOM     65  C   UNL A   1      50.118  25.481  30.961  1.00  0.00     0.040 A 
ATOM     66  F   UNL A   1      47.953  25.659  31.846  1.00  0.00    -0.206 F 
ATOM     67  C   UNL A   1      51.019  25.678  29.917  1.00  0.00     0.006 A 
ENDBRANCH  46  60
BRANCH  47  68
ATOM     68  C   UNL A   1      38.698  29.065  28.966  1.00  0.00     0.057 A 
ATOM     69  C   UNL A   1      38.135  29.559  27.784  1.00  0.00     0.134 A 
ATOM     70  C   UNL A   1      37.859  28.954  30.082  1.00  0.00     0.134 A 
ATOM     71  F   UNL A   1      38.891  29.706  26.685  1.00  0.00    -0.206 F 
ATOM     72  C   UNL A   1      36.797  29.951  27.718  1.00  0.00     0.040 A 
ATOM     73  C   UNL A   1      36.513  29.316  30.023  1.00  0.00     0.040 A 
ATOM     74  F   UNL A   1      38.334  28.480  31.242  1.00  0.00    -0.206 F 
ATOM     75  C   UNL A   1      35.980  29.825  28.840  1.00  0.00     0.006 A 
ENDBRANCH  47  68
BRANCH  59  76
ATOM     76  C   UNL A   1      44.432  32.410  31.068  1.00  0.00     0.057 A 
ATOM     77  C   UNL A   1      44.429  32.688  32.440  1.00  0.00     0.134 A 
ATOM     78  C   UNL A   1      44.692  33.474  30.193  1.00  0.00     0.134 A 
ATOM     79  F   UNL A   1      44.172  31.717  33.330  1.00  0.00    -0.206 F 
ATOM     80  C   UNL A   1      44.653  33.977  32.924  1.00  0.00     0.040 A 
ATOM     81  C   UNL A   1      44.948  34.762  30.667  1.00  0.00     0.040 A 
ATOM     82  F   UNL A   1      44.718  33.277  28.868  1.00  0.00    -0.206 F 
ATOM     83  C   UNL A   1      44.921  35.017  32.036  1.00  0.00     0.006 A 
ENDBRANCH  59  76
ENDBRANCH  33  34
ENDBRANCH  25  28
ENDBRANCH  23  24
ENDBRANCH  22  23
ENDBRANCH   1  22
TORSDOF 14
ENDMDL
