MODEL 1
REMARK VINA RESULT:     -12.2      0.000      0.000
REMARK SMILES C[C@@H]1[C@H](C(=O)NCCCNC(=O)c2ccc(-c3c4nc(c(-c5c(F)cccc5F)c5ccc([nH]5)c(-c5c(F)cccc5F)c5nc(c(-c6c(F)cccc6F)c6ccc3[nH]6)C=C5)C=C4)cc2)CC[N@@H+]1Cc1cnn(-c2ccccc2)c1
REMARK SMILES IDX 7 1 6 2 4 3 5 4 3 6 1 7 2 8 69 9 67 10 68 11 70 13 71 14
REMARK SMILES IDX 72 15 81 16 73 17 74 18 75 19 76 20 80 21 77 22 79 23 78 24
REMARK SMILES IDX 8 25 9 26 10 27 11 28 12 30 13 31 14 32 66 33 15 34 65 35
REMARK SMILES IDX 16 36 17 37 18 38 59 39 19 40 64 41 58 42 60 43 20 44 63 45
REMARK SMILES IDX 57 46 56 47 21 49 47 50 30 51 46 52 31 53 34 54 45 55 61 56
REMARK SMILES IDX 32 57 33 58 44 60 62 61 35 62 22 63 23 64 28 65 24 66 25 67
REMARK SMILES IDX 27 68 29 69 26 70 48 71 49 72 54 73 50 74 51 75 53 76 55 77
REMARK SMILES IDX 52 78 36 79 37 80 42 81 38 82 39 83 41 84 43 85 40 86
REMARK H PARENT 6 5 69 12 10 29 60 48 34 59
REMARK Flexibility Score: inf
ROOT
ATOM      1  C   UNL A   1      35.838  20.765  25.294  1.00  0.00     0.117 C 
ENDROOT
BRANCH   1   2
ATOM      2  N   UNL A   1      34.571  20.061  25.205  1.00  0.00    -0.356 N 
ATOM      3  C   UNL A   1      33.284  20.471  25.310  1.00  0.00     0.229 C 
ATOM      4  O   UNL A   1      32.430  19.576  25.286  1.00  0.00    -0.275 OA
ATOM      5  H   UNL A   1      34.665  19.097  25.034  1.00  0.00     0.163 HD
BRANCH   3   6
ATOM      6  C   UNL A   1      32.836  21.919  25.453  1.00  0.00     0.142 C 
ATOM      7  C   UNL A   1      32.829  22.145  22.841  1.00  0.00     0.076 C 
ATOM      8  C   UNL A   1      32.707  22.808  24.201  1.00  0.00     0.193 C 
ATOM      9  N   UNL A   1      31.523  23.624  24.458  1.00  0.00    -0.328 N 
ATOM     10  C   UNL A   1      31.586  22.175  26.290  1.00  0.00     0.081 C 
ATOM     11  C   UNL A   1      31.145  23.561  25.855  1.00  0.00     0.263 C 
ATOM     12  H   UNL A   1      31.863  24.550  24.193  1.00  0.00     0.348 HD
BRANCH   9  13
ATOM     13  C   UNL A   1      30.548  24.000  23.461  1.00  0.00     0.302 C 
BRANCH  13  14
ATOM     14  C   UNL A   1      30.513  25.466  23.185  1.00  0.00     0.045 A 
ATOM     15  C   UNL A   1      31.416  26.240  22.426  1.00  0.00     0.145 A 
ATOM     16  C   UNL A   1      29.529  26.376  23.523  1.00  0.00     0.124 A 
ATOM     17  N   UNL A   1      31.052  27.517  22.315  1.00  0.00    -0.176 NA
ATOM     18  N   UNL A   1      29.895  27.605  23.014  1.00  0.00    -0.240 N 
BRANCH  18  19
ATOM     19  C   UNL A   1      29.230  28.848  23.178  1.00  0.00     0.065 A 
ATOM     20  C   UNL A   1      29.939  29.965  23.644  1.00  0.00     0.028 A 
ATOM     21  C   UNL A   1      27.861  28.962  22.914  1.00  0.00     0.028 A 
ATOM     22  C   UNL A   1      29.288  31.187  23.828  1.00  0.00     0.002 A 
ATOM     23  C   UNL A   1      27.219  30.176  23.135  1.00  0.00     0.002 A 
ATOM     24  C   UNL A   1      27.924  31.292  23.574  1.00  0.00     0.000 A 
ENDBRANCH  18  19
ENDBRANCH  13  14
ENDBRANCH   9  13
ENDBRANCH   3   6
ENDBRANCH   1   2
BRANCH   1  25
ATOM     25  C   UNL A   1      37.020  19.850  24.985  1.00  0.00     0.042 C 
BRANCH  25  26
ATOM     26  C   UNL A   1      38.398  20.482  25.091  1.00  0.00     0.118 C 
BRANCH  26  27
ATOM     27  N   UNL A   1      39.458  19.525  25.364  1.00  0.00    -0.352 N 
ATOM     28  C   UNL A   1      40.682  19.651  25.979  1.00  0.00     0.251 C 
ATOM     29  H   UNL A   1      39.261  18.614  25.050  1.00  0.00     0.163 HD
ATOM     30  O   UNL A   1      41.421  18.667  26.009  1.00  0.00    -0.269 OA
BRANCH  28  31
ATOM     31  C   UNL A   1      41.163  20.927  26.577  1.00  0.00     0.039 A 
ATOM     32  C   UNL A   1      41.812  21.845  25.737  1.00  0.00     0.014 A 
ATOM     33  C   UNL A   1      41.051  21.228  27.934  1.00  0.00     0.014 A 
ATOM     34  C   UNL A   1      42.248  23.084  26.227  1.00  0.00     0.010 A 
ATOM     35  C   UNL A   1      41.415  22.490  28.412  1.00  0.00     0.010 A 
ATOM     36  C   UNL A   1      42.020  23.429  27.564  1.00  0.00    -0.014 A 
BRANCH  36  37
ATOM     37  C   UNL A   1      42.488  24.721  28.127  1.00  0.00     0.031 A 
ATOM     38  C   UNL A   1      41.497  25.828  28.342  1.00  0.00     0.074 A 
ATOM     39  C   UNL A   1      43.792  24.934  28.385  1.00  0.00     0.049 A 
ATOM     40  N   UNL A   1      41.702  27.053  28.750  1.00  0.00    -0.248 NA
ATOM     41  C   UNL A   1      40.090  25.520  28.037  1.00  0.00     0.031 C 
ATOM     42  C   UNL A   1      44.854  23.954  28.200  1.00  0.00     0.029 A 
ATOM     43  N   UNL A   1      44.454  26.047  28.840  1.00  0.00    -0.354 N 
ATOM     44  C   UNL A   1      40.455  27.660  28.752  1.00  0.00     0.074 A 
ATOM     45  C   UNL A   1      39.507  26.689  28.250  1.00  0.00     0.031 C 
ATOM     46  C   UNL A   1      46.035  24.498  28.530  1.00  0.00     0.029 A 
ATOM     47  C   UNL A   1      45.816  25.882  28.931  1.00  0.00     0.049 A 
ATOM     48  H   UNL A   1      43.996  26.886  29.078  1.00  0.00     0.167 HD
ATOM     49  C   UNL A   1      40.124  28.907  29.160  1.00  0.00     0.037 A 
ATOM     50  C   UNL A   1      46.781  26.748  29.290  1.00  0.00     0.037 A 
ATOM     51  C   UNL A   1      41.064  29.870  29.663  1.00  0.00     0.049 A 
ATOM     52  C   UNL A   1      46.395  28.139  29.701  1.00  0.00     0.074 A 
ATOM     53  C   UNL A   1      40.823  31.147  30.137  1.00  0.00     0.029 A 
ATOM     54  N   UNL A   1      42.433  29.661  29.754  1.00  0.00    -0.354 N 
ATOM     55  N   UNL A   1      45.201  28.679  29.758  1.00  0.00    -0.248 NA
ATOM     56  C   UNL A   1      47.483  29.039  30.106  1.00  0.00     0.031 C 
ATOM     57  C   UNL A   1      42.050  31.724  30.481  1.00  0.00     0.029 A 
ATOM     58  C   UNL A   1      43.052  30.794  30.257  1.00  0.00     0.049 A 
ATOM     59  H   UNL A   1      42.897  28.831  29.496  1.00  0.00     0.167 HD
ATOM     60  C   UNL A   1      45.391  29.966  30.241  1.00  0.00     0.074 A 
ATOM     61  C   UNL A   1      46.813  30.126  30.462  1.00  0.00     0.031 C 
ATOM     62  C   UNL A   1      44.467  30.928  30.482  1.00  0.00     0.037 A 
BRANCH  49  63
ATOM     63  C   UNL A   1      38.677  29.286  29.077  1.00  0.00     0.057 A 
ATOM     64  C   UNL A   1      37.838  29.226  30.198  1.00  0.00     0.134 A 
ATOM     65  C   UNL A   1      38.114  29.710  27.868  1.00  0.00     0.134 A 
ATOM     66  F   UNL A   1      38.313  28.808  31.381  1.00  0.00    -0.206 F 
ATOM     67  C   UNL A   1      36.483  29.549  30.112  1.00  0.00     0.040 A 
ATOM     68  C   UNL A   1      36.766  30.059  27.776  1.00  0.00     0.040 A 
ATOM     69  F   UNL A   1      38.863  29.788  26.758  1.00  0.00    -0.206 F 
ATOM     70  C   UNL A   1      35.945  29.972  28.898  1.00  0.00     0.006 A 
ENDBRANCH  49  63
BRANCH  50  71
ATOM     71  C   UNL A   1      48.203  26.321  29.306  1.00  0.00     0.057 A 
ATOM     72  C   UNL A   1      49.010  26.465  28.170  1.00  0.00     0.134 A 
ATOM     73  C   UNL A   1      48.785  25.751  30.444  1.00  0.00     0.134 A 
ATOM     74  F   UNL A   1      48.502  26.990  27.045  1.00  0.00    -0.206 F 
ATOM     75  C   UNL A   1      50.338  26.035  28.157  1.00  0.00     0.040 A 
ATOM     76  C   UNL A   1      50.118  25.335  30.451  1.00  0.00     0.040 A 
ATOM     77  F   UNL A   1      48.068  25.594  31.566  1.00  0.00    -0.206 F 
ATOM     78  C   UNL A   1      50.897  25.471  29.303  1.00  0.00     0.006 A 
ENDBRANCH  50  71
BRANCH  62  79
ATOM     79  C   UNL A   1      44.964  32.223  31.050  1.00  0.00     0.057 A 
ATOM     80  C   UNL A   1      45.088  32.424  32.430  1.00  0.00     0.134 A 
ATOM     81  C   UNL A   1      45.360  33.265  30.202  1.00  0.00     0.134 A 
ATOM     82  F   UNL A   1      44.709  31.469  33.293  1.00  0.00    -0.206 F 
ATOM     83  C   UNL A   1      45.574  33.624  32.949  1.00  0.00     0.040 A 
ATOM     84  C   UNL A   1      45.869  34.460  30.708  1.00  0.00     0.040 A 
ATOM     85  F   UNL A   1      45.269  33.131  28.871  1.00  0.00    -0.206 F 
ATOM     86  C   UNL A   1      45.974  34.644  32.085  1.00  0.00     0.006 A 
ENDBRANCH  62  79
ENDBRANCH  36  37
ENDBRANCH  28  31
ENDBRANCH  26  27
ENDBRANCH  25  26
ENDBRANCH   1  25
TORSDOF 13
ENDMDL
MODEL 2
REMARK VINA RESULT:     -12.2      3.740      8.996
REMARK SMILES C[C@@H]1[C@H](C(=O)NCCCNC(=O)c2ccc(-c3c4nc(c(-c5c(F)cccc5F)c5ccc([nH]5)c(-c5c(F)cccc5F)c5nc(c(-c6c(F)cccc6F)c6ccc3[nH]6)C=C5)C=C4)cc2)CC[N@@H+]1Cc1cnn(-c2ccccc2)c1
REMARK SMILES IDX 7 1 6 2 4 3 5 4 3 6 1 7 2 8 69 9 67 10 68 11 70 13 71 14
REMARK SMILES IDX 72 15 81 16 73 17 74 18 75 19 76 20 80 21 77 22 79 23 78 24
REMARK SMILES IDX 8 25 9 26 10 27 11 28 12 30 13 31 14 32 66 33 15 34 65 35
REMARK SMILES IDX 16 36 17 37 18 38 59 39 19 40 64 41 58 42 60 43 20 44 63 45
REMARK SMILES IDX 57 46 56 47 21 49 47 50 30 51 46 52 31 53 34 54 45 55 61 56
REMARK SMILES IDX 32 57 33 58 44 60 62 61 35 62 22 63 23 64 28 65 24 66 25 67
REMARK SMILES IDX 27 68 29 69 26 70 48 71 49 72 54 73 50 74 51 75 53 76 55 77
REMARK SMILES IDX 52 78 36 79 37 80 42 81 38 82 39 83 41 84 43 85 40 86
REMARK H PARENT 6 5 69 12 10 29 60 48 34 59
REMARK Flexibility Score: inf
ROOT
ATOM      1  C   UNL A   1      33.862  29.909  27.000  1.00  0.00     0.117 C 
ENDROOT
BRANCH   1   2
ATOM      2  N   UNL A   1      33.698  29.427  25.640  1.00  0.00    -0.356 N 
ATOM      3  C   UNL A   1      33.617  28.183  25.111  1.00  0.00     0.229 C 
ATOM      4  O   UNL A   1      33.582  28.125  23.875  1.00  0.00    -0.275 OA
ATOM      5  H   UNL A   1      33.631  30.146  24.971  1.00  0.00     0.163 HD
BRANCH   3   6
ATOM      6  C   UNL A   1      33.570  26.891  25.915  1.00  0.00     0.142 C 
ATOM      7  C   UNL A   1      30.954  27.060  25.976  1.00  0.00     0.076 C 
ATOM      8  C   UNL A   1      32.223  26.372  26.451  1.00  0.00     0.193 C 
ATOM      9  N   UNL A   1      32.309  24.921  26.301  1.00  0.00    -0.328 N 
ATOM     10  C   UNL A   1      34.289  25.683  25.322  1.00  0.00     0.081 C 
ATOM     11  C   UNL A   1      33.675  24.507  26.061  1.00  0.00     0.263 C 
ATOM     12  H   UNL A   1      31.966  24.610  27.211  1.00  0.00     0.348 HD
BRANCH   9  13
ATOM     13  C   UNL A   1      31.213  24.067  25.905  1.00  0.00     0.302 C 
BRANCH  13  14
ATOM     14  C   UNL A   1      31.613  22.989  24.952  1.00  0.00     0.045 A 
ATOM     15  C   UNL A   1      31.687  23.043  23.545  1.00  0.00     0.145 A 
ATOM     16  C   UNL A   1      32.102  21.730  25.243  1.00  0.00     0.124 A 
ATOM     17  N   UNL A   1      32.154  21.921  22.998  1.00  0.00    -0.176 NA
ATOM     18  N   UNL A   1      32.389  21.100  24.050  1.00  0.00    -0.240 N 
BRANCH  18  19
ATOM     19  C   UNL A   1      32.841  19.768  23.854  1.00  0.00     0.065 A 
ATOM     20  C   UNL A   1      33.925  19.281  24.599  1.00  0.00     0.028 A 
ATOM     21  C   UNL A   1      32.238  18.947  22.897  1.00  0.00     0.028 A 
ATOM     22  C   UNL A   1      34.390  17.979  24.398  1.00  0.00     0.002 A 
ATOM     23  C   UNL A   1      32.733  17.664  22.684  1.00  0.00     0.002 A 
ATOM     24  C   UNL A   1      33.792  17.169  23.438  1.00  0.00     0.000 A 
ENDBRANCH  18  19
ENDBRANCH  13  14
ENDBRANCH   9  13
ENDBRANCH   3   6
ENDBRANCH   1   2
BRANCH   1  25
ATOM     25  C   UNL A   1      32.712  30.819  27.424  1.00  0.00     0.042 C 
BRANCH  25  26
ATOM     26  C   UNL A   1      32.432  32.006  26.518  1.00  0.00     0.118 C 
BRANCH  26  27
ATOM     27  N   UNL A   1      32.210  33.249  27.237  1.00  0.00    -0.352 N 
ATOM     28  C   UNL A   1      32.968  33.932  28.160  1.00  0.00     0.251 C 
ATOM     29  H   UNL A   1      31.354  33.685  27.023  1.00  0.00     0.163 HD
ATOM     30  O   UNL A   1      32.490  34.946  28.669  1.00  0.00    -0.269 OA
BRANCH  28  31
ATOM     31  C   UNL A   1      34.320  33.483  28.592  1.00  0.00     0.039 A 
ATOM     32  C   UNL A   1      34.428  32.793  29.810  1.00  0.00     0.014 A 
ATOM     33  C   UNL A   1      35.486  33.762  27.878  1.00  0.00     0.014 A 
ATOM     34  C   UNL A   1      35.665  32.303  30.251  1.00  0.00     0.010 A 
ATOM     35  C   UNL A   1      36.708  33.213  28.275  1.00  0.00     0.010 A 
ATOM     36  C   UNL A   1      36.810  32.481  29.467  1.00  0.00    -0.014 A 
BRANCH  36  37
ATOM     37  C   UNL A   1      38.143  31.998  29.911  1.00  0.00     0.031 A 
ATOM     38  C   UNL A   1      38.637  30.665  29.430  1.00  0.00     0.074 A 
ATOM     39  C   UNL A   1      38.881  32.708  30.785  1.00  0.00     0.049 A 
ATOM     40  N   UNL A   1      39.730  30.024  29.750  1.00  0.00    -0.248 NA
ATOM     41  C   UNL A   1      37.774  29.948  28.476  1.00  0.00     0.031 C 
ATOM     42  C   UNL A   1      38.508  34.001  31.343  1.00  0.00     0.029 A 
ATOM     43  N   UNL A   1      40.091  32.437  31.375  1.00  0.00    -0.354 N 
ATOM     44  C   UNL A   1      39.688  28.834  29.039  1.00  0.00     0.074 A 
ATOM     45  C   UNL A   1      38.435  28.813  28.316  1.00  0.00     0.031 C 
ATOM     46  C   UNL A   1      39.456  34.417  32.196  1.00  0.00     0.029 A 
ATOM     47  C   UNL A   1      40.501  33.403  32.264  1.00  0.00     0.049 A 
ATOM     48  H   UNL A   1      40.615  31.626  31.181  1.00  0.00     0.167 HD
ATOM     49  C   UNL A   1      40.621  27.856  28.975  1.00  0.00     0.037 A 
ATOM     50  C   UNL A   1      41.591  33.464  33.049  1.00  0.00     0.037 A 
ATOM     51  C   UNL A   1      41.867  27.878  29.690  1.00  0.00     0.049 A 
ATOM     52  C   UNL A   1      42.594  32.348  32.991  1.00  0.00     0.074 A 
ATOM     53  C   UNL A   1      42.896  26.953  29.663  1.00  0.00     0.029 A 
ATOM     54  N   UNL A   1      42.253  28.879  30.570  1.00  0.00    -0.354 N 
ATOM     55  N   UNL A   1      42.570  31.258  32.264  1.00  0.00    -0.248 NA
ATOM     56  C   UNL A   1      43.778  32.474  33.851  1.00  0.00     0.031 C 
ATOM     57  C   UNL A   1      43.888  27.377  30.552  1.00  0.00     0.029 A 
ATOM     58  C   UNL A   1      43.495  28.585  31.106  1.00  0.00     0.049 A 
ATOM     59  H   UNL A   1      41.721  29.681  30.782  1.00  0.00     0.167 HD
ATOM     60  C   UNL A   1      43.750  30.586  32.551  1.00  0.00     0.074 A 
ATOM     61  C   UNL A   1      44.468  31.393  33.516  1.00  0.00     0.031 C 
ATOM     62  C   UNL A   1      44.199  29.407  32.055  1.00  0.00     0.037 A 
BRANCH  49  63
ATOM     63  C   UNL A   1      40.316  26.685  28.092  1.00  0.00     0.057 A 
ATOM     64  C   UNL A   1      39.464  25.653  28.510  1.00  0.00     0.134 A 
ATOM     65  C   UNL A   1      40.879  26.583  26.815  1.00  0.00     0.134 A 
ATOM     66  F   UNL A   1      38.909  25.683  29.730  1.00  0.00    -0.206 F 
ATOM     67  C   UNL A   1      39.206  24.548  27.698  1.00  0.00     0.040 A 
ATOM     68  C   UNL A   1      40.608  25.495  25.985  1.00  0.00     0.040 A 
ATOM     69  F   UNL A   1      41.703  27.537  26.355  1.00  0.00    -0.206 F 
ATOM     70  C   UNL A   1      39.775  24.469  26.429  1.00  0.00     0.006 A 
ENDBRANCH  49  63
BRANCH  50  71
ATOM     71  C   UNL A   1      41.810  34.633  33.939  1.00  0.00     0.057 A 
ATOM     72  C   UNL A   1      41.350  34.627  35.261  1.00  0.00     0.134 A 
ATOM     73  C   UNL A   1      42.467  35.784  33.488  1.00  0.00     0.134 A 
ATOM     74  F   UNL A   1      40.699  33.558  35.743  1.00  0.00    -0.206 F 
ATOM     75  C   UNL A   1      41.516  35.731  36.098  1.00  0.00     0.040 A 
ATOM     76  C   UNL A   1      42.658  36.888  34.321  1.00  0.00     0.040 A 
ATOM     77  F   UNL A   1      42.939  35.849  32.235  1.00  0.00    -0.206 F 
ATOM     78  C   UNL A   1      42.175  36.866  35.629  1.00  0.00     0.006 A 
ENDBRANCH  50  71
BRANCH  62  79
ATOM     79  C   UNL A   1      45.546  28.942  32.518  1.00  0.00     0.057 A 
ATOM     80  C   UNL A   1      45.697  28.109  33.632  1.00  0.00     0.134 A 
ATOM     81  C   UNL A   1      46.702  29.302  31.813  1.00  0.00     0.134 A 
ATOM     82  F   UNL A   1      44.629  27.744  34.358  1.00  0.00    -0.206 F 
ATOM     83  C   UNL A   1      46.954  27.662  34.041  1.00  0.00     0.040 A 
ATOM     84  C   UNL A   1      47.961  28.844  32.198  1.00  0.00     0.040 A 
ATOM     85  F   UNL A   1      46.623  30.095  30.734  1.00  0.00    -0.206 F 
ATOM     86  C   UNL A   1      48.090  28.024  33.317  1.00  0.00     0.006 A 
ENDBRANCH  62  79
ENDBRANCH  36  37
ENDBRANCH  28  31
ENDBRANCH  26  27
ENDBRANCH  25  26
ENDBRANCH   1  25
TORSDOF 13
ENDMDL
MODEL 3
REMARK VINA RESULT:     -12.2      1.520      2.341
REMARK SMILES C[C@@H]1[C@H](C(=O)NCCCNC(=O)c2ccc(-c3c4nc(c(-c5c(F)cccc5F)c5ccc([nH]5)c(-c5c(F)cccc5F)c5nc(c(-c6c(F)cccc6F)c6ccc3[nH]6)C=C5)C=C4)cc2)CC[N@@H+]1Cc1cnn(-c2ccccc2)c1
REMARK SMILES IDX 7 1 6 2 4 3 5 4 3 6 1 7 2 8 69 9 67 10 68 11 70 13 71 14
REMARK SMILES IDX 72 15 81 16 73 17 74 18 75 19 76 20 80 21 77 22 79 23 78 24
REMARK SMILES IDX 8 25 9 26 10 27 11 28 12 30 13 31 14 32 66 33 15 34 65 35
REMARK SMILES IDX 16 36 17 37 18 38 59 39 19 40 64 41 58 42 60 43 20 44 63 45
REMARK SMILES IDX 57 46 56 47 21 49 47 50 30 51 46 52 31 53 34 54 45 55 61 56
REMARK SMILES IDX 32 57 33 58 44 60 62 61 35 62 22 63 23 64 28 65 24 66 25 67
REMARK SMILES IDX 27 68 29 69 26 70 48 71 49 72 54 73 50 74 51 75 53 76 55 77
REMARK SMILES IDX 52 78 36 79 37 80 42 81 38 82 39 83 41 84 43 85 40 86
REMARK H PARENT 6 5 69 12 10 29 60 48 34 59
REMARK Flexibility Score: inf
ROOT
ATOM      1  C   UNL A   1      36.659  20.531  24.610  1.00  0.00     0.117 C 
ENDROOT
BRANCH   1   2
ATOM      2  N   UNL A   1      35.770  20.682  25.749  1.00  0.00    -0.356 N 
ATOM      3  C   UNL A   1      34.925  21.671  26.129  1.00  0.00     0.229 C 
ATOM      4  O   UNL A   1      34.383  21.522  27.231  1.00  0.00    -0.275 OA
ATOM      5  H   UNL A   1      35.783  19.916  26.366  1.00  0.00     0.163 HD
BRANCH   3   6
ATOM      6  C   UNL A   1      34.611  22.916  25.311  1.00  0.00     0.142 C 
ATOM      7  C   UNL A   1      32.812  21.552  23.978  1.00  0.00     0.076 C 
ATOM      8  C   UNL A   1      33.612  22.833  24.141  1.00  0.00     0.193 C 
ATOM      9  N   UNL A   1      32.876  24.093  24.204  1.00  0.00    -0.328 N 
ATOM     10  C   UNL A   1      34.255  24.180  26.088  1.00  0.00     0.081 C 
ATOM     11  C   UNL A   1      33.556  25.046  25.055  1.00  0.00     0.263 C 
ATOM     12  H   UNL A   1      32.889  24.375  23.223  1.00  0.00     0.348 HD
BRANCH   9  13
ATOM     13  C   UNL A   1      31.463  24.237  23.941  1.00  0.00     0.302 C 
BRANCH  13  14
ATOM     14  C   UNL A   1      31.110  25.523  23.270  1.00  0.00     0.045 A 
ATOM     15  C   UNL A   1      31.623  26.058  22.070  1.00  0.00     0.145 A 
ATOM     16  C   UNL A   1      30.126  26.427  23.619  1.00  0.00     0.124 A 
ATOM     17  N   UNL A   1      31.036  27.199  21.708  1.00  0.00    -0.176 NA
ATOM     18  N   UNL A   1      30.125  27.438  22.681  1.00  0.00    -0.240 N 
BRANCH  18  19
ATOM     19  C   UNL A   1      29.337  28.619  22.674  1.00  0.00     0.065 A 
ATOM     20  C   UNL A   1      29.897  29.832  22.246  1.00  0.00     0.028 A 
ATOM     21  C   UNL A   1      28.014  28.593  23.127  1.00  0.00     0.028 A 
ATOM     22  C   UNL A   1      29.136  31.002  22.255  1.00  0.00     0.002 A 
ATOM     23  C   UNL A   1      27.278  29.773  23.162  1.00  0.00     0.002 A 
ATOM     24  C   UNL A   1      27.824  30.973  22.715  1.00  0.00     0.000 A 
ENDBRANCH  18  19
ENDBRANCH  13  14
ENDBRANCH   9  13
ENDBRANCH   3   6
ENDBRANCH   1   2
BRANCH   1  25
ATOM     25  C   UNL A   1      37.772  19.524  24.887  1.00  0.00     0.042 C 
BRANCH  25  26
ATOM     26  C   UNL A   1      38.917  20.018  25.755  1.00  0.00     0.118 C 
BRANCH  26  27
ATOM     27  N   UNL A   1      40.069  19.132  25.760  1.00  0.00    -0.352 N 
ATOM     28  C   UNL A   1      41.404  19.351  26.009  1.00  0.00     0.251 C 
ATOM     29  H   UNL A   1      39.851  18.196  25.544  1.00  0.00     0.163 HD
ATOM     30  O   UNL A   1      42.184  18.408  25.868  1.00  0.00    -0.269 OA
BRANCH  28  31
ATOM     31  C   UNL A   1      41.949  20.678  26.405  1.00  0.00     0.039 A 
ATOM     32  C   UNL A   1      42.218  21.610  25.390  1.00  0.00     0.014 A 
ATOM     33  C   UNL A   1      42.257  21.019  27.722  1.00  0.00     0.014 A 
ATOM     34  C   UNL A   1      42.689  22.893  25.699  1.00  0.00     0.010 A 
ATOM     35  C   UNL A   1      42.654  22.320  28.043  1.00  0.00     0.010 A 
ATOM     36  C   UNL A   1      42.878  23.269  27.034  1.00  0.00    -0.014 A 
BRANCH  36  37
ATOM     37  C   UNL A   1      43.398  24.610  27.402  1.00  0.00     0.031 A 
ATOM     38  C   UNL A   1      42.432  25.679  27.825  1.00  0.00     0.074 A 
ATOM     39  C   UNL A   1      44.709  24.897  27.300  1.00  0.00     0.049 A 
ATOM     40  N   UNL A   1      42.663  26.932  28.115  1.00  0.00    -0.248 NA
ATOM     41  C   UNL A   1      41.016  25.289  27.914  1.00  0.00     0.031 C 
ATOM     42  C   UNL A   1      45.743  23.960  26.881  1.00  0.00     0.029 A 
ATOM     43  N   UNL A   1      45.398  26.064  27.519  1.00  0.00    -0.354 N 
ATOM     44  C   UNL A   1      41.426  27.480  28.421  1.00  0.00     0.074 A 
ATOM     45  C   UNL A   1      40.440  26.440  28.225  1.00  0.00     0.031 C 
ATOM     46  C   UNL A   1      46.935  24.577  26.867  1.00  0.00     0.029 A 
ATOM     47  C   UNL A   1      46.745  25.968  27.255  1.00  0.00     0.049 A 
ATOM     48  H   UNL A   1      44.969  26.892  27.835  1.00  0.00     0.167 HD
ATOM     49  C   UNL A   1      41.139  28.730  28.851  1.00  0.00     0.037 A 
ATOM     50  C   UNL A   1      47.717  26.897  27.313  1.00  0.00     0.037 A 
ATOM     51  C   UNL A   1      42.119  29.763  29.050  1.00  0.00     0.049 A 
ATOM     52  C   UNL A   1      47.368  28.289  27.754  1.00  0.00     0.074 A 
ATOM     53  C   UNL A   1      41.934  31.051  29.519  1.00  0.00     0.029 A 
ATOM     54  N   UNL A   1      43.474  29.624  28.785  1.00  0.00    -0.354 N 
ATOM     55  N   UNL A   1      46.201  28.774  28.102  1.00  0.00    -0.248 NA
ATOM     56  C   UNL A   1      48.469  29.259  27.822  1.00  0.00     0.031 C 
ATOM     57  C   UNL A   1      43.170  31.703  29.504  1.00  0.00     0.029 A 
ATOM     58  C   UNL A   1      44.133  30.809  29.062  1.00  0.00     0.049 A 
ATOM     59  H   UNL A   1      43.903  28.803  28.448  1.00  0.00     0.167 HD
ATOM     60  C   UNL A   1      46.433  30.094  28.465  1.00  0.00     0.074 A 
ATOM     61  C   UNL A   1      47.852  30.332  28.298  1.00  0.00     0.031 C 
ATOM     62  C   UNL A   1      45.548  31.023  28.901  1.00  0.00     0.037 A 
BRANCH  49  63
ATOM     63  C   UNL A   1      39.700  29.036  29.136  1.00  0.00     0.057 A 
ATOM     64  C   UNL A   1      38.831  29.478  28.129  1.00  0.00     0.134 A 
ATOM     65  C   UNL A   1      39.178  28.891  30.426  1.00  0.00     0.134 A 
ATOM     66  F   UNL A   1      39.277  29.656  26.877  1.00  0.00    -0.206 F 
ATOM     67  C   UNL A   1      37.499  29.792  28.403  1.00  0.00     0.040 A 
ATOM     68  C   UNL A   1      37.841  29.178  30.706  1.00  0.00     0.040 A 
ATOM     69  F   UNL A   1      39.957  28.472  31.434  1.00  0.00    -0.206 F 
ATOM     70  C   UNL A   1      37.000  29.638  29.694  1.00  0.00     0.006 A 
ENDBRANCH  49  63
BRANCH  50  71
ATOM     71  C   UNL A   1      49.117  26.539  26.971  1.00  0.00     0.057 A 
ATOM     72  C   UNL A   1      50.010  26.104  27.958  1.00  0.00     0.134 A 
ATOM     73  C   UNL A   1      49.599  26.636  25.660  1.00  0.00     0.134 A 
ATOM     74  F   UNL A   1      49.609  26.008  29.233  1.00  0.00    -0.206 F 
ATOM     75  C   UNL A   1      51.338  25.799  27.659  1.00  0.00     0.040 A 
ATOM     76  C   UNL A   1      50.920  26.314  25.343  1.00  0.00     0.040 A 
ATOM     77  F   UNL A   1      48.791  27.039  24.668  1.00  0.00    -0.206 F 
ATOM     78  C   UNL A   1      51.796  25.901  26.346  1.00  0.00     0.006 A 
ENDBRANCH  50  71
BRANCH  62  79
ATOM     79  C   UNL A   1      46.097  32.368  29.266  1.00  0.00     0.057 A 
ATOM     80  C   UNL A   1      46.154  33.418  28.343  1.00  0.00     0.134 A 
ATOM     81  C   UNL A   1      46.538  32.624  30.571  1.00  0.00     0.134 A 
ATOM     82  F   UNL A   1      45.762  33.229  27.073  1.00  0.00    -0.206 F 
ATOM     83  C   UNL A   1      46.645  34.675  28.699  1.00  0.00     0.040 A 
ATOM     84  C   UNL A   1      47.010  33.882  30.945  1.00  0.00     0.040 A 
ATOM     85  F   UNL A   1      46.506  31.660  31.502  1.00  0.00    -0.206 F 
ATOM     86  C   UNL A   1      47.067  34.910  30.007  1.00  0.00     0.006 A 
ENDBRANCH  62  79
ENDBRANCH  36  37
ENDBRANCH  28  31
ENDBRANCH  26  27
ENDBRANCH  25  26
ENDBRANCH   1  25
TORSDOF 13
ENDMDL
