MODEL 1
REMARK VINA RESULT:     -11.2      0.000      0.000
REMARK SMILES CCOc1cc(OCC)cc(-c2ccc([C@@H](C)C(=O)NCCCNC(=O)c3ccc(-c4c5nc(c(-c6c(F)cccc6F)c6ccc([nH]6)c(-c6c(F)cccc6F)c6nc(c(-c7c(F)cccc7F)c7ccc4[nH]7)C=C6)C=C5)cc3)cc2)c1
REMARK SMILES IDX 21 1 20 2 18 3 19 4 16 6 17 7 15 8 12 9 13 10 82 11 14 12
REMARK SMILES IDX 81 13 11 14 4 15 5 16 83 17 6 18 10 19 3 20 2 21 1 22 7 23
REMARK SMILES IDX 8 24 9 25 22 26 23 27 24 28 25 29 26 31 27 32 28 33 80 34
REMARK SMILES IDX 29 35 79 36 30 37 31 38 32 39 73 40 33 41 78 42 72 43 74 44
REMARK SMILES IDX 34 45 77 46 71 47 70 48 35 50 61 51 44 52 60 53 45 54 48 55
REMARK SMILES IDX 59 56 75 57 46 58 47 59 58 61 76 62 49 63 36 64 37 65 42 66
REMARK SMILES IDX 38 67 39 68 41 69 43 70 40 71 62 72 63 73 68 74 64 75 65 76
REMARK SMILES IDX 67 77 69 78 66 79 50 80 51 81 56 82 52 83 53 84 55 85 57 86
REMARK SMILES IDX 54 87
REMARK H PARENT 20 5 24 30 74 49 48 60
REMARK Flexibility Score: inf
ROOT
ATOM      1  C   UNL A   1      35.340  22.385  23.963  1.00  0.00     0.117 C 
ENDROOT
BRANCH   1   2
ATOM      2  N   UNL A   1      35.044  21.821  25.266  1.00  0.00    -0.356 N 
ATOM      3  C   UNL A   1      33.877  21.457  25.864  1.00  0.00     0.227 C 
ATOM      4  O   UNL A   1      33.970  21.063  27.034  1.00  0.00    -0.274 OA
ATOM      5  H   UNL A   1      35.840  21.674  25.826  1.00  0.00     0.163 HD
BRANCH   3   6
ATOM      6  C   UNL A   1      32.500  21.513  25.185  1.00  0.00     0.105 C 
ATOM      7  C   UNL A   1      32.340  20.598  23.973  1.00  0.00     0.023 C 
BRANCH   6   8
ATOM      8  C   UNL A   1      31.984  22.929  25.001  1.00  0.00    -0.036 A 
ATOM      9  C   UNL A   1      31.218  25.648  24.618  1.00  0.00    -0.018 A 
ATOM     10  C   UNL A   1      30.933  24.659  23.664  1.00  0.00     0.009 A 
ATOM     11  C   UNL A   1      31.868  25.236  25.789  1.00  0.00     0.009 A 
ATOM     12  C   UNL A   1      31.269  23.321  23.871  1.00  0.00     0.005 A 
ATOM     13  C   UNL A   1      32.265  23.905  25.969  1.00  0.00     0.005 A 
BRANCH   9  14
ATOM     14  C   UNL A   1      30.852  27.057  24.364  1.00  0.00    -0.011 A 
ATOM     15  C   UNL A   1      31.119  29.440  24.779  1.00  0.00     0.123 A 
ATOM     16  C   UNL A   1      30.226  29.736  23.749  1.00  0.00     0.092 A 
ATOM     17  C   UNL A   1      31.416  28.113  25.092  1.00  0.00     0.055 A 
ATOM     18  C   UNL A   1      29.627  28.705  23.025  1.00  0.00     0.123 A 
ATOM     19  C   UNL A   1      29.935  27.383  23.349  1.00  0.00     0.055 A 
BRANCH  15  20
ATOM     20  O   UNL A   1      31.581  30.470  25.551  1.00  0.00    -0.494 OA
BRANCH  20  21
ATOM     21  C   UNL A   1      31.978  30.086  26.874  1.00  0.00     0.226 C 
ATOM     22  C   UNL A   1      33.366  30.593  27.237  1.00  0.00     0.049 C 
ENDBRANCH  20  21
ENDBRANCH  15  20
BRANCH  18  23
ATOM     23  O   UNL A   1      28.783  29.087  22.015  1.00  0.00    -0.494 OA
BRANCH  23  24
ATOM     24  C   UNL A   1      28.036  30.295  22.188  1.00  0.00     0.226 C 
ATOM     25  C   UNL A   1      28.116  31.192  20.959  1.00  0.00     0.049 C 
ENDBRANCH  23  24
ENDBRANCH  18  23
ENDBRANCH   9  14
ENDBRANCH   6   8
ENDBRANCH   3   6
ENDBRANCH   1   2
BRANCH   1  26
ATOM     26  C   UNL A   1      36.417  23.466  24.029  1.00  0.00     0.042 C 
BRANCH  26  27
ATOM     27  C   UNL A   1      37.051  23.622  25.404  1.00  0.00     0.118 C 
BRANCH  27  28
ATOM     28  N   UNL A   1      38.199  22.743  25.584  1.00  0.00    -0.352 N 
ATOM     29  C   UNL A   1      39.440  22.991  26.117  1.00  0.00     0.251 C 
ATOM     30  H   UNL A   1      38.063  21.819  25.273  1.00  0.00     0.163 HD
ATOM     31  O   UNL A   1      40.330  22.157  25.974  1.00  0.00    -0.269 OA
BRANCH  29  32
ATOM     32  C   UNL A   1      39.724  24.245  26.850  1.00  0.00     0.039 A 
ATOM     33  C   UNL A   1      39.204  24.405  28.140  1.00  0.00     0.014 A 
ATOM     34  C   UNL A   1      40.442  25.288  26.262  1.00  0.00     0.014 A 
ATOM     35  C   UNL A   1      39.447  25.582  28.853  1.00  0.00     0.010 A 
ATOM     36  C   UNL A   1      40.756  26.425  27.002  1.00  0.00     0.010 A 
ATOM     37  C   UNL A   1      40.250  26.593  28.299  1.00  0.00    -0.014 A 
BRANCH  37  38
ATOM     38  C   UNL A   1      40.547  27.845  29.040  1.00  0.00     0.031 A 
ATOM     39  C   UNL A   1      41.857  27.992  29.769  1.00  0.00     0.074 A 
ATOM     40  C   UNL A   1      39.617  28.816  29.121  1.00  0.00     0.049 A 
ATOM     41  N   UNL A   1      42.260  28.950  30.563  1.00  0.00    -0.248 NA
ATOM     42  C   UNL A   1      42.831  26.900  29.606  1.00  0.00     0.031 C 
ATOM     43  C   UNL A   1      38.296  28.780  28.490  1.00  0.00     0.029 A 
ATOM     44  N   UNL A   1      39.636  30.019  29.781  1.00  0.00    -0.354 N 
ATOM     45  C   UNL A   1      43.515  28.564  31.016  1.00  0.00     0.074 A 
ATOM     46  C   UNL A   1      43.790  27.264  30.444  1.00  0.00     0.031 C 
ATOM     47  C   UNL A   1      37.640  29.915  28.779  1.00  0.00     0.029 A 
ATOM     48  C   UNL A   1      38.474  30.740  29.646  1.00  0.00     0.049 A 
ATOM     49  H   UNL A   1      40.409  30.336  30.302  1.00  0.00     0.167 HD
ATOM     50  C   UNL A   1      44.371  29.239  31.820  1.00  0.00     0.037 A 
ATOM     51  C   UNL A   1      38.116  31.926  30.175  1.00  0.00     0.037 A 
ATOM     52  C   UNL A   1      44.112  30.552  32.352  1.00  0.00     0.049 A 
ATOM     53  C   UNL A   1      39.086  32.657  31.063  1.00  0.00     0.074 A 
ATOM     54  C   UNL A   1      44.943  31.348  33.120  1.00  0.00     0.029 A 
ATOM     55  N   UNL A   1      42.935  31.259  32.168  1.00  0.00    -0.354 N 
ATOM     56  N   UNL A   1      40.294  32.306  31.433  1.00  0.00    -0.248 NA
ATOM     57  C   UNL A   1      38.645  33.950  31.604  1.00  0.00     0.031 C 
ATOM     58  C   UNL A   1      44.251  32.522  33.435  1.00  0.00     0.029 A 
ATOM     59  C   UNL A   1      43.010  32.476  32.824  1.00  0.00     0.049 A 
ATOM     60  H   UNL A   1      42.159  30.943  31.649  1.00  0.00     0.167 HD
ATOM     61  C   UNL A   1      40.770  33.349  32.217  1.00  0.00     0.074 A 
ATOM     62  C   UNL A   1      39.724  34.348  32.264  1.00  0.00     0.031 C 
ATOM     63  C   UNL A   1      41.967  33.470  32.840  1.00  0.00     0.037 A 
BRANCH  50  64
ATOM     64  C   UNL A   1      45.670  28.575  32.170  1.00  0.00     0.057 A 
ATOM     65  C   UNL A   1      46.824  28.750  31.394  1.00  0.00     0.134 A 
ATOM     66  C   UNL A   1      45.782  27.789  33.324  1.00  0.00     0.134 A 
ATOM     67  F   UNL A   1      46.783  29.481  30.270  1.00  0.00    -0.206 F 
ATOM     68  C   UNL A   1      48.035  28.146  31.739  1.00  0.00     0.040 A 
ATOM     69  C   UNL A   1      46.994  27.203  33.695  1.00  0.00     0.040 A 
ATOM     70  F   UNL A   1      44.718  27.587  34.116  1.00  0.00    -0.206 F 
ATOM     71  C   UNL A   1      48.124  27.377  32.898  1.00  0.00     0.006 A 
ENDBRANCH  50  64
BRANCH  51  72
ATOM     72  C   UNL A   1      36.788  32.514  29.864  1.00  0.00     0.057 A 
ATOM     73  C   UNL A   1      36.631  33.418  28.807  1.00  0.00     0.134 A 
ATOM     74  C   UNL A   1      35.652  32.205  30.622  1.00  0.00     0.134 A 
ATOM     75  F   UNL A   1      37.686  33.768  28.056  1.00  0.00    -0.206 F 
ATOM     76  C   UNL A   1      35.399  34.012  28.528  1.00  0.00     0.040 A 
ATOM     77  C   UNL A   1      34.408  32.770  30.336  1.00  0.00     0.040 A 
ATOM     78  F   UNL A   1      35.735  31.341  31.645  1.00  0.00    -0.206 F 
ATOM     79  C   UNL A   1      34.281  33.685  29.292  1.00  0.00     0.006 A 
ENDBRANCH  51  72
BRANCH  63  80
ATOM     80  C   UNL A   1      42.235  34.748  33.579  1.00  0.00     0.057 A 
ATOM     81  C   UNL A   1      42.860  35.841  32.969  1.00  0.00     0.134 A 
ATOM     82  C   UNL A   1      41.810  34.900  34.905  1.00  0.00     0.134 A 
ATOM     83  F   UNL A   1      43.302  35.754  31.705  1.00  0.00    -0.206 F 
ATOM     84  C   UNL A   1      43.073  37.036  33.660  1.00  0.00     0.040 A 
ATOM     85  C   UNL A   1      41.993  36.098  35.597  1.00  0.00     0.040 A 
ATOM     86  F   UNL A   1      41.194  33.893  35.544  1.00  0.00    -0.206 F 
ATOM     87  C   UNL A   1      42.631  37.168  34.975  1.00  0.00     0.006 A 
ENDBRANCH  63  80
ENDBRANCH  37  38
ENDBRANCH  29  32
ENDBRANCH  27  28
ENDBRANCH  26  27
ENDBRANCH   1  26
TORSDOF 16
ENDMDL
MODEL 2
REMARK VINA RESULT:     -11.1      4.809     11.312
REMARK SMILES CCOc1cc(OCC)cc(-c2ccc([C@@H](C)C(=O)NCCCNC(=O)c3ccc(-c4c5nc(c(-c6c(F)cccc6F)c6ccc([nH]6)c(-c6c(F)cccc6F)c6nc(c(-c7c(F)cccc7F)c7ccc4[nH]7)C=C6)C=C5)cc3)cc2)c1
REMARK SMILES IDX 21 1 20 2 18 3 19 4 16 6 17 7 15 8 12 9 13 10 82 11 14 12
REMARK SMILES IDX 81 13 11 14 4 15 5 16 83 17 6 18 10 19 3 20 2 21 1 22 7 23
REMARK SMILES IDX 8 24 9 25 22 26 23 27 24 28 25 29 26 31 27 32 28 33 80 34
REMARK SMILES IDX 29 35 79 36 30 37 31 38 32 39 73 40 33 41 78 42 72 43 74 44
REMARK SMILES IDX 34 45 77 46 71 47 70 48 35 50 61 51 44 52 60 53 45 54 48 55
REMARK SMILES IDX 59 56 75 57 46 58 47 59 58 61 76 62 49 63 36 64 37 65 42 66
REMARK SMILES IDX 38 67 39 68 41 69 43 70 40 71 62 72 63 73 68 74 64 75 65 76
REMARK SMILES IDX 67 77 69 78 66 79 50 80 51 81 56 82 52 83 53 84 55 85 57 86
REMARK SMILES IDX 54 87
REMARK H PARENT 20 5 24 30 74 49 48 60
REMARK Flexibility Score: inf
ROOT
ATOM      1  C   UNL A   1      35.238  34.047  31.398  1.00  0.00     0.117 C 
ENDROOT
BRANCH   1   2
ATOM      2  N   UNL A   1      36.642  34.316  31.151  1.00  0.00    -0.356 N 
ATOM      3  C   UNL A   1      37.763  34.082  31.885  1.00  0.00     0.227 C 
ATOM      4  O   UNL A   1      38.822  34.504  31.403  1.00  0.00    -0.274 OA
ATOM      5  H   UNL A   1      36.817  34.753  30.287  1.00  0.00     0.163 HD
BRANCH   3   6
ATOM      6  C   UNL A   1      37.780  33.348  33.236  1.00  0.00     0.105 C 
ATOM      7  C   UNL A   1      37.761  34.257  34.464  1.00  0.00     0.023 C 
BRANCH   6   8
ATOM      8  C   UNL A   1      38.785  32.212  33.284  1.00  0.00    -0.036 A 
ATOM      9  C   UNL A   1      40.659  30.086  33.587  1.00  0.00    -0.018 A 
ATOM     10  C   UNL A   1      39.353  29.860  33.124  1.00  0.00     0.009 A 
ATOM     11  C   UNL A   1      41.017  31.413  33.863  1.00  0.00     0.009 A 
ATOM     12  C   UNL A   1      38.450  30.905  32.935  1.00  0.00     0.005 A 
ATOM     13  C   UNL A   1      40.090  32.455  33.735  1.00  0.00     0.005 A 
BRANCH   9  14
ATOM     14  C   UNL A   1      41.589  28.954  33.782  1.00  0.00    -0.011 A 
ATOM     15  C   UNL A   1      42.060  26.680  34.509  1.00  0.00     0.123 A 
ATOM     16  C   UNL A   1      43.358  26.771  34.005  1.00  0.00     0.092 A 
ATOM     17  C   UNL A   1      41.191  27.766  34.410  1.00  0.00     0.055 A 
ATOM     18  C   UNL A   1      43.792  27.949  33.399  1.00  0.00     0.123 A 
ATOM     19  C   UNL A   1      42.910  29.027  33.307  1.00  0.00     0.055 A 
BRANCH  15  20
ATOM     20  O   UNL A   1      41.716  25.559  35.214  1.00  0.00    -0.494 OA
BRANCH  20  21
ATOM     21  C   UNL A   1      42.831  24.786  35.677  1.00  0.00     0.226 C 
ATOM     22  C   UNL A   1      42.907  23.417  35.016  1.00  0.00     0.049 C 
ENDBRANCH  20  21
ENDBRANCH  15  20
BRANCH  18  23
ATOM     23  O   UNL A   1      45.072  27.941  32.910  1.00  0.00    -0.494 OA
BRANCH  23  24
ATOM     24  C   UNL A   1      46.147  28.078  33.846  1.00  0.00     0.226 C 
ATOM     25  C   UNL A   1      46.131  29.437  34.532  1.00  0.00     0.049 C 
ENDBRANCH  23  24
ENDBRANCH  18  23
ENDBRANCH   9  14
ENDBRANCH   6   8
ENDBRANCH   3   6
ENDBRANCH   1   2
BRANCH   1  26
ATOM     26  C   UNL A   1      34.782  32.726  30.784  1.00  0.00     0.042 C 
BRANCH  26  27
ATOM     27  C   UNL A   1      34.947  32.659  29.272  1.00  0.00     0.118 C 
BRANCH  27  28
ATOM     28  N   UNL A   1      34.246  31.520  28.692  1.00  0.00    -0.352 N 
ATOM     29  C   UNL A   1      34.726  30.334  28.194  1.00  0.00     0.251 C 
ATOM     30  H   UNL A   1      33.267  31.617  28.651  1.00  0.00     0.163 HD
ATOM     31  O   UNL A   1      33.972  29.603  27.557  1.00  0.00    -0.269 OA
BRANCH  29  32
ATOM     32  C   UNL A   1      36.133  29.927  28.406  1.00  0.00     0.039 A 
ATOM     33  C   UNL A   1      37.044  30.075  27.353  1.00  0.00     0.014 A 
ATOM     34  C   UNL A   1      36.553  29.347  29.605  1.00  0.00     0.014 A 
ATOM     35  C   UNL A   1      38.377  29.690  27.520  1.00  0.00     0.010 A 
ATOM     36  C   UNL A   1      37.898  29.043  29.800  1.00  0.00     0.010 A 
ATOM     37  C   UNL A   1      38.822  29.196  28.757  1.00  0.00    -0.014 A 
BRANCH  37  38
ATOM     38  C   UNL A   1      40.237  28.801  28.974  1.00  0.00     0.031 A 
ATOM     39  C   UNL A   1      41.211  29.793  29.553  1.00  0.00     0.074 A 
ATOM     40  C   UNL A   1      40.664  27.584  28.585  1.00  0.00     0.049 A 
ATOM     41  N   UNL A   1      42.506  29.686  29.714  1.00  0.00    -0.248 NA
ATOM     42  C   UNL A   1      40.661  31.090  29.981  1.00  0.00     0.031 C 
ATOM     43  C   UNL A   1      39.828  26.547  27.979  1.00  0.00     0.029 A 
ATOM     44  N   UNL A   1      41.913  27.019  28.630  1.00  0.00    -0.354 N 
ATOM     45  C   UNL A   1      42.925  30.905  30.231  1.00  0.00     0.074 A 
ATOM     46  C   UNL A   1      41.756  31.754  30.315  1.00  0.00     0.031 C 
ATOM     47  C   UNL A   1      40.584  25.466  27.725  1.00  0.00     0.029 A 
ATOM     48  C   UNL A   1      41.962  25.747  28.111  1.00  0.00     0.049 A 
ATOM     49  H   UNL A   1      42.702  27.481  28.998  1.00  0.00     0.167 HD
ATOM     50  C   UNL A   1      44.168  31.280  30.618  1.00  0.00     0.037 A 
ATOM     51  C   UNL A   1      43.005  24.909  27.953  1.00  0.00     0.037 A 
ATOM     52  C   UNL A   1      45.320  30.418  30.573  1.00  0.00     0.049 A 
ATOM     53  C   UNL A   1      44.374  25.348  28.393  1.00  0.00     0.074 A 
ATOM     54  C   UNL A   1      46.608  30.680  31.006  1.00  0.00     0.029 A 
ATOM     55  N   UNL A   1      45.321  29.127  30.068  1.00  0.00    -0.354 N 
ATOM     56  N   UNL A   1      44.745  26.483  28.936  1.00  0.00    -0.248 NA
ATOM     57  C   UNL A   1      45.470  24.388  28.203  1.00  0.00     0.031 C 
ATOM     58  C   UNL A   1      47.398  29.561  30.724  1.00  0.00     0.029 A 
ATOM     59  C   UNL A   1      46.592  28.586  30.160  1.00  0.00     0.049 A 
ATOM     60  H   UNL A   1      44.534  28.665  29.697  1.00  0.00     0.167 HD
ATOM     61  C   UNL A   1      46.105  26.359  29.185  1.00  0.00     0.074 A 
ATOM     62  C   UNL A   1      46.493  25.037  28.742  1.00  0.00     0.031 C 
ATOM     63  C   UNL A   1      46.956  27.259  29.736  1.00  0.00     0.037 A 
BRANCH  50  64
ATOM     64  C   UNL A   1      44.348  32.679  31.130  1.00  0.00     0.057 A 
ATOM     65  C   UNL A   1      44.353  32.971  32.501  1.00  0.00     0.134 A 
ATOM     66  C   UNL A   1      44.566  33.741  30.244  1.00  0.00     0.134 A 
ATOM     67  F   UNL A   1      44.139  32.002  33.403  1.00  0.00    -0.206 F 
ATOM     68  C   UNL A   1      44.543  34.273  32.969  1.00  0.00     0.040 A 
ATOM     69  C   UNL A   1      44.785  35.042  30.700  1.00  0.00     0.040 A 
ATOM     70  F   UNL A   1      44.580  33.530  28.919  1.00  0.00    -0.206 F 
ATOM     71  C   UNL A   1      44.768  35.311  32.068  1.00  0.00     0.006 A 
ENDBRANCH  50  64
BRANCH  51  72
ATOM     72  C   UNL A   1      42.796  23.558  27.370  1.00  0.00     0.057 A 
ATOM     73  C   UNL A   1      42.926  23.342  25.993  1.00  0.00     0.134 A 
ATOM     74  C   UNL A   1      42.444  22.462  28.164  1.00  0.00     0.134 A 
ATOM     75  F   UNL A   1      43.243  24.358  25.176  1.00  0.00    -0.206 F 
ATOM     76  C   UNL A   1      42.691  22.089  25.423  1.00  0.00     0.040 A 
ATOM     77  C   UNL A   1      42.234  21.197  27.612  1.00  0.00     0.040 A 
ATOM     78  F   UNL A   1      42.309  22.602  29.491  1.00  0.00    -0.206 F 
ATOM     79  C   UNL A   1      42.347  21.011  26.235  1.00  0.00     0.006 A 
ENDBRANCH  51  72
BRANCH  63  80
ATOM     80  C   UNL A   1      48.378  26.828  29.941  1.00  0.00     0.057 A 
ATOM     81  C   UNL A   1      48.779  26.109  31.073  1.00  0.00     0.134 A 
ATOM     82  C   UNL A   1      49.346  27.093  28.964  1.00  0.00     0.134 A 
ATOM     83  F   UNL A   1      47.902  25.834  32.051  1.00  0.00    -0.206 F 
ATOM     84  C   UNL A   1      50.100  25.685  31.235  1.00  0.00     0.040 A 
ATOM     85  C   UNL A   1      50.662  26.651  29.102  1.00  0.00     0.040 A 
ATOM     86  F   UNL A   1      49.023  27.769  27.850  1.00  0.00    -0.206 F 
ATOM     87  C   UNL A   1      51.043  25.950  30.243  1.00  0.00     0.006 A 
ENDBRANCH  63  80
ENDBRANCH  37  38
ENDBRANCH  29  32
ENDBRANCH  27  28
ENDBRANCH  26  27
ENDBRANCH   1  26
TORSDOF 16
ENDMDL
MODEL 3
REMARK VINA RESULT:     -11.1      4.774     10.668
REMARK SMILES CCOc1cc(OCC)cc(-c2ccc([C@@H](C)C(=O)NCCCNC(=O)c3ccc(-c4c5nc(c(-c6c(F)cccc6F)c6ccc([nH]6)c(-c6c(F)cccc6F)c6nc(c(-c7c(F)cccc7F)c7ccc4[nH]7)C=C6)C=C5)cc3)cc2)c1
REMARK SMILES IDX 21 1 20 2 18 3 19 4 16 6 17 7 15 8 12 9 13 10 82 11 14 12
REMARK SMILES IDX 81 13 11 14 4 15 5 16 83 17 6 18 10 19 3 20 2 21 1 22 7 23
REMARK SMILES IDX 8 24 9 25 22 26 23 27 24 28 25 29 26 31 27 32 28 33 80 34
REMARK SMILES IDX 29 35 79 36 30 37 31 38 32 39 73 40 33 41 78 42 72 43 74 44
REMARK SMILES IDX 34 45 77 46 71 47 70 48 35 50 61 51 44 52 60 53 45 54 48 55
REMARK SMILES IDX 59 56 75 57 46 58 47 59 58 61 76 62 49 63 36 64 37 65 42 66
REMARK SMILES IDX 38 67 39 68 41 69 43 70 40 71 62 72 63 73 68 74 64 75 65 76
REMARK SMILES IDX 67 77 69 78 66 79 50 80 51 81 56 82 52 83 53 84 55 85 57 86
REMARK SMILES IDX 54 87
REMARK H PARENT 20 5 24 30 74 49 48 60
REMARK Flexibility Score: inf
ROOT
ATOM      1  C   UNL A   1      33.523  34.647  29.719  1.00  0.00     0.117 C 
ENDROOT
BRANCH   1   2
ATOM      2  N   UNL A   1      34.077  35.367  30.848  1.00  0.00    -0.356 N 
ATOM      3  C   UNL A   1      34.960  35.010  31.820  1.00  0.00     0.227 C 
ATOM      4  O   UNL A   1      35.175  35.860  32.694  1.00  0.00    -0.274 OA
ATOM      5  H   UNL A   1      33.751  36.293  30.928  1.00  0.00     0.163 HD
BRANCH   3   6
ATOM      6  C   UNL A   1      35.673  33.651  31.888  1.00  0.00     0.105 C 
ATOM      7  C   UNL A   1      35.461  32.873  33.186  1.00  0.00     0.023 C 
BRANCH   6   8
ATOM      8  C   UNL A   1      37.107  33.707  31.393  1.00  0.00    -0.036 A 
ATOM      9  C   UNL A   1      39.742  33.972  30.336  1.00  0.00    -0.018 A 
ATOM     10  C   UNL A   1      39.422  34.388  31.638  1.00  0.00     0.009 A 
ATOM     11  C   UNL A   1      38.714  33.386  29.584  1.00  0.00     0.009 A 
ATOM     12  C   UNL A   1      38.145  34.219  32.171  1.00  0.00     0.005 A 
ATOM     13  C   UNL A   1      37.414  33.276  30.094  1.00  0.00     0.005 A 
BRANCH   9  14
ATOM     14  C   UNL A   1      41.105  34.172  29.802  1.00  0.00    -0.011 A 
ATOM     15  C   UNL A   1      42.776  35.531  28.669  1.00  0.00     0.123 A 
ATOM     16  C   UNL A   1      43.754  34.569  28.923  1.00  0.00     0.092 A 
ATOM     17  C   UNL A   1      41.462  35.326  29.092  1.00  0.00     0.055 A 
ATOM     18  C   UNL A   1      43.422  33.397  29.603  1.00  0.00     0.123 A 
ATOM     19  C   UNL A   1      42.104  33.208  30.020  1.00  0.00     0.055 A 
BRANCH  15  20
ATOM     20  O   UNL A   1      43.108  36.602  27.885  1.00  0.00    -0.494 OA
BRANCH  20  21
ATOM     21  C   UNL A   1      42.055  37.558  27.713  1.00  0.00     0.226 C 
ATOM     22  C   UNL A   1      42.359  38.889  28.386  1.00  0.00     0.049 C 
ENDBRANCH  20  21
ENDBRANCH  15  20
BRANCH  18  23
ATOM     23  O   UNL A   1      44.450  32.520  29.831  1.00  0.00    -0.494 OA
BRANCH  23  24
ATOM     24  C   UNL A   1      44.138  31.271  30.456  1.00  0.00     0.226 C 
ATOM     25  C   UNL A   1      45.328  30.321  30.448  1.00  0.00     0.049 C 
ENDBRANCH  23  24
ENDBRANCH  18  23
ENDBRANCH   9  14
ENDBRANCH   6   8
ENDBRANCH   3   6
ENDBRANCH   1   2
BRANCH   1  26
ATOM     26  C   UNL A   1      34.360  34.815  28.453  1.00  0.00     0.042 C 
BRANCH  26  27
ATOM     27  C   UNL A   1      35.097  33.552  28.029  1.00  0.00     0.118 C 
BRANCH  27  28
ATOM     28  N   UNL A   1      34.189  32.434  27.807  1.00  0.00    -0.352 N 
ATOM     29  C   UNL A   1      34.417  31.080  27.830  1.00  0.00     0.251 C 
ATOM     30  H   UNL A   1      33.260  32.691  27.609  1.00  0.00     0.163 HD
ATOM     31  O   UNL A   1      33.551  30.320  27.403  1.00  0.00    -0.269 OA
BRANCH  29  32
ATOM     32  C   UNL A   1      35.686  30.523  28.350  1.00  0.00     0.039 A 
ATOM     33  C   UNL A   1      35.691  29.923  29.614  1.00  0.00     0.014 A 
ATOM     34  C   UNL A   1      36.881  30.639  27.636  1.00  0.00     0.014 A 
ATOM     35  C   UNL A   1      36.876  29.397  30.136  1.00  0.00     0.010 A 
ATOM     36  C   UNL A   1      38.043  30.041  28.117  1.00  0.00     0.010 A 
ATOM     37  C   UNL A   1      38.058  29.428  29.378  1.00  0.00    -0.014 A 
BRANCH  37  38
ATOM     38  C   UNL A   1      39.329  28.857  29.893  1.00  0.00     0.031 A 
ATOM     39  C   UNL A   1      39.990  29.469  31.101  1.00  0.00     0.074 A 
ATOM     40  C   UNL A   1      39.926  27.842  29.238  1.00  0.00     0.049 A 
ATOM     41  N   UNL A   1      41.152  29.195  31.637  1.00  0.00    -0.248 NA
ATOM     42  C   UNL A   1      39.259  30.553  31.777  1.00  0.00     0.031 C 
ATOM     43  C   UNL A   1      39.407  27.187  28.037  1.00  0.00     0.029 A 
ATOM     44  N   UNL A   1      41.110  27.194  29.484  1.00  0.00    -0.354 N 
ATOM     45  C   UNL A   1      41.303  30.090  32.689  1.00  0.00     0.074 A 
ATOM     46  C   UNL A   1      40.136  30.944  32.690  1.00  0.00     0.031 C 
ATOM     47  C   UNL A   1      40.258  26.218  27.662  1.00  0.00     0.029 A 
ATOM     48  C   UNL A   1      41.401  26.211  28.569  1.00  0.00     0.049 A 
ATOM     49  H   UNL A   1      41.697  27.412  30.244  1.00  0.00     0.167 HD
ATOM     50  C   UNL A   1      42.314  30.180  33.586  1.00  0.00     0.037 A 
ATOM     51  C   UNL A   1      42.475  25.406  28.465  1.00  0.00     0.037 A 
ATOM     52  C   UNL A   1      43.453  29.300  33.608  1.00  0.00     0.049 A 
ATOM     53  C   UNL A   1      43.583  25.524  29.476  1.00  0.00     0.074 A 
ATOM     54  C   UNL A   1      44.496  29.265  34.517  1.00  0.00     0.029 A 
ATOM     55  N   UNL A   1      43.695  28.299  32.681  1.00  0.00    -0.354 N 
ATOM     56  N   UNL A   1      43.684  26.335  30.502  1.00  0.00    -0.248 NA
ATOM     57  C   UNL A   1      44.725  24.614  29.317  1.00  0.00     0.031 C 
ATOM     58  C   UNL A   1      45.391  28.270  34.114  1.00  0.00     0.029 A 
ATOM     59  C   UNL A   1      44.881  27.653  32.984  1.00  0.00     0.049 A 
ATOM     60  H   UNL A   1      43.111  28.081  31.918  1.00  0.00     0.167 HD
ATOM     61  C   UNL A   1      44.878  26.007  31.130  1.00  0.00     0.074 A 
ATOM     62  C   UNL A   1      45.463  24.920  30.375  1.00  0.00     0.031 C 
ATOM     63  C   UNL A   1      45.438  26.556  32.235  1.00  0.00     0.037 A 
BRANCH  50  64
ATOM     64  C   UNL A   1      42.233  31.262  34.622  1.00  0.00     0.057 A 
ATOM     65  C   UNL A   1      42.757  32.543  34.398  1.00  0.00     0.134 A 
ATOM     66  C   UNL A   1      41.582  31.037  35.841  1.00  0.00     0.134 A 
ATOM     67  F   UNL A   1      43.403  32.822  33.255  1.00  0.00    -0.206 F 
ATOM     68  C   UNL A   1      42.659  33.551  35.359  1.00  0.00     0.040 A 
ATOM     69  C   UNL A   1      41.453  32.045  36.799  1.00  0.00     0.040 A 
ATOM     70  F   UNL A   1      41.052  29.836  36.119  1.00  0.00    -0.206 F 
ATOM     71  C   UNL A   1      41.997  33.305  36.560  1.00  0.00     0.006 A 
ENDBRANCH  50  64
BRANCH  51  72
ATOM     72  C   UNL A   1      42.551  24.397  27.377  1.00  0.00     0.057 A 
ATOM     73  C   UNL A   1      42.105  23.086  27.580  1.00  0.00     0.134 A 
ATOM     74  C   UNL A   1      43.086  24.709  26.122  1.00  0.00     0.134 A 
ATOM     75  F   UNL A   1      41.599  22.721  28.767  1.00  0.00    -0.206 F 
ATOM     76  C   UNL A   1      42.208  22.114  26.582  1.00  0.00     0.040 A 
ATOM     77  C   UNL A   1      43.170  23.755  25.106  1.00  0.00     0.040 A 
ATOM     78  F   UNL A   1      43.526  25.949  25.862  1.00  0.00    -0.206 F 
ATOM     79  C   UNL A   1      42.739  22.450  25.339  1.00  0.00     0.006 A 
ENDBRANCH  51  72
BRANCH  63  80
ATOM     80  C   UNL A   1      46.721  25.955  32.729  1.00  0.00     0.057 A 
ATOM     81  C   UNL A   1      47.970  26.421  32.303  1.00  0.00     0.134 A 
ATOM     82  C   UNL A   1      46.702  24.932  33.685  1.00  0.00     0.134 A 
ATOM     83  F   UNL A   1      48.057  27.390  31.379  1.00  0.00    -0.206 F 
ATOM     84  C   UNL A   1      49.157  25.875  32.796  1.00  0.00     0.040 A 
ATOM     85  C   UNL A   1      47.880  24.397  34.205  1.00  0.00     0.040 A 
ATOM     86  F   UNL A   1      45.536  24.449  34.143  1.00  0.00    -0.206 F 
ATOM     87  C   UNL A   1      49.113  24.865  33.756  1.00  0.00     0.006 A 
ENDBRANCH  63  80
ENDBRANCH  37  38
ENDBRANCH  29  32
ENDBRANCH  27  28
ENDBRANCH  26  27
ENDBRANCH   1  26
TORSDOF 16
ENDMDL
