MODEL 1
REMARK VINA RESULT:     -12.5      0.000      0.000
REMARK SMILES COc1cccc(Cn2c(=O)c(=O)n(CC(=O)NCCCNC(=O)c3ccc(-c4c5nc(c(-c6c(F)cccc6F)c6ccc([nH]6)c(-c6c(F)cccc6F)c6nc(c(-c7c(F)cccc7F)c7ccc4[nH]7)C=C6)C=C5)cc3)c3ccccc32)c1
REMARK SMILES IDX 19 1 18 2 16 3 17 4 15 6 14 7 9 8 10 9 84 10 11 11 12 12
REMARK SMILES IDX 79 13 83 14 13 15 80 16 82 17 81 18 8 19 7 20 3 21 4 22
REMARK SMILES IDX 85 23 5 24 6 25 2 26 1 27 20 28 21 29 22 30 23 31 24 33
REMARK SMILES IDX 25 34 26 35 78 36 27 37 77 38 28 39 29 40 30 41 71 42 31 43
REMARK SMILES IDX 76 44 70 45 72 46 32 47 75 48 69 49 68 50 33 52 59 53 42 54
REMARK SMILES IDX 58 55 43 56 46 57 57 58 73 59 44 60 45 61 56 63 74 64 47 65
REMARK SMILES IDX 34 66 35 67 40 68 36 69 37 70 39 71 41 72 38 73 60 74 61 75
REMARK SMILES IDX 66 76 62 77 63 78 65 79 67 80 64 81 48 82 49 83 54 84 50 85
REMARK SMILES IDX 51 86 53 87 55 88 52 89
REMARK H PARENT 18 5 22 32 72 51 46 62
REMARK Flexibility Score: inf
ROOT
ATOM      1  C   UNL A   1      32.033  28.117  22.846  1.00  0.00     0.117 C 
ENDROOT
BRANCH   1   2
ATOM      2  N   UNL A   1      32.347  27.095  21.870  1.00  0.00    -0.354 N 
ATOM      3  C   UNL A   1      33.216  26.052  21.916  1.00  0.00     0.240 C 
ATOM      4  O   UNL A   1      33.254  25.330  20.911  1.00  0.00    -0.273 OA
ATOM      5  H   UNL A   1      31.844  27.169  21.026  1.00  0.00     0.163 HD
BRANCH   3   6
ATOM      6  C   UNL A   1      33.955  25.608  23.184  1.00  0.00     0.226 C 
BRANCH   6   7
ATOM      7  N   UNL A   1      33.687  24.366  23.897  1.00  0.00    -0.293 N 
ATOM      8  N   UNL A   1      33.415  21.966  25.344  1.00  0.00    -0.298 N 
ATOM      9  C   UNL A   1      34.679  22.435  25.044  1.00  0.00     0.317 A 
ATOM     10  C   UNL A   1      32.406  22.959  25.471  1.00  0.00     0.068 A 
ATOM     11  O   UNL A   1      35.721  22.086  25.605  1.00  0.00    -0.263 OA
ATOM     12  C   UNL A   1      34.709  23.424  23.892  1.00  0.00     0.317 A 
ATOM     13  C   UNL A   1      32.573  24.195  24.781  1.00  0.00     0.069 A 
ATOM     14  C   UNL A   1      31.355  22.802  26.383  1.00  0.00     0.028 A 
ATOM     15  O   UNL A   1      35.631  23.383  23.074  1.00  0.00    -0.263 OA
ATOM     16  C   UNL A   1      31.646  25.221  24.999  1.00  0.00     0.028 A 
ATOM     17  C   UNL A   1      30.485  23.865  26.635  1.00  0.00     0.002 A 
ATOM     18  C   UNL A   1      30.625  25.063  25.939  1.00  0.00     0.002 A 
BRANCH   8  19
ATOM     19  C   UNL A   1      33.251  20.538  25.620  1.00  0.00     0.162 C 
BRANCH  19  20
ATOM     20  C   UNL A   1      32.640  19.876  24.378  1.00  0.00    -0.024 A 
ATOM     21  C   UNL A   1      32.726  17.908  22.958  1.00  0.00     0.119 A 
ATOM     22  C   UNL A   1      32.346  18.666  21.859  1.00  0.00     0.046 A 
ATOM     23  C   UNL A   1      32.767  18.484  24.222  1.00  0.00     0.052 A 
ATOM     24  C   UNL A   1      32.037  20.018  22.030  1.00  0.00     0.004 A 
ATOM     25  C   UNL A   1      32.221  20.633  23.276  1.00  0.00     0.006 A 
BRANCH  21  26
ATOM     26  O   UNL A   1      33.385  16.720  22.801  1.00  0.00    -0.497 OA
ATOM     27  C   UNL A   1      33.929  16.195  23.999  1.00  0.00     0.278 C 
ENDBRANCH  21  26
ENDBRANCH  19  20
ENDBRANCH   8  19
ENDBRANCH   6   7
ENDBRANCH   3   6
ENDBRANCH   1   2
BRANCH   1  28
ATOM     28  C   UNL A   1      33.273  28.918  23.234  1.00  0.00     0.042 C 
BRANCH  28  29
ATOM     29  C   UNL A   1      33.476  29.043  24.746  1.00  0.00     0.118 C 
BRANCH  29  30
ATOM     30  N   UNL A   1      32.664  30.098  25.334  1.00  0.00    -0.352 N 
ATOM     31  C   UNL A   1      32.832  30.787  26.508  1.00  0.00     0.251 C 
ATOM     32  H   UNL A   1      31.871  30.355  24.808  1.00  0.00     0.163 HD
ATOM     33  O   UNL A   1      31.934  31.524  26.908  1.00  0.00    -0.269 OA
BRANCH  31  34
ATOM     34  C   UNL A   1      34.070  30.651  27.313  1.00  0.00     0.039 A 
ATOM     35  C   UNL A   1      34.820  31.804  27.577  1.00  0.00     0.014 A 
ATOM     36  C   UNL A   1      34.540  29.407  27.742  1.00  0.00     0.014 A 
ATOM     37  C   UNL A   1      36.018  31.714  28.292  1.00  0.00     0.010 A 
ATOM     38  C   UNL A   1      35.707  29.324  28.502  1.00  0.00     0.010 A 
ATOM     39  C   UNL A   1      36.464  30.475  28.771  1.00  0.00    -0.014 A 
BRANCH  39  40
ATOM     40  C   UNL A   1      37.739  30.353  29.522  1.00  0.00     0.031 A 
ATOM     41  C   UNL A   1      38.897  29.609  28.917  1.00  0.00     0.074 A 
ATOM     42  C   UNL A   1      37.834  30.859  30.766  1.00  0.00     0.049 A 
ATOM     43  N   UNL A   1      40.053  29.303  29.448  1.00  0.00    -0.248 NA
ATOM     44  C   UNL A   1      38.721  29.122  27.540  1.00  0.00     0.031 C 
ATOM     45  C   UNL A   1      36.771  31.577  31.470  1.00  0.00     0.029 A 
ATOM     46  N   UNL A   1      38.871  30.833  31.664  1.00  0.00    -0.354 N 
ATOM     47  C   UNL A   1      40.730  28.569  28.483  1.00  0.00     0.074 A 
ATOM     48  C   UNL A   1      39.844  28.445  27.346  1.00  0.00     0.031 C 
ATOM     49  C   UNL A   1      37.214  31.933  32.687  1.00  0.00     0.029 A 
ATOM     50  C   UNL A   1      38.577  31.440  32.860  1.00  0.00     0.049 A 
ATOM     51  H   UNL A   1      39.742  30.419  31.469  1.00  0.00     0.167 HD
ATOM     52  C   UNL A   1      41.984  28.060  28.532  1.00  0.00     0.037 A 
ATOM     53  C   UNL A   1      39.321  31.573  33.975  1.00  0.00     0.037 A 
ATOM     54  C   UNL A   1      42.879  28.219  29.648  1.00  0.00     0.049 A 
ATOM     55  C   UNL A   1      40.711  31.005  34.004  1.00  0.00     0.074 A 
ATOM     56  C   UNL A   1      44.190  27.798  29.771  1.00  0.00     0.029 A 
ATOM     57  N   UNL A   1      42.549  28.858  30.834  1.00  0.00    -0.354 N 
ATOM     58  N   UNL A   1      41.353  30.351  33.066  1.00  0.00    -0.248 NA
ATOM     59  C   UNL A   1      41.479  31.192  35.242  1.00  0.00     0.031 C 
ATOM     60  C   UNL A   1      44.646  28.157  31.044  1.00  0.00     0.029 A 
ATOM     61  C   UNL A   1      43.629  28.828  31.701  1.00  0.00     0.049 A 
ATOM     62  H   UNL A   1      41.677  29.271  31.031  1.00  0.00     0.167 HD
ATOM     63  C   UNL A   1      42.606  30.066  33.593  1.00  0.00     0.074 A 
ATOM     64  C   UNL A   1      42.637  30.629  34.928  1.00  0.00     0.031 C 
ATOM     65  C   UNL A   1      43.638  29.398  33.024  1.00  0.00     0.037 A 
BRANCH  52  66
ATOM     66  C   UNL A   1      42.463  27.282  27.342  1.00  0.00     0.057 A 
ATOM     67  C   UNL A   1      43.099  27.905  26.260  1.00  0.00     0.134 A 
ATOM     68  C   UNL A   1      42.308  25.891  27.287  1.00  0.00     0.134 A 
ATOM     69  F   UNL A   1      43.265  29.236  26.246  1.00  0.00    -0.206 F 
ATOM     70  C   UNL A   1      43.543  27.177  25.156  1.00  0.00     0.040 A 
ATOM     71  C   UNL A   1      42.770  25.148  26.198  1.00  0.00     0.040 A 
ATOM     72  F   UNL A   1      41.713  25.231  28.292  1.00  0.00    -0.206 F 
ATOM     73  C   UNL A   1      43.384  25.792  25.126  1.00  0.00     0.006 A 
ENDBRANCH  52  66
BRANCH  53  74
ATOM     74  C   UNL A   1      38.768  32.290  35.150  1.00  0.00     0.057 A 
ATOM     75  C   UNL A   1      38.181  31.588  36.208  1.00  0.00     0.134 A 
ATOM     76  C   UNL A   1      38.820  33.685  35.249  1.00  0.00     0.134 A 
ATOM     77  F   UNL A   1      38.087  30.251  36.161  1.00  0.00    -0.206 F 
ATOM     78  C   UNL A   1      37.656  32.247  37.321  1.00  0.00     0.040 A 
ATOM     79  C   UNL A   1      38.316  34.357  36.364  1.00  0.00     0.040 A 
ATOM     80  F   UNL A   1      39.377  34.413  34.270  1.00  0.00    -0.206 F 
ATOM     81  C   UNL A   1      37.728  33.637  37.403  1.00  0.00     0.006 A 
ENDBRANCH  53  74
BRANCH  65  82
ATOM     82  C   UNL A   1      44.891  29.259  33.833  1.00  0.00     0.057 A 
ATOM     83  C   UNL A   1      45.115  28.145  34.651  1.00  0.00     0.134 A 
ATOM     84  C   UNL A   1      45.901  30.226  33.757  1.00  0.00     0.134 A 
ATOM     85  F   UNL A   1      44.178  27.193  34.775  1.00  0.00    -0.206 F 
ATOM     86  C   UNL A   1      46.297  28.005  35.379  1.00  0.00     0.040 A 
ATOM     87  C   UNL A   1      47.095  30.087  34.464  1.00  0.00     0.040 A 
ATOM     88  F   UNL A   1      45.747  31.312  32.986  1.00  0.00    -0.206 F 
ATOM     89  C   UNL A   1      47.294  28.975  35.280  1.00  0.00     0.006 A 
ENDBRANCH  65  82
ENDBRANCH  39  40
ENDBRANCH  31  34
ENDBRANCH  29  30
ENDBRANCH  28  29
ENDBRANCH   1  28
TORSDOF 14
ENDMDL
MODEL 2
REMARK VINA RESULT:     -12.5      3.668      8.631
REMARK SMILES COc1cccc(Cn2c(=O)c(=O)n(CC(=O)NCCCNC(=O)c3ccc(-c4c5nc(c(-c6c(F)cccc6F)c6ccc([nH]6)c(-c6c(F)cccc6F)c6nc(c(-c7c(F)cccc7F)c7ccc4[nH]7)C=C6)C=C5)cc3)c3ccccc32)c1
REMARK SMILES IDX 19 1 18 2 16 3 17 4 15 6 14 7 9 8 10 9 84 10 11 11 12 12
REMARK SMILES IDX 79 13 83 14 13 15 80 16 82 17 81 18 8 19 7 20 3 21 4 22
REMARK SMILES IDX 85 23 5 24 6 25 2 26 1 27 20 28 21 29 22 30 23 31 24 33
REMARK SMILES IDX 25 34 26 35 78 36 27 37 77 38 28 39 29 40 30 41 71 42 31 43
REMARK SMILES IDX 76 44 70 45 72 46 32 47 75 48 69 49 68 50 33 52 59 53 42 54
REMARK SMILES IDX 58 55 43 56 46 57 57 58 73 59 44 60 45 61 56 63 74 64 47 65
REMARK SMILES IDX 34 66 35 67 40 68 36 69 37 70 39 71 41 72 38 73 60 74 61 75
REMARK SMILES IDX 66 76 62 77 63 78 65 79 67 80 64 81 48 82 49 83 54 84 50 85
REMARK SMILES IDX 51 86 53 87 55 88 52 89
REMARK H PARENT 18 5 22 32 72 51 46 62
REMARK Flexibility Score: inf
ROOT
ATOM      1  C   UNL A   1      36.093  20.742  24.884  1.00  0.00     0.117 C 
ENDROOT
BRANCH   1   2
ATOM      2  N   UNL A   1      35.780  21.295  26.185  1.00  0.00    -0.354 N 
ATOM      3  C   UNL A   1      34.611  21.756  26.702  1.00  0.00     0.240 C 
ATOM      4  O   UNL A   1      34.655  22.164  27.870  1.00  0.00    -0.273 OA
ATOM      5  H   UNL A   1      36.546  21.346  26.802  1.00  0.00     0.163 HD
BRANCH   3   6
ATOM      6  C   UNL A   1      33.249  21.594  26.018  1.00  0.00     0.226 C 
BRANCH   6   7
ATOM      7  N   UNL A   1      32.416  22.705  25.576  1.00  0.00    -0.293 N 
ATOM      8  N   UNL A   1      30.868  24.970  24.942  1.00  0.00    -0.298 N 
ATOM      9  C   UNL A   1      31.311  24.796  26.239  1.00  0.00     0.317 A 
ATOM     10  C   UNL A   1      31.685  24.396  23.931  1.00  0.00     0.068 A 
ATOM     11  O   UNL A   1      31.371  25.680  27.096  1.00  0.00    -0.263 OA
ATOM     12  C   UNL A   1      31.699  23.364  26.568  1.00  0.00     0.317 A 
ATOM     13  C   UNL A   1      32.510  23.284  24.268  1.00  0.00     0.069 A 
ATOM     14  C   UNL A   1      31.811  25.006  22.677  1.00  0.00     0.028 A 
ATOM     15  O   UNL A   1      31.421  22.894  27.672  1.00  0.00    -0.263 OA
ATOM     16  C   UNL A   1      33.406  22.793  23.313  1.00  0.00     0.028 A 
ATOM     17  C   UNL A   1      32.762  24.541  21.767  1.00  0.00     0.002 A 
ATOM     18  C   UNL A   1      33.548  23.435  22.080  1.00  0.00     0.002 A 
BRANCH   8  19
ATOM     19  C   UNL A   1      29.692  25.812  24.717  1.00  0.00     0.162 C 
BRANCH  19  20
ATOM     20  C   UNL A   1      30.162  27.147  24.125  1.00  0.00    -0.024 A 
ATOM     21  C   UNL A   1      31.154  29.296  24.667  1.00  0.00     0.119 A 
ATOM     22  C   UNL A   1      30.466  29.895  23.619  1.00  0.00     0.046 A 
ATOM     23  C   UNL A   1      31.087  27.920  24.849  1.00  0.00     0.052 A 
ATOM     24  C   UNL A   1      29.682  29.106  22.773  1.00  0.00     0.004 A 
ATOM     25  C   UNL A   1      29.497  27.744  23.046  1.00  0.00     0.006 A 
BRANCH  21  26
ATOM     26  O   UNL A   1      31.614  30.035  25.721  1.00  0.00    -0.497 OA
ATOM     27  C   UNL A   1      32.093  29.262  26.807  1.00  0.00     0.278 C 
ENDBRANCH  21  26
ENDBRANCH  19  20
ENDBRANCH   8  19
ENDBRANCH   6   7
ENDBRANCH   3   6
ENDBRANCH   1   2
BRANCH   1  28
ATOM     28  C   UNL A   1      37.267  19.769  24.960  1.00  0.00     0.042 C 
BRANCH  28  29
ATOM     29  C   UNL A   1      38.517  20.363  25.613  1.00  0.00     0.118 C 
BRANCH  29  30
ATOM     30  N   UNL A   1      39.619  19.415  25.677  1.00  0.00    -0.352 N 
ATOM     31  C   UNL A   1      40.936  19.617  26.004  1.00  0.00     0.251 C 
ATOM     32  H   UNL A   1      39.383  18.486  25.449  1.00  0.00     0.163 HD
ATOM     33  O   UNL A   1      41.746  18.710  25.830  1.00  0.00    -0.269 OA
BRANCH  31  34
ATOM     34  C   UNL A   1      41.406  20.913  26.552  1.00  0.00     0.039 A 
ATOM     35  C   UNL A   1      41.227  21.160  27.919  1.00  0.00     0.014 A 
ATOM     36  C   UNL A   1      41.945  21.910  25.734  1.00  0.00     0.014 A 
ATOM     37  C   UNL A   1      41.613  22.387  28.468  1.00  0.00     0.010 A 
ATOM     38  C   UNL A   1      42.379  23.113  26.291  1.00  0.00     0.010 A 
ATOM     39  C   UNL A   1      42.204  23.368  27.660  1.00  0.00    -0.014 A 
BRANCH  39  40
ATOM     40  C   UNL A   1      42.610  24.682  28.217  1.00  0.00     0.031 A 
ATOM     41  C   UNL A   1      41.581  25.758  28.428  1.00  0.00     0.074 A 
ATOM     42  C   UNL A   1      43.908  24.926  28.477  1.00  0.00     0.049 A 
ATOM     43  N   UNL A   1      41.746  27.000  28.804  1.00  0.00    -0.248 NA
ATOM     44  C   UNL A   1      40.181  25.394  28.155  1.00  0.00     0.031 C 
ATOM     45  C   UNL A   1      45.002  23.973  28.288  1.00  0.00     0.029 A 
ATOM     46  N   UNL A   1      44.528  26.058  28.943  1.00  0.00    -0.354 N 
ATOM     47  C   UNL A   1      40.480  27.571  28.788  1.00  0.00     0.074 A 
ATOM     48  C   UNL A   1      39.561  26.551  28.332  1.00  0.00     0.031 C 
ATOM     49  C   UNL A   1      46.158  24.556  28.645  1.00  0.00     0.029 A 
ATOM     50  C   UNL A   1      45.891  25.931  29.055  1.00  0.00     0.049 A 
ATOM     51  H   UNL A   1      44.043  26.882  29.175  1.00  0.00     0.167 HD
ATOM     52  C   UNL A   1      40.114  28.828  29.138  1.00  0.00     0.037 A 
ATOM     53  C   UNL A   1      46.821  26.828  29.435  1.00  0.00     0.037 A 
ATOM     54  C   UNL A   1      41.025  29.828  29.629  1.00  0.00     0.049 A 
ATOM     55  C   UNL A   1      46.390  28.213  29.825  1.00  0.00     0.074 A 
ATOM     56  C   UNL A   1      40.745  31.108  30.072  1.00  0.00     0.029 A 
ATOM     57  N   UNL A   1      42.396  29.653  29.746  1.00  0.00    -0.354 N 
ATOM     58  N   UNL A   1      45.184  28.726  29.846  1.00  0.00    -0.248 NA
ATOM     59  C   UNL A   1      47.447  29.144  30.242  1.00  0.00     0.031 C 
ATOM     60  C   UNL A   1      41.952  31.719  30.431  1.00  0.00     0.029 A 
ATOM     61  C   UNL A   1      42.978  30.809  30.240  1.00  0.00     0.049 A 
ATOM     62  H   UNL A   1      42.883  28.830  29.513  1.00  0.00     0.167 HD
ATOM     63  C   UNL A   1      45.334  30.030  30.298  1.00  0.00     0.074 A 
ATOM     64  C   UNL A   1      46.747  30.227  30.549  1.00  0.00     0.031 C 
ATOM     65  C   UNL A   1      44.386  30.980  30.486  1.00  0.00     0.037 A 
BRANCH  52  66
ATOM     66  C   UNL A   1      38.664  29.189  29.003  1.00  0.00     0.057 A 
ATOM     67  C   UNL A   1      38.108  29.555  27.770  1.00  0.00     0.134 A 
ATOM     68  C   UNL A   1      37.810  29.147  30.111  1.00  0.00     0.134 A 
ATOM     69  F   UNL A   1      38.876  29.627  26.673  1.00  0.00    -0.206 F 
ATOM     70  C   UNL A   1      36.758  29.889  27.649  1.00  0.00     0.040 A 
ATOM     71  C   UNL A   1      36.453  29.456  29.999  1.00  0.00     0.040 A 
ATOM     72  F   UNL A   1      38.278  28.800  31.320  1.00  0.00    -0.206 F 
ATOM     73  C   UNL A   1      35.925  29.835  28.766  1.00  0.00     0.006 A 
ENDBRANCH  52  66
BRANCH  53  74
ATOM     74  C   UNL A   1      48.250  26.435  29.480  1.00  0.00     0.057 A 
ATOM     75  C   UNL A   1      48.787  25.807  30.609  1.00  0.00     0.134 A 
ATOM     76  C   UNL A   1      49.109  26.668  28.398  1.00  0.00     0.134 A 
ATOM     77  F   UNL A   1      48.017  25.575  31.682  1.00  0.00    -0.206 F 
ATOM     78  C   UNL A   1      50.130  25.432  30.667  1.00  0.00     0.040 A 
ATOM     79  C   UNL A   1      50.450  26.280  28.436  1.00  0.00     0.040 A 
ATOM     80  F   UNL A   1      48.651  27.259  27.285  1.00  0.00    -0.206 F 
ATOM     81  C   UNL A   1      50.965  25.664  29.574  1.00  0.00     0.006 A 
ENDBRANCH  53  74
BRANCH  65  82
ATOM     82  C   UNL A   1      44.845  32.308  31.007  1.00  0.00     0.057 A 
ATOM     83  C   UNL A   1      45.187  33.356  30.145  1.00  0.00     0.134 A 
ATOM     84  C   UNL A   1      44.902  32.553  32.385  1.00  0.00     0.134 A 
ATOM     85  F   UNL A   1      45.166  33.177  28.815  1.00  0.00    -0.206 F 
ATOM     86  C   UNL A   1      45.584  34.600  30.636  1.00  0.00     0.040 A 
ATOM     87  C   UNL A   1      45.277  33.799  32.887  1.00  0.00     0.040 A 
ATOM     88  F   UNL A   1      44.581  31.590  33.262  1.00  0.00    -0.206 F 
ATOM     89  C   UNL A   1      45.623  34.825  32.011  1.00  0.00     0.006 A 
ENDBRANCH  65  82
ENDBRANCH  39  40
ENDBRANCH  31  34
ENDBRANCH  29  30
ENDBRANCH  28  29
ENDBRANCH   1  28
TORSDOF 14
ENDMDL
MODEL 3
REMARK VINA RESULT:     -12.5      3.544      7.589
REMARK SMILES COc1cccc(Cn2c(=O)c(=O)n(CC(=O)NCCCNC(=O)c3ccc(-c4c5nc(c(-c6c(F)cccc6F)c6ccc([nH]6)c(-c6c(F)cccc6F)c6nc(c(-c7c(F)cccc7F)c7ccc4[nH]7)C=C6)C=C5)cc3)c3ccccc32)c1
REMARK SMILES IDX 19 1 18 2 16 3 17 4 15 6 14 7 9 8 10 9 84 10 11 11 12 12
REMARK SMILES IDX 79 13 83 14 13 15 80 16 82 17 81 18 8 19 7 20 3 21 4 22
REMARK SMILES IDX 85 23 5 24 6 25 2 26 1 27 20 28 21 29 22 30 23 31 24 33
REMARK SMILES IDX 25 34 26 35 78 36 27 37 77 38 28 39 29 40 30 41 71 42 31 43
REMARK SMILES IDX 76 44 70 45 72 46 32 47 75 48 69 49 68 50 33 52 59 53 42 54
REMARK SMILES IDX 58 55 43 56 46 57 57 58 73 59 44 60 45 61 56 63 74 64 47 65
REMARK SMILES IDX 34 66 35 67 40 68 36 69 37 70 39 71 41 72 38 73 60 74 61 75
REMARK SMILES IDX 66 76 62 77 63 78 65 79 67 80 64 81 48 82 49 83 54 84 50 85
REMARK SMILES IDX 51 86 53 87 55 88 52 89
REMARK H PARENT 18 5 22 32 72 51 46 62
REMARK Flexibility Score: inf
ROOT
ATOM      1  C   UNL A   1      37.473  20.708  24.506  1.00  0.00     0.117 C 
ENDROOT
BRANCH   1   2
ATOM      2  N   UNL A   1      37.955  21.951  25.070  1.00  0.00    -0.354 N 
ATOM      3  C   UNL A   1      37.299  22.963  25.695  1.00  0.00     0.240 C 
ATOM      4  O   UNL A   1      37.998  23.906  26.085  1.00  0.00    -0.273 OA
ATOM      5  H   UNL A   1      38.927  22.086  24.986  1.00  0.00     0.163 HD
BRANCH   3   6
ATOM      6  C   UNL A   1      35.829  22.894  26.125  1.00  0.00     0.226 C 
BRANCH   6   7
ATOM      7  N   UNL A   1      34.701  23.044  25.214  1.00  0.00    -0.293 N 
ATOM      8  N   UNL A   1      32.672  23.484  23.312  1.00  0.00    -0.298 N 
ATOM      9  C   UNL A   1      33.789  24.297  23.310  1.00  0.00     0.317 A 
ATOM     10  C   UNL A   1      32.872  22.167  23.805  1.00  0.00     0.068 A 
ATOM     11  O   UNL A   1      34.152  25.006  22.368  1.00  0.00    -0.263 OA
ATOM     12  C   UNL A   1      34.555  24.293  24.621  1.00  0.00     0.317 A 
ATOM     13  C   UNL A   1      33.935  21.936  24.726  1.00  0.00     0.069 A 
ATOM     14  C   UNL A   1      32.156  21.086  23.276  1.00  0.00     0.028 A 
ATOM     15  O   UNL A   1      35.038  25.342  25.051  1.00  0.00    -0.263 OA
ATOM     16  C   UNL A   1      34.214  20.622  25.119  1.00  0.00     0.028 A 
ATOM     17  C   UNL A   1      32.500  19.780  23.631  1.00  0.00     0.002 A 
ATOM     18  C   UNL A   1      33.517  19.551  24.555  1.00  0.00     0.002 A 
BRANCH   8  19
ATOM     19  C   UNL A   1      31.439  23.997  22.710  1.00  0.00     0.162 C 
BRANCH  19  20
ATOM     20  C   UNL A   1      30.933  25.162  23.570  1.00  0.00    -0.024 A 
ATOM     21  C   UNL A   1      30.986  27.575  23.835  1.00  0.00     0.119 A 
ATOM     22  C   UNL A   1      30.850  27.442  25.210  1.00  0.00     0.046 A 
ATOM     23  C   UNL A   1      30.919  26.454  23.016  1.00  0.00     0.052 A 
ATOM     24  C   UNL A   1      30.679  26.170  25.764  1.00  0.00     0.004 A 
ATOM     25  C   UNL A   1      30.760  25.030  24.954  1.00  0.00     0.006 A 
BRANCH  21  26
ATOM     26  O   UNL A   1      31.519  28.708  23.286  1.00  0.00    -0.497 OA
ATOM     27  C   UNL A   1      32.934  28.709  23.216  1.00  0.00     0.278 C 
ENDBRANCH  21  26
ENDBRANCH  19  20
ENDBRANCH   8  19
ENDBRANCH   6   7
ENDBRANCH   3   6
ENDBRANCH   1   2
BRANCH   1  28
ATOM     28  C   UNL A   1      38.348  19.529  24.922  1.00  0.00     0.042 C 
BRANCH  28  29
ATOM     29  C   UNL A   1      39.356  19.869  26.021  1.00  0.00     0.118 C 
BRANCH  29  30
ATOM     30  N   UNL A   1      40.602  19.130  25.886  1.00  0.00    -0.352 N 
ATOM     31  C   UNL A   1      41.900  19.568  25.979  1.00  0.00     0.251 C 
ATOM     32  H   UNL A   1      40.498  18.169  25.696  1.00  0.00     0.163 HD
ATOM     33  O   UNL A   1      42.814  18.812  25.660  1.00  0.00    -0.269 OA
BRANCH  31  34
ATOM     34  C   UNL A   1      42.221  20.938  26.445  1.00  0.00     0.039 A 
ATOM     35  C   UNL A   1      42.186  21.197  27.821  1.00  0.00     0.014 A 
ATOM     36  C   UNL A   1      42.478  21.981  25.552  1.00  0.00     0.014 A 
ATOM     37  C   UNL A   1      42.437  22.487  28.300  1.00  0.00     0.010 A 
ATOM     38  C   UNL A   1      42.781  23.256  26.032  1.00  0.00     0.010 A 
ATOM     39  C   UNL A   1      42.749  23.523  27.410  1.00  0.00    -0.014 A 
BRANCH  39  40
ATOM     40  C   UNL A   1      43.007  24.902  27.894  1.00  0.00     0.031 A 
ATOM     41  C   UNL A   1      44.409  25.331  28.227  1.00  0.00     0.074 A 
ATOM     42  C   UNL A   1      41.976  25.746  28.088  1.00  0.00     0.049 A 
ATOM     43  N   UNL A   1      44.829  26.450  28.758  1.00  0.00    -0.248 NA
ATOM     44  C   UNL A   1      45.479  24.359  27.949  1.00  0.00     0.031 C 
ATOM     45  C   UNL A   1      40.569  25.438  27.828  1.00  0.00     0.029 A 
ATOM     46  N   UNL A   1      41.953  27.033  28.564  1.00  0.00    -0.354 N 
ATOM     47  C   UNL A   1      46.203  26.309  28.901  1.00  0.00     0.074 A 
ATOM     48  C   UNL A   1      46.543  24.983  28.433  1.00  0.00     0.031 C 
ATOM     49  C   UNL A   1      39.821  26.509  28.137  1.00  0.00     0.029 A 
ATOM     50  C   UNL A   1      40.690  27.564  28.648  1.00  0.00     0.049 A 
ATOM     51  H   UNL A   1      42.764  27.526  28.822  1.00  0.00     0.167 HD
ATOM     52  C   UNL A   1      47.103  27.209  29.364  1.00  0.00     0.037 A 
ATOM     53  C   UNL A   1      40.279  28.766  29.097  1.00  0.00     0.037 A 
ATOM     54  C   UNL A   1      46.767  28.542  29.790  1.00  0.00     0.049 A 
ATOM     55  C   UNL A   1      41.296  29.750  29.600  1.00  0.00     0.074 A 
ATOM     56  C   UNL A   1      47.612  29.552  30.214  1.00  0.00     0.029 A 
ATOM     57  N   UNL A   1      45.477  29.049  29.841  1.00  0.00    -0.354 N 
ATOM     58  N   UNL A   1      42.597  29.618  29.687  1.00  0.00    -0.248 NA
ATOM     59  C   UNL A   1      40.790  31.049  30.065  1.00  0.00     0.031 C 
ATOM     60  C   UNL A   1      46.830  30.663  30.550  1.00  0.00     0.029 A 
ATOM     61  C   UNL A   1      45.502  30.354  30.305  1.00  0.00     0.049 A 
ATOM     62  H   UNL A   1      44.665  28.555  29.586  1.00  0.00     0.167 HD
ATOM     63  C   UNL A   1      43.067  30.821  30.198  1.00  0.00     0.074 A 
ATOM     64  C   UNL A   1      41.912  31.675  30.390  1.00  0.00     0.031 C 
ATOM     65  C   UNL A   1      44.340  31.186  30.484  1.00  0.00     0.037 A 
BRANCH  52  66
ATOM     66  C   UNL A   1      48.539  26.781  29.430  1.00  0.00     0.057 A 
ATOM     67  C   UNL A   1      49.062  26.124  30.552  1.00  0.00     0.134 A 
ATOM     68  C   UNL A   1      49.403  27.004  28.352  1.00  0.00     0.134 A 
ATOM     69  F   UNL A   1      48.288  25.891  31.624  1.00  0.00    -0.206 F 
ATOM     70  C   UNL A   1      50.398  25.726  30.609  1.00  0.00     0.040 A 
ATOM     71  C   UNL A   1      50.736  26.590  28.386  1.00  0.00     0.040 A 
ATOM     72  F   UNL A   1      48.966  27.623  27.244  1.00  0.00    -0.206 F 
ATOM     73  C   UNL A   1      51.238  25.954  29.520  1.00  0.00     0.006 A 
ENDBRANCH  52  66
BRANCH  53  74
ATOM     74  C   UNL A   1      38.836  29.108  29.075  1.00  0.00     0.057 A 
ATOM     75  C   UNL A   1      38.224  29.566  27.903  1.00  0.00     0.134 A 
ATOM     76  C   UNL A   1      38.034  28.978  30.216  1.00  0.00     0.134 A 
ATOM     77  F   UNL A   1      38.945  29.727  26.784  1.00  0.00    -0.206 F 
ATOM     78  C   UNL A   1      36.867  29.892  27.866  1.00  0.00     0.040 A 
ATOM     79  C   UNL A   1      36.672  29.283  30.188  1.00  0.00     0.040 A 
ATOM     80  F   UNL A   1      38.561  28.537  31.367  1.00  0.00    -0.206 F 
ATOM     81  C   UNL A   1      36.086  29.745  29.012  1.00  0.00     0.006 A 
ENDBRANCH  53  74
BRANCH  65  82
ATOM     82  C   UNL A   1      44.551  32.571  31.013  1.00  0.00     0.057 A 
ATOM     83  C   UNL A   1      44.579  32.835  32.387  1.00  0.00     0.134 A 
ATOM     84  C   UNL A   1      44.773  33.643  30.139  1.00  0.00     0.134 A 
ATOM     85  F   UNL A   1      44.361  31.852  33.273  1.00  0.00    -0.206 F 
ATOM     86  C   UNL A   1      44.807  34.123  32.875  1.00  0.00     0.040 A 
ATOM     87  C   UNL A   1      45.022  34.930  30.615  1.00  0.00     0.040 A 
ATOM     88  F   UNL A   1      44.763  33.452  28.811  1.00  0.00    -0.206 F 
ATOM     89  C   UNL A   1      45.036  35.173  31.987  1.00  0.00     0.006 A 
ENDBRANCH  65  82
ENDBRANCH  39  40
ENDBRANCH  31  34
ENDBRANCH  29  30
ENDBRANCH  28  29
ENDBRANCH   1  28
TORSDOF 14
ENDMDL
