MODEL 1
REMARK VINA RESULT:     -12.1      0.000      0.000
REMARK SMILES O=C(NCCCNC(=O)[C@@H](c1ccccc1)[C@H](C(=O)c1ccccc1)c1ccccc1)c1ccc(-c2c3nc(c(-c4c(F)cccc4F)c4ccc([nH]4)c(-c4c(F)cccc4F)c4nc(c(-c5c(F)cccc5F)c5ccc2[nH]5)C=C4)C=C3)cc1
REMARK SMILES IDX 5 1 4 2 3 3 1 4 2 5 32 7 33 8 85 9 34 10 84 11 35 12 36 13
REMARK SMILES IDX 37 14 78 15 38 16 83 17 77 18 79 19 39 20 82 21 76 22 75 23
REMARK SMILES IDX 40 25 66 26 49 27 65 28 50 29 53 30 64 31 80 32 51 33 52 34
REMARK SMILES IDX 63 36 81 37 54 38 41 39 42 40 47 41 43 42 44 43 46 44 48 45
REMARK SMILES IDX 45 46 67 47 68 48 73 49 69 50 70 51 72 52 74 53 71 54 55 55
REMARK SMILES IDX 56 56 61 57 57 58 58 59 60 60 62 61 59 62 6 63 7 64 8 65
REMARK SMILES IDX 9 67 10 68 11 69 12 70 16 71 13 72 15 73 14 74 17 75 26 76
REMARK SMILES IDX 27 77 31 78 28 79 30 80 29 81 18 82 19 83 20 84 21 85 25 86
REMARK SMILES IDX 22 87 24 88 23 89
REMARK H PARENT 3 6 79 24 53 35 7 66
REMARK Flexibility Score: inf
ROOT
ATOM      1  C   UNL A   1      32.877  29.084  23.760  1.00  0.00     0.042 C 
ENDROOT
BRANCH   1   2
ATOM      2  C   UNL A   1      33.168  29.248  25.239  1.00  0.00     0.118 C 
BRANCH   2   3
ATOM      3  N   UNL A   1      32.702  30.538  25.737  1.00  0.00    -0.352 N 
ATOM      4  O   UNL A   1      32.352  32.157  27.256  1.00  0.00    -0.269 OA
ATOM      5  C   UNL A   1      33.081  31.250  26.843  1.00  0.00     0.251 C 
ATOM      6  H   UNL A   1      32.003  30.965  25.191  1.00  0.00     0.163 HD
BRANCH   5   7
ATOM      7  C   UNL A   1      34.343  30.945  27.547  1.00  0.00     0.039 A 
ATOM      8  C   UNL A   1      35.276  31.952  27.809  1.00  0.00     0.014 A 
ATOM      9  C   UNL A   1      34.568  29.649  28.017  1.00  0.00     0.014 A 
ATOM     10  C   UNL A   1      36.491  31.640  28.404  1.00  0.00     0.010 A 
ATOM     11  C   UNL A   1      35.744  29.358  28.713  1.00  0.00     0.010 A 
ATOM     12  C   UNL A   1      36.721  30.348  28.892  1.00  0.00    -0.014 A 
BRANCH  12  13
ATOM     13  C   UNL A   1      37.952  30.067  29.667  1.00  0.00     0.031 A 
ATOM     14  C   UNL A   1      39.014  29.165  29.116  1.00  0.00     0.074 A 
ATOM     15  C   UNL A   1      38.085  30.614  30.889  1.00  0.00     0.049 A 
ATOM     16  N   UNL A   1      40.103  28.727  29.692  1.00  0.00    -0.248 NA
ATOM     17  C   UNL A   1      38.823  28.680  27.741  1.00  0.00     0.031 C 
ATOM     18  C   UNL A   1      37.110  31.506  31.523  1.00  0.00     0.029 A 
ATOM     19  N   UNL A   1      39.083  30.497  31.821  1.00  0.00    -0.354 N 
ATOM     20  C   UNL A   1      40.712  27.892  28.766  1.00  0.00     0.074 A 
ATOM     21  C   UNL A   1      39.861  27.871  27.594  1.00  0.00     0.031 C 
ATOM     22  C   UNL A   1      37.563  31.863  32.733  1.00  0.00     0.029 A 
ATOM     23  C   UNL A   1      38.821  31.173  32.987  1.00  0.00     0.049 A 
ATOM     24  H   UNL A   1      39.906  29.979  31.670  1.00  0.00     0.167 HD
ATOM     25  C   UNL A   1      41.874  27.207  28.888  1.00  0.00     0.037 A 
ATOM     26  C   UNL A   1      39.495  31.202  34.150  1.00  0.00     0.037 A 
ATOM     27  C   UNL A   1      42.714  27.251  30.057  1.00  0.00     0.049 A 
ATOM     28  C   UNL A   1      40.763  30.414  34.273  1.00  0.00     0.074 A 
ATOM     29  C   UNL A   1      43.933  26.630  30.267  1.00  0.00     0.029 A 
ATOM     30  N   UNL A   1      42.415  27.951  31.217  1.00  0.00    -0.354 N 
ATOM     31  N   UNL A   1      41.343  29.649  33.381  1.00  0.00    -0.248 NA
ATOM     32  C   UNL A   1      41.469  30.489  35.558  1.00  0.00     0.031 C 
ATOM     33  C   UNL A   1      44.349  26.917  31.572  1.00  0.00     0.029 A 
ATOM     34  C   UNL A   1      43.415  27.756  32.158  1.00  0.00     0.049 A 
ATOM     35  H   UNL A   1      41.613  28.504  31.353  1.00  0.00     0.167 HD
ATOM     36  C   UNL A   1      42.493  29.164  33.987  1.00  0.00     0.074 A 
ATOM     37  C   UNL A   1      42.529  29.728  35.323  1.00  0.00     0.031 C 
ATOM     38  C   UNL A   1      43.435  28.332  33.480  1.00  0.00     0.037 A 
BRANCH  25  39
ATOM     39  C   UNL A   1      42.279  26.326  27.742  1.00  0.00     0.057 A 
ATOM     40  C   UNL A   1      41.904  24.979  27.667  1.00  0.00     0.134 A 
ATOM     41  C   UNL A   1      43.050  26.840  26.691  1.00  0.00     0.134 A 
ATOM     42  F   UNL A   1      41.177  24.420  28.646  1.00  0.00    -0.206 F 
ATOM     43  C   UNL A   1      42.308  24.166  26.606  1.00  0.00     0.040 A 
ATOM     44  C   UNL A   1      43.438  26.044  25.611  1.00  0.00     0.040 A 
ATOM     45  F   UNL A   1      43.440  28.123  26.694  1.00  0.00    -0.206 F 
ATOM     46  C   UNL A   1      43.075  24.699  25.571  1.00  0.00     0.006 A 
ENDBRANCH  25  39
BRANCH  26  47
ATOM     47  C   UNL A   1      38.951  31.995  35.279  1.00  0.00     0.057 A 
ATOM     48  C   UNL A   1      38.226  31.387  36.308  1.00  0.00     0.134 A 
ATOM     49  C   UNL A   1      39.208  33.368  35.389  1.00  0.00     0.134 A 
ATOM     50  F   UNL A   1      37.942  30.079  36.251  1.00  0.00    -0.206 F 
ATOM     51  C   UNL A   1      37.777  32.116  37.410  1.00  0.00     0.040 A 
ATOM     52  C   UNL A   1      38.786  34.104  36.497  1.00  0.00     0.040 A 
ATOM     53  F   UNL A   1      39.911  34.004  34.441  1.00  0.00    -0.206 F 
ATOM     54  C   UNL A   1      38.066  33.476  37.511  1.00  0.00     0.006 A 
ENDBRANCH  26  47
BRANCH  38  55
ATOM     55  C   UNL A   1      44.606  28.008  34.357  1.00  0.00     0.057 A 
ATOM     56  C   UNL A   1      45.741  28.824  34.404  1.00  0.00     0.134 A 
ATOM     57  C   UNL A   1      44.563  26.900  35.213  1.00  0.00     0.134 A 
ATOM     58  F   UNL A   1      45.846  29.890  33.597  1.00  0.00    -0.206 F 
ATOM     59  C   UNL A   1      46.800  28.545  35.269  1.00  0.00     0.040 A 
ATOM     60  C   UNL A   1      45.605  26.624  36.098  1.00  0.00     0.040 A 
ATOM     61  F   UNL A   1      43.499  26.084  35.219  1.00  0.00    -0.206 F 
ATOM     62  C   UNL A   1      46.729  27.448  36.126  1.00  0.00     0.006 A 
ENDBRANCH  38  55
ENDBRANCH  12  13
ENDBRANCH   5   7
ENDBRANCH   2   3
ENDBRANCH   1   2
BRANCH   1  63
ATOM     63  C   UNL A   1      34.065  28.527  22.995  1.00  0.00     0.117 C 
BRANCH  63  64
ATOM     64  N   UNL A   1      33.677  27.581  21.970  1.00  0.00    -0.355 N 
ATOM     65  C   UNL A   1      33.522  26.226  22.002  1.00  0.00     0.228 C 
ATOM     66  H   UNL A   1      33.491  27.987  21.093  1.00  0.00     0.163 HD
ATOM     67  O   UNL A   1      33.278  25.674  20.924  1.00  0.00    -0.274 OA
BRANCH  65  68
ATOM     68  C   UNL A   1      33.655  25.398  23.293  1.00  0.00     0.124 C 
BRANCH  68  69
ATOM     69  C   UNL A   1      32.437  25.632  24.194  1.00  0.00    -0.035 A 
ATOM     70  C   UNL A   1      32.668  25.847  25.569  1.00  0.00     0.004 A 
ATOM     71  C   UNL A   1      31.112  25.717  23.756  1.00  0.00     0.004 A 
ATOM     72  C   UNL A   1      31.619  26.089  26.462  1.00  0.00     0.000 A 
ATOM     73  C   UNL A   1      30.057  25.945  24.647  1.00  0.00     0.000 A 
ATOM     74  C   UNL A   1      30.310  26.127  26.002  1.00  0.00     0.000 A 
ENDBRANCH  68  69
BRANCH  68  75
ATOM     75  C   UNL A   1      34.241  23.976  22.988  1.00  0.00     0.108 C 
BRANCH  75  76
ATOM     76  C   UNL A   1      35.427  23.600  23.894  1.00  0.00    -0.036 A 
ATOM     77  C   UNL A   1      36.390  22.652  23.520  1.00  0.00     0.004 A 
ATOM     78  C   UNL A   1      35.547  24.202  25.160  1.00  0.00     0.004 A 
ATOM     79  C   UNL A   1      37.398  22.267  24.409  1.00  0.00     0.000 A 
ATOM     80  C   UNL A   1      36.565  23.828  26.040  1.00  0.00     0.000 A 
ATOM     81  C   UNL A   1      37.483  22.849  25.669  1.00  0.00     0.000 A 
ENDBRANCH  75  76
BRANCH  75  82
ATOM     82  C   UNL A   1      33.183  22.866  22.941  1.00  0.00     0.171 C 
ATOM     83  O   UNL A   1      32.523  22.609  21.937  1.00  0.00    -0.293 OA
BRANCH  82  84
ATOM     84  C   UNL A   1      33.028  21.990  24.148  1.00  0.00     0.018 A 
ATOM     85  C   UNL A   1      33.552  20.692  24.083  1.00  0.00     0.012 A 
ATOM     86  C   UNL A   1      32.538  22.470  25.372  1.00  0.00     0.012 A 
ATOM     87  C   UNL A   1      33.684  19.929  25.245  1.00  0.00     0.001 A 
ATOM     88  C   UNL A   1      32.682  21.707  26.535  1.00  0.00     0.001 A 
ATOM     89  C   UNL A   1      33.274  20.448  26.474  1.00  0.00     0.000 A 
ENDBRANCH  82  84
ENDBRANCH  75  82
ENDBRANCH  68  75
ENDBRANCH  65  68
ENDBRANCH  63  64
ENDBRANCH   1  63
TORSDOF 15
ENDMDL
MODEL 2
REMARK VINA RESULT:     -12.0      3.885      8.237
REMARK SMILES O=C(NCCCNC(=O)[C@@H](c1ccccc1)[C@H](C(=O)c1ccccc1)c1ccccc1)c1ccc(-c2c3nc(c(-c4c(F)cccc4F)c4ccc([nH]4)c(-c4c(F)cccc4F)c4nc(c(-c5c(F)cccc5F)c5ccc2[nH]5)C=C4)C=C3)cc1
REMARK SMILES IDX 5 1 4 2 3 3 1 4 2 5 32 7 33 8 85 9 34 10 84 11 35 12 36 13
REMARK SMILES IDX 37 14 78 15 38 16 83 17 77 18 79 19 39 20 82 21 76 22 75 23
REMARK SMILES IDX 40 25 66 26 49 27 65 28 50 29 53 30 64 31 80 32 51 33 52 34
REMARK SMILES IDX 63 36 81 37 54 38 41 39 42 40 47 41 43 42 44 43 46 44 48 45
REMARK SMILES IDX 45 46 67 47 68 48 73 49 69 50 70 51 72 52 74 53 71 54 55 55
REMARK SMILES IDX 56 56 61 57 57 58 58 59 60 60 62 61 59 62 6 63 7 64 8 65
REMARK SMILES IDX 9 67 10 68 11 69 12 70 16 71 13 72 15 73 14 74 17 75 26 76
REMARK SMILES IDX 27 77 31 78 28 79 30 80 29 81 18 82 19 83 20 84 21 85 25 86
REMARK SMILES IDX 22 87 24 88 23 89
REMARK H PARENT 3 6 79 24 53 35 7 66
REMARK Flexibility Score: inf
ROOT
ATOM      1  C   UNL A   1      37.006  20.112  25.034  1.00  0.00     0.042 C 
ENDROOT
BRANCH   1   2
ATOM      2  C   UNL A   1      38.443  20.596  25.028  1.00  0.00     0.118 C 
BRANCH   2   3
ATOM      3  N   UNL A   1      39.363  19.551  25.467  1.00  0.00    -0.352 N 
ATOM      4  O   UNL A   1      41.348  18.644  26.002  1.00  0.00    -0.269 OA
ATOM      5  C   UNL A   1      40.623  19.644  25.991  1.00  0.00     0.251 C 
ATOM      6  H   UNL A   1      39.022  18.632  25.371  1.00  0.00     0.163 HD
BRANCH   5   7
ATOM      7  C   UNL A   1      41.128  20.921  26.536  1.00  0.00     0.039 A 
ATOM      8  C   UNL A   1      41.622  21.915  25.687  1.00  0.00     0.014 A 
ATOM      9  C   UNL A   1      41.040  21.160  27.910  1.00  0.00     0.014 A 
ATOM     10  C   UNL A   1      42.162  23.079  26.215  1.00  0.00     0.010 A 
ATOM     11  C   UNL A   1      41.485  22.377  28.431  1.00  0.00     0.010 A 
ATOM     12  C   UNL A   1      42.067  23.336  27.588  1.00  0.00    -0.014 A 
BRANCH  12  13
ATOM     13  C   UNL A   1      42.502  24.648  28.120  1.00  0.00     0.031 A 
ATOM     14  C   UNL A   1      41.503  25.729  28.403  1.00  0.00     0.074 A 
ATOM     15  C   UNL A   1      43.816  24.862  28.317  1.00  0.00     0.049 A 
ATOM     16  N   UNL A   1      41.710  26.966  28.772  1.00  0.00    -0.248 NA
ATOM     17  C   UNL A   1      40.084  25.377  28.239  1.00  0.00     0.031 C 
ATOM     18  C   UNL A   1      44.875  23.879  28.072  1.00  0.00     0.029 A 
ATOM     19  N   UNL A   1      44.489  25.972  28.756  1.00  0.00    -0.354 N 
ATOM     20  C   UNL A   1      40.455  27.552  28.854  1.00  0.00     0.074 A 
ATOM     21  C   UNL A   1      39.491  26.537  28.480  1.00  0.00     0.031 C 
ATOM     22  C   UNL A   1      46.061  24.426  28.374  1.00  0.00     0.029 A 
ATOM     23  C   UNL A   1      45.852  25.814  28.766  1.00  0.00     0.049 A 
ATOM     24  H   UNL A   1      44.038  26.802  29.036  1.00  0.00     0.167 HD
ATOM     25  C   UNL A   1      40.141  28.821  29.209  1.00  0.00     0.037 A 
ATOM     26  C   UNL A   1      46.832  26.699  29.020  1.00  0.00     0.037 A 
ATOM     27  C   UNL A   1      41.113  29.812  29.591  1.00  0.00     0.049 A 
ATOM     28  C   UNL A   1      46.463  28.105  29.383  1.00  0.00     0.074 A 
ATOM     29  C   UNL A   1      40.898  31.113  30.010  1.00  0.00     0.029 A 
ATOM     30  N   UNL A   1      42.486  29.612  29.591  1.00  0.00    -0.354 N 
ATOM     31  N   UNL A   1      45.272  28.641  29.483  1.00  0.00    -0.248 NA
ATOM     32  C   UNL A   1      47.569  29.029  29.664  1.00  0.00     0.031 C 
ATOM     33  C   UNL A   1      42.145  31.715  30.218  1.00  0.00     0.029 A 
ATOM     34  C   UNL A   1      43.134  30.775  29.978  1.00  0.00     0.049 A 
ATOM     35  H   UNL A   1      42.934  28.769  29.353  1.00  0.00     0.167 HD
ATOM     36  C   UNL A   1      45.479  29.960  29.858  1.00  0.00     0.074 A 
ATOM     37  C   UNL A   1      46.913  30.140  29.972  1.00  0.00     0.031 C 
ATOM     38  C   UNL A   1      44.563  30.931  30.091  1.00  0.00     0.037 A 
BRANCH  25  39
ATOM     39  C   UNL A   1      38.692  29.212  29.161  1.00  0.00     0.057 A 
ATOM     40  C   UNL A   1      37.865  29.152  30.290  1.00  0.00     0.134 A 
ATOM     41  C   UNL A   1      38.119  29.665  27.966  1.00  0.00     0.134 A 
ATOM     42  F   UNL A   1      38.347  28.713  31.463  1.00  0.00    -0.206 F 
ATOM     43  C   UNL A   1      36.514  29.497  30.225  1.00  0.00     0.040 A 
ATOM     44  C   UNL A   1      36.775  30.039  27.895  1.00  0.00     0.040 A 
ATOM     45  F   UNL A   1      38.854  29.754  26.847  1.00  0.00    -0.206 F 
ATOM     46  C   UNL A   1      35.966  29.946  29.025  1.00  0.00     0.006 A 
ENDBRANCH  25  39
BRANCH  26  47
ATOM     47  C   UNL A   1      48.245  26.261  28.913  1.00  0.00     0.057 A 
ATOM     48  C   UNL A   1      48.921  25.722  30.012  1.00  0.00     0.134 A 
ATOM     49  C   UNL A   1      48.925  26.303  27.690  1.00  0.00     0.134 A 
ATOM     50  F   UNL A   1      48.323  25.665  31.210  1.00  0.00    -0.206 F 
ATOM     51  C   UNL A   1      50.225  25.238  29.898  1.00  0.00     0.040 A 
ATOM     52  C   UNL A   1      50.220  25.801  27.555  1.00  0.00     0.040 A 
ATOM     53  F   UNL A   1      48.323  26.795  26.596  1.00  0.00    -0.206 F 
ATOM     54  C   UNL A   1      50.874  25.269  28.664  1.00  0.00     0.006 A 
ENDBRANCH  26  47
BRANCH  38  55
ATOM     55  C   UNL A   1      45.079  32.268  30.529  1.00  0.00     0.057 A 
ATOM     56  C   UNL A   1      45.322  32.559  31.876  1.00  0.00     0.134 A 
ATOM     57  C   UNL A   1      45.398  33.248  29.582  1.00  0.00     0.134 A 
ATOM     58  F   UNL A   1      45.022  31.666  32.831  1.00  0.00    -0.206 F 
ATOM     59  C   UNL A   1      45.859  33.787  32.267  1.00  0.00     0.040 A 
ATOM     60  C   UNL A   1      45.957  34.469  29.958  1.00  0.00     0.040 A 
ATOM     61  F   UNL A   1      45.194  33.025  28.275  1.00  0.00    -0.206 F 
ATOM     62  C   UNL A   1      46.187  34.742  31.306  1.00  0.00     0.006 A 
ENDBRANCH  38  55
ENDBRANCH  12  13
ENDBRANCH   5   7
ENDBRANCH   2   3
ENDBRANCH   1   2
BRANCH   1  63
ATOM     63  C   UNL A   1      36.012  21.249  25.188  1.00  0.00     0.117 C 
BRANCH  63  64
ATOM     64  N   UNL A   1      35.786  21.967  23.951  1.00  0.00    -0.355 N 
ATOM     65  C   UNL A   1      34.784  22.806  23.562  1.00  0.00     0.228 C 
ATOM     66  H   UNL A   1      36.482  21.826  23.268  1.00  0.00     0.163 HD
ATOM     67  O   UNL A   1      34.812  23.191  22.388  1.00  0.00    -0.274 OA
BRANCH  65  68
ATOM     68  C   UNL A   1      33.652  23.254  24.505  1.00  0.00     0.124 C 
BRANCH  68  69
ATOM     69  C   UNL A   1      33.753  24.761  24.768  1.00  0.00    -0.035 A 
ATOM     70  C   UNL A   1      33.685  25.628  23.657  1.00  0.00     0.004 A 
ATOM     71  C   UNL A   1      33.841  25.357  26.029  1.00  0.00     0.004 A 
ATOM     72  C   UNL A   1      33.747  27.017  23.804  1.00  0.00     0.000 A 
ATOM     73  C   UNL A   1      33.918  26.747  26.181  1.00  0.00     0.000 A 
ATOM     74  C   UNL A   1      33.875  27.577  25.067  1.00  0.00     0.000 A 
ENDBRANCH  68  69
BRANCH  68  75
ATOM     75  C   UNL A   1      32.308  22.529  24.151  1.00  0.00     0.108 C 
BRANCH  75  76
ATOM     76  C   UNL A   1      32.435  20.995  24.116  1.00  0.00    -0.036 A 
ATOM     77  C   UNL A   1      32.768  20.240  25.251  1.00  0.00     0.004 A 
ATOM     78  C   UNL A   1      32.242  20.313  22.900  1.00  0.00     0.004 A 
ATOM     79  C   UNL A   1      32.969  18.860  25.158  1.00  0.00     0.000 A 
ATOM     80  C   UNL A   1      32.426  18.931  22.815  1.00  0.00     0.000 A 
ATOM     81  C   UNL A   1      32.804  18.206  23.941  1.00  0.00     0.000 A 
ENDBRANCH  75  76
BRANCH  75  82
ATOM     82  C   UNL A   1      31.115  22.985  25.001  1.00  0.00     0.171 C 
ATOM     83  O   UNL A   1      30.651  22.315  25.920  1.00  0.00    -0.293 OA
BRANCH  82  84
ATOM     84  C   UNL A   1      30.565  24.359  24.761  1.00  0.00     0.018 A 
ATOM     85  C   UNL A   1      30.462  25.221  25.860  1.00  0.00     0.012 A 
ATOM     86  C   UNL A   1      30.312  24.856  23.474  1.00  0.00     0.012 A 
ATOM     87  C   UNL A   1      30.220  26.583  25.664  1.00  0.00     0.001 A 
ATOM     88  C   UNL A   1      30.081  26.222  23.281  1.00  0.00     0.001 A 
ATOM     89  C   UNL A   1      30.056  27.086  24.373  1.00  0.00     0.000 A 
ENDBRANCH  82  84
ENDBRANCH  75  82
ENDBRANCH  68  75
ENDBRANCH  65  68
ENDBRANCH  63  64
ENDBRANCH   1  63
TORSDOF 15
ENDMDL
MODEL 3
REMARK VINA RESULT:     -12.0      3.826      8.230
REMARK SMILES O=C(NCCCNC(=O)[C@@H](c1ccccc1)[C@H](C(=O)c1ccccc1)c1ccccc1)c1ccc(-c2c3nc(c(-c4c(F)cccc4F)c4ccc([nH]4)c(-c4c(F)cccc4F)c4nc(c(-c5c(F)cccc5F)c5ccc2[nH]5)C=C4)C=C3)cc1
REMARK SMILES IDX 5 1 4 2 3 3 1 4 2 5 32 7 33 8 85 9 34 10 84 11 35 12 36 13
REMARK SMILES IDX 37 14 78 15 38 16 83 17 77 18 79 19 39 20 82 21 76 22 75 23
REMARK SMILES IDX 40 25 66 26 49 27 65 28 50 29 53 30 64 31 80 32 51 33 52 34
REMARK SMILES IDX 63 36 81 37 54 38 41 39 42 40 47 41 43 42 44 43 46 44 48 45
REMARK SMILES IDX 45 46 67 47 68 48 73 49 69 50 70 51 72 52 74 53 71 54 55 55
REMARK SMILES IDX 56 56 61 57 57 58 58 59 60 60 62 61 59 62 6 63 7 64 8 65
REMARK SMILES IDX 9 67 10 68 11 69 12 70 16 71 13 72 15 73 14 74 17 75 26 76
REMARK SMILES IDX 27 77 31 78 28 79 30 80 29 81 18 82 19 83 20 84 21 85 25 86
REMARK SMILES IDX 22 87 24 88 23 89
REMARK H PARENT 3 6 79 24 53 35 7 66
REMARK Flexibility Score: inf
ROOT
ATOM      1  C   UNL A   1      37.896  20.592  24.631  1.00  0.00     0.042 C 
ENDROOT
BRANCH   1   2
ATOM      2  C   UNL A   1      38.481  20.262  25.991  1.00  0.00     0.118 C 
BRANCH   2   3
ATOM      3  N   UNL A   1      39.672  19.427  25.874  1.00  0.00    -0.352 N 
ATOM      4  O   UNL A   1      41.843  18.973  25.517  1.00  0.00    -0.269 OA
ATOM      5  C   UNL A   1      40.997  19.760  25.953  1.00  0.00     0.251 C 
ATOM      6  H   UNL A   1      39.493  18.473  25.713  1.00  0.00     0.163 HD
BRANCH   5   7
ATOM      7  C   UNL A   1      41.425  21.043  26.544  1.00  0.00     0.039 A 
ATOM      8  C   UNL A   1      41.811  22.112  25.731  1.00  0.00     0.014 A 
ATOM      9  C   UNL A   1      41.373  21.208  27.931  1.00  0.00     0.014 A 
ATOM     10  C   UNL A   1      42.282  23.287  26.300  1.00  0.00     0.010 A 
ATOM     11  C   UNL A   1      41.745  22.428  28.499  1.00  0.00     0.010 A 
ATOM     12  C   UNL A   1      42.222  23.469  27.687  1.00  0.00    -0.014 A 
BRANCH  12  13
ATOM     13  C   UNL A   1      42.577  24.783  28.269  1.00  0.00     0.031 A 
ATOM     14  C   UNL A   1      41.531  25.835  28.481  1.00  0.00     0.074 A 
ATOM     15  C   UNL A   1      43.864  25.025  28.579  1.00  0.00     0.049 A 
ATOM     16  N   UNL A   1      41.676  27.071  28.882  1.00  0.00    -0.248 NA
ATOM     17  C   UNL A   1      40.140  25.453  28.194  1.00  0.00     0.031 C 
ATOM     18  C   UNL A   1      44.965  24.072  28.412  1.00  0.00     0.029 A 
ATOM     19  N   UNL A   1      44.470  26.145  29.087  1.00  0.00    -0.354 N 
ATOM     20  C   UNL A   1      40.404  27.626  28.865  1.00  0.00     0.074 A 
ATOM     21  C   UNL A   1      39.500  26.595  28.398  1.00  0.00     0.031 C 
ATOM     22  C   UNL A   1      46.106  24.642  28.820  1.00  0.00     0.029 A 
ATOM     23  C   UNL A   1      45.831  26.019  29.211  1.00  0.00     0.049 A 
ATOM     24  H   UNL A   1      43.977  26.959  29.339  1.00  0.00     0.167 HD
ATOM     25  C   UNL A   1      40.030  28.882  29.208  1.00  0.00     0.037 A 
ATOM     26  C   UNL A   1      46.763  26.923  29.558  1.00  0.00     0.037 A 
ATOM     27  C   UNL A   1      40.941  29.890  29.683  1.00  0.00     0.049 A 
ATOM     28  C   UNL A   1      46.331  28.314  29.906  1.00  0.00     0.074 A 
ATOM     29  C   UNL A   1      40.660  31.180  30.099  1.00  0.00     0.029 A 
ATOM     30  N   UNL A   1      42.314  29.723  29.797  1.00  0.00    -0.354 N 
ATOM     31  N   UNL A   1      45.122  28.820  29.912  1.00  0.00    -0.248 NA
ATOM     32  C   UNL A   1      47.385  29.260  30.291  1.00  0.00     0.031 C 
ATOM     33  C   UNL A   1      41.869  31.808  30.419  1.00  0.00     0.029 A 
ATOM     34  C   UNL A   1      42.898  30.895  30.252  1.00  0.00     0.049 A 
ATOM     35  H   UNL A   1      42.802  28.894  29.586  1.00  0.00     0.167 HD
ATOM     36  C   UNL A   1      45.264  30.138  30.319  1.00  0.00     0.074 A 
ATOM     37  C   UNL A   1      46.679  30.351  30.557  1.00  0.00     0.031 C 
ATOM     38  C   UNL A   1      44.308  31.084  30.487  1.00  0.00     0.037 A 
BRANCH  25  39
ATOM     39  C   UNL A   1      38.581  29.239  29.043  1.00  0.00     0.057 A 
ATOM     40  C   UNL A   1      37.678  29.208  30.114  1.00  0.00     0.134 A 
ATOM     41  C   UNL A   1      38.085  29.630  27.793  1.00  0.00     0.134 A 
ATOM     42  F   UNL A   1      38.084  28.829  31.335  1.00  0.00    -0.206 F 
ATOM     43  C   UNL A   1      36.328  29.520  29.940  1.00  0.00     0.040 A 
ATOM     44  C   UNL A   1      36.743  29.971  27.613  1.00  0.00     0.040 A 
ATOM     45  F   UNL A   1      38.895  29.689  26.725  1.00  0.00    -0.206 F 
ATOM     46  C   UNL A   1      35.857  29.907  28.687  1.00  0.00     0.006 A 
ENDBRANCH  25  39
BRANCH  26  47
ATOM     47  C   UNL A   1      48.191  26.520  29.565  1.00  0.00     0.057 A 
ATOM     48  C   UNL A   1      48.767  25.915  30.686  1.00  0.00     0.134 A 
ATOM     49  C   UNL A   1      48.990  26.664  28.423  1.00  0.00     0.134 A 
ATOM     50  F   UNL A   1      48.054  25.760  31.810  1.00  0.00    -0.206 F 
ATOM     51  C   UNL A   1      50.088  25.465  30.672  1.00  0.00     0.040 A 
ATOM     52  C   UNL A   1      50.304  26.198  28.387  1.00  0.00     0.040 A 
ATOM     53  F   UNL A   1      48.488  27.223  27.311  1.00  0.00    -0.206 F 
ATOM     54  C   UNL A   1      50.857  25.598  29.516  1.00  0.00     0.006 A 
ENDBRANCH  26  47
BRANCH  38  55
ATOM     55  C   UNL A   1      44.752  32.426  30.984  1.00  0.00     0.057 A 
ATOM     56  C   UNL A   1      44.875  32.702  32.350  1.00  0.00     0.134 A 
ATOM     57  C   UNL A   1      45.123  33.428  30.080  1.00  0.00     0.134 A 
ATOM     58  F   UNL A   1      44.520  31.788  33.264  1.00  0.00    -0.206 F 
ATOM     59  C   UNL A   1      45.347  33.936  32.800  1.00  0.00     0.040 A 
ATOM     60  C   UNL A   1      45.617  34.656  30.517  1.00  0.00     0.040 A 
ATOM     61  F   UNL A   1      45.034  33.220  28.757  1.00  0.00    -0.206 F 
ATOM     62  C   UNL A   1      45.729  34.914  31.882  1.00  0.00     0.006 A 
ENDBRANCH  38  55
ENDBRANCH  12  13
ENDBRANCH   5   7
ENDBRANCH   2   3
ENDBRANCH   1   2
BRANCH   1  63
ATOM     63  C   UNL A   1      36.879  21.718  24.695  1.00  0.00     0.117 C 
BRANCH  63  64
ATOM     64  N   UNL A   1      36.212  21.799  25.978  1.00  0.00    -0.355 N 
ATOM     65  C   UNL A   1      35.103  22.482  26.379  1.00  0.00     0.228 C 
ATOM     66  H   UNL A   1      36.635  21.262  26.688  1.00  0.00     0.163 HD
ATOM     67  O   UNL A   1      34.831  22.434  27.583  1.00  0.00    -0.274 OA
BRANCH  65  68
ATOM     68  C   UNL A   1      34.224  23.296  25.411  1.00  0.00     0.124 C 
BRANCH  68  69
ATOM     69  C   UNL A   1      33.504  22.354  24.439  1.00  0.00    -0.035 A 
ATOM     70  C   UNL A   1      33.066  21.108  24.933  1.00  0.00     0.004 A 
ATOM     71  C   UNL A   1      33.183  22.654  23.111  1.00  0.00     0.004 A 
ATOM     72  C   UNL A   1      32.382  20.195  24.124  1.00  0.00     0.000 A 
ATOM     73  C   UNL A   1      32.511  21.738  22.293  1.00  0.00     0.000 A 
ATOM     74  C   UNL A   1      32.114  20.506  22.798  1.00  0.00     0.000 A 
ENDBRANCH  68  69
BRANCH  68  75
ATOM     75  C   UNL A   1      33.509  24.473  26.159  1.00  0.00     0.108 C 
BRANCH  75  76
ATOM     76  C   UNL A   1      33.726  25.841  25.487  1.00  0.00    -0.036 A 
ATOM     77  C   UNL A   1      33.829  27.033  26.219  1.00  0.00     0.004 A 
ATOM     78  C   UNL A   1      33.796  25.917  24.083  1.00  0.00     0.004 A 
ATOM     79  C   UNL A   1      33.929  28.266  25.568  1.00  0.00     0.000 A 
ATOM     80  C   UNL A   1      33.914  27.150  23.436  1.00  0.00     0.000 A 
ATOM     81  C   UNL A   1      33.965  28.326  24.179  1.00  0.00     0.000 A 
ENDBRANCH  75  76
BRANCH  75  82
ATOM     82  C   UNL A   1      32.027  24.210  26.456  1.00  0.00     0.171 C 
ATOM     83  O   UNL A   1      31.639  23.608  27.454  1.00  0.00    -0.293 OA
BRANCH  82  84
ATOM     84  C   UNL A   1      31.007  24.812  25.535  1.00  0.00     0.018 A 
ATOM     85  C   UNL A   1      30.520  26.088  25.848  1.00  0.00     0.012 A 
ATOM     86  C   UNL A   1      30.657  24.225  24.310  1.00  0.00     0.012 A 
ATOM     87  C   UNL A   1      29.787  26.809  24.903  1.00  0.00     0.001 A 
ATOM     88  C   UNL A   1      29.932  24.956  23.363  1.00  0.00     0.001 A 
ATOM     89  C   UNL A   1      29.516  26.254  23.652  1.00  0.00     0.000 A 
ENDBRANCH  82  84
ENDBRANCH  75  82
ENDBRANCH  68  75
ENDBRANCH  65  68
ENDBRANCH  63  64
ENDBRANCH   1  63
TORSDOF 15
ENDMDL
