MODEL 1
REMARK VINA RESULT:     -11.5      0.000      0.000
REMARK SMILES O=C(CCCN1C(=O)/C(=C/c2cc(Br)ccc2O)SC1=S)NCCCNC(=O)c1ccc(-c2c3nc(c(-c4c(F)cccc4F)c4ccc([nH]4)c(-c4c(F)cccc4F)c4nc(c(-c5c(F)cccc5F)c5ccc2[nH]5)C=C4)C=C3)cc1
REMARK SMILES IDX 1 1 2 2 22 3 3 5 4 6 5 7 6 8 7 9 20 10 8 11 9 12 19 13 21 14
REMARK SMILES IDX 10 15 11 16 12 17 17 18 13 19 16 20 14 21 15 22 18 23 23 25
REMARK SMILES IDX 24 26 25 27 26 28 27 29 28 31 29 32 30 33 82 34 31 35 81 36
REMARK SMILES IDX 32 37 33 38 34 39 75 40 35 41 80 42 74 43 76 44 36 45 79 46
REMARK SMILES IDX 73 47 72 48 37 50 63 51 46 52 62 53 47 54 50 55 61 56 77 57
REMARK SMILES IDX 48 58 49 59 60 61 78 62 51 63 38 64 39 65 44 66 40 67 41 68
REMARK SMILES IDX 43 69 45 70 42 71 64 72 65 73 70 74 66 75 67 76 69 77 71 78
REMARK SMILES IDX 68 79 52 80 53 81 58 82 54 83 55 84 57 85 59 86 56 87
REMARK H PARENT 22 4 18 24 26 30 76 49 50 60
REMARK Flexibility Score: inf
ROOT
ATOM      1  O   UNL A   1      32.251  28.855  25.120  1.00  0.00    -0.275 OA
ATOM      2  C   UNL A   1      31.378  29.621  24.725  1.00  0.00     0.220 C 
ATOM      3  N   UNL A   1      31.049  30.795  25.357  1.00  0.00    -0.356 N 
ATOM      4  H   UNL A   1      30.366  31.380  24.955  1.00  0.00     0.163 HD
ENDROOT
BRANCH   2   5
ATOM      5  C   UNL A   1      30.586  29.339  23.471  1.00  0.00     0.102 C 
BRANCH   5   6
ATOM      6  C   UNL A   1      31.408  28.639  22.389  1.00  0.00     0.032 C 
BRANCH   6   7
ATOM      7  C   UNL A   1      31.028  27.184  22.071  1.00  0.00     0.128 C 
BRANCH   7   8
ATOM      8  N   UNL A   1      31.724  26.147  22.844  1.00  0.00    -0.293 N 
ATOM      9  C   UNL A   1      32.835  25.532  22.283  1.00  0.00     0.266 C 
ATOM     10  C   UNL A   1      31.308  25.638  24.058  1.00  0.00     0.148 C 
ATOM     11  O   UNL A   1      33.358  25.838  21.222  1.00  0.00    -0.268 OA
ATOM     12  C   UNL A   1      33.342  24.455  23.172  1.00  0.00     0.081 C 
ATOM     13  S   UNL A   1      32.518  24.529  24.679  1.00  0.00    -0.054 SA
ATOM     14  S   UNL A   1      29.906  25.951  24.903  1.00  0.00    -0.052 S 
ATOM     15  C   UNL A   1      34.277  23.568  22.796  1.00  0.00     0.033 C 
BRANCH  15  16
ATOM     16  C   UNL A   1      34.762  22.482  23.662  1.00  0.00     0.019 A 
ATOM     17  C   UNL A   1      33.855  21.507  24.095  1.00  0.00     0.027 A 
ATOM     18  C   UNL A   1      36.117  22.351  24.008  1.00  0.00     0.122 A 
ATOM     19  C   UNL A   1      34.314  20.399  24.808  1.00  0.00     0.018 A 
ATOM     20  C   UNL A   1      36.576  21.236  24.709  1.00  0.00     0.048 A 
ATOM     21  Br  UNL A   1      33.090  19.070  25.362  1.00  0.00    -0.051 Br
ATOM     22  C   UNL A   1      35.670  20.251  25.102  1.00  0.00     0.019 A 
BRANCH  18  23
ATOM     23  O   UNL A   1      37.000  23.328  23.633  1.00  0.00    -0.507 OA
ATOM     24  H   UNL A   1      37.145  23.505  22.724  1.00  0.00     0.293 HD
ENDBRANCH  18  23
ENDBRANCH  15  16
ENDBRANCH   7   8
ENDBRANCH   6   7
ENDBRANCH   5   6
ENDBRANCH   2   5
BRANCH   3  25
ATOM     25  C   UNL A   1      31.678  31.199  26.598  1.00  0.00     0.117 C 
BRANCH  25  26
ATOM     26  C   UNL A   1      31.518  32.688  26.876  1.00  0.00     0.042 C 
BRANCH  26  27
ATOM     27  C   UNL A   1      32.822  33.440  27.112  1.00  0.00     0.118 C 
BRANCH  27  28
ATOM     28  N   UNL A   1      32.677  34.583  28.001  1.00  0.00    -0.352 N 
ATOM     29  C   UNL A   1      33.345  34.884  29.162  1.00  0.00     0.251 C 
ATOM     30  H   UNL A   1      31.998  35.241  27.729  1.00  0.00     0.163 HD
ATOM     31  O   UNL A   1      32.982  35.831  29.854  1.00  0.00    -0.269 OA
BRANCH  29  32
ATOM     32  C   UNL A   1      34.489  34.055  29.597  1.00  0.00     0.039 A 
ATOM     33  C   UNL A   1      35.771  34.396  29.156  1.00  0.00     0.014 A 
ATOM     34  C   UNL A   1      34.306  32.938  30.417  1.00  0.00     0.014 A 
ATOM     35  C   UNL A   1      36.871  33.652  29.587  1.00  0.00     0.010 A 
ATOM     36  C   UNL A   1      35.410  32.248  30.910  1.00  0.00     0.010 A 
ATOM     37  C   UNL A   1      36.706  32.595  30.497  1.00  0.00    -0.014 A 
BRANCH  37  38
ATOM     38  C   UNL A   1      37.881  31.849  31.019  1.00  0.00     0.031 A 
ATOM     39  C   UNL A   1      38.445  32.166  32.378  1.00  0.00     0.074 A 
ATOM     40  C   UNL A   1      38.468  30.911  30.250  1.00  0.00     0.049 A 
ATOM     41  N   UNL A   1      39.475  31.635  32.989  1.00  0.00    -0.248 NA
ATOM     42  C   UNL A   1      37.781  33.234  33.140  1.00  0.00     0.031 C 
ATOM     43  C   UNL A   1      38.050  30.543  28.897  1.00  0.00     0.029 A 
ATOM     44  N   UNL A   1      39.545  30.096  30.498  1.00  0.00    -0.354 N 
ATOM     45  C   UNL A   1      39.585  32.309  34.199  1.00  0.00     0.074 A 
ATOM     46  C   UNL A   1      38.557  33.326  34.209  1.00  0.00     0.031 C 
ATOM     47  C   UNL A   1      38.840  29.555  28.446  1.00  0.00     0.029 A 
ATOM     48  C   UNL A   1      39.844  29.247  29.459  1.00  0.00     0.049 A 
ATOM     49  H   UNL A   1      40.055  30.118  31.340  1.00  0.00     0.167 HD
ATOM     50  C   UNL A   1      40.445  32.082  35.221  1.00  0.00     0.037 A 
ATOM     51  C   UNL A   1      40.818  28.326  29.335  1.00  0.00     0.037 A 
ATOM     52  C   UNL A   1      41.461  31.061  35.214  1.00  0.00     0.049 A 
ATOM     53  C   UNL A   1      41.772  28.106  30.478  1.00  0.00     0.074 A 
ATOM     54  C   UNL A   1      42.350  30.723  36.221  1.00  0.00     0.029 A 
ATOM     55  N   UNL A   1      41.729  30.218  34.147  1.00  0.00    -0.354 N 
ATOM     56  N   UNL A   1      41.817  28.702  31.645  1.00  0.00    -0.248 NA
ATOM     57  C   UNL A   1      42.801  27.076  30.289  1.00  0.00     0.031 C 
ATOM     58  C   UNL A   1      43.191  29.713  35.741  1.00  0.00     0.029 A 
ATOM     59  C   UNL A   1      42.785  29.377  34.461  1.00  0.00     0.049 A 
ATOM     60  H   UNL A   1      41.242  30.217  33.291  1.00  0.00     0.167 HD
ATOM     61  C   UNL A   1      42.857  28.095  32.341  1.00  0.00     0.074 A 
ATOM     62  C   UNL A   1      43.401  27.074  31.470  1.00  0.00     0.031 C 
ATOM     63  C   UNL A   1      43.317  28.360  33.589  1.00  0.00     0.037 A 
BRANCH  50  64
ATOM     64  C   UNL A   1      40.325  32.960  36.435  1.00  0.00     0.057 A 
ATOM     65  C   UNL A   1      41.148  34.080  36.623  1.00  0.00     0.134 A 
ATOM     66  C   UNL A   1      39.353  32.706  37.411  1.00  0.00     0.134 A 
ATOM     67  F   UNL A   1      42.108  34.376  35.733  1.00  0.00    -0.206 F 
ATOM     68  C   UNL A   1      41.029  34.895  37.750  1.00  0.00     0.040 A 
ATOM     69  C   UNL A   1      39.203  33.533  38.527  1.00  0.00     0.040 A 
ATOM     70  F   UNL A   1      38.525  31.658  37.291  1.00  0.00    -0.206 F 
ATOM     71  C   UNL A   1      40.048  34.626  38.702  1.00  0.00     0.006 A 
ENDBRANCH  50  64
BRANCH  51  72
ATOM     72  C   UNL A   1      40.931  27.522  28.091  1.00  0.00     0.057 A 
ATOM     73  C   UNL A   1      40.291  26.283  27.969  1.00  0.00     0.134 A 
ATOM     74  C   UNL A   1      41.695  27.961  27.004  1.00  0.00     0.134 A 
ATOM     75  F   UNL A   1      39.559  25.798  28.982  1.00  0.00    -0.206 F 
ATOM     76  C   UNL A   1      40.427  25.498  26.823  1.00  0.00     0.040 A 
ATOM     77  C   UNL A   1      41.816  27.200  25.839  1.00  0.00     0.040 A 
ATOM     78  F   UNL A   1      42.327  29.143  27.053  1.00  0.00    -0.206 F 
ATOM     79  C   UNL A   1      41.189  25.960  25.751  1.00  0.00     0.006 A 
ENDBRANCH  51  72
BRANCH  63  80
ATOM     80  C   UNL A   1      44.435  27.498  34.104  1.00  0.00     0.057 A 
ATOM     81  C   UNL A   1      45.781  27.871  33.984  1.00  0.00     0.134 A 
ATOM     82  C   UNL A   1      44.159  26.283  34.744  1.00  0.00     0.134 A 
ATOM     83  F   UNL A   1      46.118  29.016  33.372  1.00  0.00    -0.206 F 
ATOM     84  C   UNL A   1      46.811  27.048  34.447  1.00  0.00     0.040 A 
ATOM     85  C   UNL A   1      45.177  25.468  35.241  1.00  0.00     0.040 A 
ATOM     86  F   UNL A   1      42.892  25.870  34.904  1.00  0.00    -0.206 F 
ATOM     87  C   UNL A   1      46.508  25.846  35.084  1.00  0.00     0.006 A 
ENDBRANCH  63  80
ENDBRANCH  37  38
ENDBRANCH  29  32
ENDBRANCH  27  28
ENDBRANCH  26  27
ENDBRANCH  25  26
ENDBRANCH   3  25
TORSDOF 15
ENDMDL
MODEL 2
REMARK VINA RESULT:     -11.5      4.719      8.152
REMARK SMILES O=C(CCCN1C(=O)/C(=C/c2cc(Br)ccc2O)SC1=S)NCCCNC(=O)c1ccc(-c2c3nc(c(-c4c(F)cccc4F)c4ccc([nH]4)c(-c4c(F)cccc4F)c4nc(c(-c5c(F)cccc5F)c5ccc2[nH]5)C=C4)C=C3)cc1
REMARK SMILES IDX 1 1 2 2 22 3 3 5 4 6 5 7 6 8 7 9 20 10 8 11 9 12 19 13 21 14
REMARK SMILES IDX 10 15 11 16 12 17 17 18 13 19 16 20 14 21 15 22 18 23 23 25
REMARK SMILES IDX 24 26 25 27 26 28 27 29 28 31 29 32 30 33 82 34 31 35 81 36
REMARK SMILES IDX 32 37 33 38 34 39 75 40 35 41 80 42 74 43 76 44 36 45 79 46
REMARK SMILES IDX 73 47 72 48 37 50 63 51 46 52 62 53 47 54 50 55 61 56 77 57
REMARK SMILES IDX 48 58 49 59 60 61 78 62 51 63 38 64 39 65 44 66 40 67 41 68
REMARK SMILES IDX 43 69 45 70 42 71 64 72 65 73 70 74 66 75 67 76 69 77 71 78
REMARK SMILES IDX 68 79 52 80 53 81 58 82 54 83 55 84 57 85 59 86 56 87
REMARK H PARENT 22 4 18 24 26 30 76 49 50 60
REMARK Flexibility Score: inf
ROOT
ATOM      1  O   UNL A   1      30.555  31.162  25.130  1.00  0.00    -0.275 OA
ATOM      2  C   UNL A   1      30.952  30.094  24.677  1.00  0.00     0.220 C 
ATOM      3  N   UNL A   1      31.968  29.358  25.237  1.00  0.00    -0.356 N 
ATOM      4  H   UNL A   1      32.203  28.487  24.840  1.00  0.00     0.163 HD
ENDROOT
BRANCH   2   5
ATOM      5  C   UNL A   1      30.331  29.475  23.448  1.00  0.00     0.102 C 
BRANCH   5   6
ATOM      6  C   UNL A   1      31.337  28.706  22.592  1.00  0.00     0.032 C 
BRANCH   6   7
ATOM      7  C   UNL A   1      31.053  27.211  22.374  1.00  0.00     0.128 C 
BRANCH   7   8
ATOM      8  N   UNL A   1      31.885  26.274  23.140  1.00  0.00    -0.293 N 
ATOM      9  C   UNL A   1      32.992  25.709  22.521  1.00  0.00     0.266 C 
ATOM     10  C   UNL A   1      31.606  25.809  24.409  1.00  0.00     0.148 C 
ATOM     11  O   UNL A   1      33.405  25.988  21.406  1.00  0.00    -0.268 OA
ATOM     12  C   UNL A   1      33.648  24.725  23.420  1.00  0.00     0.081 C 
ATOM     13  S   UNL A   1      32.943  24.827  24.984  1.00  0.00    -0.054 SA
ATOM     14  S   UNL A   1      30.256  26.069  25.350  1.00  0.00    -0.052 S 
ATOM     15  C   UNL A   1      34.615  23.887  23.015  1.00  0.00     0.033 C 
BRANCH  15  16
ATOM     16  C   UNL A   1      35.249  22.890  23.894  1.00  0.00     0.019 A 
ATOM     17  C   UNL A   1      36.508  23.172  24.436  1.00  0.00     0.027 A 
ATOM     18  C   UNL A   1      34.600  21.701  24.264  1.00  0.00     0.122 A 
ATOM     19  C   UNL A   1      37.072  22.304  25.371  1.00  0.00     0.018 A 
ATOM     20  C   UNL A   1      35.158  20.842  25.210  1.00  0.00     0.048 A 
ATOM     21  Br  UNL A   1      38.759  22.706  26.124  1.00  0.00    -0.051 Br
ATOM     22  C   UNL A   1      36.396  21.151  25.773  1.00  0.00     0.019 A 
BRANCH  18  23
ATOM     23  O   UNL A   1      33.392  21.394  23.697  1.00  0.00    -0.507 OA
ATOM     24  H   UNL A   1      33.248  21.555  22.784  1.00  0.00     0.293 HD
ENDBRANCH  18  23
ENDBRANCH  15  16
ENDBRANCH   7   8
ENDBRANCH   6   7
ENDBRANCH   5   6
ENDBRANCH   2   5
BRANCH   3  25
ATOM     25  C   UNL A   1      32.705  29.825  26.394  1.00  0.00     0.117 C 
BRANCH  25  26
ATOM     26  C   UNL A   1      33.478  28.708  27.083  1.00  0.00     0.042 C 
BRANCH  26  27
ATOM     27  C   UNL A   1      34.898  29.073  27.496  1.00  0.00     0.118 C 
BRANCH  27  28
ATOM     28  N   UNL A   1      34.955  30.091  28.536  1.00  0.00    -0.352 N 
ATOM     29  C   UNL A   1      36.005  30.481  29.328  1.00  0.00     0.251 C 
ATOM     30  H   UNL A   1      34.112  30.573  28.694  1.00  0.00     0.163 HD
ATOM     31  O   UNL A   1      35.820  31.265  30.254  1.00  0.00    -0.269 OA
BRANCH  29  32
ATOM     32  C   UNL A   1      37.359  29.939  29.086  1.00  0.00     0.039 A 
ATOM     33  C   UNL A   1      37.871  29.970  27.786  1.00  0.00     0.014 A 
ATOM     34  C   UNL A   1      38.116  29.387  30.123  1.00  0.00     0.014 A 
ATOM     35  C   UNL A   1      39.164  29.502  27.540  1.00  0.00     0.010 A 
ATOM     36  C   UNL A   1      39.433  28.997  29.892  1.00  0.00     0.010 A 
ATOM     37  C   UNL A   1      39.970  29.045  28.596  1.00  0.00    -0.014 A 
BRANCH  37  38
ATOM     38  C   UNL A   1      41.373  28.619  28.353  1.00  0.00     0.031 A 
ATOM     39  C   UNL A   1      41.690  27.186  28.019  1.00  0.00     0.074 A 
ATOM     40  C   UNL A   1      42.371  29.516  28.472  1.00  0.00     0.049 A 
ATOM     41  N   UNL A   1      42.853  26.627  27.796  1.00  0.00    -0.248 NA
ATOM     42  C   UNL A   1      40.554  26.252  27.952  1.00  0.00     0.031 C 
ATOM     43  C   UNL A   1      42.204  30.924  28.838  1.00  0.00     0.029 A 
ATOM     44  N   UNL A   1      43.726  29.377  28.300  1.00  0.00    -0.354 N 
ATOM     45  C   UNL A   1      42.589  25.282  27.569  1.00  0.00     0.074 A 
ATOM     46  C   UNL A   1      41.166  25.097  27.744  1.00  0.00     0.031 C 
ATOM     47  C   UNL A   1      43.405  31.525  28.832  1.00  0.00     0.029 A 
ATOM     48  C   UNL A   1      44.430  30.540  28.502  1.00  0.00     0.049 A 
ATOM     49  H   UNL A   1      44.153  28.525  28.055  1.00  0.00     0.167 HD
ATOM     50  C   UNL A   1      43.450  24.295  27.220  1.00  0.00     0.037 A 
ATOM     51  C   UNL A   1      45.751  30.786  28.432  1.00  0.00     0.037 A 
ATOM     52  C   UNL A   1      44.866  24.483  27.035  1.00  0.00     0.049 A 
ATOM     53  C   UNL A   1      46.689  29.669  28.060  1.00  0.00     0.074 A 
ATOM     54  C   UNL A   1      45.814  23.556  26.636  1.00  0.00     0.029 A 
ATOM     55  N   UNL A   1      45.540  25.677  27.244  1.00  0.00    -0.354 N 
ATOM     56  N   UNL A   1      46.415  28.418  27.779  1.00  0.00    -0.248 NA
ATOM     57  C   UNL A   1      48.116  30.004  27.984  1.00  0.00     0.031 C 
ATOM     58  C   UNL A   1      47.069  24.175  26.656  1.00  0.00     0.029 A 
ATOM     59  C   UNL A   1      46.895  25.504  27.005  1.00  0.00     0.049 A 
ATOM     60  H   UNL A   1      45.120  26.522  27.521  1.00  0.00     0.167 HD
ATOM     61  C   UNL A   1      47.632  27.826  27.459  1.00  0.00     0.074 A 
ATOM     62  C   UNL A   1      48.639  28.861  27.565  1.00  0.00     0.031 C 
ATOM     63  C   UNL A   1      47.890  26.542  27.108  1.00  0.00     0.037 A 
BRANCH  50  64
ATOM     64  C   UNL A   1      42.881  22.920  27.017  1.00  0.00     0.057 A 
ATOM     65  C   UNL A   1      42.529  22.097  28.097  1.00  0.00     0.134 A 
ATOM     66  C   UNL A   1      42.649  22.422  25.729  1.00  0.00     0.134 A 
ATOM     67  F   UNL A   1      42.734  22.506  29.359  1.00  0.00    -0.206 F 
ATOM     68  C   UNL A   1      41.996  20.821  27.903  1.00  0.00     0.040 A 
ATOM     69  C   UNL A   1      42.087  21.160  25.522  1.00  0.00     0.040 A 
ATOM     70  F   UNL A   1      42.953  23.157  24.649  1.00  0.00    -0.206 F 
ATOM     71  C   UNL A   1      41.767  20.353  26.611  1.00  0.00     0.006 A 
ENDBRANCH  50  64
BRANCH  51  72
ATOM     72  C   UNL A   1      46.272  32.151  28.699  1.00  0.00     0.057 A 
ATOM     73  C   UNL A   1      46.714  32.521  29.975  1.00  0.00     0.134 A 
ATOM     74  C   UNL A   1      46.323  33.125  27.694  1.00  0.00     0.134 A 
ATOM     75  F   UNL A   1      46.674  31.640  30.985  1.00  0.00    -0.206 F 
ATOM     76  C   UNL A   1      47.162  33.814  30.249  1.00  0.00     0.040 A 
ATOM     77  C   UNL A   1      46.797  34.413  27.947  1.00  0.00     0.040 A 
ATOM     78  F   UNL A   1      45.923  32.833  26.448  1.00  0.00    -0.206 F 
ATOM     79  C   UNL A   1      47.209  34.764  29.230  1.00  0.00     0.006 A 
ENDBRANCH  51  72
BRANCH  63  80
ATOM     80  C   UNL A   1      49.312  26.197  26.766  1.00  0.00     0.057 A 
ATOM     81  C   UNL A   1      50.206  25.685  27.717  1.00  0.00     0.134 A 
ATOM     82  C   UNL A   1      49.790  26.368  25.461  1.00  0.00     0.134 A 
ATOM     83  F   UNL A   1      49.818  25.508  28.989  1.00  0.00    -0.206 F 
ATOM     84  C   UNL A   1      51.531  25.390  27.389  1.00  0.00     0.040 A 
ATOM     85  C   UNL A   1      51.103  26.046  25.113  1.00  0.00     0.040 A 
ATOM     86  F   UNL A   1      48.986  26.843  24.497  1.00  0.00    -0.206 F 
ATOM     87  C   UNL A   1      51.981  25.566  26.082  1.00  0.00     0.006 A 
ENDBRANCH  63  80
ENDBRANCH  37  38
ENDBRANCH  29  32
ENDBRANCH  27  28
ENDBRANCH  26  27
ENDBRANCH  25  26
ENDBRANCH   3  25
TORSDOF 15
ENDMDL
MODEL 3
REMARK VINA RESULT:     -11.3      2.882      8.234
REMARK SMILES O=C(CCCN1C(=O)/C(=C/c2cc(Br)ccc2O)SC1=S)NCCCNC(=O)c1ccc(-c2c3nc(c(-c4c(F)cccc4F)c4ccc([nH]4)c(-c4c(F)cccc4F)c4nc(c(-c5c(F)cccc5F)c5ccc2[nH]5)C=C4)C=C3)cc1
REMARK SMILES IDX 1 1 2 2 22 3 3 5 4 6 5 7 6 8 7 9 20 10 8 11 9 12 19 13 21 14
REMARK SMILES IDX 10 15 11 16 12 17 17 18 13 19 16 20 14 21 15 22 18 23 23 25
REMARK SMILES IDX 24 26 25 27 26 28 27 29 28 31 29 32 30 33 82 34 31 35 81 36
REMARK SMILES IDX 32 37 33 38 34 39 75 40 35 41 80 42 74 43 76 44 36 45 79 46
REMARK SMILES IDX 73 47 72 48 37 50 63 51 46 52 62 53 47 54 50 55 61 56 77 57
REMARK SMILES IDX 48 58 49 59 60 61 78 62 51 63 38 64 39 65 44 66 40 67 41 68
REMARK SMILES IDX 43 69 45 70 42 71 64 72 65 73 70 74 66 75 67 76 69 77 71 78
REMARK SMILES IDX 68 79 52 80 53 81 58 82 54 83 55 84 57 85 59 86 56 87
REMARK H PARENT 22 4 18 24 26 30 76 49 50 60
REMARK Flexibility Score: inf
ROOT
ATOM      1  O   UNL A   1      37.613  23.648  26.353  1.00  0.00    -0.275 OA
ATOM      2  C   UNL A   1      37.985  22.659  25.729  1.00  0.00     0.220 C 
ATOM      3  N   UNL A   1      39.114  21.940  26.038  1.00  0.00    -0.356 N 
ATOM      4  H   UNL A   1      39.324  21.132  25.517  1.00  0.00     0.163 HD
ENDROOT
BRANCH   2   5
ATOM      5  C   UNL A   1      37.203  22.126  24.552  1.00  0.00     0.102 C 
BRANCH   5   6
ATOM      6  C   UNL A   1      36.027  21.242  24.967  1.00  0.00     0.032 C 
BRANCH   6   7
ATOM      7  C   UNL A   1      34.648  21.628  24.407  1.00  0.00     0.128 C 
BRANCH   7   8
ATOM      8  N   UNL A   1      34.087  22.899  24.882  1.00  0.00    -0.293 N 
ATOM      9  C   UNL A   1      34.118  23.997  24.033  1.00  0.00     0.266 C 
ATOM     10  C   UNL A   1      33.616  23.141  26.157  1.00  0.00     0.148 C 
ATOM     11  O   UNL A   1      34.493  23.990  22.871  1.00  0.00    -0.268 OA
ATOM     12  C   UNL A   1      33.591  25.205  24.721  1.00  0.00     0.081 C 
ATOM     13  S   UNL A   1      32.908  24.746  26.230  1.00  0.00    -0.054 SA
ATOM     14  S   UNL A   1      33.652  22.149  27.495  1.00  0.00    -0.052 S 
ATOM     15  C   UNL A   1      33.689  26.444  24.213  1.00  0.00     0.033 C 
BRANCH  15  16
ATOM     16  C   UNL A   1      33.194  27.646  24.902  1.00  0.00     0.019 A 
ATOM     17  C   UNL A   1      34.028  28.284  25.829  1.00  0.00     0.027 A 
ATOM     18  C   UNL A   1      31.945  28.216  24.607  1.00  0.00     0.122 A 
ATOM     19  C   UNL A   1      33.634  29.495  26.399  1.00  0.00     0.018 A 
ATOM     20  C   UNL A   1      31.560  29.434  25.167  1.00  0.00     0.048 A 
ATOM     21  Br  UNL A   1      34.778  30.367  27.626  1.00  0.00    -0.051 Br
ATOM     22  C   UNL A   1      32.414  30.080  26.060  1.00  0.00     0.019 A 
BRANCH  18  23
ATOM     23  O   UNL A   1      31.103  27.570  23.741  1.00  0.00    -0.507 OA
ATOM     24  H   UNL A   1      31.433  27.233  22.931  1.00  0.00     0.293 HD
ENDBRANCH  18  23
ENDBRANCH  15  16
ENDBRANCH   7   8
ENDBRANCH   6   7
ENDBRANCH   5   6
ENDBRANCH   2   5
BRANCH   3  25
ATOM     25  C   UNL A   1      40.005  22.338  27.110  1.00  0.00     0.117 C 
BRANCH  25  26
ATOM     26  C   UNL A   1      41.460  21.997  26.815  1.00  0.00     0.042 C 
BRANCH  26  27
ATOM     27  C   UNL A   1      42.435  23.156  26.979  1.00  0.00     0.118 C 
BRANCH  27  28
ATOM     28  N   UNL A   1      42.489  24.035  25.821  1.00  0.00    -0.352 N 
ATOM     29  C   UNL A   1      42.236  25.381  25.726  1.00  0.00     0.251 C 
ATOM     30  H   UNL A   1      42.746  23.599  24.977  1.00  0.00     0.163 HD
ATOM     31  O   UNL A   1      42.196  25.924  24.626  1.00  0.00    -0.269 OA
BRANCH  29  32
ATOM     32  C   UNL A   1      41.988  26.178  26.946  1.00  0.00     0.039 A 
ATOM     33  C   UNL A   1      42.837  27.251  27.231  1.00  0.00     0.014 A 
ATOM     34  C   UNL A   1      40.941  25.864  27.817  1.00  0.00     0.014 A 
ATOM     35  C   UNL A   1      42.597  28.043  28.356  1.00  0.00     0.010 A 
ATOM     36  C   UNL A   1      40.655  26.702  28.892  1.00  0.00     0.010 A 
ATOM     37  C   UNL A   1      41.483  27.799  29.176  1.00  0.00    -0.014 A 
BRANCH  37  38
ATOM     38  C   UNL A   1      41.179  28.685  30.330  1.00  0.00     0.031 A 
ATOM     39  C   UNL A   1      41.967  28.575  31.608  1.00  0.00     0.074 A 
ATOM     40  C   UNL A   1      40.163  29.566  30.243  1.00  0.00     0.049 A 
ATOM     41  N   UNL A   1      41.832  29.248  32.723  1.00  0.00    -0.248 NA
ATOM     42  C   UNL A   1      43.031  27.559  31.647  1.00  0.00     0.031 C 
ATOM     43  C   UNL A   1      39.291  29.738  29.080  1.00  0.00     0.029 A 
ATOM     44  N   UNL A   1      39.691  30.481  31.150  1.00  0.00    -0.354 N 
ATOM     45  C   UNL A   1      42.785  28.734  33.593  1.00  0.00     0.074 A 
ATOM     46  C   UNL A   1      43.448  27.652  32.900  1.00  0.00     0.031 C 
ATOM     47  C   UNL A   1      38.411  30.721  29.332  1.00  0.00     0.029 A 
ATOM     48  C   UNL A   1      38.629  31.220  30.685  1.00  0.00     0.049 A 
ATOM     49  H   UNL A   1      40.076  30.597  32.048  1.00  0.00     0.167 HD
ATOM     50  C   UNL A   1      43.098  29.143  34.847  1.00  0.00     0.037 A 
ATOM     51  C   UNL A   1      37.910  32.189  31.283  1.00  0.00     0.037 A 
ATOM     52  C   UNL A   1      42.443  30.228  35.532  1.00  0.00     0.049 A 
ATOM     53  C   UNL A   1      38.266  32.613  32.682  1.00  0.00     0.074 A 
ATOM     54  C   UNL A   1      42.721  30.747  36.785  1.00  0.00     0.029 A 
ATOM     55  N   UNL A   1      41.377  30.955  35.027  1.00  0.00    -0.354 N 
ATOM     56  N   UNL A   1      39.217  32.165  33.466  1.00  0.00    -0.248 NA
ATOM     57  C   UNL A   1      37.456  33.685  33.273  1.00  0.00     0.031 C 
ATOM     58  C   UNL A   1      41.787  31.752  37.060  1.00  0.00     0.029 A 
ATOM     59  C   UNL A   1      40.969  31.903  35.953  1.00  0.00     0.049 A 
ATOM     60  H   UNL A   1      40.968  30.818  34.142  1.00  0.00     0.167 HD
ATOM     61  C   UNL A   1      39.140  32.925  34.628  1.00  0.00     0.074 A 
ATOM     62  C   UNL A   1      38.061  33.872  34.436  1.00  0.00     0.031 C 
ATOM     63  C   UNL A   1      39.896  32.845  35.751  1.00  0.00     0.037 A 
BRANCH  50  64
ATOM     64  C   UNL A   1      44.198  28.409  35.560  1.00  0.00     0.057 A 
ATOM     65  C   UNL A   1      43.940  27.299  36.377  1.00  0.00     0.134 A 
ATOM     66  C   UNL A   1      45.536  28.794  35.403  1.00  0.00     0.134 A 
ATOM     67  F   UNL A   1      42.680  26.882  36.580  1.00  0.00    -0.206 F 
ATOM     68  C   UNL A   1      44.967  26.618  37.033  1.00  0.00     0.040 A 
ATOM     69  C   UNL A   1      46.575  28.101  36.029  1.00  0.00     0.040 A 
ATOM     70  F   UNL A   1      45.858  29.841  34.629  1.00  0.00    -0.206 F 
ATOM     71  C   UNL A   1      46.290  27.015  36.853  1.00  0.00     0.006 A 
ENDBRANCH  50  64
BRANCH  51  72
ATOM     72  C   UNL A   1      36.792  32.844  30.556  1.00  0.00     0.057 A 
ATOM     73  C   UNL A   1      35.459  32.510  30.825  1.00  0.00     0.134 A 
ATOM     74  C   UNL A   1      37.027  33.804  29.565  1.00  0.00     0.134 A 
ATOM     75  F   UNL A   1      35.169  31.584  31.750  1.00  0.00    -0.206 F 
ATOM     76  C   UNL A   1      34.403  33.086  30.117  1.00  0.00     0.040 A 
ATOM     77  C   UNL A   1      35.979  34.410  28.870  1.00  0.00     0.040 A 
ATOM     78  F   UNL A   1      38.280  34.177  29.265  1.00  0.00    -0.206 F 
ATOM     79  C   UNL A   1      34.662  34.043  29.139  1.00  0.00     0.006 A 
ENDBRANCH  51  72
BRANCH  63  80
ATOM     80  C   UNL A   1      39.614  33.842  36.839  1.00  0.00     0.057 A 
ATOM     81  C   UNL A   1      38.800  33.536  37.939  1.00  0.00     0.134 A 
ATOM     82  C   UNL A   1      40.178  35.123  36.793  1.00  0.00     0.134 A 
ATOM     83  F   UNL A   1      38.218  32.332  38.040  1.00  0.00    -0.206 F 
ATOM     84  C   UNL A   1      38.528  34.480  38.931  1.00  0.00     0.040 A 
ATOM     85  C   UNL A   1      39.941  36.065  37.795  1.00  0.00     0.040 A 
ATOM     86  F   UNL A   1      40.977  35.480  35.775  1.00  0.00    -0.206 F 
ATOM     87  C   UNL A   1      39.105  35.747  38.863  1.00  0.00     0.006 A 
ENDBRANCH  63  80
ENDBRANCH  37  38
ENDBRANCH  29  32
ENDBRANCH  27  28
ENDBRANCH  26  27
ENDBRANCH  25  26
ENDBRANCH   3  25
TORSDOF 15
ENDMDL
