MODEL 1
REMARK VINA RESULT:     -13.6      0.000      0.000
REMARK SMILES O=C(NCCCNC(=O)c1ccc([C@@H]2CC(O)=Nc3c2ncn3-c2cccc(Cl)c2)cc1)c1ccc(-c2c3nc(c(-c4c(F)cccc4F)c4ccc([nH]4)c(-c4c(F)cccc4F)c4nc(c(-c5c(F)cccc5F)c5ccc2[nH]5)C=C4)C=C3)cc1
REMARK SMILES IDX 5 1 4 2 3 3 1 4 2 5 33 7 34 8 86 9 35 10 85 11 36 12 37 13
REMARK SMILES IDX 38 14 79 15 39 16 84 17 78 18 80 19 40 20 83 21 77 22 76 23
REMARK SMILES IDX 41 25 67 26 50 27 66 28 51 29 54 30 65 31 81 32 52 33 53 34
REMARK SMILES IDX 64 36 82 37 55 38 42 39 43 40 48 41 44 42 45 43 47 44 49 45
REMARK SMILES IDX 46 46 68 47 69 48 74 49 70 50 71 51 73 52 75 53 72 54 56 55
REMARK SMILES IDX 57 56 62 57 58 58 59 59 61 60 63 61 60 62 6 63 7 64 8 65
REMARK SMILES IDX 9 67 10 68 11 69 32 70 12 71 31 72 13 73 14 74 15 75 20 76
REMARK SMILES IDX 16 77 19 78 21 79 18 80 23 81 22 82 17 83 24 85 25 86 30 87
REMARK SMILES IDX 26 88 28 89 27 90 29 91
REMARK H PARENT 3 6 80 24 54 35 7 66 17 84
REMARK Flexibility Score: inf
ROOT
ATOM      1  C   UNL A   1      36.428  21.383  24.620  1.00  0.00     0.042 C 
ENDROOT
BRANCH   1   2
ATOM      2  C   UNL A   1      37.404  22.393  25.216  1.00  0.00     0.118 C 
BRANCH   2   3
ATOM      3  N   UNL A   1      38.681  21.849  25.627  1.00  0.00    -0.352 N 
ATOM      4  O   UNL A   1      40.523  21.394  26.754  1.00  0.00    -0.269 OA
ATOM      5  C   UNL A   1      39.658  22.236  26.501  1.00  0.00     0.251 C 
ATOM      6  H   UNL A   1      38.897  21.003  25.171  1.00  0.00     0.163 HD
BRANCH   5   7
ATOM      7  C   UNL A   1      39.802  23.599  27.079  1.00  0.00     0.039 A 
ATOM      8  C   UNL A   1      38.939  24.678  26.881  1.00  0.00     0.014 A 
ATOM      9  C   UNL A   1      40.950  23.790  27.872  1.00  0.00     0.014 A 
ATOM     10  C   UNL A   1      39.268  25.939  27.381  1.00  0.00     0.010 A 
ATOM     11  C   UNL A   1      41.279  25.039  28.376  1.00  0.00     0.010 A 
ATOM     12  C   UNL A   1      40.457  26.125  28.096  1.00  0.00    -0.014 A 
BRANCH  12  13
ATOM     13  C   UNL A   1      40.729  27.423  28.709  1.00  0.00     0.031 A 
ATOM     14  C   UNL A   1      41.927  28.115  28.150  1.00  0.00     0.074 A 
ATOM     15  C   UNL A   1      39.883  28.039  29.564  1.00  0.00     0.049 A 
ATOM     16  N   UNL A   1      43.011  28.457  28.767  1.00  0.00    -0.248 NA
ATOM     17  C   UNL A   1      41.975  28.349  26.695  1.00  0.00     0.031 C 
ATOM     18  C   UNL A   1      38.539  27.614  29.963  1.00  0.00     0.029 A 
ATOM     19  N   UNL A   1      40.012  29.244  30.191  1.00  0.00    -0.354 N 
ATOM     20  C   UNL A   1      43.800  29.118  27.825  1.00  0.00     0.074 A 
ATOM     21  C   UNL A   1      43.187  28.884  26.545  1.00  0.00     0.031 C 
ATOM     22  C   UNL A   1      37.902  28.643  30.569  1.00  0.00     0.029 A 
ATOM     23  C   UNL A   1      38.828  29.752  30.721  1.00  0.00     0.049 A 
ATOM     24  H   UNL A   1      40.873  29.717  30.264  1.00  0.00     0.167 HD
ATOM     25  C   UNL A   1      44.771  29.995  28.202  1.00  0.00     0.037 A 
ATOM     26  C   UNL A   1      38.618  31.008  31.199  1.00  0.00     0.037 A 
ATOM     27  C   UNL A   1      45.116  29.829  29.588  1.00  0.00     0.049 A 
ATOM     28  C   UNL A   1      39.944  31.606  31.487  1.00  0.00     0.074 A 
ATOM     29  C   UNL A   1      45.645  28.807  30.350  1.00  0.00     0.029 A 
ATOM     30  N   UNL A   1      44.583  30.724  30.480  1.00  0.00    -0.354 N 
ATOM     31  N   UNL A   1      40.726  31.206  32.448  1.00  0.00    -0.248 NA
ATOM     32  C   UNL A   1      40.591  32.347  30.417  1.00  0.00     0.031 C 
ATOM     33  C   UNL A   1      44.973  28.900  31.603  1.00  0.00     0.029 A 
ATOM     34  C   UNL A   1      44.129  30.010  31.555  1.00  0.00     0.049 A 
ATOM     35  H   UNL A   1      44.537  31.702  30.368  1.00  0.00     0.167 HD
ATOM     36  C   UNL A   1      41.997  31.238  31.895  1.00  0.00     0.074 A 
ATOM     37  C   UNL A   1      41.862  32.026  30.671  1.00  0.00     0.031 C 
ATOM     38  C   UNL A   1      42.969  30.384  32.327  1.00  0.00     0.037 A 
BRANCH  25  39
ATOM     39  C   UNL A   1      45.131  31.253  27.445  1.00  0.00     0.057 A 
ATOM     40  C   UNL A   1      46.429  31.385  26.916  1.00  0.00     0.134 A 
ATOM     41  C   UNL A   1      44.381  32.444  27.496  1.00  0.00     0.134 A 
ATOM     42  F   UNL A   1      47.247  30.325  26.823  1.00  0.00    -0.206 F 
ATOM     43  C   UNL A   1      46.969  32.625  26.550  1.00  0.00     0.040 A 
ATOM     44  C   UNL A   1      44.893  33.678  27.085  1.00  0.00     0.040 A 
ATOM     45  F   UNL A   1      43.160  32.501  28.039  1.00  0.00    -0.206 F 
ATOM     46  C   UNL A   1      46.202  33.779  26.644  1.00  0.00     0.006 A 
ENDBRANCH  25  39
BRANCH  26  47
ATOM     47  C   UNL A   1      37.396  31.849  31.135  1.00  0.00     0.057 A 
ATOM     48  C   UNL A   1      36.998  32.473  29.940  1.00  0.00     0.134 A 
ATOM     49  C   UNL A   1      36.434  31.816  32.158  1.00  0.00     0.134 A 
ATOM     50  F   UNL A   1      37.826  32.518  28.887  1.00  0.00    -0.206 F 
ATOM     51  C   UNL A   1      35.712  33.006  29.767  1.00  0.00     0.040 A 
ATOM     52  C   UNL A   1      35.148  32.348  31.999  1.00  0.00     0.040 A 
ATOM     53  F   UNL A   1      36.676  31.182  33.313  1.00  0.00    -0.206 F 
ATOM     54  C   UNL A   1      34.778  32.934  30.794  1.00  0.00     0.006 A 
ENDBRANCH  26  47
BRANCH  38  55
ATOM     55  C   UNL A   1      42.712  29.600  33.583  1.00  0.00     0.057 A 
ATOM     56  C   UNL A   1      42.033  28.373  33.627  1.00  0.00     0.134 A 
ATOM     57  C   UNL A   1      43.313  30.034  34.769  1.00  0.00     0.134 A 
ATOM     58  F   UNL A   1      41.507  27.827  32.523  1.00  0.00    -0.206 F 
ATOM     59  C   UNL A   1      41.923  27.635  34.810  1.00  0.00     0.040 A 
ATOM     60  C   UNL A   1      43.242  29.289  35.948  1.00  0.00     0.040 A 
ATOM     61  F   UNL A   1      44.026  31.172  34.788  1.00  0.00    -0.206 F 
ATOM     62  C   UNL A   1      42.537  28.090  35.974  1.00  0.00     0.006 A 
ENDBRANCH  38  55
ENDBRANCH  12  13
ENDBRANCH   5   7
ENDBRANCH   2   3
ENDBRANCH   1   2
BRANCH   1  63
ATOM     63  C   UNL A   1      35.401  20.820  25.600  1.00  0.00     0.118 C 
BRANCH  63  64
ATOM     64  N   UNL A   1      34.525  19.823  25.001  1.00  0.00    -0.352 N 
ATOM     65  C   UNL A   1      33.305  19.961  24.395  1.00  0.00     0.251 C 
ATOM     66  H   UNL A   1      34.865  18.900  25.039  1.00  0.00     0.163 HD
ATOM     67  O   UNL A   1      32.666  18.948  24.087  1.00  0.00    -0.269 OA
BRANCH  65  68
ATOM     68  C   UNL A   1      32.732  21.292  24.110  1.00  0.00     0.039 A 
ATOM     69  C   UNL A   1      33.231  22.015  23.024  1.00  0.00     0.014 A 
ATOM     70  C   UNL A   1      31.758  21.860  24.935  1.00  0.00     0.014 A 
ATOM     71  C   UNL A   1      32.710  23.275  22.727  1.00  0.00     0.005 A 
ATOM     72  C   UNL A   1      31.223  23.112  24.628  1.00  0.00     0.005 A 
ATOM     73  C   UNL A   1      31.691  23.836  23.517  1.00  0.00    -0.038 A 
BRANCH  73  74
ATOM     74  C   UNL A   1      31.170  25.225  23.182  1.00  0.00     0.081 C 
ATOM     75  C   UNL A   1      31.928  25.863  21.997  1.00  0.00     0.111 C 
ATOM     76  C   UNL A   1      31.298  26.042  24.416  1.00  0.00     0.093 A 
ATOM     77  C   UNL A   1      32.833  27.029  22.363  1.00  0.00     0.188 C 
ATOM     78  C   UNL A   1      32.065  27.186  24.443  1.00  0.00     0.164 A 
ATOM     79  N   UNL A   1      30.738  25.778  25.636  1.00  0.00    -0.238 NA
ATOM     80  N   UNL A   1      32.867  27.688  23.476  1.00  0.00    -0.198 NA
ATOM     81  N   UNL A   1      31.967  27.658  25.739  1.00  0.00    -0.283 N 
ATOM     82  C   UNL A   1      31.194  26.736  26.418  1.00  0.00     0.206 A 
BRANCH  77  83
ATOM     83  O   UNL A   1      33.653  27.419  21.367  1.00  0.00    -0.496 OA
ATOM     84  H   UNL A   1      33.518  27.099  20.497  1.00  0.00     0.294 HD
ENDBRANCH  77  83
BRANCH  81  85
ATOM     85  C   UNL A   1      32.531  28.841  26.271  1.00  0.00     0.050 A 
ATOM     86  C   UNL A   1      31.778  30.021  26.318  1.00  0.00     0.027 A 
ATOM     87  C   UNL A   1      33.849  28.823  26.746  1.00  0.00     0.047 A 
ATOM     88  C   UNL A   1      32.338  31.172  26.876  1.00  0.00     0.004 A 
ATOM     89  C   UNL A   1      34.412  29.992  27.251  1.00  0.00     0.043 A 
ATOM     90  C   UNL A   1      33.658  31.162  27.333  1.00  0.00     0.020 A 
ATOM     91  Cl  UNL A   1      36.057  29.999  27.759  1.00  0.00    -0.084 Cl
ENDBRANCH  81  85
ENDBRANCH  73  74
ENDBRANCH  65  68
ENDBRANCH  63  64
ENDBRANCH   1  63
TORSDOF 13
ENDMDL
MODEL 2
REMARK VINA RESULT:     -13.5      2.557      7.891
REMARK SMILES O=C(NCCCNC(=O)c1ccc([C@@H]2CC(O)=Nc3c2ncn3-c2cccc(Cl)c2)cc1)c1ccc(-c2c3nc(c(-c4c(F)cccc4F)c4ccc([nH]4)c(-c4c(F)cccc4F)c4nc(c(-c5c(F)cccc5F)c5ccc2[nH]5)C=C4)C=C3)cc1
REMARK SMILES IDX 5 1 4 2 3 3 1 4 2 5 33 7 34 8 86 9 35 10 85 11 36 12 37 13
REMARK SMILES IDX 38 14 79 15 39 16 84 17 78 18 80 19 40 20 83 21 77 22 76 23
REMARK SMILES IDX 41 25 67 26 50 27 66 28 51 29 54 30 65 31 81 32 52 33 53 34
REMARK SMILES IDX 64 36 82 37 55 38 42 39 43 40 48 41 44 42 45 43 47 44 49 45
REMARK SMILES IDX 46 46 68 47 69 48 74 49 70 50 71 51 73 52 75 53 72 54 56 55
REMARK SMILES IDX 57 56 62 57 58 58 59 59 61 60 63 61 60 62 6 63 7 64 8 65
REMARK SMILES IDX 9 67 10 68 11 69 32 70 12 71 31 72 13 73 14 74 15 75 20 76
REMARK SMILES IDX 16 77 19 78 21 79 18 80 23 81 22 82 17 83 24 85 25 86 30 87
REMARK SMILES IDX 26 88 28 89 27 90 29 91
REMARK H PARENT 3 6 80 24 54 35 7 66 17 84
REMARK Flexibility Score: inf
ROOT
ATOM      1  C   UNL A   1      31.931  29.577  26.408  1.00  0.00     0.042 C 
ENDROOT
BRANCH   1   2
ATOM      2  C   UNL A   1      33.264  29.609  27.148  1.00  0.00     0.118 C 
BRANCH   2   3
ATOM      3  N   UNL A   1      33.672  30.912  27.631  1.00  0.00    -0.352 N 
ATOM      4  O   UNL A   1      34.848  32.713  28.124  1.00  0.00    -0.269 OA
ATOM      5  C   UNL A   1      34.868  31.492  27.948  1.00  0.00     0.251 C 
ATOM      6  H   UNL A   1      32.910  31.522  27.763  1.00  0.00     0.163 HD
BRANCH   5   7
ATOM      7  C   UNL A   1      36.141  30.761  28.185  1.00  0.00     0.039 A 
ATOM      8  C   UNL A   1      36.374  29.405  27.947  1.00  0.00     0.014 A 
ATOM      9  C   UNL A   1      37.180  31.538  28.733  1.00  0.00     0.014 A 
ATOM     10  C   UNL A   1      37.581  28.822  28.339  1.00  0.00     0.010 A 
ATOM     11  C   UNL A   1      38.383  30.965  29.120  1.00  0.00     0.010 A 
ATOM     12  C   UNL A   1      38.568  29.597  28.959  1.00  0.00    -0.014 A 
BRANCH  12  13
ATOM     13  C   UNL A   1      39.867  28.997  29.257  1.00  0.00     0.031 A 
ATOM     14  C   UNL A   1      40.171  28.913  30.716  1.00  0.00     0.074 A 
ATOM     15  C   UNL A   1      40.645  28.397  28.330  1.00  0.00     0.049 A 
ATOM     16  N   UNL A   1      41.141  29.472  31.362  1.00  0.00    -0.248 NA
ATOM     17  C   UNL A   1      39.206  28.215  31.585  1.00  0.00     0.031 C 
ATOM     18  C   UNL A   1      40.333  28.141  26.922  1.00  0.00     0.029 A 
ATOM     19  N   UNL A   1      41.861  27.796  28.479  1.00  0.00    -0.354 N 
ATOM     20  C   UNL A   1      41.021  29.047  32.685  1.00  0.00     0.074 A 
ATOM     21  C   UNL A   1      39.736  28.411  32.793  1.00  0.00     0.031 C 
ATOM     22  C   UNL A   1      41.219  27.250  26.418  1.00  0.00     0.029 A 
ATOM     23  C   UNL A   1      42.235  26.973  27.419  1.00  0.00     0.049 A 
ATOM     24  H   UNL A   1      42.429  27.932  29.272  1.00  0.00     0.167 HD
ATOM     25  C   UNL A   1      42.087  29.053  33.533  1.00  0.00     0.037 A 
ATOM     26  C   UNL A   1      43.272  26.093  27.392  1.00  0.00     0.037 A 
ATOM     27  C   UNL A   1      43.148  29.885  33.032  1.00  0.00     0.049 A 
ATOM     28  C   UNL A   1      44.206  26.468  28.481  1.00  0.00     0.074 A 
ATOM     29  C   UNL A   1      43.284  31.227  32.739  1.00  0.00     0.029 A 
ATOM     30  N   UNL A   1      44.204  29.259  32.421  1.00  0.00    -0.354 N 
ATOM     31  N   UNL A   1      44.925  27.553  28.478  1.00  0.00    -0.248 NA
ATOM     32  C   UNL A   1      43.995  25.857  29.784  1.00  0.00     0.031 C 
ATOM     33  C   UNL A   1      44.112  31.266  31.580  1.00  0.00     0.029 A 
ATOM     34  C   UNL A   1      44.487  29.955  31.278  1.00  0.00     0.049 A 
ATOM     35  H   UNL A   1      44.673  28.456  32.746  1.00  0.00     0.167 HD
ATOM     36  C   UNL A   1      44.872  28.007  29.786  1.00  0.00     0.074 A 
ATOM     37  C   UNL A   1      44.354  26.881  30.561  1.00  0.00     0.031 C 
ATOM     38  C   UNL A   1      44.975  29.338  30.069  1.00  0.00     0.037 A 
BRANCH  25  39
ATOM     39  C   UNL A   1      42.337  28.016  34.603  1.00  0.00     0.057 A 
ATOM     40  C   UNL A   1      42.697  26.710  34.220  1.00  0.00     0.134 A 
ATOM     41  C   UNL A   1      41.933  28.156  35.946  1.00  0.00     0.134 A 
ATOM     42  F   UNL A   1      43.091  26.444  32.965  1.00  0.00    -0.206 F 
ATOM     43  C   UNL A   1      42.575  25.613  35.083  1.00  0.00     0.040 A 
ATOM     44  C   UNL A   1      41.857  27.076  36.829  1.00  0.00     0.040 A 
ATOM     45  F   UNL A   1      41.490  29.315  36.445  1.00  0.00    -0.206 F 
ATOM     46  C   UNL A   1      42.143  25.794  36.390  1.00  0.00     0.006 A 
ENDBRANCH  25  39
BRANCH  26  47
ATOM     47  C   UNL A   1      43.374  24.776  26.714  1.00  0.00     0.057 A 
ATOM     48  C   UNL A   1      42.725  23.639  27.224  1.00  0.00     0.134 A 
ATOM     49  C   UNL A   1      43.856  24.668  25.399  1.00  0.00     0.134 A 
ATOM     50  F   UNL A   1      42.189  23.653  28.453  1.00  0.00    -0.206 F 
ATOM     51  C   UNL A   1      42.545  22.475  26.461  1.00  0.00     0.040 A 
ATOM     52  C   UNL A   1      43.686  23.511  24.629  1.00  0.00     0.040 A 
ATOM     53  F   UNL A   1      44.425  25.714  24.784  1.00  0.00    -0.206 F 
ATOM     54  C   UNL A   1      43.015  22.413  25.154  1.00  0.00     0.006 A 
ENDBRANCH  26  47
BRANCH  38  55
ATOM     55  C   UNL A   1      45.411  30.262  28.967  1.00  0.00     0.057 A 
ATOM     56  C   UNL A   1      44.542  30.851  28.037  1.00  0.00     0.134 A 
ATOM     57  C   UNL A   1      46.744  30.687  28.948  1.00  0.00     0.134 A 
ATOM     58  F   UNL A   1      43.231  30.582  28.039  1.00  0.00    -0.206 F 
ATOM     59  C   UNL A   1      44.992  31.792  27.105  1.00  0.00     0.040 A 
ATOM     60  C   UNL A   1      47.197  31.651  28.046  1.00  0.00     0.040 A 
ATOM     61  F   UNL A   1      47.619  30.206  29.844  1.00  0.00    -0.206 F 
ATOM     62  C   UNL A   1      46.322  32.201  27.113  1.00  0.00     0.006 A 
ENDBRANCH  38  55
ENDBRANCH  12  13
ENDBRANCH   5   7
ENDBRANCH   2   3
ENDBRANCH   1   2
BRANCH   1  63
ATOM     63  C   UNL A   1      32.031  29.701  24.888  1.00  0.00     0.118 C 
BRANCH  63  64
ATOM     64  N   UNL A   1      30.734  29.721  24.228  1.00  0.00    -0.352 N 
ATOM     65  C   UNL A   1      30.014  28.708  23.654  1.00  0.00     0.251 C 
ATOM     66  H   UNL A   1      30.305  30.606  24.188  1.00  0.00     0.163 HD
ATOM     67  O   UNL A   1      28.992  28.981  23.014  1.00  0.00    -0.269 OA
BRANCH  65  68
ATOM     68  C   UNL A   1      30.436  27.298  23.774  1.00  0.00     0.039 A 
ATOM     69  C   UNL A   1      30.287  26.658  25.007  1.00  0.00     0.014 A 
ATOM     70  C   UNL A   1      31.035  26.621  22.707  1.00  0.00     0.014 A 
ATOM     71  C   UNL A   1      30.676  25.326  25.153  1.00  0.00     0.005 A 
ATOM     72  C   UNL A   1      31.406  25.283  22.848  1.00  0.00     0.005 A 
ATOM     73  C   UNL A   1      31.229  24.616  24.072  1.00  0.00    -0.038 A 
BRANCH  73  74
ATOM     74  C   UNL A   1      31.670  23.176  24.278  1.00  0.00     0.081 C 
ATOM     75  C   UNL A   1      31.319  22.652  25.689  1.00  0.00     0.111 C 
ATOM     76  C   UNL A   1      33.134  23.133  24.028  1.00  0.00     0.093 A 
ATOM     77  C   UNL A   1      32.509  22.436  26.610  1.00  0.00     0.188 C 
ATOM     78  C   UNL A   1      34.017  22.723  25.002  1.00  0.00     0.164 A 
ATOM     79  N   UNL A   1      33.780  23.503  22.880  1.00  0.00    -0.238 NA
ATOM     80  N   UNL A   1      33.764  22.411  26.294  1.00  0.00    -0.198 NA
ATOM     81  N   UNL A   1      35.269  22.836  24.427  1.00  0.00    -0.283 N 
ATOM     82  C   UNL A   1      35.059  23.359  23.166  1.00  0.00     0.206 A 
BRANCH  77  83
ATOM     83  O   UNL A   1      32.172  22.204  27.894  1.00  0.00    -0.496 OA
ATOM     84  H   UNL A   1      31.269  22.155  28.140  1.00  0.00     0.294 HD
ENDBRANCH  77  83
BRANCH  81  85
ATOM     85  C   UNL A   1      36.516  22.486  24.998  1.00  0.00     0.050 A 
ATOM     86  C   UNL A   1      37.029  21.194  24.830  1.00  0.00     0.027 A 
ATOM     87  C   UNL A   1      37.228  23.440  25.737  1.00  0.00     0.047 A 
ATOM     88  C   UNL A   1      38.276  20.873  25.372  1.00  0.00     0.004 A 
ATOM     89  C   UNL A   1      38.444  23.090  26.316  1.00  0.00     0.043 A 
ATOM     90  C   UNL A   1      38.979  21.817  26.124  1.00  0.00     0.020 A 
ATOM     91  Cl  UNL A   1      39.285  24.230  27.294  1.00  0.00    -0.084 Cl
ENDBRANCH  81  85
ENDBRANCH  73  74
ENDBRANCH  65  68
ENDBRANCH  63  64
ENDBRANCH   1  63
TORSDOF 13
ENDMDL
MODEL 3
REMARK VINA RESULT:     -13.4      3.101      8.290
REMARK SMILES O=C(NCCCNC(=O)c1ccc([C@@H]2CC(O)=Nc3c2ncn3-c2cccc(Cl)c2)cc1)c1ccc(-c2c3nc(c(-c4c(F)cccc4F)c4ccc([nH]4)c(-c4c(F)cccc4F)c4nc(c(-c5c(F)cccc5F)c5ccc2[nH]5)C=C4)C=C3)cc1
REMARK SMILES IDX 5 1 4 2 3 3 1 4 2 5 33 7 34 8 86 9 35 10 85 11 36 12 37 13
REMARK SMILES IDX 38 14 79 15 39 16 84 17 78 18 80 19 40 20 83 21 77 22 76 23
REMARK SMILES IDX 41 25 67 26 50 27 66 28 51 29 54 30 65 31 81 32 52 33 53 34
REMARK SMILES IDX 64 36 82 37 55 38 42 39 43 40 48 41 44 42 45 43 47 44 49 45
REMARK SMILES IDX 46 46 68 47 69 48 74 49 70 50 71 51 73 52 75 53 72 54 56 55
REMARK SMILES IDX 57 56 62 57 58 58 59 59 61 60 63 61 60 62 6 63 7 64 8 65
REMARK SMILES IDX 9 67 10 68 11 69 32 70 12 71 31 72 13 73 14 74 15 75 20 76
REMARK SMILES IDX 16 77 19 78 21 79 18 80 23 81 22 82 17 83 24 85 25 86 30 87
REMARK SMILES IDX 26 88 28 89 27 90 29 91
REMARK H PARENT 3 6 80 24 54 35 7 66 17 84
REMARK Flexibility Score: inf
ROOT
ATOM      1  C   UNL A   1      35.623  31.735  27.954  1.00  0.00     0.042 C 
ENDROOT
BRANCH   1   2
ATOM      2  C   UNL A   1      35.267  32.926  28.838  1.00  0.00     0.118 C 
BRANCH   2   3
ATOM      3  N   UNL A   1      34.948  32.602  30.212  1.00  0.00    -0.352 N 
ATOM      4  O   UNL A   1      35.094  32.108  32.358  1.00  0.00    -0.269 OA
ATOM      5  C   UNL A   1      35.625  32.021  31.248  1.00  0.00     0.251 C 
ATOM      6  H   UNL A   1      34.030  32.859  30.458  1.00  0.00     0.163 HD
BRANCH   5   7
ATOM      7  C   UNL A   1      36.876  31.228  31.120  1.00  0.00     0.039 A 
ATOM      8  C   UNL A   1      38.177  31.734  31.085  1.00  0.00     0.014 A 
ATOM      9  C   UNL A   1      36.690  29.838  30.993  1.00  0.00     0.014 A 
ATOM     10  C   UNL A   1      39.253  30.882  30.830  1.00  0.00     0.010 A 
ATOM     11  C   UNL A   1      37.756  28.987  30.744  1.00  0.00     0.010 A 
ATOM     12  C   UNL A   1      39.036  29.515  30.623  1.00  0.00    -0.014 A 
BRANCH  12  13
ATOM     13  C   UNL A   1      40.182  28.622  30.472  1.00  0.00     0.031 A 
ATOM     14  C   UNL A   1      40.917  28.362  31.745  1.00  0.00     0.074 A 
ATOM     15  C   UNL A   1      40.453  27.938  29.339  1.00  0.00     0.049 A 
ATOM     16  N   UNL A   1      42.146  28.643  32.028  1.00  0.00    -0.248 NA
ATOM     17  C   UNL A   1      40.153  27.831  32.888  1.00  0.00     0.031 C 
ATOM     18  C   UNL A   1      39.649  27.865  28.117  1.00  0.00     0.029 A 
ATOM     19  N   UNL A   1      41.476  27.073  29.074  1.00  0.00    -0.354 N 
ATOM     20  C   UNL A   1      42.368  28.155  33.316  1.00  0.00     0.074 A 
ATOM     21  C   UNL A   1      41.078  27.812  33.849  1.00  0.00     0.031 C 
ATOM     22  C   UNL A   1      40.088  26.841  27.347  1.00  0.00     0.029 A 
ATOM     23  C   UNL A   1      41.280  26.271  27.952  1.00  0.00     0.049 A 
ATOM     24  H   UNL A   1      42.286  27.020  29.631  1.00  0.00     0.167 HD
ATOM     25  C   UNL A   1      43.622  27.861  33.758  1.00  0.00     0.037 A 
ATOM     26  C   UNL A   1      42.016  25.189  27.581  1.00  0.00     0.037 A 
ATOM     27  C   UNL A   1      44.626  28.475  32.929  1.00  0.00     0.049 A 
ATOM     28  C   UNL A   1      43.314  25.264  28.294  1.00  0.00     0.074 A 
ATOM     29  C   UNL A   1      44.968  29.771  32.604  1.00  0.00     0.029 A 
ATOM     30  N   UNL A   1      45.248  27.679  32.001  1.00  0.00    -0.354 N 
ATOM     31  N   UNL A   1      44.226  26.160  28.048  1.00  0.00    -0.248 NA
ATOM     32  C   UNL A   1      43.403  24.618  29.593  1.00  0.00     0.031 C 
ATOM     33  C   UNL A   1      45.358  29.714  31.235  1.00  0.00     0.029 A 
ATOM     34  C   UNL A   1      45.297  28.380  30.828  1.00  0.00     0.049 A 
ATOM     35  H   UNL A   1      45.596  26.770  32.152  1.00  0.00     0.167 HD
ATOM     36  C   UNL A   1      44.709  26.514  29.298  1.00  0.00     0.074 A 
ATOM     37  C   UNL A   1      44.224  25.475  30.204  1.00  0.00     0.031 C 
ATOM     38  C   UNL A   1      45.206  27.764  29.527  1.00  0.00     0.037 A 
BRANCH  25  39
ATOM     39  C   UNL A   1      43.958  26.716  34.685  1.00  0.00     0.057 A 
ATOM     40  C   UNL A   1      43.860  25.397  34.206  1.00  0.00     0.134 A 
ATOM     41  C   UNL A   1      44.056  26.839  36.086  1.00  0.00     0.134 A 
ATOM     42  F   UNL A   1      43.752  25.146  32.892  1.00  0.00    -0.206 F 
ATOM     43  C   UNL A   1      43.774  24.290  35.062  1.00  0.00     0.040 A 
ATOM     44  C   UNL A   1      44.022  25.738  36.945  1.00  0.00     0.040 A 
ATOM     45  F   UNL A   1      44.081  28.026  36.702  1.00  0.00    -0.206 F 
ATOM     46  C   UNL A   1      43.844  24.461  36.438  1.00  0.00     0.006 A 
ENDBRANCH  25  39
BRANCH  26  47
ATOM     47  C   UNL A   1      41.582  23.937  26.911  1.00  0.00     0.057 A 
ATOM     48  C   UNL A   1      42.469  23.180  26.128  1.00  0.00     0.134 A 
ATOM     49  C   UNL A   1      40.381  23.300  27.264  1.00  0.00     0.134 A 
ATOM     50  F   UNL A   1      43.663  23.679  25.775  1.00  0.00    -0.206 F 
ATOM     51  C   UNL A   1      42.189  21.859  25.745  1.00  0.00     0.040 A 
ATOM     52  C   UNL A   1      40.087  21.985  26.885  1.00  0.00     0.040 A 
ATOM     53  F   UNL A   1      39.493  23.899  28.070  1.00  0.00    -0.206 F 
ATOM     54  C   UNL A   1      41.000  21.254  26.134  1.00  0.00     0.006 A 
ENDBRANCH  26  47
BRANCH  38  55
ATOM     55  C   UNL A   1      45.463  28.650  28.340  1.00  0.00     0.057 A 
ATOM     56  C   UNL A   1      44.520  29.533  27.792  1.00  0.00     0.134 A 
ATOM     57  C   UNL A   1      46.765  28.719  27.834  1.00  0.00     0.134 A 
ATOM     58  F   UNL A   1      43.274  29.611  28.275  1.00  0.00    -0.206 F 
ATOM     59  C   UNL A   1      44.853  30.414  26.759  1.00  0.00     0.040 A 
ATOM     60  C   UNL A   1      47.118  29.619  26.827  1.00  0.00     0.040 A 
ATOM     61  F   UNL A   1      47.731  27.941  28.348  1.00  0.00    -0.206 F 
ATOM     62  C   UNL A   1      46.158  30.465  26.279  1.00  0.00     0.006 A 
ENDBRANCH  38  55
ENDBRANCH  12  13
ENDBRANCH   5   7
ENDBRANCH   2   3
ENDBRANCH   1   2
BRANCH   1  63
ATOM     63  C   UNL A   1      34.442  30.862  27.535  1.00  0.00     0.118 C 
BRANCH  63  64
ATOM     64  N   UNL A   1      33.201  31.610  27.387  1.00  0.00    -0.352 N 
ATOM     65  C   UNL A   1      32.011  31.252  26.814  1.00  0.00     0.251 C 
ATOM     66  H   UNL A   1      33.223  32.522  27.758  1.00  0.00     0.163 HD
ATOM     67  O   UNL A   1      31.130  32.107  26.667  1.00  0.00    -0.269 OA
BRANCH  65  68
ATOM     68  C   UNL A   1      31.759  29.870  26.360  1.00  0.00     0.039 A 
ATOM     69  C   UNL A   1      31.414  29.659  25.022  1.00  0.00     0.014 A 
ATOM     70  C   UNL A   1      31.795  28.790  27.247  1.00  0.00     0.014 A 
ATOM     71  C   UNL A   1      31.170  28.365  24.560  1.00  0.00     0.005 A 
ATOM     72  C   UNL A   1      31.570  27.494  26.781  1.00  0.00     0.005 A 
ATOM     73  C   UNL A   1      31.257  27.263  25.430  1.00  0.00    -0.038 A 
BRANCH  73  74
ATOM     74  C   UNL A   1      30.954  25.872  24.899  1.00  0.00     0.081 C 
ATOM     75  C   UNL A   1      30.238  24.989  25.946  1.00  0.00     0.111 C 
ATOM     76  C   UNL A   1      32.249  25.279  24.478  1.00  0.00     0.093 A 
ATOM     77  C   UNL A   1      31.076  23.853  26.512  1.00  0.00     0.188 C 
ATOM     78  C   UNL A   1      32.722  24.114  25.040  1.00  0.00     0.164 A 
ATOM     79  N   UNL A   1      33.122  25.788  23.557  1.00  0.00    -0.238 NA
ATOM     80  N   UNL A   1      32.204  23.401  26.067  1.00  0.00    -0.198 NA
ATOM     81  N   UNL A   1      33.941  23.885  24.430  1.00  0.00    -0.283 N 
ATOM     82  C   UNL A   1      34.146  24.958  23.584  1.00  0.00     0.206 A 
BRANCH  77  83
ATOM     83  O   UNL A   1      30.523  23.244  27.579  1.00  0.00    -0.496 OA
ATOM     84  H   UNL A   1      29.710  22.787  27.488  1.00  0.00     0.294 HD
ENDBRANCH  77  83
BRANCH  81  85
ATOM     85  C   UNL A   1      34.808  22.783  24.619  1.00  0.00     0.050 A 
ATOM     86  C   UNL A   1      36.176  22.991  24.831  1.00  0.00     0.027 A 
ATOM     87  C   UNL A   1      34.286  21.483  24.586  1.00  0.00     0.047 A 
ATOM     88  C   UNL A   1      37.013  21.894  25.048  1.00  0.00     0.004 A 
ATOM     89  C   UNL A   1      35.141  20.397  24.751  1.00  0.00     0.043 A 
ATOM     90  C   UNL A   1      36.499  20.596  24.997  1.00  0.00     0.020 A 
ATOM     91  Cl  UNL A   1      34.522  18.795  24.629  1.00  0.00    -0.084 Cl
ENDBRANCH  81  85
ENDBRANCH  73  74
ENDBRANCH  65  68
ENDBRANCH  63  64
ENDBRANCH   1  63
TORSDOF 13
ENDMDL
