MODEL 1
REMARK VINA RESULT:     -10.3      0.000      0.000
REMARK SMILES COc1cc(F)ccc1NCC(C)(C)C(=O)NCCCNC(=O)c1ccc(-c2c3nc(c(-c4c(F)cccc4F)c4ccc([nH]4)c(-c4c(F)cccc4F)c4nc(c(-c5c(F)cccc5F)c5ccc2[nH]5)C=C4)C=C3)cc1
REMARK SMILES IDX 18 1 17 2 15 3 16 4 12 6 13 7 14 8 11 9 10 10 9 12 3 13 4 14
REMARK SMILES IDX 5 15 8 16 6 17 7 18 2 19 1 20 19 21 20 22 21 23 22 24 23 26
REMARK SMILES IDX 24 27 25 28 77 29 26 30 76 31 27 32 28 33 29 34 70 35 30 36
REMARK SMILES IDX 75 37 69 38 71 39 31 40 74 41 68 42 67 43 32 45 58 46 41 47
REMARK SMILES IDX 57 48 42 49 45 50 56 51 72 52 43 53 44 54 55 56 73 57 46 58
REMARK SMILES IDX 33 59 34 60 39 61 35 62 36 63 38 64 40 65 37 66 59 67 60 68
REMARK SMILES IDX 65 69 61 70 62 71 64 72 66 73 63 74 47 75 48 76 53 77 49 78
REMARK SMILES IDX 50 79 52 80 54 81 51 82
REMARK H PARENT 17 5 10 11 21 25 71 44 45 55
REMARK Flexibility Score: inf
ROOT
ATOM      1  C   UNL A   1      36.160  20.299  24.977  1.00  0.00     0.117 C 
ENDROOT
BRANCH   1   2
ATOM      2  N   UNL A   1      36.342  21.528  25.725  1.00  0.00    -0.356 N 
ATOM      3  C   UNL A   1      36.006  22.821  25.476  1.00  0.00     0.227 C 
ATOM      4  O   UNL A   1      36.635  23.652  26.139  1.00  0.00    -0.274 OA
ATOM      5  H   UNL A   1      36.803  21.400  26.586  1.00  0.00     0.163 HD
BRANCH   3   6
ATOM      6  C   UNL A   1      34.984  23.230  24.397  1.00  0.00     0.061 C 
ATOM      7  C   UNL A   1      33.655  22.461  24.502  1.00  0.00     0.023 C 
ATOM      8  C   UNL A   1      35.622  23.023  23.009  1.00  0.00     0.023 C 
BRANCH   6   9
ATOM      9  C   UNL A   1      34.690  24.756  24.530  1.00  0.00     0.129 C 
BRANCH   9  10
ATOM     10  N   UNL A   1      34.129  25.126  25.820  1.00  0.00    -0.381 N 
ATOM     11  H   UNL A   1      34.230  24.471  26.547  1.00  0.00     0.160 HD
BRANCH  10  12
ATOM     12  C   UNL A   1      33.467  26.304  26.135  1.00  0.00     0.077 A 
ATOM     13  C   UNL A   1      32.057  26.270  26.297  1.00  0.00     0.144 A 
ATOM     14  C   UNL A   1      31.347  27.428  26.630  1.00  0.00     0.087 A 
ATOM     15  C   UNL A   1      32.030  28.627  26.783  1.00  0.00     0.127 A 
ATOM     16  C   UNL A   1      34.116  27.536  26.298  1.00  0.00     0.032 A 
ATOM     17  F   UNL A   1      31.351  29.737  27.100  1.00  0.00    -0.207 F 
ATOM     18  C   UNL A   1      33.404  28.694  26.617  1.00  0.00     0.041 A 
BRANCH  13  19
ATOM     19  O   UNL A   1      31.473  25.030  26.140  1.00  0.00    -0.494 OA
ATOM     20  C   UNL A   1      30.538  24.911  25.074  1.00  0.00     0.278 C 
ENDBRANCH  13  19
ENDBRANCH  10  12
ENDBRANCH   9  10
ENDBRANCH   6   9
ENDBRANCH   3   6
ENDBRANCH   1   2
BRANCH   1  21
ATOM     21  C   UNL A   1      37.444  19.473  24.941  1.00  0.00     0.042 C 
BRANCH  21  22
ATOM     22  C   UNL A   1      38.670  20.187  25.505  1.00  0.00     0.118 C 
BRANCH  22  23
ATOM     23  N   UNL A   1      39.819  19.304  25.646  1.00  0.00    -0.352 N 
ATOM     24  C   UNL A   1      41.102  19.565  26.047  1.00  0.00     0.251 C 
ATOM     25  H   UNL A   1      39.644  18.363  25.415  1.00  0.00     0.163 HD
ATOM     26  O   UNL A   1      41.962  18.694  25.910  1.00  0.00    -0.269 OA
BRANCH  24  27
ATOM     27  C   UNL A   1      41.479  20.875  26.624  1.00  0.00     0.039 A 
ATOM     28  C   UNL A   1      41.950  21.871  25.762  1.00  0.00     0.014 A 
ATOM     29  C   UNL A   1      41.432  21.116  28.000  1.00  0.00     0.014 A 
ATOM     30  C   UNL A   1      42.320  23.117  26.270  1.00  0.00     0.010 A 
ATOM     31  C   UNL A   1      41.733  22.384  28.499  1.00  0.00     0.010 A 
ATOM     32  C   UNL A   1      42.186  23.395  27.640  1.00  0.00    -0.014 A 
BRANCH  32  33
ATOM     33  C   UNL A   1      42.519  24.739  28.177  1.00  0.00     0.031 A 
ATOM     34  C   UNL A   1      43.935  25.093  28.537  1.00  0.00     0.074 A 
ATOM     35  C   UNL A   1      41.533  25.636  28.371  1.00  0.00     0.049 A 
ATOM     36  N   UNL A   1      44.406  26.211  29.030  1.00  0.00    -0.248 NA
ATOM     37  C   UNL A   1      44.953  24.049  28.338  1.00  0.00     0.031 C 
ATOM     38  C   UNL A   1      40.112  25.401  28.109  1.00  0.00     0.029 A 
ATOM     39  N   UNL A   1      41.575  26.929  28.831  1.00  0.00    -0.354 N 
ATOM     40  C   UNL A   1      45.767  26.001  29.212  1.00  0.00     0.074 A 
ATOM     41  C   UNL A   1      46.040  24.635  28.820  1.00  0.00     0.031 C 
ATOM     42  C   UNL A   1      39.424  26.522  28.376  1.00  0.00     0.029 A 
ATOM     43  C   UNL A   1      40.349  27.545  28.855  1.00  0.00     0.049 A 
ATOM     44  H   UNL A   1      42.407  27.372  29.117  1.00  0.00     0.167 HD
ATOM     45  C   UNL A   1      46.708  26.874  29.643  1.00  0.00     0.037 A 
ATOM     46  C   UNL A   1      40.006  28.797  29.214  1.00  0.00     0.037 A 
ATOM     47  C   UNL A   1      46.444  28.243  29.997  1.00  0.00     0.049 A 
ATOM     48  C   UNL A   1      41.070  29.752  29.671  1.00  0.00     0.074 A 
ATOM     49  C   UNL A   1      47.345  29.221  30.382  1.00  0.00     0.029 A 
ATOM     50  N   UNL A   1      45.188  28.829  30.007  1.00  0.00    -0.354 N 
ATOM     51  N   UNL A   1      42.361  29.554  29.787  1.00  0.00    -0.248 NA
ATOM     52  C   UNL A   1      40.632  31.104  30.044  1.00  0.00     0.031 C 
ATOM     53  C   UNL A   1      46.629  30.391  30.655  1.00  0.00     0.029 A 
ATOM     54  C   UNL A   1      45.288  30.151  30.406  1.00  0.00     0.049 A 
ATOM     55  H   UNL A   1      44.349  28.373  29.765  1.00  0.00     0.167 HD
ATOM     56  C   UNL A   1      42.890  30.757  30.235  1.00  0.00     0.074 A 
ATOM     57  C   UNL A   1      41.785  31.685  30.351  1.00  0.00     0.031 C 
ATOM     58  C   UNL A   1      44.178  31.060  30.527  1.00  0.00     0.037 A 
BRANCH  45  59
ATOM     59  C   UNL A   1      48.120  26.381  29.738  1.00  0.00     0.057 A 
ATOM     60  C   UNL A   1      48.979  26.448  28.635  1.00  0.00     0.134 A 
ATOM     61  C   UNL A   1      48.612  25.785  30.907  1.00  0.00     0.134 A 
ATOM     62  F   UNL A   1      48.569  27.000  27.484  1.00  0.00    -0.206 F 
ATOM     63  C   UNL A   1      50.277  25.934  28.688  1.00  0.00     0.040 A 
ATOM     64  C   UNL A   1      49.914  25.288  30.980  1.00  0.00     0.040 A 
ATOM     65  F   UNL A   1      47.842  25.700  32.002  1.00  0.00    -0.206 F 
ATOM     66  C   UNL A   1      50.748  25.356  29.865  1.00  0.00     0.006 A 
ENDBRANCH  45  59
BRANCH  46  67
ATOM     67  C   UNL A   1      38.590  29.226  29.113  1.00  0.00     0.057 A 
ATOM     68  C   UNL A   1      38.052  29.702  27.912  1.00  0.00     0.134 A 
ATOM     69  C   UNL A   1      37.749  29.192  30.231  1.00  0.00     0.134 A 
ATOM     70  F   UNL A   1      38.811  29.766  26.808  1.00  0.00    -0.206 F 
ATOM     71  C   UNL A   1      36.731  30.142  27.829  1.00  0.00     0.040 A 
ATOM     72  C   UNL A   1      36.421  29.611  30.159  1.00  0.00     0.040 A 
ATOM     73  F   UNL A   1      38.206  28.729  31.404  1.00  0.00    -0.206 F 
ATOM     74  C   UNL A   1      35.910  30.095  28.955  1.00  0.00     0.006 A 
ENDBRANCH  46  67
BRANCH  58  75
ATOM     75  C   UNL A   1      44.464  32.454  31.000  1.00  0.00     0.057 A 
ATOM     76  C   UNL A   1      44.750  33.476  30.088  1.00  0.00     0.134 A 
ATOM     77  C   UNL A   1      44.512  32.766  32.365  1.00  0.00     0.134 A 
ATOM     78  F   UNL A   1      44.728  33.238  28.769  1.00  0.00    -0.206 F 
ATOM     79  C   UNL A   1      45.082  34.763  30.517  1.00  0.00     0.040 A 
ATOM     80  C   UNL A   1      44.822  34.053  32.805  1.00  0.00     0.040 A 
ATOM     81  F   UNL A   1      44.236  31.832  33.286  1.00  0.00    -0.206 F 
ATOM     82  C   UNL A   1      45.115  35.054  31.880  1.00  0.00     0.006 A 
ENDBRANCH  58  75
ENDBRANCH  32  33
ENDBRANCH  24  27
ENDBRANCH  22  23
ENDBRANCH  21  22
ENDBRANCH   1  21
TORSDOF 14
ENDMDL
MODEL 2
REMARK VINA RESULT:     -10.3      0.435      6.257
REMARK SMILES COc1cc(F)ccc1NCC(C)(C)C(=O)NCCCNC(=O)c1ccc(-c2c3nc(c(-c4c(F)cccc4F)c4ccc([nH]4)c(-c4c(F)cccc4F)c4nc(c(-c5c(F)cccc5F)c5ccc2[nH]5)C=C4)C=C3)cc1
REMARK SMILES IDX 18 1 17 2 15 3 16 4 12 6 13 7 14 8 11 9 10 10 9 12 3 13 4 14
REMARK SMILES IDX 5 15 8 16 6 17 7 18 2 19 1 20 19 21 20 22 21 23 22 24 23 26
REMARK SMILES IDX 24 27 25 28 77 29 26 30 76 31 27 32 28 33 29 34 70 35 30 36
REMARK SMILES IDX 75 37 69 38 71 39 31 40 74 41 68 42 67 43 32 45 58 46 41 47
REMARK SMILES IDX 57 48 42 49 45 50 56 51 72 52 43 53 44 54 55 56 73 57 46 58
REMARK SMILES IDX 33 59 34 60 39 61 35 62 36 63 38 64 40 65 37 66 59 67 60 68
REMARK SMILES IDX 65 69 61 70 62 71 64 72 66 73 63 74 47 75 48 76 53 77 49 78
REMARK SMILES IDX 50 79 52 80 54 81 51 82
REMARK H PARENT 17 5 10 11 21 25 71 44 45 55
REMARK Flexibility Score: inf
ROOT
ATOM      1  C   UNL A   1      36.346  20.415  25.005  1.00  0.00     0.117 C 
ENDROOT
BRANCH   1   2
ATOM      2  N   UNL A   1      36.513  21.609  25.811  1.00  0.00    -0.356 N 
ATOM      3  C   UNL A   1      36.062  22.885  25.679  1.00  0.00     0.227 C 
ATOM      4  O   UNL A   1      36.692  23.721  26.333  1.00  0.00    -0.274 OA
ATOM      5  H   UNL A   1      37.062  21.467  26.615  1.00  0.00     0.163 HD
BRANCH   3   6
ATOM      6  C   UNL A   1      34.915  23.276  24.727  1.00  0.00     0.061 C 
ATOM      7  C   UNL A   1      33.590  22.563  25.054  1.00  0.00     0.023 C 
ATOM      8  C   UNL A   1      35.348  22.975  23.279  1.00  0.00     0.023 C 
BRANCH   6   9
ATOM      9  C   UNL A   1      34.687  24.816  24.814  1.00  0.00     0.129 C 
BRANCH   9  10
ATOM     10  N   UNL A   1      33.493  25.184  25.558  1.00  0.00    -0.381 N 
ATOM     11  H   UNL A   1      32.859  24.457  25.760  1.00  0.00     0.160 HD
BRANCH  10  12
ATOM     12  C   UNL A   1      33.149  26.448  26.014  1.00  0.00     0.077 A 
ATOM     13  C   UNL A   1      31.870  26.636  26.600  1.00  0.00     0.144 A 
ATOM     14  C   UNL A   1      31.484  27.889  27.088  1.00  0.00     0.087 A 
ATOM     15  C   UNL A   1      32.356  28.963  26.979  1.00  0.00     0.127 A 
ATOM     16  C   UNL A   1      33.998  27.560  25.924  1.00  0.00     0.032 A 
ATOM     17  F   UNL A   1      31.987  30.163  27.445  1.00  0.00    -0.207 F 
ATOM     18  C   UNL A   1      33.605  28.813  26.399  1.00  0.00     0.041 A 
BRANCH  13  19
ATOM     19  O   UNL A   1      31.082  25.507  26.677  1.00  0.00    -0.494 OA
ATOM     20  C   UNL A   1      29.882  25.529  25.913  1.00  0.00     0.278 C 
ENDBRANCH  13  19
ENDBRANCH  10  12
ENDBRANCH   9  10
ENDBRANCH   6   9
ENDBRANCH   3   6
ENDBRANCH   1   2
BRANCH   1  21
ATOM     21  C   UNL A   1      37.643  19.612  24.925  1.00  0.00     0.042 C 
BRANCH  21  22
ATOM     22  C   UNL A   1      38.808  20.215  25.706  1.00  0.00     0.118 C 
BRANCH  22  23
ATOM     23  N   UNL A   1      39.974  19.343  25.736  1.00  0.00    -0.352 N 
ATOM     24  C   UNL A   1      41.282  19.613  26.038  1.00  0.00     0.251 C 
ATOM     25  H   UNL A   1      39.792  18.405  25.501  1.00  0.00     0.163 HD
ATOM     26  O   UNL A   1      42.138  18.755  25.816  1.00  0.00    -0.269 OA
BRANCH  24  27
ATOM     27  C   UNL A   1      41.690  20.916  26.610  1.00  0.00     0.039 A 
ATOM     28  C   UNL A   1      42.101  21.926  25.734  1.00  0.00     0.014 A 
ATOM     29  C   UNL A   1      41.730  21.137  27.990  1.00  0.00     0.014 A 
ATOM     30  C   UNL A   1      42.498  23.167  26.236  1.00  0.00     0.010 A 
ATOM     31  C   UNL A   1      42.057  22.399  28.487  1.00  0.00     0.010 A 
ATOM     32  C   UNL A   1      42.450  23.424  27.616  1.00  0.00    -0.014 A 
BRANCH  32  33
ATOM     33  C   UNL A   1      42.812  24.762  28.151  1.00  0.00     0.031 A 
ATOM     34  C   UNL A   1      41.757  25.809  28.377  1.00  0.00     0.074 A 
ATOM     35  C   UNL A   1      44.104  25.044  28.406  1.00  0.00     0.049 A 
ATOM     36  N   UNL A   1      41.892  27.033  28.824  1.00  0.00    -0.248 NA
ATOM     37  C   UNL A   1      40.372  25.445  28.036  1.00  0.00     0.031 C 
ATOM     38  C   UNL A   1      45.228  24.133  28.184  1.00  0.00     0.029 A 
ATOM     39  N   UNL A   1      44.690  26.178  28.912  1.00  0.00    -0.354 N 
ATOM     40  C   UNL A   1      40.618  27.585  28.806  1.00  0.00     0.074 A 
ATOM     41  C   UNL A   1      39.730  26.582  28.260  1.00  0.00     0.031 C 
ATOM     42  C   UNL A   1      46.362  24.728  28.585  1.00  0.00     0.029 A 
ATOM     43  C   UNL A   1      46.050  26.071  29.066  1.00  0.00     0.049 A 
ATOM     44  H   UNL A   1      44.183  26.990  29.142  1.00  0.00     0.167 HD
ATOM     45  C   UNL A   1      40.220  28.809  29.227  1.00  0.00     0.037 A 
ATOM     46  C   UNL A   1      46.947  26.953  29.548  1.00  0.00     0.037 A 
ATOM     47  C   UNL A   1      41.096  29.794  29.803  1.00  0.00     0.049 A 
ATOM     48  C   UNL A   1      46.478  28.296  30.026  1.00  0.00     0.074 A 
ATOM     49  C   UNL A   1      40.772  31.037  30.319  1.00  0.00     0.029 A 
ATOM     50  N   UNL A   1      42.467  29.648  29.943  1.00  0.00    -0.354 N 
ATOM     51  N   UNL A   1      45.262  28.785  30.052  1.00  0.00    -0.248 NA
ATOM     52  C   UNL A   1      47.506  29.211  30.545  1.00  0.00     0.031 C 
ATOM     53  C   UNL A   1      41.953  31.656  30.743  1.00  0.00     0.029 A 
ATOM     54  C   UNL A   1      43.006  30.784  30.523  1.00  0.00     0.049 A 
ATOM     55  H   UNL A   1      42.982  28.853  29.671  1.00  0.00     0.167 HD
ATOM     56  C   UNL A   1      45.375  30.056  30.598  1.00  0.00     0.074 A 
ATOM     57  C   UNL A   1      46.775  30.257  30.908  1.00  0.00     0.031 C 
ATOM     58  C   UNL A   1      44.403  30.974  30.818  1.00  0.00     0.037 A 
BRANCH  45  59
ATOM     59  C   UNL A   1      38.766  29.148  29.098  1.00  0.00     0.057 A 
ATOM     60  C   UNL A   1      38.238  29.595  27.880  1.00  0.00     0.134 A 
ATOM     61  C   UNL A   1      37.899  29.089  30.197  1.00  0.00     0.134 A 
ATOM     62  F   UNL A   1      39.016  29.681  26.791  1.00  0.00    -0.206 F 
ATOM     63  C   UNL A   1      36.900  29.976  27.761  1.00  0.00     0.040 A 
ATOM     64  C   UNL A   1      36.554  29.446  30.085  1.00  0.00     0.040 A 
ATOM     65  F   UNL A   1      38.340  28.660  31.388  1.00  0.00    -0.206 F 
ATOM     66  C   UNL A   1      36.054  29.898  28.865  1.00  0.00     0.006 A 
ENDBRANCH  45  59
BRANCH  46  67
ATOM     67  C   UNL A   1      48.376  26.569  29.638  1.00  0.00     0.057 A 
ATOM     68  C   UNL A   1      49.266  26.800  28.583  1.00  0.00     0.134 A 
ATOM     69  C   UNL A   1      48.878  25.935  30.781  1.00  0.00     0.134 A 
ATOM     70  F   UNL A   1      48.843  27.396  27.458  1.00  0.00    -0.206 F 
ATOM     71  C   UNL A   1      50.601  26.402  28.654  1.00  0.00     0.040 A 
ATOM     72  C   UNL A   1      50.214  25.549  30.874  1.00  0.00     0.040 A 
ATOM     73  F   UNL A   1      48.075  25.704  31.830  1.00  0.00    -0.206 F 
ATOM     74  C   UNL A   1      51.080  25.776  29.805  1.00  0.00     0.006 A 
ENDBRANCH  46  67
BRANCH  58  75
ATOM     75  C   UNL A   1      44.818  32.281  31.423  1.00  0.00     0.057 A 
ATOM     76  C   UNL A   1      45.204  33.355  30.614  1.00  0.00     0.134 A 
ATOM     77  C   UNL A   1      44.888  32.452  32.812  1.00  0.00     0.134 A 
ATOM     78  F   UNL A   1      45.166  33.251  29.278  1.00  0.00    -0.206 F 
ATOM     79  C   UNL A   1      45.655  34.556  31.165  1.00  0.00     0.040 A 
ATOM     80  C   UNL A   1      45.317  33.655  33.374  1.00  0.00     0.040 A 
ATOM     81  F   UNL A   1      44.520  31.463  33.639  1.00  0.00    -0.206 F 
ATOM     82  C   UNL A   1      45.709  34.709  32.550  1.00  0.00     0.006 A 
ENDBRANCH  58  75
ENDBRANCH  32  33
ENDBRANCH  24  27
ENDBRANCH  22  23
ENDBRANCH  21  22
ENDBRANCH   1  21
TORSDOF 14
ENDMDL
MODEL 3
REMARK VINA RESULT:     -10.2      3.608      8.815
REMARK SMILES COc1cc(F)ccc1NCC(C)(C)C(=O)NCCCNC(=O)c1ccc(-c2c3nc(c(-c4c(F)cccc4F)c4ccc([nH]4)c(-c4c(F)cccc4F)c4nc(c(-c5c(F)cccc5F)c5ccc2[nH]5)C=C4)C=C3)cc1
REMARK SMILES IDX 18 1 17 2 15 3 16 4 12 6 13 7 14 8 11 9 10 10 9 12 3 13 4 14
REMARK SMILES IDX 5 15 8 16 6 17 7 18 2 19 1 20 19 21 20 22 21 23 22 24 23 26
REMARK SMILES IDX 24 27 25 28 77 29 26 30 76 31 27 32 28 33 29 34 70 35 30 36
REMARK SMILES IDX 75 37 69 38 71 39 31 40 74 41 68 42 67 43 32 45 58 46 41 47
REMARK SMILES IDX 57 48 42 49 45 50 56 51 72 52 43 53 44 54 55 56 73 57 46 58
REMARK SMILES IDX 33 59 34 60 39 61 35 62 36 63 38 64 40 65 37 66 59 67 60 68
REMARK SMILES IDX 65 69 61 70 62 71 64 72 66 73 63 74 47 75 48 76 53 77 49 78
REMARK SMILES IDX 50 79 52 80 54 81 51 82
REMARK H PARENT 17 5 10 11 21 25 71 44 45 55
REMARK Flexibility Score: inf
ROOT
ATOM      1  C   UNL A   1      31.253  30.740  25.481  1.00  0.00     0.117 C 
ENDROOT
BRANCH   1   2
ATOM      2  N   UNL A   1      32.605  30.218  25.481  1.00  0.00    -0.356 N 
ATOM      3  C   UNL A   1      33.140  29.034  25.881  1.00  0.00     0.227 C 
ATOM      4  O   UNL A   1      34.357  29.064  26.087  1.00  0.00    -0.274 OA
ATOM      5  H   UNL A   1      33.271  30.848  25.120  1.00  0.00     0.163 HD
BRANCH   3   6
ATOM      6  C   UNL A   1      32.291  27.774  26.138  1.00  0.00     0.061 C 
ATOM      7  C   UNL A   1      31.287  27.481  25.009  1.00  0.00     0.023 C 
ATOM      8  C   UNL A   1      31.558  27.938  27.485  1.00  0.00     0.023 C 
BRANCH   6   9
ATOM      9  C   UNL A   1      33.240  26.546  26.294  1.00  0.00     0.129 C 
BRANCH   9  10
ATOM     10  N   UNL A   1      33.098  25.566  25.229  1.00  0.00    -0.381 N 
ATOM     11  H   UNL A   1      32.200  25.468  24.839  1.00  0.00     0.160 HD
BRANCH  10  12
ATOM     12  C   UNL A   1      34.094  24.755  24.703  1.00  0.00     0.077 A 
ATOM     13  C   UNL A   1      33.880  24.151  23.436  1.00  0.00     0.144 A 
ATOM     14  C   UNL A   1      34.860  23.337  22.858  1.00  0.00     0.087 A 
ATOM     15  C   UNL A   1      36.045  23.104  23.542  1.00  0.00     0.127 A 
ATOM     16  C   UNL A   1      35.304  24.492  25.359  1.00  0.00     0.032 A 
ATOM     17  F   UNL A   1      36.983  22.324  22.990  1.00  0.00    -0.207 F 
ATOM     18  C   UNL A   1      36.275  23.668  24.786  1.00  0.00     0.041 A 
BRANCH  13  19
ATOM     19  O   UNL A   1      32.680  24.456  22.829  1.00  0.00    -0.494 OA
ATOM     20  C   UNL A   1      32.752  25.330  21.708  1.00  0.00     0.278 C 
ENDBRANCH  13  19
ENDBRANCH  10  12
ENDBRANCH   9  10
ENDBRANCH   6   9
ENDBRANCH   3   6
ENDBRANCH   1   2
BRANCH   1  21
ATOM     21  C   UNL A   1      31.105  31.905  26.458  1.00  0.00     0.042 C 
BRANCH  21  22
ATOM     22  C   UNL A   1      32.424  32.430  27.018  1.00  0.00     0.118 C 
BRANCH  22  23
ATOM     23  N   UNL A   1      32.316  33.791  27.524  1.00  0.00    -0.352 N 
ATOM     24  C   UNL A   1      33.102  34.479  28.410  1.00  0.00     0.251 C 
ATOM     25  H   UNL A   1      31.552  34.301  27.171  1.00  0.00     0.163 HD
ATOM     26  O   UNL A   1      32.713  35.566  28.839  1.00  0.00    -0.269 OA
BRANCH  24  27
ATOM     27  C   UNL A   1      34.399  33.936  28.875  1.00  0.00     0.039 A 
ATOM     28  C   UNL A   1      34.433  33.241  30.088  1.00  0.00     0.014 A 
ATOM     29  C   UNL A   1      35.585  34.152  28.167  1.00  0.00     0.014 A 
ATOM     30  C   UNL A   1      35.638  32.720  30.561  1.00  0.00     0.010 A 
ATOM     31  C   UNL A   1      36.775  33.569  28.603  1.00  0.00     0.010 A 
ATOM     32  C   UNL A   1      36.815  32.852  29.807  1.00  0.00    -0.014 A 
BRANCH  32  33
ATOM     33  C   UNL A   1      38.088  32.246  30.275  1.00  0.00     0.031 A 
ATOM     34  C   UNL A   1      38.565  30.935  29.715  1.00  0.00     0.074 A 
ATOM     35  C   UNL A   1      38.803  32.867  31.233  1.00  0.00     0.049 A 
ATOM     36  N   UNL A   1      39.642  30.253  30.014  1.00  0.00    -0.248 NA
ATOM     37  C   UNL A   1      37.711  30.293  28.702  1.00  0.00     0.031 C 
ATOM     38  C   UNL A   1      38.425  34.118  31.892  1.00  0.00     0.029 A 
ATOM     39  N   UNL A   1      39.999  32.532  31.816  1.00  0.00    -0.354 N 
ATOM     40  C   UNL A   1      39.589  29.102  29.240  1.00  0.00     0.074 A 
ATOM     41  C   UNL A   1      38.352  29.152  28.491  1.00  0.00     0.031 C 
ATOM     42  C   UNL A   1      39.386  34.465  32.762  1.00  0.00     0.029 A 
ATOM     43  C   UNL A   1      40.434  33.447  32.742  1.00  0.00     0.049 A 
ATOM     44  H   UNL A   1      40.497  31.714  31.592  1.00  0.00     0.167 HD
ATOM     45  C   UNL A   1      40.499  28.104  29.144  1.00  0.00     0.037 A 
ATOM     46  C   UNL A   1      41.555  33.471  33.489  1.00  0.00     0.037 A 
ATOM     47  C   UNL A   1      41.747  28.071  29.860  1.00  0.00     0.049 A 
ATOM     48  C   UNL A   1      42.558  32.363  33.350  1.00  0.00     0.074 A 
ATOM     49  C   UNL A   1      42.762  27.133  29.777  1.00  0.00     0.029 A 
ATOM     50  N   UNL A   1      42.151  29.017  30.788  1.00  0.00    -0.354 N 
ATOM     51  N   UNL A   1      42.518  31.307  32.574  1.00  0.00    -0.248 NA
ATOM     52  C   UNL A   1      43.763  32.450  34.188  1.00  0.00     0.031 C 
ATOM     53  C   UNL A   1      43.767  27.496  30.679  1.00  0.00     0.029 A 
ATOM     54  C   UNL A   1      43.393  28.678  31.297  1.00  0.00     0.049 A 
ATOM     55  H   UNL A   1      41.632  29.813  31.048  1.00  0.00     0.167 HD
ATOM     56  C   UNL A   1      43.693  30.610  32.821  1.00  0.00     0.074 A 
ATOM     57  C   UNL A   1      44.435  31.372  33.804  1.00  0.00     0.031 C 
ATOM     58  C   UNL A   1      44.115  29.441  32.282  1.00  0.00     0.037 A 
BRANCH  45  59
ATOM     59  C   UNL A   1      40.190  26.970  28.214  1.00  0.00     0.057 A 
ATOM     60  C   UNL A   1      39.419  25.882  28.642  1.00  0.00     0.134 A 
ATOM     61  C   UNL A   1      40.706  26.927  26.913  1.00  0.00     0.134 A 
ATOM     62  F   UNL A   1      38.901  25.858  29.878  1.00  0.00    -0.206 F 
ATOM     63  C   UNL A   1      39.176  24.788  27.808  1.00  0.00     0.040 A 
ATOM     64  C   UNL A   1      40.451  25.849  26.062  1.00  0.00     0.040 A 
ATOM     65  F   UNL A   1      41.443  27.942  26.440  1.00  0.00    -0.206 F 
ATOM     66  C   UNL A   1      39.690  24.772  26.513  1.00  0.00     0.006 A 
ENDBRANCH  45  59
BRANCH  46  67
ATOM     67  C   UNL A   1      41.802  34.611  34.404  1.00  0.00     0.057 A 
ATOM     68  C   UNL A   1      42.415  35.789  33.959  1.00  0.00     0.134 A 
ATOM     69  C   UNL A   1      41.450  34.535  35.756  1.00  0.00     0.134 A 
ATOM     70  F   UNL A   1      42.783  35.918  32.676  1.00  0.00    -0.206 F 
ATOM     71  C   UNL A   1      42.683  36.845  34.830  1.00  0.00     0.040 A 
ATOM     72  C   UNL A   1      41.694  35.591  36.634  1.00  0.00     0.040 A 
ATOM     73  F   UNL A   1      40.844  33.439  36.233  1.00  0.00    -0.206 F 
ATOM     74  C   UNL A   1      42.319  36.749  36.173  1.00  0.00     0.006 A 
ENDBRANCH  46  67
BRANCH  58  75
ATOM     75  C   UNL A   1      45.441  28.912  32.742  1.00  0.00     0.057 A 
ATOM     76  C   UNL A   1      45.527  28.063  33.852  1.00  0.00     0.134 A 
ATOM     77  C   UNL A   1      46.635  29.293  32.118  1.00  0.00     0.134 A 
ATOM     78  F   UNL A   1      44.420  27.669  34.497  1.00  0.00    -0.206 F 
ATOM     79  C   UNL A   1      46.760  27.615  34.330  1.00  0.00     0.040 A 
ATOM     80  C   UNL A   1      47.872  28.835  32.576  1.00  0.00     0.040 A 
ATOM     81  F   UNL A   1      46.616  30.096  31.044  1.00  0.00    -0.206 F 
ATOM     82  C   UNL A   1      47.936  28.000  33.689  1.00  0.00     0.006 A 
ENDBRANCH  58  75
ENDBRANCH  32  33
ENDBRANCH  24  27
ENDBRANCH  22  23
ENDBRANCH  21  22
ENDBRANCH   1  21
TORSDOF 14
ENDMDL
