MODEL 1
REMARK VINA RESULT:     -12.8      0.000      0.000
REMARK SMILES Cc1cc(O[C@@H](C)C(=O)NCCC(=O)NCCCNC(=O)c2ccc(-c3c4nc(c(-c5c(F)cccc5F)c5ccc([nH]5)c(-c5c(F)cccc5F)c5nc(c(-c6c(F)cccc6F)c6ccc3[nH]6)C=C5)C=C4)cc2)c2c3c(c(=O)oc2c1)CCCC3
REMARK SMILES IDX 13 1 14 2 15 3 12 5 11 6 10 7 8 8 9 9 6 11 7 12 5 13 4 14
REMARK SMILES IDX 1 15 2 16 3 17 83 18 82 19 76 20 81 21 77 22 79 23 78 24
REMARK SMILES IDX 87 25 80 26 84 27 86 28 85 29 16 30 17 31 18 32 19 33 20 34
REMARK SMILES IDX 21 36 22 37 23 38 75 39 24 40 74 41 25 42 26 43 27 44 68 45
REMARK SMILES IDX 28 46 73 47 67 48 69 49 29 50 72 51 66 52 65 53 30 55 56 56
REMARK SMILES IDX 39 57 55 58 40 59 43 60 54 61 70 62 41 63 42 64 53 66 71 67
REMARK SMILES IDX 44 68 31 69 32 70 37 71 33 72 34 73 36 74 38 75 35 76 57 77
REMARK SMILES IDX 58 78 63 79 59 80 60 81 62 82 64 83 61 84 45 85 46 86 51 87
REMARK SMILES IDX 47 88 48 89 50 90 52 91 49 92
REMARK H PARENT 15 4 10 10 19 35 69 54 43 65
REMARK Flexibility Score: inf
ROOT
ATOM      1  C   UNL A   1      32.151  27.937  27.170  1.00  0.00     0.221 C 
ATOM      2  O   UNL A   1      31.040  27.761  27.668  1.00  0.00    -0.275 OA
ATOM      3  N   UNL A   1      33.035  28.751  27.805  1.00  0.00    -0.356 N 
ATOM      4  H   UNL A   1      32.825  28.971  28.741  1.00  0.00     0.163 HD
ENDROOT
BRANCH   1   5
ATOM      5  C   UNL A   1      32.552  27.260  25.881  1.00  0.00     0.121 C 
BRANCH   5   6
ATOM      6  C   UNL A   1      32.892  25.782  26.047  1.00  0.00     0.126 C 
BRANCH   6   7
ATOM      7  N   UNL A   1      31.841  25.049  26.734  1.00  0.00    -0.352 N 
ATOM      8  C   UNL A   1      31.502  23.742  26.811  1.00  0.00     0.260 C 
ATOM      9  O   UNL A   1      30.340  23.537  27.192  1.00  0.00    -0.271 OA
ATOM     10  H   UNL A   1      31.245  25.632  27.257  1.00  0.00     0.163 HD
BRANCH   8  11
ATOM     11  C   UNL A   1      32.474  22.546  26.620  1.00  0.00     0.258 C 
ATOM     12  C   UNL A   1      33.140  22.181  27.945  1.00  0.00     0.064 C 
BRANCH  11  13
ATOM     13  O   UNL A   1      33.230  22.225  25.470  1.00  0.00    -0.480 OA
BRANCH  13  14
ATOM     14  C   UNL A   1      33.638  20.989  25.090  1.00  0.00     0.132 A 
ATOM     15  C   UNL A   1      32.109  17.657  24.073  1.00  0.00     0.044 C 
ATOM     16  C   UNL A   1      33.140  18.719  24.329  1.00  0.00    -0.044 A 
ATOM     17  C   UNL A   1      32.744  20.040  24.579  1.00  0.00     0.050 A 
ATOM     18  C   UNL A   1      34.481  18.390  24.475  1.00  0.00     0.051 A 
ATOM     19  C   UNL A   1      35.396  19.383  24.834  1.00  0.00     0.142 A 
ATOM     20  C   UNL A   1      35.022  20.696  25.145  1.00  0.00     0.063 A 
ATOM     21  O   UNL A   1      36.733  18.955  24.864  1.00  0.00    -0.422 OA
ATOM     22  C   UNL A   1      36.119  21.652  25.472  1.00  0.00    -0.023 A 
ATOM     23  C   UNL A   1      37.771  19.845  25.041  1.00  0.00     0.339 A 
ATOM     24  C   UNL A   1      37.402  21.239  25.387  1.00  0.00     0.042 A 
ATOM     25  C   UNL A   1      35.805  23.090  25.835  1.00  0.00     0.037 C 
ATOM     26  O   UNL A   1      38.938  19.488  24.937  1.00  0.00    -0.246 OA
ATOM     27  C   UNL A   1      38.590  22.140  25.627  1.00  0.00     0.043 C 
ATOM     28  C   UNL A   1      36.991  24.055  25.761  1.00  0.00     0.005 C 
ATOM     29  C   UNL A   1      38.247  23.440  26.343  1.00  0.00     0.005 C 
ENDBRANCH  13  14
ENDBRANCH  11  13
ENDBRANCH   8  11
ENDBRANCH   6   7
ENDBRANCH   5   6
ENDBRANCH   1   5
BRANCH   3  30
ATOM     30  C   UNL A   1      34.251  29.334  27.272  1.00  0.00     0.117 C 
BRANCH  30  31
ATOM     31  C   UNL A   1      34.274  30.828  27.555  1.00  0.00     0.042 C 
BRANCH  31  32
ATOM     32  C   UNL A   1      35.555  31.283  28.231  1.00  0.00     0.118 C 
BRANCH  32  33
ATOM     33  N   UNL A   1      35.492  31.147  29.675  1.00  0.00    -0.352 N 
ATOM     34  C   UNL A   1      36.283  30.408  30.527  1.00  0.00     0.251 C 
ATOM     35  H   UNL A   1      34.776  31.663  30.111  1.00  0.00     0.163 HD
ATOM     36  O   UNL A   1      35.939  30.228  31.683  1.00  0.00    -0.269 OA
BRANCH  34  37
ATOM     37  C   UNL A   1      37.533  29.800  30.015  1.00  0.00     0.039 A 
ATOM     38  C   UNL A   1      38.329  29.014  30.847  1.00  0.00     0.014 A 
ATOM     39  C   UNL A   1      37.928  30.045  28.699  1.00  0.00     0.014 A 
ATOM     40  C   UNL A   1      39.614  28.680  30.450  1.00  0.00     0.010 A 
ATOM     41  C   UNL A   1      39.168  29.580  28.252  1.00  0.00     0.010 A 
ATOM     42  C   UNL A   1      40.050  28.946  29.143  1.00  0.00    -0.014 A 
BRANCH  42  43
ATOM     43  C   UNL A   1      41.424  28.553  28.735  1.00  0.00     0.031 A 
ATOM     44  C   UNL A   1      41.720  27.149  28.278  1.00  0.00     0.074 A 
ATOM     45  C   UNL A   1      42.403  29.479  28.734  1.00  0.00     0.049 A 
ATOM     46  N   UNL A   1      42.868  26.612  27.946  1.00  0.00    -0.248 NA
ATOM     47  C   UNL A   1      40.582  26.222  28.190  1.00  0.00     0.031 C 
ATOM     48  C   UNL A   1      42.242  30.881  29.129  1.00  0.00     0.029 A 
ATOM     49  N   UNL A   1      43.723  29.388  28.377  1.00  0.00    -0.354 N 
ATOM     50  C   UNL A   1      42.597  25.282  27.650  1.00  0.00     0.074 A 
ATOM     51  C   UNL A   1      41.179  25.085  27.865  1.00  0.00     0.031 C 
ATOM     52  C   UNL A   1      43.398  31.529  28.940  1.00  0.00     0.029 A 
ATOM     53  C   UNL A   1      44.408  30.572  28.506  1.00  0.00     0.049 A 
ATOM     54  H   UNL A   1      44.140  28.555  28.058  1.00  0.00     0.167 HD
ATOM     55  C   UNL A   1      43.449  24.314  27.231  1.00  0.00     0.037 A 
ATOM     56  C   UNL A   1      45.711  30.853  28.335  1.00  0.00     0.037 A 
ATOM     57  C   UNL A   1      44.856  24.521  27.001  1.00  0.00     0.049 A 
ATOM     58  C   UNL A   1      46.646  29.751  27.936  1.00  0.00     0.074 A 
ATOM     59  C   UNL A   1      45.803  23.613  26.561  1.00  0.00     0.029 A 
ATOM     60  N   UNL A   1      45.521  25.723  27.200  1.00  0.00    -0.354 N 
ATOM     61  N   UNL A   1      46.378  28.495  27.669  1.00  0.00    -0.248 NA
ATOM     62  C   UNL A   1      48.068  30.100  27.832  1.00  0.00     0.031 C 
ATOM     63  C   UNL A   1      47.049  24.252  26.543  1.00  0.00     0.029 A 
ATOM     64  C   UNL A   1      46.869  25.574  26.917  1.00  0.00     0.049 A 
ATOM     65  H   UNL A   1      45.096  26.560  27.499  1.00  0.00     0.167 HD
ATOM     66  C   UNL A   1      47.593  27.908  27.348  1.00  0.00     0.074 A 
ATOM     67  C   UNL A   1      48.596  28.952  27.435  1.00  0.00     0.031 C 
ATOM     68  C   UNL A   1      47.855  26.622  27.012  1.00  0.00     0.037 A 
BRANCH  55  69
ATOM     69  C   UNL A   1      42.883  22.933  27.038  1.00  0.00     0.057 A 
ATOM     70  C   UNL A   1      42.621  22.448  25.750  1.00  0.00     0.134 A 
ATOM     71  C   UNL A   1      42.597  22.084  28.115  1.00  0.00     0.134 A 
ATOM     72  F   UNL A   1      42.860  23.209  24.673  1.00  0.00    -0.206 F 
ATOM     73  C   UNL A   1      42.106  21.166  25.540  1.00  0.00     0.040 A 
ATOM     74  C   UNL A   1      42.111  20.789  27.918  1.00  0.00     0.040 A 
ATOM     75  F   UNL A   1      42.834  22.479  29.376  1.00  0.00    -0.206 F 
ATOM     76  C   UNL A   1      41.860  20.330  26.627  1.00  0.00     0.006 A 
ENDBRANCH  55  69
BRANCH  56  77
ATOM     77  C   UNL A   1      46.206  32.231  28.575  1.00  0.00     0.057 A 
ATOM     78  C   UNL A   1      46.178  33.202  27.566  1.00  0.00     0.134 A 
ATOM     79  C   UNL A   1      46.730  32.606  29.817  1.00  0.00     0.134 A 
ATOM     80  F   UNL A   1      45.696  32.903  26.350  1.00  0.00    -0.206 F 
ATOM     81  C   UNL A   1      46.668  34.491  27.777  1.00  0.00     0.040 A 
ATOM     82  C   UNL A   1      47.196  33.901  30.050  1.00  0.00     0.040 A 
ATOM     83  F   UNL A   1      46.768  31.726  30.827  1.00  0.00    -0.206 F 
ATOM     84  C   UNL A   1      47.173  34.845  29.025  1.00  0.00     0.006 A 
ENDBRANCH  56  77
BRANCH  68  85
ATOM     85  C   UNL A   1      49.279  26.285  26.679  1.00  0.00     0.057 A 
ATOM     86  C   UNL A   1      49.760  26.445  25.372  1.00  0.00     0.134 A 
ATOM     87  C   UNL A   1      50.169  25.791  27.641  1.00  0.00     0.134 A 
ATOM     88  F   UNL A   1      48.958  26.908  24.403  1.00  0.00    -0.206 F 
ATOM     89  C   UNL A   1      51.075  26.123  25.035  1.00  0.00     0.040 A 
ATOM     90  C   UNL A   1      51.495  25.493  27.322  1.00  0.00     0.040 A 
ATOM     91  F   UNL A   1      49.775  25.632  28.913  1.00  0.00    -0.206 F 
ATOM     92  C   UNL A   1      51.949  25.653  26.013  1.00  0.00     0.006 A 
ENDBRANCH  68  85
ENDBRANCH  42  43
ENDBRANCH  34  37
ENDBRANCH  32  33
ENDBRANCH  31  32
ENDBRANCH  30  31
ENDBRANCH   3  30
TORSDOF 15
ENDMDL
MODEL 2
REMARK VINA RESULT:     -12.7      0.396      6.029
REMARK SMILES Cc1cc(O[C@@H](C)C(=O)NCCC(=O)NCCCNC(=O)c2ccc(-c3c4nc(c(-c5c(F)cccc5F)c5ccc([nH]5)c(-c5c(F)cccc5F)c5nc(c(-c6c(F)cccc6F)c6ccc3[nH]6)C=C5)C=C4)cc2)c2c3c(c(=O)oc2c1)CCCC3
REMARK SMILES IDX 13 1 14 2 15 3 12 5 11 6 10 7 8 8 9 9 6 11 7 12 5 13 4 14
REMARK SMILES IDX 1 15 2 16 3 17 83 18 82 19 76 20 81 21 77 22 79 23 78 24
REMARK SMILES IDX 87 25 80 26 84 27 86 28 85 29 16 30 17 31 18 32 19 33 20 34
REMARK SMILES IDX 21 36 22 37 23 38 75 39 24 40 74 41 25 42 26 43 27 44 68 45
REMARK SMILES IDX 28 46 73 47 67 48 69 49 29 50 72 51 66 52 65 53 30 55 56 56
REMARK SMILES IDX 39 57 55 58 40 59 43 60 54 61 70 62 41 63 42 64 53 66 71 67
REMARK SMILES IDX 44 68 31 69 32 70 37 71 33 72 34 73 36 74 38 75 35 76 57 77
REMARK SMILES IDX 58 78 63 79 59 80 60 81 62 82 64 83 61 84 45 85 46 86 51 87
REMARK SMILES IDX 47 88 48 89 50 90 52 91 49 92
REMARK H PARENT 15 4 10 10 19 35 69 54 43 65
REMARK Flexibility Score: inf
ROOT
ATOM      1  C   UNL A   1      32.115  27.881  27.168  1.00  0.00     0.221 C 
ATOM      2  O   UNL A   1      31.032  27.670  27.712  1.00  0.00    -0.275 OA
ATOM      3  N   UNL A   1      33.023  28.675  27.795  1.00  0.00    -0.356 N 
ATOM      4  H   UNL A   1      32.858  28.849  28.749  1.00  0.00     0.163 HD
ENDROOT
BRANCH   1   5
ATOM      5  C   UNL A   1      32.456  27.268  25.831  1.00  0.00     0.121 C 
BRANCH   5   6
ATOM      6  C   UNL A   1      32.781  25.780  25.906  1.00  0.00     0.126 C 
BRANCH   6   7
ATOM      7  N   UNL A   1      31.795  25.038  26.674  1.00  0.00    -0.352 N 
ATOM      8  C   UNL A   1      31.526  23.723  26.839  1.00  0.00     0.260 C 
ATOM      9  O   UNL A   1      30.391  23.485  27.276  1.00  0.00    -0.271 OA
ATOM     10  H   UNL A   1      31.189  25.621  27.186  1.00  0.00     0.163 HD
BRANCH   8  11
ATOM     11  C   UNL A   1      32.550  22.566  26.678  1.00  0.00     0.258 C 
ATOM     12  C   UNL A   1      33.203  22.240  28.020  1.00  0.00     0.064 C 
BRANCH  11  13
ATOM     13  O   UNL A   1      33.343  22.268  25.547  1.00  0.00    -0.480 OA
BRANCH  13  14
ATOM     14  C   UNL A   1      33.737  21.036  25.138  1.00  0.00     0.132 A 
ATOM     15  C   UNL A   1      32.169  17.748  24.043  1.00  0.00     0.044 C 
ATOM     16  C   UNL A   1      33.212  18.790  24.324  1.00  0.00    -0.044 A 
ATOM     17  C   UNL A   1      32.832  20.110  24.605  1.00  0.00     0.050 A 
ATOM     18  C   UNL A   1      34.549  18.443  24.463  1.00  0.00     0.051 A 
ATOM     19  C   UNL A   1      35.475  19.416  24.846  1.00  0.00     0.142 A 
ATOM     20  C   UNL A   1      35.117  20.725  25.188  1.00  0.00     0.063 A 
ATOM     21  O   UNL A   1      36.807  18.971  24.866  1.00  0.00    -0.422 OA
ATOM     22  C   UNL A   1      36.225  21.660  25.537  1.00  0.00    -0.023 A 
ATOM     23  C   UNL A   1      37.855  19.844  25.065  1.00  0.00     0.339 A 
ATOM     24  C   UNL A   1      37.503  21.234  25.443  1.00  0.00     0.042 A 
ATOM     25  C   UNL A   1      35.928  23.093  25.934  1.00  0.00     0.037 C 
ATOM     26  O   UNL A   1      39.019  19.475  24.953  1.00  0.00    -0.246 OA
ATOM     27  C   UNL A   1      38.702  22.115  25.705  1.00  0.00     0.043 C 
ATOM     28  C   UNL A   1      37.125  24.045  25.883  1.00  0.00     0.005 C 
ATOM     29  C   UNL A   1      38.374  23.402  26.452  1.00  0.00     0.005 C 
ENDBRANCH  13  14
ENDBRANCH  11  13
ENDBRANCH   8  11
ENDBRANCH   6   7
ENDBRANCH   5   6
ENDBRANCH   1   5
BRANCH   3  30
ATOM     30  C   UNL A   1      34.205  29.295  27.229  1.00  0.00     0.117 C 
BRANCH  30  31
ATOM     31  C   UNL A   1      34.148  30.801  27.436  1.00  0.00     0.042 C 
BRANCH  31  32
ATOM     32  C   UNL A   1      35.397  31.355  28.096  1.00  0.00     0.118 C 
BRANCH  32  33
ATOM     33  N   UNL A   1      35.302  31.352  29.545  1.00  0.00    -0.352 N 
ATOM     34  C   UNL A   1      36.076  30.698  30.478  1.00  0.00     0.251 C 
ATOM     35  H   UNL A   1      34.573  31.900  29.916  1.00  0.00     0.163 HD
ATOM     36  O   UNL A   1      35.707  30.622  31.638  1.00  0.00    -0.269 OA
BRANCH  34  37
ATOM     37  C   UNL A   1      37.341  30.056  30.051  1.00  0.00     0.039 A 
ATOM     38  C   UNL A   1      38.122  29.356  30.969  1.00  0.00     0.014 A 
ATOM     39  C   UNL A   1      37.763  30.181  28.727  1.00  0.00     0.014 A 
ATOM     40  C   UNL A   1      39.418  28.996  30.633  1.00  0.00     0.010 A 
ATOM     41  C   UNL A   1      39.016  29.686  28.352  1.00  0.00     0.010 A 
ATOM     42  C   UNL A   1      39.881  29.143  29.317  1.00  0.00    -0.014 A 
BRANCH  42  43
ATOM     43  C   UNL A   1      41.266  28.725  28.976  1.00  0.00     0.031 A 
ATOM     44  C   UNL A   1      42.415  29.693  29.096  1.00  0.00     0.074 A 
ATOM     45  C   UNL A   1      41.498  27.452  28.598  1.00  0.00     0.049 A 
ATOM     46  N   UNL A   1      43.675  29.523  28.782  1.00  0.00    -0.248 NA
ATOM     47  C   UNL A   1      42.108  31.029  29.627  1.00  0.00     0.031 C 
ATOM     48  C   UNL A   1      40.477  26.409  28.468  1.00  0.00     0.029 A 
ATOM     49  N   UNL A   1      42.665  26.814  28.268  1.00  0.00    -0.354 N 
ATOM     50  C   UNL A   1      44.300  30.737  29.041  1.00  0.00     0.074 A 
ATOM     51  C   UNL A   1      43.276  31.643  29.514  1.00  0.00     0.031 C 
ATOM     52  C   UNL A   1      41.067  25.252  28.142  1.00  0.00     0.029 A 
ATOM     53  C   UNL A   1      42.491  25.490  27.943  1.00  0.00     0.049 A 
ATOM     54  H   UNL A   1      43.543  27.260  28.265  1.00  0.00     0.167 HD
ATOM     55  C   UNL A   1      45.608  31.064  28.902  1.00  0.00     0.037 A 
ATOM     56  C   UNL A   1      43.369  24.576  27.495  1.00  0.00     0.037 A 
ATOM     57  C   UNL A   1      46.626  30.151  28.449  1.00  0.00     0.049 A 
ATOM     58  C   UNL A   1      44.798  24.981  27.286  1.00  0.00     0.074 A 
ATOM     59  C   UNL A   1      47.983  30.377  28.290  1.00  0.00     0.029 A 
ATOM     60  N   UNL A   1      46.397  28.835  28.074  1.00  0.00    -0.354 N 
ATOM     61  N   UNL A   1      45.373  26.135  27.525  1.00  0.00    -0.248 NA
ATOM     62  C   UNL A   1      45.695  23.962  26.729  1.00  0.00     0.031 C 
ATOM     63  C   UNL A   1      48.563  29.214  27.771  1.00  0.00     0.029 A 
ATOM     64  C   UNL A   1      47.581  28.244  27.660  1.00  0.00     0.049 A 
ATOM     65  H   UNL A   1      45.521  28.385  28.099  1.00  0.00     0.167 HD
ATOM     66  C   UNL A   1      46.703  25.977  27.166  1.00  0.00     0.074 A 
ATOM     67  C   UNL A   1      46.852  24.608  26.710  1.00  0.00     0.031 C 
ATOM     68  C   UNL A   1      47.711  26.881  27.207  1.00  0.00     0.037 A 
BRANCH  55  69
ATOM     69  C   UNL A   1      45.999  32.485  29.208  1.00  0.00     0.057 A 
ATOM     70  C   UNL A   1      46.387  32.851  30.503  1.00  0.00     0.134 A 
ATOM     71  C   UNL A   1      45.994  33.488  28.230  1.00  0.00     0.134 A 
ATOM     72  F   UNL A   1      46.406  31.946  31.491  1.00  0.00    -0.206 F 
ATOM     73  C   UNL A   1      46.765  34.160  30.812  1.00  0.00     0.040 A 
ATOM     74  C   UNL A   1      46.399  34.794  28.519  1.00  0.00     0.040 A 
ATOM     75  F   UNL A   1      45.644  33.206  26.965  1.00  0.00    -0.206 F 
ATOM     76  C   UNL A   1      46.783  35.133  29.815  1.00  0.00     0.006 A 
ENDBRANCH  55  69
BRANCH  56  77
ATOM     77  C   UNL A   1      42.907  23.201  27.182  1.00  0.00     0.057 A 
ATOM     78  C   UNL A   1      42.674  22.792  25.863  1.00  0.00     0.134 A 
ATOM     79  C   UNL A   1      42.676  22.267  28.198  1.00  0.00     0.134 A 
ATOM     80  F   UNL A   1      42.868  23.644  24.845  1.00  0.00    -0.206 F 
ATOM     81  C   UNL A   1      42.212  21.510  25.565  1.00  0.00     0.040 A 
ATOM     82  C   UNL A   1      42.243  20.971  27.911  1.00  0.00     0.040 A 
ATOM     83  F   UNL A   1      42.897  22.593  29.479  1.00  0.00    -0.206 F 
ATOM     84  C   UNL A   1      42.002  20.593  26.592  1.00  0.00     0.006 A 
ENDBRANCH  56  77
BRANCH  68  85
ATOM     85  C   UNL A   1      49.068  26.405  26.782  1.00  0.00     0.057 A 
ATOM     86  C   UNL A   1      49.947  25.838  27.715  1.00  0.00     0.134 A 
ATOM     87  C   UNL A   1      49.514  26.518  25.459  1.00  0.00     0.134 A 
ATOM     88  F   UNL A   1      49.584  25.705  28.999  1.00  0.00    -0.206 F 
ATOM     89  C   UNL A   1      51.220  25.402  27.347  1.00  0.00     0.040 A 
ATOM     90  C   UNL A   1      50.774  26.059  25.073  1.00  0.00     0.040 A 
ATOM     91  F   UNL A   1      48.714  27.035  24.514  1.00  0.00    -0.206 F 
ATOM     92  C   UNL A   1      51.634  25.505  26.021  1.00  0.00     0.006 A 
ENDBRANCH  68  85
ENDBRANCH  42  43
ENDBRANCH  34  37
ENDBRANCH  32  33
ENDBRANCH  31  32
ENDBRANCH  30  31
ENDBRANCH   3  30
TORSDOF 15
ENDMDL
MODEL 3
REMARK VINA RESULT:     -12.7      5.339     10.740
REMARK SMILES Cc1cc(O[C@@H](C)C(=O)NCCC(=O)NCCCNC(=O)c2ccc(-c3c4nc(c(-c5c(F)cccc5F)c5ccc([nH]5)c(-c5c(F)cccc5F)c5nc(c(-c6c(F)cccc6F)c6ccc3[nH]6)C=C5)C=C4)cc2)c2c3c(c(=O)oc2c1)CCCC3
REMARK SMILES IDX 13 1 14 2 15 3 12 5 11 6 10 7 8 8 9 9 6 11 7 12 5 13 4 14
REMARK SMILES IDX 1 15 2 16 3 17 83 18 82 19 76 20 81 21 77 22 79 23 78 24
REMARK SMILES IDX 87 25 80 26 84 27 86 28 85 29 16 30 17 31 18 32 19 33 20 34
REMARK SMILES IDX 21 36 22 37 23 38 75 39 24 40 74 41 25 42 26 43 27 44 68 45
REMARK SMILES IDX 28 46 73 47 67 48 69 49 29 50 72 51 66 52 65 53 30 55 56 56
REMARK SMILES IDX 39 57 55 58 40 59 43 60 54 61 70 62 41 63 42 64 53 66 71 67
REMARK SMILES IDX 44 68 31 69 32 70 37 71 33 72 34 73 36 74 38 75 35 76 57 77
REMARK SMILES IDX 58 78 63 79 59 80 60 81 62 82 64 83 61 84 45 85 46 86 51 87
REMARK SMILES IDX 47 88 48 89 50 90 52 91 49 92
REMARK H PARENT 15 4 10 10 19 35 69 54 43 65
REMARK Flexibility Score: inf
ROOT
ATOM      1  C   UNL A   1      33.901  22.493  24.469  1.00  0.00     0.221 C 
ATOM      2  O   UNL A   1      33.409  21.629  23.743  1.00  0.00    -0.275 OA
ATOM      3  N   UNL A   1      35.227  22.431  24.760  1.00  0.00    -0.356 N 
ATOM      4  H   UNL A   1      35.767  21.835  24.192  1.00  0.00     0.163 HD
ENDROOT
BRANCH   1   5
ATOM      5  C   UNL A   1      33.066  23.619  25.028  1.00  0.00     0.121 C 
BRANCH   5   6
ATOM      6  C   UNL A   1      32.122  24.245  24.006  1.00  0.00     0.126 C 
BRANCH   6   7
ATOM      7  N   UNL A   1      32.802  24.598  22.771  1.00  0.00    -0.352 N 
ATOM      8  C   UNL A   1      32.862  25.719  22.017  1.00  0.00     0.260 C 
ATOM      9  O   UNL A   1      33.245  25.532  20.853  1.00  0.00    -0.271 OA
ATOM     10  H   UNL A   1      33.336  23.858  22.402  1.00  0.00     0.163 HD
BRANCH   8  11
ATOM     11  C   UNL A   1      32.649  27.167  22.537  1.00  0.00     0.258 C 
ATOM     12  C   UNL A   1      33.879  28.026  22.247  1.00  0.00     0.064 C 
BRANCH  11  13
ATOM     13  O   UNL A   1      31.892  27.578  23.658  1.00  0.00    -0.480 OA
BRANCH  13  14
ATOM     14  C   UNL A   1      31.007  28.604  23.702  1.00  0.00     0.132 A 
ATOM     15  C   UNL A   1      27.903  29.788  21.849  1.00  0.00     0.044 C 
ATOM     16  C   UNL A   1      28.988  29.716  22.883  1.00  0.00    -0.044 A 
ATOM     17  C   UNL A   1      29.825  28.594  22.951  1.00  0.00     0.050 A 
ATOM     18  C   UNL A   1      29.283  30.811  23.684  1.00  0.00     0.051 A 
ATOM     19  C   UNL A   1      30.378  30.753  24.550  1.00  0.00     0.142 A 
ATOM     20  C   UNL A   1      31.264  29.670  24.598  1.00  0.00     0.063 A 
ATOM     21  O   UNL A   1      30.525  31.881  25.374  1.00  0.00    -0.422 OA
ATOM     22  C   UNL A   1      32.362  29.739  25.604  1.00  0.00    -0.023 A 
ATOM     23  C   UNL A   1      31.455  31.914  26.392  1.00  0.00     0.339 A 
ATOM     24  C   UNL A   1      32.414  30.786  26.455  1.00  0.00     0.042 A 
ATOM     25  C   UNL A   1      33.375  28.616  25.715  1.00  0.00     0.037 C 
ATOM     26  O   UNL A   1      31.492  32.845  27.188  1.00  0.00    -0.246 OA
ATOM     27  C   UNL A   1      33.440  30.921  27.556  1.00  0.00     0.043 C 
ATOM     28  C   UNL A   1      34.193  28.602  27.009  1.00  0.00     0.005 C 
ATOM     29  C   UNL A   1      34.640  29.996  27.401  1.00  0.00     0.005 C 
ENDBRANCH  13  14
ENDBRANCH  11  13
ENDBRANCH   8  11
ENDBRANCH   6   7
ENDBRANCH   5   6
ENDBRANCH   1   5
BRANCH   3  30
ATOM     30  C   UNL A   1      35.944  23.135  25.805  1.00  0.00     0.117 C 
BRANCH  30  31
ATOM     31  C   UNL A   1      37.439  22.895  25.659  1.00  0.00     0.042 C 
BRANCH  31  32
ATOM     32  C   UNL A   1      38.274  24.089  26.084  1.00  0.00     0.118 C 
BRANCH  32  33
ATOM     33  N   UNL A   1      39.696  23.793  26.083  1.00  0.00    -0.352 N 
ATOM     34  C   UNL A   1      40.744  24.500  26.630  1.00  0.00     0.251 C 
ATOM     35  H   UNL A   1      39.948  22.961  25.622  1.00  0.00     0.163 HD
ATOM     36  O   UNL A   1      41.893  24.224  26.330  1.00  0.00    -0.269 OA
BRANCH  34  37
ATOM     37  C   UNL A   1      40.460  25.623  27.554  1.00  0.00     0.039 A 
ATOM     38  C   UNL A   1      41.214  26.794  27.494  1.00  0.00     0.014 A 
ATOM     39  C   UNL A   1      39.451  25.490  28.509  1.00  0.00     0.014 A 
ATOM     40  C   UNL A   1      41.127  27.718  28.524  1.00  0.00     0.010 A 
ATOM     41  C   UNL A   1      39.266  26.494  29.463  1.00  0.00     0.010 A 
ATOM     42  C   UNL A   1      40.144  27.590  29.517  1.00  0.00    -0.014 A 
BRANCH  42  43
ATOM     43  C   UNL A   1      40.055  28.610  30.595  1.00  0.00     0.031 A 
ATOM     44  C   UNL A   1      39.039  29.720  30.524  1.00  0.00     0.074 A 
ATOM     45  C   UNL A   1      40.865  28.510  31.667  1.00  0.00     0.049 A 
ATOM     46  N   UNL A   1      38.860  30.730  31.338  1.00  0.00    -0.248 NA
ATOM     47  C   UNL A   1      38.109  29.700  29.385  1.00  0.00     0.031 C 
ATOM     48  C   UNL A   1      41.874  27.467  31.871  1.00  0.00     0.029 A 
ATOM     49  N   UNL A   1      40.960  29.284  32.795  1.00  0.00    -0.354 N 
ATOM     50  C   UNL A   1      37.828  31.483  30.792  1.00  0.00     0.074 A 
ATOM     51  C   UNL A   1      37.436  30.827  29.562  1.00  0.00     0.031 C 
ATOM     52  C   UNL A   1      42.444  27.632  33.071  1.00  0.00     0.029 A 
ATOM     53  C   UNL A   1      41.916  28.846  33.679  1.00  0.00     0.049 A 
ATOM     54  H   UNL A   1      40.398  30.076  32.955  1.00  0.00     0.167 HD
ATOM     55  C   UNL A   1      37.255  32.614  31.273  1.00  0.00     0.037 A 
ATOM     56  C   UNL A   1      42.351  29.381  34.833  1.00  0.00     0.037 A 
ATOM     57  C   UNL A   1      37.638  33.251  32.507  1.00  0.00     0.049 A 
ATOM     58  C   UNL A   1      41.747  30.669  35.311  1.00  0.00     0.074 A 
ATOM     59  C   UNL A   1      37.110  34.389  33.092  1.00  0.00     0.029 A 
ATOM     60  N   UNL A   1      38.651  32.807  33.344  1.00  0.00    -0.354 N 
ATOM     61  N   UNL A   1      40.779  31.375  34.779  1.00  0.00    -0.248 NA
ATOM     62  C   UNL A   1      42.310  31.242  36.540  1.00  0.00     0.031 C 
ATOM     63  C   UNL A   1      37.838  34.661  34.256  1.00  0.00     0.029 A 
ATOM     64  C   UNL A   1      38.781  33.662  34.428  1.00  0.00     0.049 A 
ATOM     65  H   UNL A   1      39.198  32.002  33.192  1.00  0.00     0.167 HD
ATOM     66  C   UNL A   1      40.602  32.467  35.617  1.00  0.00     0.074 A 
ATOM     67  C   UNL A   1      41.552  32.317  36.702  1.00  0.00     0.031 C 
ATOM     68  C   UNL A   1      39.734  33.500  35.498  1.00  0.00     0.037 A 
BRANCH  55  69
ATOM     69  C   UNL A   1      36.182  33.253  30.434  1.00  0.00     0.057 A 
ATOM     70  C   UNL A   1      36.519  33.999  29.298  1.00  0.00     0.134 A 
ATOM     71  C   UNL A   1      34.820  33.135  30.745  1.00  0.00     0.134 A 
ATOM     72  F   UNL A   1      37.802  34.164  28.946  1.00  0.00    -0.206 F 
ATOM     73  C   UNL A   1      35.543  34.595  28.495  1.00  0.00     0.040 A 
ATOM     74  C   UNL A   1      33.833  33.700  29.934  1.00  0.00     0.040 A 
ATOM     75  F   UNL A   1      34.424  32.425  31.813  1.00  0.00    -0.206 F 
ATOM     76  C   UNL A   1      34.194  34.436  28.807  1.00  0.00     0.006 A 
ENDBRANCH  55  69
BRANCH  56  77
ATOM     77  C   UNL A   1      43.437  28.713  35.593  1.00  0.00     0.057 A 
ATOM     78  C   UNL A   1      44.779  29.065  35.407  1.00  0.00     0.134 A 
ATOM     79  C   UNL A   1      43.157  27.699  36.515  1.00  0.00     0.134 A 
ATOM     80  F   UNL A   1      45.114  30.025  34.531  1.00  0.00    -0.206 F 
ATOM     81  C   UNL A   1      45.807  28.421  36.097  1.00  0.00     0.040 A 
ATOM     82  C   UNL A   1      44.173  27.067  37.234  1.00  0.00     0.040 A 
ATOM     83  F   UNL A   1      41.890  27.330  36.749  1.00  0.00    -0.206 F 
ATOM     84  C   UNL A   1      45.503  27.423  37.019  1.00  0.00     0.006 A 
ENDBRANCH  56  77
BRANCH  68  85
ATOM     85  C   UNL A   1      39.750  34.527  36.591  1.00  0.00     0.057 A 
ATOM     86  C   UNL A   1      40.543  35.677  36.475  1.00  0.00     0.134 A 
ATOM     87  C   UNL A   1      38.995  34.377  37.762  1.00  0.00     0.134 A 
ATOM     88  F   UNL A   1      41.293  35.879  35.383  1.00  0.00    -0.206 F 
ATOM     89  C   UNL A   1      40.586  36.638  37.485  1.00  0.00     0.040 A 
ATOM     90  C   UNL A   1      39.008  35.346  38.767  1.00  0.00     0.040 A 
ATOM     91  F   UNL A   1      38.202  33.308  37.927  1.00  0.00    -0.206 F 
ATOM     92  C   UNL A   1      39.811  36.478  38.631  1.00  0.00     0.006 A 
ENDBRANCH  68  85
ENDBRANCH  42  43
ENDBRANCH  34  37
ENDBRANCH  32  33
ENDBRANCH  31  32
ENDBRANCH  30  31
ENDBRANCH   3  30
TORSDOF 15
ENDMDL
