MODEL 1
REMARK VINA RESULT:     -11.9      0.000      0.000
REMARK SMILES COc1ccc2cc([C@H](C)C(=O)NCCCNC(=O)c3ccc(-c4c5nc(c(-c6c(F)cccc6F)c6ccc([nH]6)c(-c6c(F)cccc6F)c6nc(c(-c7c(F)cccc7F)c7ccc4[nH]7)C=C6)C=C5)cc3)ccc2c1
REMARK SMILES IDX 15 1 14 2 13 3 11 4 12 5 9 7 10 8 8 9 3 10 4 11 77 12 5 13
REMARK SMILES IDX 76 14 6 15 75 16 7 17 74 18 2 19 1 20 16 21 17 22 18 23
REMARK SMILES IDX 19 25 20 26 21 27 73 28 22 29 72 30 23 31 24 32 25 33 66 34
REMARK SMILES IDX 26 35 71 36 65 37 67 38 27 39 70 40 64 41 63 42 28 44 54 45
REMARK SMILES IDX 37 46 53 47 38 48 41 49 52 50 68 51 39 52 40 53 51 55 69 56
REMARK SMILES IDX 42 57 29 58 30 59 35 60 31 61 32 62 34 63 36 64 33 65 55 66
REMARK SMILES IDX 56 67 61 68 57 69 58 70 60 71 62 72 59 73 43 74 44 75 49 76
REMARK SMILES IDX 45 77 46 78 48 79 50 80 47 81
REMARK H PARENT 13 6 17 24 67 43 41 54
REMARK Flexibility Score: inf
ROOT
ATOM      1  C   UNL A   1      31.462  28.861  26.256  1.00  0.00     0.042 C 
ENDROOT
BRANCH   1   2
ATOM      2  C   UNL A   1      32.097  27.520  26.554  1.00  0.00     0.117 C 
BRANCH   2   3
ATOM      3  N   UNL A   1      31.120  26.491  26.877  1.00  0.00    -0.356 N 
ATOM      4  C   UNL A   1      30.717  25.421  26.121  1.00  0.00     0.227 C 
ATOM      5  O   UNL A   1      29.903  24.636  26.611  1.00  0.00    -0.274 OA
ATOM      6  H   UNL A   1      30.689  26.574  27.759  1.00  0.00     0.163 HD
BRANCH   4   7
ATOM      7  C   UNL A   1      31.270  25.218  24.693  1.00  0.00     0.105 C 
ATOM      8  C   UNL A   1      31.100  23.730  24.344  1.00  0.00     0.023 C 
BRANCH   7   9
ATOM      9  C   UNL A   1      30.689  26.283  23.757  1.00  0.00    -0.035 A 
ATOM     10  C   UNL A   1      28.225  30.468  22.303  1.00  0.00     0.119 A 
ATOM     11  C   UNL A   1      27.280  29.662  22.933  1.00  0.00     0.047 A 
ATOM     12  C   UNL A   1      29.513  29.974  22.084  1.00  0.00     0.055 A 
ATOM     13  C   UNL A   1      27.633  28.382  23.374  1.00  0.00     0.012 A 
ATOM     14  C   UNL A   1      29.887  28.703  22.542  1.00  0.00    -0.015 A 
ATOM     15  C   UNL A   1      28.940  27.899  23.209  1.00  0.00    -0.018 A 
ATOM     16  C   UNL A   1      31.196  28.232  22.387  1.00  0.00     0.009 A 
ATOM     17  C   UNL A   1      29.339  26.669  23.762  1.00  0.00     0.013 A 
ATOM     18  C   UNL A   1      31.590  27.036  22.983  1.00  0.00     0.005 A 
BRANCH  10  19
ATOM     19  O   UNL A   1      28.004  31.733  21.833  1.00  0.00    -0.497 OA
ATOM     20  C   UNL A   1      28.712  32.777  22.491  1.00  0.00     0.278 C 
ENDBRANCH  10  19
ENDBRANCH   7   9
ENDBRANCH   4   7
ENDBRANCH   2   3
ENDBRANCH   1   2
BRANCH   1  21
ATOM     21  C   UNL A   1      32.455  29.904  25.791  1.00  0.00     0.118 C 
BRANCH  21  22
ATOM     22  N   UNL A   1      32.080  31.255  26.188  1.00  0.00    -0.352 N 
ATOM     23  C   UNL A   1      32.683  32.102  27.086  1.00  0.00     0.251 C 
ATOM     24  H   UNL A   1      31.276  31.614  25.748  1.00  0.00     0.163 HD
ATOM     25  O   UNL A   1      32.124  33.144  27.423  1.00  0.00    -0.269 OA
BRANCH  23  26
ATOM     26  C   UNL A   1      33.990  31.742  27.674  1.00  0.00     0.039 A 
ATOM     27  C   UNL A   1      34.912  32.754  27.952  1.00  0.00     0.014 A 
ATOM     28  C   UNL A   1      34.299  30.414  27.972  1.00  0.00     0.014 A 
ATOM     29  C   UNL A   1      36.106  32.439  28.602  1.00  0.00     0.010 A 
ATOM     30  C   UNL A   1      35.432  30.118  28.720  1.00  0.00     0.010 A 
ATOM     31  C   UNL A   1      36.354  31.126  29.034  1.00  0.00    -0.014 A 
BRANCH  31  32
ATOM     32  C   UNL A   1      37.581  30.776  29.795  1.00  0.00     0.031 A 
ATOM     33  C   UNL A   1      38.642  29.924  29.153  1.00  0.00     0.074 A 
ATOM     34  C   UNL A   1      37.711  31.173  31.076  1.00  0.00     0.049 A 
ATOM     35  N   UNL A   1      39.743  29.444  29.674  1.00  0.00    -0.248 NA
ATOM     36  C   UNL A   1      38.425  29.535  27.750  1.00  0.00     0.031 C 
ATOM     37  C   UNL A   1      36.733  31.966  31.824  1.00  0.00     0.029 A 
ATOM     38  N   UNL A   1      38.721  30.957  31.980  1.00  0.00    -0.354 N 
ATOM     39  C   UNL A   1      40.340  28.694  28.667  1.00  0.00     0.074 A 
ATOM     40  C   UNL A   1      39.449  28.724  27.529  1.00  0.00     0.031 C 
ATOM     41  C   UNL A   1      37.205  32.195  33.060  1.00  0.00     0.029 A 
ATOM     42  C   UNL A   1      38.494  31.529  33.209  1.00  0.00     0.049 A 
ATOM     43  H   UNL A   1      39.532  30.441  31.768  1.00  0.00     0.167 HD
ATOM     44  C   UNL A   1      41.539  28.065  28.677  1.00  0.00     0.037 A 
ATOM     45  C   UNL A   1      39.239  31.509  34.330  1.00  0.00     0.037 A 
ATOM     46  C   UNL A   1      42.434  28.055  29.802  1.00  0.00     0.049 A 
ATOM     47  C   UNL A   1      40.553  30.774  34.322  1.00  0.00     0.074 A 
ATOM     48  C   UNL A   1      43.687  27.475  29.901  1.00  0.00     0.029 A 
ATOM     49  N   UNL A   1      42.171  28.654  31.025  1.00  0.00    -0.354 N 
ATOM     50  N   UNL A   1      41.131  30.119  33.344  1.00  0.00    -0.248 NA
ATOM     51  C   UNL A   1      41.321  30.780  35.576  1.00  0.00     0.031 C 
ATOM     52  C   UNL A   1      44.164  27.685  31.198  1.00  0.00     0.029 A 
ATOM     53  C   UNL A   1      43.232  28.444  31.889  1.00  0.00     0.049 A 
ATOM     54  H   UNL A   1      41.353  29.154  31.245  1.00  0.00     0.167 HD
ATOM     55  C   UNL A   1      42.344  29.673  33.851  1.00  0.00     0.074 A 
ATOM     56  C   UNL A   1      42.426  30.141  35.218  1.00  0.00     0.031 C 
ATOM     57  C   UNL A   1      43.307  28.939  33.240  1.00  0.00     0.037 A 
BRANCH  44  58
ATOM     58  C   UNL A   1      41.958  27.352  27.425  1.00  0.00     0.057 A 
ATOM     59  C   UNL A   1      42.632  28.015  26.390  1.00  0.00     0.134 A 
ATOM     60  C   UNL A   1      41.731  25.979  27.269  1.00  0.00     0.134 A 
ATOM     61  F   UNL A   1      42.869  29.334  26.469  1.00  0.00    -0.206 F 
ATOM     62  C   UNL A   1      43.043  27.345  25.237  1.00  0.00     0.040 A 
ATOM     63  C   UNL A   1      42.164  25.291  26.134  1.00  0.00     0.040 A 
ATOM     64  F   UNL A   1      41.097  25.281  28.223  1.00  0.00    -0.206 F 
ATOM     65  C   UNL A   1      42.818  25.976  25.112  1.00  0.00     0.006 A 
ENDBRANCH  44  58
BRANCH  45  66
ATOM     66  C   UNL A   1      38.782  32.217  35.554  1.00  0.00     0.057 A 
ATOM     67  C   UNL A   1      39.044  33.580  35.740  1.00  0.00     0.134 A 
ATOM     68  C   UNL A   1      38.112  31.546  36.585  1.00  0.00     0.134 A 
ATOM     69  F   UNL A   1      39.696  34.277  34.798  1.00  0.00    -0.206 F 
ATOM     70  C   UNL A   1      38.691  34.241  36.918  1.00  0.00     0.040 A 
ATOM     71  C   UNL A   1      37.727  32.201  37.756  1.00  0.00     0.040 A 
ATOM     72  F   UNL A   1      37.821  30.242  36.466  1.00  0.00    -0.206 F 
ATOM     73  C   UNL A   1      38.028  33.551  37.929  1.00  0.00     0.006 A 
ENDBRANCH  45  66
BRANCH  57  74
ATOM     74  C   UNL A   1      44.555  28.651  34.022  1.00  0.00     0.057 A 
ATOM     75  C   UNL A   1      45.651  29.522  34.023  1.00  0.00     0.134 A 
ATOM     76  C   UNL A   1      44.641  27.501  34.819  1.00  0.00     0.134 A 
ATOM     77  F   UNL A   1      45.638  30.634  33.271  1.00  0.00    -0.206 F 
ATOM     78  C   UNL A   1      46.801  29.246  34.766  1.00  0.00     0.040 A 
ATOM     79  C   UNL A   1      45.772  27.231  35.590  1.00  0.00     0.040 A 
ATOM     80  F   UNL A   1      43.622  26.631  34.872  1.00  0.00    -0.206 F 
ATOM     81  C   UNL A   1      46.859  28.101  35.558  1.00  0.00     0.006 A 
ENDBRANCH  57  74
ENDBRANCH  31  32
ENDBRANCH  23  26
ENDBRANCH  21  22
ENDBRANCH   1  21
TORSDOF 12
ENDMDL
MODEL 2
REMARK VINA RESULT:     -11.9      0.828      6.307
REMARK SMILES COc1ccc2cc([C@H](C)C(=O)NCCCNC(=O)c3ccc(-c4c5nc(c(-c6c(F)cccc6F)c6ccc([nH]6)c(-c6c(F)cccc6F)c6nc(c(-c7c(F)cccc7F)c7ccc4[nH]7)C=C6)C=C5)cc3)ccc2c1
REMARK SMILES IDX 15 1 14 2 13 3 11 4 12 5 9 7 10 8 8 9 3 10 4 11 77 12 5 13
REMARK SMILES IDX 76 14 6 15 75 16 7 17 74 18 2 19 1 20 16 21 17 22 18 23
REMARK SMILES IDX 19 25 20 26 21 27 73 28 22 29 72 30 23 31 24 32 25 33 66 34
REMARK SMILES IDX 26 35 71 36 65 37 67 38 27 39 70 40 64 41 63 42 28 44 54 45
REMARK SMILES IDX 37 46 53 47 38 48 41 49 52 50 68 51 39 52 40 53 51 55 69 56
REMARK SMILES IDX 42 57 29 58 30 59 35 60 31 61 32 62 34 63 36 64 33 65 55 66
REMARK SMILES IDX 56 67 61 68 57 69 58 70 60 71 62 72 59 73 43 74 44 75 49 76
REMARK SMILES IDX 45 77 46 78 48 79 50 80 47 81
REMARK H PARENT 13 6 17 24 67 43 41 54
REMARK Flexibility Score: inf
ROOT
ATOM      1  C   UNL A   1      31.719  28.891  26.322  1.00  0.00     0.042 C 
ENDROOT
BRANCH   1   2
ATOM      2  C   UNL A   1      32.162  27.484  26.662  1.00  0.00     0.117 C 
BRANCH   2   3
ATOM      3  N   UNL A   1      31.046  26.589  26.931  1.00  0.00    -0.356 N 
ATOM      4  C   UNL A   1      30.543  25.584  26.147  1.00  0.00     0.227 C 
ATOM      5  O   UNL A   1      29.612  24.909  26.592  1.00  0.00    -0.274 OA
ATOM      6  H   UNL A   1      30.590  26.725  27.793  1.00  0.00     0.163 HD
BRANCH   4   7
ATOM      7  C   UNL A   1      31.129  25.317  24.743  1.00  0.00     0.105 C 
ATOM      8  C   UNL A   1      30.858  23.840  24.408  1.00  0.00     0.023 C 
BRANCH   7   9
ATOM      9  C   UNL A   1      30.665  26.407  23.772  1.00  0.00    -0.035 A 
ATOM     10  C   UNL A   1      28.521  30.710  22.166  1.00  0.00     0.119 A 
ATOM     11  C   UNL A   1      27.496  29.957  22.733  1.00  0.00     0.047 A 
ATOM     12  C   UNL A   1      29.792  30.150  22.029  1.00  0.00     0.055 A 
ATOM     13  C   UNL A   1      27.754  28.661  23.195  1.00  0.00     0.012 A 
ATOM     14  C   UNL A   1      30.070  28.862  22.510  1.00  0.00    -0.015 A 
ATOM     15  C   UNL A   1      29.041  28.110  23.115  1.00  0.00    -0.018 A 
ATOM     16  C   UNL A   1      31.360  28.323  22.439  1.00  0.00     0.009 A 
ATOM     17  C   UNL A   1      29.340  26.863  23.691  1.00  0.00     0.013 A 
ATOM     18  C   UNL A   1      31.653  27.110  23.058  1.00  0.00     0.005 A 
BRANCH  10  19
ATOM     19  O   UNL A   1      28.396  31.984  21.683  1.00  0.00    -0.497 OA
ATOM     20  C   UNL A   1      27.881  32.103  20.362  1.00  0.00     0.278 C 
ENDBRANCH  10  19
ENDBRANCH   7   9
ENDBRANCH   4   7
ENDBRANCH   2   3
ENDBRANCH   1   2
BRANCH   1  21
ATOM     21  C   UNL A   1      32.866  29.806  25.949  1.00  0.00     0.118 C 
BRANCH  21  22
ATOM     22  N   UNL A   1      32.644  31.185  26.366  1.00  0.00    -0.352 N 
ATOM     23  C   UNL A   1      33.347  31.952  27.263  1.00  0.00     0.251 C 
ATOM     24  H   UNL A   1      31.877  31.633  25.942  1.00  0.00     0.163 HD
ATOM     25  O   UNL A   1      32.908  33.043  27.619  1.00  0.00    -0.269 OA
BRANCH  23  26
ATOM     26  C   UNL A   1      34.616  31.447  27.827  1.00  0.00     0.039 A 
ATOM     27  C   UNL A   1      35.688  32.329  27.986  1.00  0.00     0.014 A 
ATOM     28  C   UNL A   1      34.744  30.113  28.220  1.00  0.00     0.014 A 
ATOM     29  C   UNL A   1      36.855  31.889  28.612  1.00  0.00     0.010 A 
ATOM     30  C   UNL A   1      35.858  29.709  28.945  1.00  0.00     0.010 A 
ATOM     31  C   UNL A   1      36.932  30.590  29.139  1.00  0.00    -0.014 A 
BRANCH  31  32
ATOM     32  C   UNL A   1      38.132  30.120  29.878  1.00  0.00     0.031 A 
ATOM     33  C   UNL A   1      38.393  30.617  31.274  1.00  0.00     0.074 A 
ATOM     34  C   UNL A   1      39.012  29.298  29.274  1.00  0.00     0.049 A 
ATOM     35  N   UNL A   1      39.420  30.390  32.053  1.00  0.00    -0.248 NA
ATOM     36  C   UNL A   1      37.381  31.509  31.863  1.00  0.00     0.031 C 
ATOM     37  C   UNL A   1      38.893  28.781  27.908  1.00  0.00     0.029 A 
ATOM     38  N   UNL A   1      40.188  28.757  29.730  1.00  0.00    -0.354 N 
ATOM     39  C   UNL A   1      39.180  31.115  33.214  1.00  0.00     0.074 A 
ATOM     40  C   UNL A   1      37.948  31.843  33.013  1.00  0.00     0.031 C 
ATOM     41  C   UNL A   1      39.936  27.974  27.651  1.00  0.00     0.029 A 
ATOM     42  C   UNL A   1      40.819  27.952  28.811  1.00  0.00     0.049 A 
ATOM     43  H   UNL A   1      40.545  28.928  30.631  1.00  0.00     0.167 HD
ATOM     44  C   UNL A   1      39.903  31.146  34.358  1.00  0.00     0.037 A 
ATOM     45  C   UNL A   1      41.984  27.281  28.895  1.00  0.00     0.037 A 
ATOM     46  C   UNL A   1      41.117  30.404  34.565  1.00  0.00     0.049 A 
ATOM     47  C   UNL A   1      42.783  27.361  30.168  1.00  0.00     0.074 A 
ATOM     48  C   UNL A   1      41.905  30.341  35.700  1.00  0.00     0.029 A 
ATOM     49  N   UNL A   1      41.718  29.593  33.613  1.00  0.00    -0.354 N 
ATOM     50  N   UNL A   1      42.513  28.004  31.278  1.00  0.00    -0.248 NA
ATOM     51  C   UNL A   1      44.049  26.614  30.201  1.00  0.00     0.031 C 
ATOM     52  C   UNL A   1      43.008  29.527  35.421  1.00  0.00     0.029 A 
ATOM     53  C   UNL A   1      42.876  29.039  34.131  1.00  0.00     0.049 A 
ATOM     54  H   UNL A   1      41.373  29.437  32.705  1.00  0.00     0.167 HD
ATOM     55  C   UNL A   1      43.551  27.707  32.152  1.00  0.00     0.074 A 
ATOM     56  C   UNL A   1      44.449  26.816  31.448  1.00  0.00     0.031 C 
ATOM     57  C   UNL A   1      43.745  28.134  33.424  1.00  0.00     0.037 A 
BRANCH  44  58
ATOM     58  C   UNL A   1      39.388  31.998  35.482  1.00  0.00     0.057 A 
ATOM     59  C   UNL A   1      39.763  33.342  35.619  1.00  0.00     0.134 A 
ATOM     60  C   UNL A   1      38.473  31.487  36.410  1.00  0.00     0.134 A 
ATOM     61  F   UNL A   1      40.647  33.890  34.771  1.00  0.00    -0.206 F 
ATOM     62  C   UNL A   1      39.264  34.139  36.650  1.00  0.00     0.040 A 
ATOM     63  C   UNL A   1      37.944  32.282  37.428  1.00  0.00     0.040 A 
ATOM     64  F   UNL A   1      38.067  30.210  36.335  1.00  0.00    -0.206 F 
ATOM     65  C   UNL A   1      38.343  33.611  37.552  1.00  0.00     0.006 A 
ENDBRANCH  44  58
BRANCH  45  66
ATOM     66  C   UNL A   1      42.466  26.460  27.755  1.00  0.00     0.057 A 
ATOM     67  C   UNL A   1      43.230  27.028  26.728  1.00  0.00     0.134 A 
ATOM     68  C   UNL A   1      42.142  25.102  27.639  1.00  0.00     0.134 A 
ATOM     69  F   UNL A   1      43.559  28.328  26.771  1.00  0.00    -0.206 F 
ATOM     70  C   UNL A   1      43.622  26.288  25.611  1.00  0.00     0.040 A 
ATOM     71  C   UNL A   1      42.554  24.343  26.541  1.00  0.00     0.040 A 
ATOM     72  F   UNL A   1      41.421  24.494  28.592  1.00  0.00    -0.206 F 
ATOM     73  C   UNL A   1      43.286  24.941  25.517  1.00  0.00     0.006 A 
ENDBRANCH  45  66
BRANCH  57  74
ATOM     74  C   UNL A   1      44.939  27.596  34.157  1.00  0.00     0.057 A 
ATOM     75  C   UNL A   1      46.171  28.262  34.165  1.00  0.00     0.134 A 
ATOM     76  C   UNL A   1      44.840  26.410  34.899  1.00  0.00     0.134 A 
ATOM     77  F   UNL A   1      46.336  29.394  33.464  1.00  0.00    -0.206 F 
ATOM     78  C   UNL A   1      47.269  27.755  34.862  1.00  0.00     0.040 A 
ATOM     79  C   UNL A   1      45.921  25.911  35.624  1.00  0.00     0.040 A 
ATOM     80  F   UNL A   1      43.685  25.728  34.942  1.00  0.00    -0.206 F 
ATOM     81  C   UNL A   1      47.142  26.580  35.601  1.00  0.00     0.006 A 
ENDBRANCH  57  74
ENDBRANCH  31  32
ENDBRANCH  23  26
ENDBRANCH  21  22
ENDBRANCH   1  21
TORSDOF 12
ENDMDL
MODEL 3
REMARK VINA RESULT:     -11.9      4.496      7.835
REMARK SMILES COc1ccc2cc([C@H](C)C(=O)NCCCNC(=O)c3ccc(-c4c5nc(c(-c6c(F)cccc6F)c6ccc([nH]6)c(-c6c(F)cccc6F)c6nc(c(-c7c(F)cccc7F)c7ccc4[nH]7)C=C6)C=C5)cc3)ccc2c1
REMARK SMILES IDX 15 1 14 2 13 3 11 4 12 5 9 7 10 8 8 9 3 10 4 11 77 12 5 13
REMARK SMILES IDX 76 14 6 15 75 16 7 17 74 18 2 19 1 20 16 21 17 22 18 23
REMARK SMILES IDX 19 25 20 26 21 27 73 28 22 29 72 30 23 31 24 32 25 33 66 34
REMARK SMILES IDX 26 35 71 36 65 37 67 38 27 39 70 40 64 41 63 42 28 44 54 45
REMARK SMILES IDX 37 46 53 47 38 48 41 49 52 50 68 51 39 52 40 53 51 55 69 56
REMARK SMILES IDX 42 57 29 58 30 59 35 60 31 61 32 62 34 63 36 64 33 65 55 66
REMARK SMILES IDX 56 67 61 68 57 69 58 70 60 71 62 72 59 73 43 74 44 75 49 76
REMARK SMILES IDX 45 77 46 78 48 79 50 80 47 81
REMARK H PARENT 13 6 17 24 67 43 41 54
REMARK Flexibility Score: inf
ROOT
ATOM      1  C   UNL A   1      37.944  19.690  24.995  1.00  0.00     0.042 C 
ENDROOT
BRANCH   1   2
ATOM      2  C   UNL A   1      36.796  20.676  24.964  1.00  0.00     0.117 C 
BRANCH   2   3
ATOM      3  N   UNL A   1      37.186  22.011  25.392  1.00  0.00    -0.356 N 
ATOM      4  C   UNL A   1      36.389  23.053  25.789  1.00  0.00     0.227 C 
ATOM      5  O   UNL A   1      36.934  24.094  26.161  1.00  0.00    -0.274 OA
ATOM      6  H   UNL A   1      38.154  22.191  25.396  1.00  0.00     0.163 HD
BRANCH   4   7
ATOM      7  C   UNL A   1      34.850  22.917  25.761  1.00  0.00     0.105 C 
ATOM      8  C   UNL A   1      34.408  22.450  27.158  1.00  0.00     0.023 C 
BRANCH   7   9
ATOM      9  C   UNL A   1      34.229  24.181  25.158  1.00  0.00    -0.035 A 
ATOM     10  C   UNL A   1      31.181  27.055  22.304  1.00  0.00     0.119 A 
ATOM     11  C   UNL A   1      31.933  26.291  21.416  1.00  0.00     0.047 A 
ATOM     12  C   UNL A   1      31.466  27.002  23.670  1.00  0.00     0.055 A 
ATOM     13  C   UNL A   1      32.942  25.449  21.898  1.00  0.00     0.012 A 
ATOM     14  C   UNL A   1      32.458  26.145  24.168  1.00  0.00    -0.015 A 
ATOM     15  C   UNL A   1      33.198  25.345  23.273  1.00  0.00    -0.018 A 
ATOM     16  C   UNL A   1      32.699  26.036  25.543  1.00  0.00     0.009 A 
ATOM     17  C   UNL A   1      34.119  24.409  23.777  1.00  0.00     0.013 A 
ATOM     18  C   UNL A   1      33.577  25.070  26.031  1.00  0.00     0.005 A 
BRANCH  10  19
ATOM     19  O   UNL A   1      30.170  27.909  21.958  1.00  0.00    -0.497 OA
ATOM     20  C   UNL A   1      29.558  28.619  23.028  1.00  0.00     0.278 C 
ENDBRANCH  10  19
ENDBRANCH   7   9
ENDBRANCH   4   7
ENDBRANCH   2   3
ENDBRANCH   1   2
BRANCH   1  21
ATOM     21  C   UNL A   1      39.111  20.156  25.839  1.00  0.00     0.118 C 
BRANCH  21  22
ATOM     22  N   UNL A   1      40.217  19.207  25.842  1.00  0.00    -0.352 N 
ATOM     23  C   UNL A   1      41.551  19.419  26.094  1.00  0.00     0.251 C 
ATOM     24  H   UNL A   1      39.973  18.277  25.633  1.00  0.00     0.163 HD
ATOM     25  O   UNL A   1      42.369  18.527  25.880  1.00  0.00    -0.269 OA
BRANCH  23  26
ATOM     26  C   UNL A   1      42.007  20.735  26.589  1.00  0.00     0.039 A 
ATOM     27  C   UNL A   1      42.422  21.700  25.669  1.00  0.00     0.014 A 
ATOM     28  C   UNL A   1      42.003  21.026  27.955  1.00  0.00     0.014 A 
ATOM     29  C   UNL A   1      42.756  22.980  26.116  1.00  0.00     0.010 A 
ATOM     30  C   UNL A   1      42.223  22.328  28.385  1.00  0.00     0.010 A 
ATOM     31  C   UNL A   1      42.613  23.318  27.471  1.00  0.00    -0.014 A 
BRANCH  31  32
ATOM     32  C   UNL A   1      42.887  24.692  27.963  1.00  0.00     0.031 A 
ATOM     33  C   UNL A   1      44.294  25.097  28.311  1.00  0.00     0.074 A 
ATOM     34  C   UNL A   1      41.867  25.553  28.152  1.00  0.00     0.049 A 
ATOM     35  N   UNL A   1      44.728  26.217  28.829  1.00  0.00    -0.248 NA
ATOM     36  C   UNL A   1      45.351  24.099  28.072  1.00  0.00     0.031 C 
ATOM     37  C   UNL A   1      40.454  25.266  27.893  1.00  0.00     0.029 A 
ATOM     38  N   UNL A   1      41.862  26.845  28.614  1.00  0.00    -0.354 N 
ATOM     39  C   UNL A   1      46.099  26.055  28.984  1.00  0.00     0.074 A 
ATOM     40  C   UNL A   1      46.417  24.707  28.571  1.00  0.00     0.031 C 
ATOM     41  C   UNL A   1      39.725  26.360  28.170  1.00  0.00     0.029 A 
ATOM     42  C   UNL A   1      40.609  27.408  28.669  1.00  0.00     0.049 A 
ATOM     43  H   UNL A   1      42.679  27.324  28.881  1.00  0.00     0.167 HD
ATOM     44  C   UNL A   1      47.018  26.958  29.400  1.00  0.00     0.037 A 
ATOM     45  C   UNL A   1      40.219  28.628  29.083  1.00  0.00     0.037 A 
ATOM     46  C   UNL A   1      46.703  28.306  29.790  1.00  0.00     0.049 A 
ATOM     47  C   UNL A   1      41.259  29.601  29.572  1.00  0.00     0.074 A 
ATOM     48  C   UNL A   1      47.566  29.310  30.194  1.00  0.00     0.029 A 
ATOM     49  N   UNL A   1      45.423  28.840  29.822  1.00  0.00    -0.354 N 
ATOM     50  N   UNL A   1      42.559  29.452  29.657  1.00  0.00    -0.248 NA
ATOM     51  C   UNL A   1      40.775  30.915  30.019  1.00  0.00     0.031 C 
ATOM     52  C   UNL A   1      46.804  30.438  30.514  1.00  0.00     0.029 A 
ATOM     53  C   UNL A   1      45.472  30.154  30.254  1.00  0.00     0.049 A 
ATOM     54  H   UNL A   1      44.603  28.356  29.574  1.00  0.00     0.167 HD
ATOM     55  C   UNL A   1      43.050  30.664  30.126  1.00  0.00     0.074 A 
ATOM     56  C   UNL A   1      41.911  31.541  30.295  1.00  0.00     0.031 C 
ATOM     57  C   UNL A   1      44.330  31.020  30.393  1.00  0.00     0.037 A 
BRANCH  44  58
ATOM     58  C   UNL A   1      48.453  26.522  29.438  1.00  0.00     0.057 A 
ATOM     59  C   UNL A   1      49.319  26.745  28.358  1.00  0.00     0.134 A 
ATOM     60  C   UNL A   1      48.991  25.915  30.579  1.00  0.00     0.134 A 
ATOM     61  F   UNL A   1      48.865  27.309  27.229  1.00  0.00    -0.206 F 
ATOM     62  C   UNL A   1      50.660  26.360  28.404  1.00  0.00     0.040 A 
ATOM     63  C   UNL A   1      50.337  25.553  30.649  1.00  0.00     0.040 A 
ATOM     64  F   UNL A   1      48.219  25.676  31.651  1.00  0.00    -0.206 F 
ATOM     65  C   UNL A   1      51.174  25.771  29.557  1.00  0.00     0.006 A 
ENDBRANCH  44  58
BRANCH  45  66
ATOM     66  C   UNL A   1      38.785  29.017  29.043  1.00  0.00     0.057 A 
ATOM     67  C   UNL A   1      38.214  29.550  27.881  1.00  0.00     0.134 A 
ATOM     68  C   UNL A   1      37.962  28.908  30.171  1.00  0.00     0.134 A 
ATOM     69  F   UNL A   1      38.954  29.697  26.771  1.00  0.00    -0.206 F 
ATOM     70  C   UNL A   1      36.891  29.994  27.851  1.00  0.00     0.040 A 
ATOM     71  C   UNL A   1      36.629  29.320  30.146  1.00  0.00     0.040 A 
ATOM     72  F   UNL A   1      38.444  28.396  31.314  1.00  0.00    -0.206 F 
ATOM     73  C   UNL A   1      36.094  29.877  28.986  1.00  0.00     0.006 A 
ENDBRANCH  45  66
BRANCH  57  74
ATOM     74  C   UNL A   1      44.574  32.433  30.837  1.00  0.00     0.057 A 
ATOM     75  C   UNL A   1      44.782  33.475  29.924  1.00  0.00     0.134 A 
ATOM     76  C   UNL A   1      44.560  32.760  32.200  1.00  0.00     0.134 A 
ATOM     77  F   UNL A   1      44.820  33.227  28.606  1.00  0.00    -0.206 F 
ATOM     78  C   UNL A   1      44.995  34.787  30.352  1.00  0.00     0.040 A 
ATOM     79  C   UNL A   1      44.740  34.072  32.637  1.00  0.00     0.040 A 
ATOM     80  F   UNL A   1      44.355  31.811  33.126  1.00  0.00    -0.206 F 
ATOM     81  C   UNL A   1      44.966  35.088  31.712  1.00  0.00     0.006 A 
ENDBRANCH  57  74
ENDBRANCH  31  32
ENDBRANCH  23  26
ENDBRANCH  21  22
ENDBRANCH   1  21
TORSDOF 12
ENDMDL
