MODEL 1
REMARK VINA RESULT:     -11.0      0.000      0.000
REMARK SMILES O=C(C[C@H]1CN(c2nc(C3CC3)ns2)CCO1)NCCCNC(=O)c1ccc(-c2c3nc(c(-c4c(F)cccc4F)c4ccc([nH]4)c(-c4c(F)cccc4F)c4nc(c(-c5c(F)cccc5F)c5ccc2[nH]5)C=C4)C=C3)cc1
REMARK SMILES IDX 19 1 18 2 1 3 2 4 3 6 4 7 5 8 17 9 6 10 16 11 15 12 7 13
REMARK SMILES IDX 8 14 14 15 9 16 13 17 10 18 11 19 12 20 20 21 21 22 22 23
REMARK SMILES IDX 23 24 24 26 25 27 26 28 78 29 27 30 77 31 28 32 29 33 30 34
REMARK SMILES IDX 71 35 31 36 76 37 70 38 72 39 32 40 75 41 69 42 68 43 33 45
REMARK SMILES IDX 59 46 42 47 58 48 43 49 46 50 57 51 73 52 44 53 45 54 56 56
REMARK SMILES IDX 74 57 47 58 34 59 35 60 40 61 36 62 37 63 39 64 41 65 38 66
REMARK SMILES IDX 60 67 61 68 66 69 62 70 63 71 65 72 67 73 64 74 48 75 49 76
REMARK SMILES IDX 54 77 50 78 51 79 53 80 55 81 52 82
REMARK H PARENT 18 5 22 25 72 44 46 55
REMARK Flexibility Score: inf
ROOT
ATOM      1  C   UNL A   1      31.382  30.685  26.552  1.00  0.00     0.117 C 
ENDROOT
BRANCH   1   2
ATOM      2  N   UNL A   1      32.042  30.089  25.412  1.00  0.00    -0.356 N 
ATOM      3  O   UNL A   1      33.778  29.205  26.604  1.00  0.00    -0.275 OA
ATOM      4  C   UNL A   1      33.159  29.303  25.546  1.00  0.00     0.222 C 
ATOM      5  H   UNL A   1      31.679  30.251  24.512  1.00  0.00     0.163 HD
BRANCH   4   6
ATOM      6  C   UNL A   1      33.638  28.609  24.288  1.00  0.00     0.133 C 
BRANCH   6   7
ATOM      7  C   UNL A   1      33.513  27.077  24.189  1.00  0.00     0.147 C 
ATOM      8  C   UNL A   1      32.077  26.575  24.466  1.00  0.00     0.151 C 
ATOM      9  O   UNL A   1      34.063  26.483  22.993  1.00  0.00    -0.374 OA
ATOM     10  N   UNL A   1      31.245  26.651  23.268  1.00  0.00    -0.342 N 
ATOM     11  C   UNL A   1      33.213  26.644  21.841  1.00  0.00     0.182 C 
ATOM     12  C   UNL A   1      31.815  26.056  22.065  1.00  0.00     0.147 C 
BRANCH  10  13
ATOM     13  C   UNL A   1      30.135  27.429  23.243  1.00  0.00     0.205 A 
ATOM     14  N   UNL A   1      30.127  28.719  22.987  1.00  0.00    -0.203 NA
ATOM     15  S   UNL A   1      28.535  26.867  23.611  1.00  0.00     0.004 S 
ATOM     16  C   UNL A   1      28.825  29.196  23.083  1.00  0.00     0.147 A 
ATOM     17  N   UNL A   1      27.847  28.375  23.465  1.00  0.00    -0.174 NA
BRANCH  16  18
ATOM     18  C   UNL A   1      28.491  30.648  22.743  1.00  0.00     0.059 C 
ATOM     19  C   UNL A   1      27.459  31.389  23.566  1.00  0.00     0.012 C 
ATOM     20  C   UNL A   1      28.903  31.723  23.729  1.00  0.00     0.012 C 
ENDBRANCH  16  18
ENDBRANCH  10  13
ENDBRANCH   6   7
ENDBRANCH   4   6
ENDBRANCH   1   2
BRANCH   1  21
ATOM     21  C   UNL A   1      31.358  32.206  26.509  1.00  0.00     0.042 C 
BRANCH  21  22
ATOM     22  C   UNL A   1      32.681  32.870  26.873  1.00  0.00     0.118 C 
BRANCH  22  23
ATOM     23  N   UNL A   1      32.520  34.090  27.651  1.00  0.00    -0.352 N 
ATOM     24  C   UNL A   1      33.198  34.549  28.751  1.00  0.00     0.251 C 
ATOM     25  H   UNL A   1      31.804  34.686  27.334  1.00  0.00     0.163 HD
ATOM     26  O   UNL A   1      32.797  35.569  29.316  1.00  0.00    -0.269 OA
BRANCH  24  27
ATOM     27  C   UNL A   1      34.384  33.842  29.285  1.00  0.00     0.039 A 
ATOM     28  C   UNL A   1      35.653  34.300  28.912  1.00  0.00     0.014 A 
ATOM     29  C   UNL A   1      34.271  32.707  30.091  1.00  0.00     0.014 A 
ATOM     30  C   UNL A   1      36.799  33.652  29.380  1.00  0.00     0.010 A 
ATOM     31  C   UNL A   1      35.415  32.106  30.620  1.00  0.00     0.010 A 
ATOM     32  C   UNL A   1      36.690  32.561  30.257  1.00  0.00    -0.014 A 
BRANCH  32  33
ATOM     33  C   UNL A   1      37.905  31.875  30.769  1.00  0.00     0.031 A 
ATOM     34  C   UNL A   1      38.472  32.236  32.116  1.00  0.00     0.074 A 
ATOM     35  C   UNL A   1      38.517  30.945  30.011  1.00  0.00     0.049 A 
ATOM     36  N   UNL A   1      39.524  31.751  32.727  1.00  0.00    -0.248 NA
ATOM     37  C   UNL A   1      37.784  33.301  32.862  1.00  0.00     0.031 C 
ATOM     38  C   UNL A   1      38.103  30.541  28.667  1.00  0.00     0.029 A 
ATOM     39  N   UNL A   1      39.622  30.171  30.266  1.00  0.00    -0.354 N 
ATOM     40  C   UNL A   1      39.630  32.459  33.918  1.00  0.00     0.074 A 
ATOM     41  C   UNL A   1      38.569  33.443  33.919  1.00  0.00     0.031 C 
ATOM     42  C   UNL A   1      38.925  29.573  28.228  1.00  0.00     0.029 A 
ATOM     43  C   UNL A   1      39.934  29.305  29.246  1.00  0.00     0.049 A 
ATOM     44  H   UNL A   1      40.140  30.231  31.100  1.00  0.00     0.167 HD
ATOM     45  C   UNL A   1      40.514  32.291  34.931  1.00  0.00     0.037 A 
ATOM     46  C   UNL A   1      40.917  28.391  29.149  1.00  0.00     0.037 A 
ATOM     47  C   UNL A   1      41.550  31.293  34.947  1.00  0.00     0.049 A 
ATOM     48  C   UNL A   1      41.861  28.196  30.303  1.00  0.00     0.074 A 
ATOM     49  C   UNL A   1      42.464  31.012  35.948  1.00  0.00     0.029 A 
ATOM     50  N   UNL A   1      41.807  30.407  33.912  1.00  0.00    -0.354 N 
ATOM     51  N   UNL A   1      41.908  28.828  31.450  1.00  0.00    -0.248 NA
ATOM     52  C   UNL A   1      42.878  27.145  30.153  1.00  0.00     0.031 C 
ATOM     53  C   UNL A   1      43.293  29.973  35.507  1.00  0.00     0.029 A 
ATOM     54  C   UNL A   1      42.868  29.582  34.248  1.00  0.00     0.049 A 
ATOM     55  H   UNL A   1      41.309  30.369  33.064  1.00  0.00     0.167 HD
ATOM     56  C   UNL A   1      42.934  28.232  32.171  1.00  0.00     0.074 A 
ATOM     57  C   UNL A   1      43.476  27.180  31.336  1.00  0.00     0.031 C 
ATOM     58  C   UNL A   1      43.386  28.528  33.414  1.00  0.00     0.037 A 
BRANCH  45  59
ATOM     59  C   UNL A   1      40.386  33.206  36.114  1.00  0.00     0.057 A 
ATOM     60  C   UNL A   1      41.142  34.380  36.223  1.00  0.00     0.134 A 
ATOM     61  C   UNL A   1      39.480  32.923  37.144  1.00  0.00     0.134 A 
ATOM     62  F   UNL A   1      42.038  34.702  35.277  1.00  0.00    -0.206 F 
ATOM     63  C   UNL A   1      41.024  35.225  37.327  1.00  0.00     0.040 A 
ATOM     64  C   UNL A   1      39.333  33.775  38.241  1.00  0.00     0.040 A 
ATOM     65  F   UNL A   1      38.720  31.818  37.100  1.00  0.00    -0.206 F 
ATOM     66  C   UNL A   1      40.112  34.926  38.338  1.00  0.00     0.006 A 
ENDBRANCH  45  59
BRANCH  46  67
ATOM     67  C   UNL A   1      41.030  27.549  27.932  1.00  0.00     0.057 A 
ATOM     68  C   UNL A   1      40.352  26.328  27.837  1.00  0.00     0.134 A 
ATOM     69  C   UNL A   1      41.820  27.937  26.846  1.00  0.00     0.134 A 
ATOM     70  F   UNL A   1      39.594  25.895  28.855  1.00  0.00    -0.206 F 
ATOM     71  C   UNL A   1      40.474  25.511  26.713  1.00  0.00     0.040 A 
ATOM     72  C   UNL A   1      41.933  27.140  25.705  1.00  0.00     0.040 A 
ATOM     73  F   UNL A   1      42.487  29.100  26.874  1.00  0.00    -0.206 F 
ATOM     74  C   UNL A   1      41.264  25.919  25.640  1.00  0.00     0.006 A 
ENDBRANCH  46  67
BRANCH  58  75
ATOM     75  C   UNL A   1      44.487  27.670  33.963  1.00  0.00     0.057 A 
ATOM     76  C   UNL A   1      44.227  26.475  34.644  1.00  0.00     0.134 A 
ATOM     77  C   UNL A   1      45.827  28.039  33.789  1.00  0.00     0.134 A 
ATOM     78  F   UNL A   1      42.965  26.072  34.853  1.00  0.00    -0.206 F 
ATOM     79  C   UNL A   1      45.262  25.691  35.161  1.00  0.00     0.040 A 
ATOM     80  C   UNL A   1      46.869  27.252  34.280  1.00  0.00     0.040 A 
ATOM     81  F   UNL A   1      46.145  29.169  33.139  1.00  0.00    -0.206 F 
ATOM     82  C   UNL A   1      46.588  26.079  34.975  1.00  0.00     0.006 A 
ENDBRANCH  58  75
ENDBRANCH  32  33
ENDBRANCH  24  27
ENDBRANCH  22  23
ENDBRANCH  21  22
ENDBRANCH   1  21
TORSDOF 13
ENDMDL
MODEL 2
REMARK VINA RESULT:     -10.9      5.084      9.785
REMARK SMILES O=C(C[C@H]1CN(c2nc(C3CC3)ns2)CCO1)NCCCNC(=O)c1ccc(-c2c3nc(c(-c4c(F)cccc4F)c4ccc([nH]4)c(-c4c(F)cccc4F)c4nc(c(-c5c(F)cccc5F)c5ccc2[nH]5)C=C4)C=C3)cc1
REMARK SMILES IDX 19 1 18 2 1 3 2 4 3 6 4 7 5 8 17 9 6 10 16 11 15 12 7 13
REMARK SMILES IDX 8 14 14 15 9 16 13 17 10 18 11 19 12 20 20 21 21 22 22 23
REMARK SMILES IDX 23 24 24 26 25 27 26 28 78 29 27 30 77 31 28 32 29 33 30 34
REMARK SMILES IDX 71 35 31 36 76 37 70 38 72 39 32 40 75 41 69 42 68 43 33 45
REMARK SMILES IDX 59 46 42 47 58 48 43 49 46 50 57 51 73 52 44 53 45 54 56 56
REMARK SMILES IDX 74 57 47 58 34 59 35 60 40 61 36 62 37 63 39 64 41 65 38 66
REMARK SMILES IDX 60 67 61 68 66 69 62 70 63 71 65 72 67 73 64 74 48 75 49 76
REMARK SMILES IDX 54 77 50 78 51 79 53 80 55 81 52 82
REMARK H PARENT 18 5 22 25 72 44 46 55
REMARK Flexibility Score: inf
ROOT
ATOM      1  C   UNL A   1      36.940  20.516  24.407  1.00  0.00     0.117 C 
ENDROOT
BRANCH   1   2
ATOM      2  N   UNL A   1      35.963  21.006  25.354  1.00  0.00    -0.356 N 
ATOM      3  O   UNL A   1      36.936  23.054  25.630  1.00  0.00    -0.275 OA
ATOM      4  C   UNL A   1      35.989  22.294  25.827  1.00  0.00     0.222 C 
ATOM      5  H   UNL A   1      35.256  20.398  25.668  1.00  0.00     0.163 HD
BRANCH   4   6
ATOM      6  C   UNL A   1      34.808  22.714  26.676  1.00  0.00     0.133 C 
BRANCH   6   7
ATOM      7  C   UNL A   1      33.814  23.747  26.110  1.00  0.00     0.147 C 
ATOM      8  C   UNL A   1      33.335  23.396  24.683  1.00  0.00     0.151 C 
ATOM      9  O   UNL A   1      32.708  24.086  26.974  1.00  0.00    -0.374 OA
ATOM     10  N   UNL A   1      32.225  22.446  24.711  1.00  0.00    -0.342 N 
ATOM     11  C   UNL A   1      31.678  23.079  26.993  1.00  0.00     0.182 C 
ATOM     12  C   UNL A   1      31.120  22.795  25.594  1.00  0.00     0.147 C 
BRANCH  10  13
ATOM     13  C   UNL A   1      32.344  21.226  24.134  1.00  0.00     0.205 A 
ATOM     14  N   UNL A   1      32.827  20.156  24.727  1.00  0.00    -0.203 NA
ATOM     15  S   UNL A   1      31.936  20.878  22.482  1.00  0.00     0.004 S 
ATOM     16  C   UNL A   1      32.832  19.096  23.828  1.00  0.00     0.147 A 
ATOM     17  N   UNL A   1      32.453  19.299  22.566  1.00  0.00    -0.174 NA
BRANCH  16  18
ATOM     18  C   UNL A   1      33.252  17.694  24.267  1.00  0.00     0.059 C 
ATOM     19  C   UNL A   1      33.905  16.763  23.267  1.00  0.00     0.012 C 
ATOM     20  C   UNL A   1      34.733  17.385  24.339  1.00  0.00     0.012 C 
ENDBRANCH  16  18
ENDBRANCH  10  13
ENDBRANCH   6   7
ENDBRANCH   4   6
ENDBRANCH   1   2
BRANCH   1  21
ATOM     21  C   UNL A   1      37.820  19.407  24.966  1.00  0.00     0.042 C 
BRANCH  21  22
ATOM     22  C   UNL A   1      38.893  19.881  25.939  1.00  0.00     0.118 C 
BRANCH  22  23
ATOM     23  N   UNL A   1      40.163  19.184  25.783  1.00  0.00    -0.352 N 
ATOM     24  C   UNL A   1      41.449  19.605  25.998  1.00  0.00     0.251 C 
ATOM     25  H   UNL A   1      40.083  18.255  25.470  1.00  0.00     0.163 HD
ATOM     26  O   UNL A   1      42.381  18.863  25.678  1.00  0.00    -0.269 OA
BRANCH  24  27
ATOM     27  C   UNL A   1      41.746  20.930  26.587  1.00  0.00     0.039 A 
ATOM     28  C   UNL A   1      42.067  21.983  25.723  1.00  0.00     0.014 A 
ATOM     29  C   UNL A   1      41.776  21.140  27.968  1.00  0.00     0.014 A 
ATOM     30  C   UNL A   1      42.369  23.247  26.237  1.00  0.00     0.010 A 
ATOM     31  C   UNL A   1      42.003  22.419  28.478  1.00  0.00     0.010 A 
ATOM     32  C   UNL A   1      42.319  23.481  27.620  1.00  0.00    -0.014 A 
BRANCH  32  33
ATOM     33  C   UNL A   1      42.627  24.826  28.174  1.00  0.00     0.031 A 
ATOM     34  C   UNL A   1      44.041  25.191  28.541  1.00  0.00     0.074 A 
ATOM     35  C   UNL A   1      41.632  25.711  28.375  1.00  0.00     0.049 A 
ATOM     36  N   UNL A   1      44.503  26.311  29.039  1.00  0.00    -0.248 NA
ATOM     37  C   UNL A   1      45.066  24.154  28.347  1.00  0.00     0.031 C 
ATOM     38  C   UNL A   1      40.213  25.464  28.114  1.00  0.00     0.029 A 
ATOM     39  N   UNL A   1      41.665  26.999  28.848  1.00  0.00    -0.354 N 
ATOM     40  C   UNL A   1      45.864  26.107  29.231  1.00  0.00     0.074 A 
ATOM     41  C   UNL A   1      46.144  24.741  28.846  1.00  0.00     0.031 C 
ATOM     42  C   UNL A   1      39.516  26.575  28.402  1.00  0.00     0.029 A 
ATOM     43  C   UNL A   1      40.431  27.601  28.888  1.00  0.00     0.049 A 
ATOM     44  H   UNL A   1      42.494  27.447  29.131  1.00  0.00     0.167 HD
ATOM     45  C   UNL A   1      46.802  26.984  29.665  1.00  0.00     0.037 A 
ATOM     46  C   UNL A   1      40.080  28.845  29.264  1.00  0.00     0.037 A 
ATOM     47  C   UNL A   1      46.532  28.352  30.019  1.00  0.00     0.049 A 
ATOM     48  C   UNL A   1      41.145  29.812  29.704  1.00  0.00     0.074 A 
ATOM     49  C   UNL A   1      47.422  29.332  30.422  1.00  0.00     0.029 A 
ATOM     50  N   UNL A   1      45.275  28.937  30.005  1.00  0.00    -0.354 N 
ATOM     51  N   UNL A   1      42.437  29.625  29.817  1.00  0.00    -0.248 NA
ATOM     52  C   UNL A   1      40.701  31.170  30.050  1.00  0.00     0.031 C 
ATOM     53  C   UNL A   1      46.700  30.503  30.680  1.00  0.00     0.029 A 
ATOM     54  C   UNL A   1      45.365  30.262  30.398  1.00  0.00     0.049 A 
ATOM     55  H   UNL A   1      44.441  28.478  29.753  1.00  0.00     0.167 HD
ATOM     56  C   UNL A   1      42.964  30.846  30.214  1.00  0.00     0.074 A 
ATOM     57  C   UNL A   1      41.853  31.771  30.311  1.00  0.00     0.031 C 
ATOM     58  C   UNL A   1      44.254  31.174  30.474  1.00  0.00     0.037 A 
BRANCH  45  59
ATOM     59  C   UNL A   1      48.214  26.485  29.768  1.00  0.00     0.057 A 
ATOM     60  C   UNL A   1      48.686  25.842  30.920  1.00  0.00     0.134 A 
ATOM     61  C   UNL A   1      49.104  26.627  28.696  1.00  0.00     0.134 A 
ATOM     62  F   UNL A   1      47.887  25.687  31.987  1.00  0.00    -0.206 F 
ATOM     63  C   UNL A   1      50.001  25.384  31.014  1.00  0.00     0.040 A 
ATOM     64  C   UNL A   1      50.414  26.149  28.768  1.00  0.00     0.040 A 
ATOM     65  F   UNL A   1      48.715  27.227  27.561  1.00  0.00    -0.206 F 
ATOM     66  C   UNL A   1      50.867  25.532  29.933  1.00  0.00     0.006 A 
ENDBRANCH  45  59
BRANCH  46  67
ATOM     67  C   UNL A   1      38.660  29.269  29.193  1.00  0.00     0.057 A 
ATOM     68  C   UNL A   1      37.845  29.247  30.331  1.00  0.00     0.134 A 
ATOM     69  C   UNL A   1      38.083  29.693  27.992  1.00  0.00     0.134 A 
ATOM     70  F   UNL A   1      38.338  28.832  31.507  1.00  0.00    -0.206 F 
ATOM     71  C   UNL A   1      36.499  29.612  30.272  1.00  0.00     0.040 A 
ATOM     72  C   UNL A   1      36.744  30.083  27.924  1.00  0.00     0.040 A 
ATOM     73  F   UNL A   1      38.814  29.743  26.869  1.00  0.00    -0.206 F 
ATOM     74  C   UNL A   1      35.947  30.036  29.066  1.00  0.00     0.006 A 
ENDBRANCH  46  67
BRANCH  58  75
ATOM     75  C   UNL A   1      44.535  32.602  30.838  1.00  0.00     0.057 A 
ATOM     76  C   UNL A   1      44.543  33.042  32.167  1.00  0.00     0.134 A 
ATOM     77  C   UNL A   1      44.820  33.545  29.842  1.00  0.00     0.134 A 
ATOM     78  F   UNL A   1      44.266  32.190  33.166  1.00  0.00    -0.206 F 
ATOM     79  C   UNL A   1      44.795  34.376  32.491  1.00  0.00     0.040 A 
ATOM     80  C   UNL A   1      45.097  34.876  30.156  1.00  0.00     0.040 A 
ATOM     81  F   UNL A   1      44.837  33.188  28.549  1.00  0.00    -0.206 F 
ATOM     82  C   UNL A   1      45.077  35.296  31.483  1.00  0.00     0.006 A 
ENDBRANCH  58  75
ENDBRANCH  32  33
ENDBRANCH  24  27
ENDBRANCH  22  23
ENDBRANCH  21  22
ENDBRANCH   1  21
TORSDOF 13
ENDMDL
MODEL 3
REMARK VINA RESULT:     -10.7      1.205      6.348
REMARK SMILES O=C(C[C@H]1CN(c2nc(C3CC3)ns2)CCO1)NCCCNC(=O)c1ccc(-c2c3nc(c(-c4c(F)cccc4F)c4ccc([nH]4)c(-c4c(F)cccc4F)c4nc(c(-c5c(F)cccc5F)c5ccc2[nH]5)C=C4)C=C3)cc1
REMARK SMILES IDX 19 1 18 2 1 3 2 4 3 6 4 7 5 8 17 9 6 10 16 11 15 12 7 13
REMARK SMILES IDX 8 14 14 15 9 16 13 17 10 18 11 19 12 20 20 21 21 22 22 23
REMARK SMILES IDX 23 24 24 26 25 27 26 28 78 29 27 30 77 31 28 32 29 33 30 34
REMARK SMILES IDX 71 35 31 36 76 37 70 38 72 39 32 40 75 41 69 42 68 43 33 45
REMARK SMILES IDX 59 46 42 47 58 48 43 49 46 50 57 51 73 52 44 53 45 54 56 56
REMARK SMILES IDX 74 57 47 58 34 59 35 60 40 61 36 62 37 63 39 64 41 65 38 66
REMARK SMILES IDX 60 67 61 68 66 69 62 70 63 71 65 72 67 73 64 74 48 75 49 76
REMARK SMILES IDX 54 77 50 78 51 79 53 80 55 81 52 82
REMARK H PARENT 18 5 22 25 72 44 46 55
REMARK Flexibility Score: inf
ROOT
ATOM      1  C   UNL A   1      31.057  30.746  26.034  1.00  0.00     0.117 C 
ENDROOT
BRANCH   1   2
ATOM      2  N   UNL A   1      31.899  30.131  25.032  1.00  0.00    -0.356 N 
ATOM      3  O   UNL A   1      33.360  29.198  26.519  1.00  0.00    -0.275 OA
ATOM      4  C   UNL A   1      32.950  29.314  25.366  1.00  0.00     0.222 C 
ATOM      5  H   UNL A   1      31.713  30.304  24.081  1.00  0.00     0.163 HD
BRANCH   4   6
ATOM      6  C   UNL A   1      33.633  28.606  24.214  1.00  0.00     0.133 C 
BRANCH   6   7
ATOM      7  C   UNL A   1      33.509  27.075  24.101  1.00  0.00     0.147 C 
ATOM      8  C   UNL A   1      32.076  26.569  24.383  1.00  0.00     0.151 C 
ATOM      9  O   UNL A   1      34.053  26.493  22.897  1.00  0.00    -0.374 OA
ATOM     10  N   UNL A   1      31.236  26.655  23.190  1.00  0.00    -0.342 N 
ATOM     11  C   UNL A   1      33.196  26.664  21.752  1.00  0.00     0.182 C 
ATOM     12  C   UNL A   1      31.800  26.072  21.979  1.00  0.00     0.147 C 
BRANCH  10  13
ATOM     13  C   UNL A   1      30.126  27.432  23.180  1.00  0.00     0.205 A 
ATOM     14  N   UNL A   1      30.098  28.701  22.836  1.00  0.00    -0.203 NA
ATOM     15  S   UNL A   1      28.552  26.900  23.684  1.00  0.00     0.004 S 
ATOM     16  C   UNL A   1      28.804  29.186  22.978  1.00  0.00     0.147 A 
ATOM     17  N   UNL A   1      27.853  28.395  23.475  1.00  0.00    -0.174 NA
BRANCH  16  18
ATOM     18  C   UNL A   1      28.447  30.611  22.558  1.00  0.00     0.059 C 
ATOM     19  C   UNL A   1      27.414  31.386  23.349  1.00  0.00     0.012 C 
ATOM     20  C   UNL A   1      28.855  31.746  23.475  1.00  0.00     0.012 C 
ENDBRANCH  16  18
ENDBRANCH  10  13
ENDBRANCH   6   7
ENDBRANCH   4   6
ENDBRANCH   1   2
BRANCH   1  21
ATOM     21  C   UNL A   1      31.314  32.236  26.207  1.00  0.00     0.042 C 
BRANCH  21  22
ATOM     22  C   UNL A   1      32.450  32.575  27.166  1.00  0.00     0.118 C 
BRANCH  22  23
ATOM     23  N   UNL A   1      32.376  33.930  27.693  1.00  0.00    -0.352 N 
ATOM     24  C   UNL A   1      33.178  34.590  28.588  1.00  0.00     0.251 C 
ATOM     25  H   UNL A   1      31.624  34.463  27.348  1.00  0.00     0.163 HD
ATOM     26  O   UNL A   1      32.842  35.711  28.976  1.00  0.00    -0.269 OA
BRANCH  24  27
ATOM     27  C   UNL A   1      34.424  33.984  29.110  1.00  0.00     0.039 A 
ATOM     28  C   UNL A   1      35.619  34.229  28.424  1.00  0.00     0.014 A 
ATOM     29  C   UNL A   1      34.428  33.135  30.219  1.00  0.00     0.014 A 
ATOM     30  C   UNL A   1      36.815  33.664  28.874  1.00  0.00     0.010 A 
ATOM     31  C   UNL A   1      35.633  32.632  30.712  1.00  0.00     0.010 A 
ATOM     32  C   UNL A   1      36.836  32.877  30.036  1.00  0.00    -0.014 A 
BRANCH  32  33
ATOM     33  C   UNL A   1      38.106  32.282  30.527  1.00  0.00     0.031 A 
ATOM     34  C   UNL A   1      38.626  31.000  29.934  1.00  0.00     0.074 A 
ATOM     35  C   UNL A   1      38.781  32.879  31.528  1.00  0.00     0.049 A 
ATOM     36  N   UNL A   1      39.710  30.329  30.234  1.00  0.00    -0.248 NA
ATOM     37  C   UNL A   1      37.806  30.374  28.884  1.00  0.00     0.031 C 
ATOM     38  C   UNL A   1      38.360  34.093  32.228  1.00  0.00     0.029 A 
ATOM     39  N   UNL A   1      39.966  32.541  32.132  1.00  0.00    -0.354 N 
ATOM     40  C   UNL A   1      39.694  29.201  29.423  1.00  0.00     0.074 A 
ATOM     41  C   UNL A   1      38.468  29.249  28.657  1.00  0.00     0.031 C 
ATOM     42  C   UNL A   1      39.288  34.415  33.145  1.00  0.00     0.029 A 
ATOM     43  C   UNL A   1      40.354  33.420  33.114  1.00  0.00     0.049 A 
ATOM     44  H   UNL A   1      40.488  31.744  31.886  1.00  0.00     0.167 HD
ATOM     45  C   UNL A   1      40.626  28.224  29.306  1.00  0.00     0.037 A 
ATOM     46  C   UNL A   1      41.452  33.429  33.893  1.00  0.00     0.037 A 
ATOM     47  C   UNL A   1      41.861  28.189  30.044  1.00  0.00     0.049 A 
ATOM     48  C   UNL A   1      42.490  32.356  33.718  1.00  0.00     0.074 A 
ATOM     49  C   UNL A   1      42.892  27.268  29.960  1.00  0.00     0.029 A 
ATOM     50  N   UNL A   1      42.236  29.122  30.998  1.00  0.00    -0.354 N 
ATOM     51  N   UNL A   1      42.493  31.332  32.900  1.00  0.00    -0.248 NA
ATOM     52  C   UNL A   1      43.690  32.453  34.563  1.00  0.00     0.031 C 
ATOM     53  C   UNL A   1      43.879  27.629  30.885  1.00  0.00     0.029 A 
ATOM     54  C   UNL A   1      43.480  28.797  31.515  1.00  0.00     0.049 A 
ATOM     55  H   UNL A   1      41.699  29.901  31.269  1.00  0.00     0.167 HD
ATOM     56  C   UNL A   1      43.703  30.683  33.106  1.00  0.00     0.074 A 
ATOM     57  C   UNL A   1      44.414  31.436  34.119  1.00  0.00     0.031 C 
ATOM     58  C   UNL A   1      44.183  29.564  32.510  1.00  0.00     0.037 A 
BRANCH  45  59
ATOM     59  C   UNL A   1      40.345  27.117  28.332  1.00  0.00     0.057 A 
ATOM     60  C   UNL A   1      40.909  27.103  27.049  1.00  0.00     0.134 A 
ATOM     61  C   UNL A   1      39.521  26.042  28.687  1.00  0.00     0.134 A 
ATOM     62  F   UNL A   1      41.696  28.110  26.643  1.00  0.00    -0.206 F 
ATOM     63  C   UNL A   1      40.641  26.075  26.145  1.00  0.00     0.040 A 
ATOM     64  C   UNL A   1      39.266  24.994  27.801  1.00  0.00     0.040 A 
ATOM     65  F   UNL A   1      38.953  25.990  29.902  1.00  0.00    -0.206 F 
ATOM     66  C   UNL A   1      39.821  25.013  26.523  1.00  0.00     0.006 A 
ENDBRANCH  45  59
BRANCH  46  67
ATOM     67  C   UNL A   1      41.653  34.519  34.878  1.00  0.00     0.057 A 
ATOM     68  C   UNL A   1      42.278  35.717  34.508  1.00  0.00     0.134 A 
ATOM     69  C   UNL A   1      41.240  34.389  36.208  1.00  0.00     0.134 A 
ATOM     70  F   UNL A   1      42.713  35.891  33.252  1.00  0.00    -0.206 F 
ATOM     71  C   UNL A   1      42.503  36.738  35.432  1.00  0.00     0.040 A 
ATOM     72  C   UNL A   1      41.439  35.413  37.137  1.00  0.00     0.040 A 
ATOM     73  F   UNL A   1      40.629  33.270  36.621  1.00  0.00    -0.206 F 
ATOM     74  C   UNL A   1      42.079  36.589  36.750  1.00  0.00     0.006 A 
ENDBRANCH  46  67
BRANCH  58  75
ATOM     75  C   UNL A   1      45.560  29.119  32.902  1.00  0.00     0.057 A 
ATOM     76  C   UNL A   1      46.705  29.573  32.236  1.00  0.00     0.134 A 
ATOM     77  C   UNL A   1      45.742  28.236  33.975  1.00  0.00     0.134 A 
ATOM     78  F   UNL A   1      46.598  30.410  31.194  1.00  0.00    -0.206 F 
ATOM     79  C   UNL A   1      47.981  29.141  32.604  1.00  0.00     0.040 A 
ATOM     80  C   UNL A   1      47.014  27.817  34.366  1.00  0.00     0.040 A 
ATOM     81  F   UNL A   1      44.687  27.770  34.661  1.00  0.00    -0.206 F 
ATOM     82  C   UNL A   1      48.137  28.263  33.675  1.00  0.00     0.006 A 
ENDBRANCH  58  75
ENDBRANCH  32  33
ENDBRANCH  24  27
ENDBRANCH  22  23
ENDBRANCH  21  22
ENDBRANCH   1  21
TORSDOF 13
ENDMDL
