MODEL 1
REMARK VINA RESULT:     -13.0      0.000      0.000
REMARK SMILES CC1(C)[C@H](C(=O)NCCCNC(=O)c2ccc(-c3c4nc(c(-c5c(F)cccc5F)c5ccc([nH]5)c(-c5c(F)cccc5F)c5nc(c(-c6c(F)cccc6F)c6ccc3[nH]6)C=C5)C=C4)cc2)[C@@H]1C(=O)Nc1ccc(NC(=O)C2CCC2)cc1
REMARK SMILES IDX 8 1 7 2 5 3 6 4 4 6 1 7 2 8 3 9 68 10 69 11 70 12 71 13
REMARK SMILES IDX 72 15 73 16 84 17 74 18 83 19 75 20 76 21 77 22 78 24 79 25
REMARK SMILES IDX 80 26 82 27 81 28 9 29 10 30 11 31 12 32 13 34 14 35 15 36
REMARK SMILES IDX 67 37 16 38 66 39 17 40 18 41 19 42 60 43 20 44 65 45 59 46
REMARK SMILES IDX 61 47 21 48 64 49 58 50 57 51 22 53 48 54 31 55 47 56 32 57
REMARK SMILES IDX 35 58 46 59 62 60 33 61 34 62 45 64 63 65 36 66 23 67 24 68
REMARK SMILES IDX 29 69 25 70 26 71 28 72 30 73 27 74 49 75 50 76 55 77 51 78
REMARK SMILES IDX 52 79 54 80 56 81 53 82 37 83 38 84 43 85 39 86 40 87 42 88
REMARK SMILES IDX 44 89 41 90
REMARK H PARENT 7 5 71 14 76 23 11 33 61 52 35 63
REMARK Flexibility Score: inf
ROOT
ATOM      1  C   UNL A   1      31.736  30.148  26.153  1.00  0.00     0.117 C 
ENDROOT
BRANCH   1   2
ATOM      2  N   UNL A   1      32.417  30.007  24.882  1.00  0.00    -0.356 N 
ATOM      3  C   UNL A   1      33.099  29.018  24.242  1.00  0.00     0.224 C 
ATOM      4  O   UNL A   1      33.547  29.332  23.136  1.00  0.00    -0.275 OA
ATOM      5  H   UNL A   1      32.377  30.834  24.349  1.00  0.00     0.163 HD
BRANCH   3   6
ATOM      6  C   UNL A   1      33.366  27.634  24.695  1.00  0.00     0.098 C 
ATOM      7  C   UNL A   1      32.382  25.872  26.277  1.00  0.00     0.013 C 
ATOM      8  C   UNL A   1      32.326  26.551  24.925  1.00  0.00    -0.011 C 
ATOM      9  C   UNL A   1      30.905  26.743  24.451  1.00  0.00     0.013 C 
ATOM     10  C   UNL A   1      33.525  26.335  23.972  1.00  0.00     0.098 C 
BRANCH  10  11
ATOM     11  C   UNL A   1      33.431  26.092  22.520  1.00  0.00     0.228 C 
ATOM     12  O   UNL A   1      33.779  26.966  21.728  1.00  0.00    -0.274 OA
ATOM     13  N   UNL A   1      32.925  24.906  22.035  1.00  0.00    -0.326 N 
ATOM     14  H   UNL A   1      32.700  24.884  21.076  1.00  0.00     0.169 HD
BRANCH  13  15
ATOM     15  C   UNL A   1      32.696  23.732  22.758  1.00  0.00     0.041 A 
ATOM     16  C   UNL A   1      33.821  22.975  23.042  1.00  0.00     0.028 A 
ATOM     17  C   UNL A   1      31.467  23.360  23.293  1.00  0.00     0.028 A 
ATOM     18  C   UNL A   1      33.761  22.013  24.040  1.00  0.00     0.028 A 
ATOM     19  C   UNL A   1      31.391  22.236  24.134  1.00  0.00     0.028 A 
ATOM     20  C   UNL A   1      32.554  21.552  24.519  1.00  0.00     0.041 A 
BRANCH  20  21
ATOM     21  N   UNL A   1      32.443  20.445  25.366  1.00  0.00    -0.326 N 
ATOM     22  C   UNL A   1      32.839  19.125  25.283  1.00  0.00     0.227 C 
ATOM     23  H   UNL A   1      31.980  20.654  26.210  1.00  0.00     0.169 HD
ATOM     24  O   UNL A   1      32.556  18.448  26.291  1.00  0.00    -0.274 OA
BRANCH  22  25
ATOM     25  C   UNL A   1      33.580  18.458  24.093  1.00  0.00     0.079 C 
ATOM     26  C   UNL A   1      34.240  17.079  24.467  1.00  0.00     0.013 C 
ATOM     27  C   UNL A   1      32.927  17.650  22.926  1.00  0.00     0.013 C 
ATOM     28  C   UNL A   1      34.112  16.681  22.994  1.00  0.00     0.002 C 
ENDBRANCH  22  25
ENDBRANCH  20  21
ENDBRANCH  13  15
ENDBRANCH  10  11
ENDBRANCH   3   6
ENDBRANCH   1   2
BRANCH   1  29
ATOM     29  C   UNL A   1      31.483  31.607  26.493  1.00  0.00     0.042 C 
BRANCH  29  30
ATOM     30  C   UNL A   1      32.694  32.280  27.131  1.00  0.00     0.118 C 
BRANCH  30  31
ATOM     31  N   UNL A   1      32.421  33.647  27.568  1.00  0.00    -0.352 N 
ATOM     32  C   UNL A   1      33.106  34.421  28.474  1.00  0.00     0.251 C 
ATOM     33  H   UNL A   1      31.635  34.073  27.155  1.00  0.00     0.163 HD
ATOM     34  O   UNL A   1      32.641  35.491  28.855  1.00  0.00    -0.269 OA
BRANCH  32  35
ATOM     35  C   UNL A   1      34.397  33.939  29.002  1.00  0.00     0.039 A 
ATOM     36  C   UNL A   1      34.423  33.209  30.192  1.00  0.00     0.014 A 
ATOM     37  C   UNL A   1      35.573  34.168  28.285  1.00  0.00     0.014 A 
ATOM     38  C   UNL A   1      35.622  32.633  30.618  1.00  0.00     0.010 A 
ATOM     39  C   UNL A   1      36.740  33.514  28.656  1.00  0.00     0.010 A 
ATOM     40  C   UNL A   1      36.779  32.743  29.829  1.00  0.00    -0.014 A 
BRANCH  40  41
ATOM     41  C   UNL A   1      38.054  32.087  30.210  1.00  0.00     0.031 A 
ATOM     42  C   UNL A   1      39.004  32.798  31.135  1.00  0.00     0.074 A 
ATOM     43  C   UNL A   1      38.398  30.905  29.661  1.00  0.00     0.049 A 
ATOM     44  N   UNL A   1      40.223  32.474  31.480  1.00  0.00    -0.248 NA
ATOM     45  C   UNL A   1      38.531  34.063  31.724  1.00  0.00     0.031 C 
ATOM     46  C   UNL A   1      37.586  30.138  28.713  1.00  0.00     0.029 A 
ATOM     47  N   UNL A   1      39.534  30.149  29.811  1.00  0.00    -0.354 N 
ATOM     48  C   UNL A   1      40.668  33.504  32.299  1.00  0.00     0.074 A 
ATOM     49  C   UNL A   1      39.613  34.491  32.354  1.00  0.00     0.031 C 
ATOM     50  C   UNL A   1      38.239  29.010  28.387  1.00  0.00     0.029 A 
ATOM     51  C   UNL A   1      39.531  28.993  29.066  1.00  0.00     0.049 A 
ATOM     52  H   UNL A   1      40.281  30.410  30.396  1.00  0.00     0.167 HD
ATOM     53  C   UNL A   1      41.839  33.606  32.969  1.00  0.00     0.037 A 
ATOM     54  C   UNL A   1      40.468  28.036  28.941  1.00  0.00     0.037 A 
ATOM     55  C   UNL A   1      42.869  32.603  32.949  1.00  0.00     0.049 A 
ATOM     56  C   UNL A   1      41.757  28.170  29.704  1.00  0.00     0.074 A 
ATOM     57  C   UNL A   1      44.073  32.589  33.631  1.00  0.00     0.029 A 
ATOM     58  N   UNL A   1      42.808  31.427  32.216  1.00  0.00    -0.354 N 
ATOM     59  N   UNL A   1      42.146  29.127  30.511  1.00  0.00    -0.248 NA
ATOM     60  C   UNL A   1      42.739  27.087  29.543  1.00  0.00     0.031 C 
ATOM     61  C   UNL A   1      44.753  31.415  33.291  1.00  0.00     0.029 A 
ATOM     62  C   UNL A   1      43.954  30.682  32.426  1.00  0.00     0.049 A 
ATOM     63  H   UNL A   1      42.059  31.164  31.633  1.00  0.00     0.167 HD
ATOM     64  C   UNL A   1      43.396  28.746  30.980  1.00  0.00     0.074 A 
ATOM     65  C   UNL A   1      43.699  27.467  30.374  1.00  0.00     0.031 C 
ATOM     66  C   UNL A   1      44.221  29.397  31.834  1.00  0.00     0.037 A 
BRANCH  53  67
ATOM     67  C   UNL A   1      42.055  34.836  33.800  1.00  0.00     0.057 A 
ATOM     68  C   UNL A   1      41.642  34.902  35.137  1.00  0.00     0.134 A 
ATOM     69  C   UNL A   1      42.711  35.955  33.270  1.00  0.00     0.134 A 
ATOM     70  F   UNL A   1      40.995  33.869  35.700  1.00  0.00    -0.206 F 
ATOM     71  C   UNL A   1      41.852  36.043  35.911  1.00  0.00     0.040 A 
ATOM     72  C   UNL A   1      42.950  37.093  34.042  1.00  0.00     0.040 A 
ATOM     73  F   UNL A   1      43.135  35.956  31.998  1.00  0.00    -0.206 F 
ATOM     74  C   UNL A   1      42.515  37.140  35.365  1.00  0.00     0.006 A 
ENDBRANCH  53  67
BRANCH  54  75
ATOM     75  C   UNL A   1      40.222  26.850  28.082  1.00  0.00     0.057 A 
ATOM     76  C   UNL A   1      39.444  25.779  28.541  1.00  0.00     0.134 A 
ATOM     77  C   UNL A   1      40.777  26.741  26.802  1.00  0.00     0.134 A 
ATOM     78  F   UNL A   1      38.901  25.818  29.767  1.00  0.00    -0.206 F 
ATOM     79  C   UNL A   1      39.249  24.633  27.770  1.00  0.00     0.040 A 
ATOM     80  C   UNL A   1      40.570  25.610  26.010  1.00  0.00     0.040 A 
ATOM     81  F   UNL A   1      41.526  27.734  26.301  1.00  0.00    -0.206 F 
ATOM     82  C   UNL A   1      39.812  24.547  26.499  1.00  0.00     0.006 A 
ENDBRANCH  54  75
BRANCH  66  83
ATOM     83  C   UNL A   1      45.502  28.714  32.208  1.00  0.00     0.057 A 
ATOM     84  C   UNL A   1      46.690  28.931  31.502  1.00  0.00     0.134 A 
ATOM     85  C   UNL A   1      45.553  27.867  33.324  1.00  0.00     0.134 A 
ATOM     86  F   UNL A   1      46.703  29.722  30.417  1.00  0.00    -0.206 F 
ATOM     87  C   UNL A   1      47.883  28.314  31.880  1.00  0.00     0.040 A 
ATOM     88  C   UNL A   1      46.745  27.264  33.725  1.00  0.00     0.040 A 
ATOM     89  F   UNL A   1      44.449  27.626  34.047  1.00  0.00    -0.206 F 
ATOM     90  C   UNL A   1      47.913  27.484  33.000  1.00  0.00     0.006 A 
ENDBRANCH  66  83
ENDBRANCH  40  41
ENDBRANCH  32  35
ENDBRANCH  30  31
ENDBRANCH  29  30
ENDBRANCH   1  29
TORSDOF 14
ENDMDL
MODEL 2
REMARK VINA RESULT:     -12.8      4.192      9.523
REMARK SMILES CC1(C)[C@H](C(=O)NCCCNC(=O)c2ccc(-c3c4nc(c(-c5c(F)cccc5F)c5ccc([nH]5)c(-c5c(F)cccc5F)c5nc(c(-c6c(F)cccc6F)c6ccc3[nH]6)C=C5)C=C4)cc2)[C@@H]1C(=O)Nc1ccc(NC(=O)C2CCC2)cc1
REMARK SMILES IDX 8 1 7 2 5 3 6 4 4 6 1 7 2 8 3 9 68 10 69 11 70 12 71 13
REMARK SMILES IDX 72 15 73 16 84 17 74 18 83 19 75 20 76 21 77 22 78 24 79 25
REMARK SMILES IDX 80 26 82 27 81 28 9 29 10 30 11 31 12 32 13 34 14 35 15 36
REMARK SMILES IDX 67 37 16 38 66 39 17 40 18 41 19 42 60 43 20 44 65 45 59 46
REMARK SMILES IDX 61 47 21 48 64 49 58 50 57 51 22 53 48 54 31 55 47 56 32 57
REMARK SMILES IDX 35 58 46 59 62 60 33 61 34 62 45 64 63 65 36 66 23 67 24 68
REMARK SMILES IDX 29 69 25 70 26 71 28 72 30 73 27 74 49 75 50 76 55 77 51 78
REMARK SMILES IDX 52 79 54 80 56 81 53 82 37 83 38 84 43 85 39 86 40 87 42 88
REMARK SMILES IDX 44 89 41 90
REMARK H PARENT 7 5 71 14 76 23 11 33 61 52 35 63
REMARK Flexibility Score: inf
ROOT
ATOM      1  C   UNL A   1      36.936  21.180  24.945  1.00  0.00     0.117 C 
ENDROOT
BRANCH   1   2
ATOM      2  N   UNL A   1      35.970  21.124  26.023  1.00  0.00    -0.356 N 
ATOM      3  C   UNL A   1      35.012  21.952  26.521  1.00  0.00     0.224 C 
ATOM      4  O   UNL A   1      34.398  21.505  27.494  1.00  0.00    -0.275 OA
ATOM      5  H   UNL A   1      36.020  20.275  26.519  1.00  0.00     0.163 HD
BRANCH   3   6
ATOM      6  C   UNL A   1      34.615  23.299  26.051  1.00  0.00     0.098 C 
ATOM      7  C   UNL A   1      34.503  24.656  23.879  1.00  0.00     0.013 C 
ATOM      8  C   UNL A   1      33.861  23.615  24.771  1.00  0.00    -0.011 C 
ATOM      9  C   UNL A   1      33.217  22.508  23.971  1.00  0.00     0.013 C 
ATOM     10  C   UNL A   1      33.347  24.085  26.152  1.00  0.00     0.098 C 
BRANCH  10  11
ATOM     11  C   UNL A   1      32.076  23.672  26.778  1.00  0.00     0.228 C 
ATOM     12  O   UNL A   1      32.088  22.950  27.773  1.00  0.00    -0.274 OA
ATOM     13  N   UNL A   1      30.868  24.058  26.240  1.00  0.00    -0.326 N 
ATOM     14  H   UNL A   1      30.068  23.590  26.575  1.00  0.00     0.169 HD
BRANCH  13  15
ATOM     15  C   UNL A   1      30.655  25.041  25.269  1.00  0.00     0.041 A 
ATOM     16  C   UNL A   1      30.834  26.348  25.692  1.00  0.00     0.028 A 
ATOM     17  C   UNL A   1      30.406  24.783  23.925  1.00  0.00     0.028 A 
ATOM     18  C   UNL A   1      31.006  27.351  24.750  1.00  0.00     0.028 A 
ATOM     19  C   UNL A   1      30.364  25.853  23.013  1.00  0.00     0.028 A 
ATOM     20  C   UNL A   1      30.673  27.157  23.428  1.00  0.00     0.041 A 
BRANCH  20  21
ATOM     21  N   UNL A   1      30.632  28.195  22.492  1.00  0.00    -0.326 N 
ATOM     22  C   UNL A   1      29.911  29.368  22.384  1.00  0.00     0.227 C 
ATOM     23  H   UNL A   1      31.257  28.060  21.743  1.00  0.00     0.169 HD
ATOM     24  O   UNL A   1      30.194  30.045  21.376  1.00  0.00    -0.274 OA
BRANCH  22  25
ATOM     25  C   UNL A   1      28.836  29.883  23.378  1.00  0.00     0.079 C 
ATOM     26  C   UNL A   1      28.734  31.453  23.424  1.00  0.00     0.013 C 
ATOM     27  C   UNL A   1      27.294  29.949  23.129  1.00  0.00     0.013 C 
ATOM     28  C   UNL A   1      27.278  31.292  23.867  1.00  0.00     0.002 C 
ENDBRANCH  22  25
ENDBRANCH  20  21
ENDBRANCH  13  15
ENDBRANCH  10  11
ENDBRANCH   3   6
ENDBRANCH   1   2
BRANCH   1  29
ATOM     29  C   UNL A   1      37.905  20.011  25.002  1.00  0.00     0.042 C 
BRANCH  29  30
ATOM     30  C   UNL A   1      39.188  20.346  25.755  1.00  0.00     0.118 C 
BRANCH  30  31
ATOM     31  N   UNL A   1      40.091  19.206  25.878  1.00  0.00    -0.352 N 
ATOM     32  C   UNL A   1      41.449  19.193  26.093  1.00  0.00     0.251 C 
ATOM     33  H   UNL A   1      39.667  18.320  25.795  1.00  0.00     0.163 HD
ATOM     34  O   UNL A   1      42.084  18.146  25.998  1.00  0.00    -0.269 OA
BRANCH  32  35
ATOM     35  C   UNL A   1      42.139  20.457  26.413  1.00  0.00     0.039 A 
ATOM     36  C   UNL A   1      42.684  21.223  25.381  1.00  0.00     0.014 A 
ATOM     37  C   UNL A   1      42.196  20.905  27.735  1.00  0.00     0.014 A 
ATOM     38  C   UNL A   1      43.212  22.485  25.668  1.00  0.00     0.010 A 
ATOM     39  C   UNL A   1      42.628  22.197  28.002  1.00  0.00     0.010 A 
ATOM     40  C   UNL A   1      43.145  22.999  26.973  1.00  0.00    -0.014 A 
BRANCH  40  41
ATOM     41  C   UNL A   1      43.630  24.362  27.306  1.00  0.00     0.031 A 
ATOM     42  C   UNL A   1      42.645  25.408  27.754  1.00  0.00     0.074 A 
ATOM     43  C   UNL A   1      44.926  24.683  27.122  1.00  0.00     0.049 A 
ATOM     44  N   UNL A   1      42.830  26.687  27.954  1.00  0.00    -0.248 NA
ATOM     45  C   UNL A   1      41.259  24.961  27.971  1.00  0.00     0.031 C 
ATOM     46  C   UNL A   1      45.970  23.772  26.647  1.00  0.00     0.029 A 
ATOM     47  N   UNL A   1      45.583  25.875  27.299  1.00  0.00    -0.354 N 
ATOM     48  C   UNL A   1      41.583  27.197  28.293  1.00  0.00     0.074 A 
ATOM     49  C   UNL A   1      40.640  26.105  28.215  1.00  0.00     0.031 C 
ATOM     50  C   UNL A   1      47.139  24.432  26.594  1.00  0.00     0.029 A 
ATOM     51  C   UNL A   1      46.921  25.820  26.990  1.00  0.00     0.049 A 
ATOM     52  H   UNL A   1      45.138  26.693  27.618  1.00  0.00     0.167 HD
ATOM     53  C   UNL A   1      41.257  28.457  28.663  1.00  0.00     0.037 A 
ATOM     54  C   UNL A   1      47.861  26.783  27.015  1.00  0.00     0.037 A 
ATOM     55  C   UNL A   1      42.204  29.532  28.784  1.00  0.00     0.049 A 
ATOM     56  C   UNL A   1      47.473  28.173  27.440  1.00  0.00     0.074 A 
ATOM     57  C   UNL A   1      41.984  30.834  29.198  1.00  0.00     0.029 A 
ATOM     58  N   UNL A   1      43.558  29.423  28.502  1.00  0.00    -0.354 N 
ATOM     59  N   UNL A   1      46.299  28.631  27.800  1.00  0.00    -0.248 NA
ATOM     60  C   UNL A   1      48.543  29.181  27.464  1.00  0.00     0.031 C 
ATOM     61  C   UNL A   1      43.200  31.521  29.142  1.00  0.00     0.029 A 
ATOM     62  C   UNL A   1      44.184  30.636  28.729  1.00  0.00     0.049 A 
ATOM     63  H   UNL A   1      44.005  28.605  28.187  1.00  0.00     0.167 HD
ATOM     64  C   UNL A   1      46.495  29.966  28.129  1.00  0.00     0.074 A 
ATOM     65  C   UNL A   1      47.903  30.243  27.932  1.00  0.00     0.031 C 
ATOM     66  C   UNL A   1      45.592  30.881  28.554  1.00  0.00     0.037 A 
BRANCH  53  67
ATOM     67  C   UNL A   1      39.819  28.732  28.989  1.00  0.00     0.057 A 
ATOM     68  C   UNL A   1      39.320  28.592  30.290  1.00  0.00     0.134 A 
ATOM     69  C   UNL A   1      38.930  29.171  28.000  1.00  0.00     0.134 A 
ATOM     70  F   UNL A   1      40.117  28.159  31.280  1.00  0.00    -0.206 F 
ATOM     71  C   UNL A   1      37.985  28.856  30.594  1.00  0.00     0.040 A 
ATOM     72  C   UNL A   1      37.597  29.464  28.296  1.00  0.00     0.040 A 
ATOM     73  F   UNL A   1      39.343  29.329  26.734  1.00  0.00    -0.206 F 
ATOM     74  C   UNL A   1      37.121  29.302  29.595  1.00  0.00     0.006 A 
ENDBRANCH  53  67
BRANCH  54  75
ATOM     75  C   UNL A   1      49.268  26.471  26.654  1.00  0.00     0.057 A 
ATOM     76  C   UNL A   1      49.733  26.663  25.347  1.00  0.00     0.134 A 
ATOM     77  C   UNL A   1      50.169  25.948  27.589  1.00  0.00     0.134 A 
ATOM     78  F   UNL A   1      48.911  27.144  24.403  1.00  0.00    -0.206 F 
ATOM     79  C   UNL A   1      51.034  26.323  24.976  1.00  0.00     0.040 A 
ATOM     80  C   UNL A   1      51.480  25.625  27.237  1.00  0.00     0.040 A 
ATOM     81  F   UNL A   1      49.787  25.747  28.858  1.00  0.00    -0.206 F 
ATOM     82  C   UNL A   1      51.913  25.803  25.924  1.00  0.00     0.006 A 
ENDBRANCH  54  75
BRANCH  66  83
ATOM     83  C   UNL A   1      46.105  32.249  28.888  1.00  0.00     0.057 A 
ATOM     84  C   UNL A   1      46.131  33.280  27.943  1.00  0.00     0.134 A 
ATOM     85  C   UNL A   1      46.529  32.548  30.190  1.00  0.00     0.134 A 
ATOM     86  F   UNL A   1      45.748  33.054  26.677  1.00  0.00    -0.206 F 
ATOM     87  C   UNL A   1      46.579  34.560  28.275  1.00  0.00     0.040 A 
ATOM     88  C   UNL A   1      46.957  33.829  30.539  1.00  0.00     0.040 A 
ATOM     89  F   UNL A   1      46.520  31.604  31.143  1.00  0.00    -0.206 F 
ATOM     90  C   UNL A   1      46.987  34.837  29.579  1.00  0.00     0.006 A 
ENDBRANCH  66  83
ENDBRANCH  40  41
ENDBRANCH  32  35
ENDBRANCH  30  31
ENDBRANCH  29  30
ENDBRANCH   1  29
TORSDOF 14
ENDMDL
MODEL 3
REMARK VINA RESULT:     -12.8      1.817      6.262
REMARK SMILES CC1(C)[C@H](C(=O)NCCCNC(=O)c2ccc(-c3c4nc(c(-c5c(F)cccc5F)c5ccc([nH]5)c(-c5c(F)cccc5F)c5nc(c(-c6c(F)cccc6F)c6ccc3[nH]6)C=C5)C=C4)cc2)[C@@H]1C(=O)Nc1ccc(NC(=O)C2CCC2)cc1
REMARK SMILES IDX 8 1 7 2 5 3 6 4 4 6 1 7 2 8 3 9 68 10 69 11 70 12 71 13
REMARK SMILES IDX 72 15 73 16 84 17 74 18 83 19 75 20 76 21 77 22 78 24 79 25
REMARK SMILES IDX 80 26 82 27 81 28 9 29 10 30 11 31 12 32 13 34 14 35 15 36
REMARK SMILES IDX 67 37 16 38 66 39 17 40 18 41 19 42 60 43 20 44 65 45 59 46
REMARK SMILES IDX 61 47 21 48 64 49 58 50 57 51 22 53 48 54 31 55 47 56 32 57
REMARK SMILES IDX 35 58 46 59 62 60 33 61 34 62 45 64 63 65 36 66 23 67 24 68
REMARK SMILES IDX 29 69 25 70 26 71 28 72 30 73 27 74 49 75 50 76 55 77 51 78
REMARK SMILES IDX 52 79 54 80 56 81 53 82 37 83 38 84 43 85 39 86 40 87 42 88
REMARK SMILES IDX 44 89 41 90
REMARK H PARENT 7 5 71 14 76 23 11 33 61 52 35 63
REMARK Flexibility Score: inf
ROOT
ATOM      1  C   UNL A   1      32.143  30.131  26.244  1.00  0.00     0.117 C 
ENDROOT
BRANCH   1   2
ATOM      2  N   UNL A   1      32.727  29.997  24.925  1.00  0.00    -0.356 N 
ATOM      3  C   UNL A   1      33.331  29.002  24.219  1.00  0.00     0.224 C 
ATOM      4  O   UNL A   1      33.708  29.325  23.090  1.00  0.00    -0.275 OA
ATOM      5  H   UNL A   1      32.673  30.835  24.411  1.00  0.00     0.163 HD
BRANCH   3   6
ATOM      6  C   UNL A   1      33.588  27.602  24.627  1.00  0.00     0.098 C 
ATOM      7  C   UNL A   1      32.708  25.857  26.286  1.00  0.00     0.013 C 
ATOM      8  C   UNL A   1      32.535  26.557  24.956  1.00  0.00    -0.011 C 
ATOM      9  C   UNL A   1      31.081  26.813  24.640  1.00  0.00     0.013 C 
ATOM     10  C   UNL A   1      33.615  26.308  23.877  1.00  0.00     0.098 C 
BRANCH  10  11
ATOM     11  C   UNL A   1      33.357  26.091  22.441  1.00  0.00     0.228 C 
ATOM     12  O   UNL A   1      33.653  26.962  21.626  1.00  0.00    -0.274 OA
ATOM     13  N   UNL A   1      32.753  24.933  22.001  1.00  0.00    -0.326 N 
ATOM     14  H   UNL A   1      32.426  24.934  21.072  1.00  0.00     0.169 HD
BRANCH  13  15
ATOM     15  C   UNL A   1      32.554  23.758  22.732  1.00  0.00     0.041 A 
ATOM     16  C   UNL A   1      33.661  22.933  22.851  1.00  0.00     0.028 A 
ATOM     17  C   UNL A   1      31.388  23.445  23.424  1.00  0.00     0.028 A 
ATOM     18  C   UNL A   1      33.679  21.955  23.834  1.00  0.00     0.028 A 
ATOM     19  C   UNL A   1      31.361  22.309  24.251  1.00  0.00     0.028 A 
ATOM     20  C   UNL A   1      32.523  21.553  24.466  1.00  0.00     0.041 A 
BRANCH  20  21
ATOM     21  N   UNL A   1      32.461  20.436  25.305  1.00  0.00    -0.326 N 
ATOM     22  C   UNL A   1      32.874  19.123  25.193  1.00  0.00     0.227 C 
ATOM     23  H   UNL A   1      32.028  20.628  26.168  1.00  0.00     0.169 HD
ATOM     24  O   UNL A   1      32.640  18.431  26.204  1.00  0.00    -0.274 OA
BRANCH  22  25
ATOM     25  C   UNL A   1      33.578  18.480  23.968  1.00  0.00     0.079 C 
ATOM     26  C   UNL A   1      34.194  17.065  24.279  1.00  0.00     0.013 C 
ATOM     27  C   UNL A   1      32.884  17.741  22.778  1.00  0.00     0.013 C 
ATOM     28  C   UNL A   1      34.036  16.730  22.793  1.00  0.00     0.002 C 
ENDBRANCH  22  25
ENDBRANCH  20  21
ENDBRANCH  13  15
ENDBRANCH  10  11
ENDBRANCH   3   6
ENDBRANCH   1   2
BRANCH   1  29
ATOM     29  C   UNL A   1      31.755  31.569  26.540  1.00  0.00     0.042 C 
BRANCH  29  30
ATOM     30  C   UNL A   1      32.855  32.339  27.264  1.00  0.00     0.118 C 
BRANCH  30  31
ATOM     31  N   UNL A   1      32.529  33.747  27.465  1.00  0.00    -0.352 N 
ATOM     32  C   UNL A   1      33.038  34.634  28.385  1.00  0.00     0.251 C 
ATOM     33  H   UNL A   1      31.846  34.114  26.857  1.00  0.00     0.163 HD
ATOM     34  O   UNL A   1      32.526  35.740  28.531  1.00  0.00    -0.269 OA
BRANCH  32  35
ATOM     35  C   UNL A   1      34.191  34.230  29.212  1.00  0.00     0.039 A 
ATOM     36  C   UNL A   1      33.973  33.528  30.399  1.00  0.00     0.014 A 
ATOM     37  C   UNL A   1      35.490  34.503  28.778  1.00  0.00     0.014 A 
ATOM     38  C   UNL A   1      35.065  33.024  31.109  1.00  0.00     0.010 A 
ATOM     39  C   UNL A   1      36.567  33.917  29.430  1.00  0.00     0.010 A 
ATOM     40  C   UNL A   1      36.367  33.175  30.604  1.00  0.00    -0.014 A 
BRANCH  40  41
ATOM     41  C   UNL A   1      37.548  32.594  31.290  1.00  0.00     0.031 A 
ATOM     42  C   UNL A   1      38.252  31.414  30.678  1.00  0.00     0.074 A 
ATOM     43  C   UNL A   1      37.930  33.064  32.495  1.00  0.00     0.049 A 
ATOM     44  N   UNL A   1      39.205  30.669  31.176  1.00  0.00    -0.248 NA
ATOM     45  C   UNL A   1      37.799  30.994  29.341  1.00  0.00     0.031 C 
ATOM     46  C   UNL A   1      37.299  34.172  33.216  1.00  0.00     0.029 A 
ATOM     47  N   UNL A   1      38.935  32.653  33.334  1.00  0.00    -0.354 N 
ATOM     48  C   UNL A   1      39.443  29.682  30.228  1.00  0.00     0.074 A 
ATOM     49  C   UNL A   1      38.498  29.886  29.153  1.00  0.00     0.031 C 
ATOM     50  C   UNL A   1      37.948  34.368  34.376  1.00  0.00     0.029 A 
ATOM     51  C   UNL A   1      39.011  33.375  34.501  1.00  0.00     0.049 A 
ATOM     52  H   UNL A   1      39.546  31.910  33.120  1.00  0.00     0.167 HD
ATOM     53  C   UNL A   1      40.383  28.709  30.237  1.00  0.00     0.037 A 
ATOM     54  C   UNL A   1      39.839  33.243  35.554  1.00  0.00     0.037 A 
ATOM     55  C   UNL A   1      41.351  28.534  31.286  1.00  0.00     0.049 A 
ATOM     56  C   UNL A   1      40.881  32.159  35.535  1.00  0.00     0.074 A 
ATOM     57  C   UNL A   1      42.377  27.609  31.368  1.00  0.00     0.029 A 
ATOM     58  N   UNL A   1      41.420  29.314  32.430  1.00  0.00    -0.354 N 
ATOM     59  N   UNL A   1      41.124  31.260  34.611  1.00  0.00    -0.248 NA
ATOM     60  C   UNL A   1      41.768  32.071  36.704  1.00  0.00     0.031 C 
ATOM     61  C   UNL A   1      43.051  27.812  32.576  1.00  0.00     0.029 A 
ATOM     62  C   UNL A   1      42.468  28.888  33.227  1.00  0.00     0.049 A 
ATOM     63  H   UNL A   1      40.813  30.059  32.644  1.00  0.00     0.167 HD
ATOM     64  C   UNL A   1      42.210  30.528  35.069  1.00  0.00     0.074 A 
ATOM     65  C   UNL A   1      42.585  31.090  36.350  1.00  0.00     0.031 C 
ATOM     66  C   UNL A   1      42.841  29.482  34.484  1.00  0.00     0.037 A 
BRANCH  53  67
ATOM     67  C   UNL A   1      40.424  27.774  29.065  1.00  0.00     0.057 A 
ATOM     68  C   UNL A   1      39.665  26.597  29.036  1.00  0.00     0.134 A 
ATOM     69  C   UNL A   1      41.204  28.067  27.939  1.00  0.00     0.134 A 
ATOM     70  F   UNL A   1      38.909  26.251  30.090  1.00  0.00    -0.206 F 
ATOM     71  C   UNL A   1      39.696  25.734  27.941  1.00  0.00     0.040 A 
ATOM     72  C   UNL A   1      41.223  27.224  26.826  1.00  0.00     0.040 A 
ATOM     73  F   UNL A   1      41.952  29.179  27.899  1.00  0.00    -0.206 F 
ATOM     74  C   UNL A   1      40.472  26.051  26.828  1.00  0.00     0.006 A 
ENDBRANCH  53  67
BRANCH  54  75
ATOM     75  C   UNL A   1      39.741  34.173  36.708  1.00  0.00     0.057 A 
ATOM     76  C   UNL A   1      39.045  33.808  37.867  1.00  0.00     0.134 A 
ATOM     77  C   UNL A   1      40.308  35.452  36.672  1.00  0.00     0.134 A 
ATOM     78  F   UNL A   1      38.464  32.603  37.953  1.00  0.00    -0.206 F 
ATOM     79  C   UNL A   1      38.895  34.689  38.939  1.00  0.00     0.040 A 
ATOM     80  C   UNL A   1      40.186  36.336  37.747  1.00  0.00     0.040 A 
ATOM     81  F   UNL A   1      40.993  35.860  35.594  1.00  0.00    -0.206 F 
ATOM     82  C   UNL A   1      39.469  35.958  38.881  1.00  0.00     0.006 A 
ENDBRANCH  54  75
BRANCH  66  83
ATOM     83  C   UNL A   1      44.033  28.914  35.193  1.00  0.00     0.057 A 
ATOM     84  C   UNL A   1      43.915  27.881  36.130  1.00  0.00     0.134 A 
ATOM     85  C   UNL A   1      45.322  29.375  34.893  1.00  0.00     0.134 A 
ATOM     86  F   UNL A   1      42.706  27.405  36.468  1.00  0.00    -0.206 F 
ATOM     87  C   UNL A   1      45.036  27.338  36.758  1.00  0.00     0.040 A 
ATOM     88  C   UNL A   1      46.452  28.824  35.498  1.00  0.00     0.040 A 
ATOM     89  F   UNL A   1      45.502  30.358  33.997  1.00  0.00    -0.206 F 
ATOM     90  C   UNL A   1      46.309  27.805  36.436  1.00  0.00     0.006 A 
ENDBRANCH  66  83
ENDBRANCH  40  41
ENDBRANCH  32  35
ENDBRANCH  30  31
ENDBRANCH  29  30
ENDBRANCH   1  29
TORSDOF 14
ENDMDL
