MODEL 1
REMARK VINA RESULT:     -10.9      0.000      0.000
REMARK SMILES Cc1cc(Br)cnc1SCC1(CC(=O)NCCCNC(=O)c2ccc(-c3c4nc(c(-c5c(F)cccc5F)c5ccc([nH]5)c(-c5c(F)cccc5F)c5nc(c(-c6c(F)cccc6F)c6ccc3[nH]6)C=C5)C=C4)cc2)CC1
REMARK SMILES IDX 16 1 15 2 13 3 14 4 12 6 11 7 76 8 77 9 10 10 9 11 8 12 1 13
REMARK SMILES IDX 2 14 3 15 4 16 7 17 5 18 6 19 17 20 18 21 19 22 20 23 21 25
REMARK SMILES IDX 22 26 23 27 75 28 24 29 74 30 25 31 26 32 27 33 68 34 28 35
REMARK SMILES IDX 73 36 67 37 69 38 29 39 72 40 66 41 65 42 30 44 56 45 39 46
REMARK SMILES IDX 55 47 40 48 43 49 54 50 70 51 41 52 42 53 53 55 71 56 44 57
REMARK SMILES IDX 31 58 32 59 37 60 33 61 34 62 36 63 38 64 35 65 57 66 58 67
REMARK SMILES IDX 63 68 59 69 60 70 62 71 64 72 61 73 45 74 46 75 51 76 47 77
REMARK SMILES IDX 48 78 50 79 52 80 49 81
REMARK H PARENT 15 5 19 24 69 43 43 54
REMARK Flexibility Score: inf
ROOT
ATOM      1  C   UNL A   1      36.250  20.408  25.136  1.00  0.00     0.117 C 
ENDROOT
BRANCH   1   2
ATOM      2  N   UNL A   1      36.603  21.758  25.526  1.00  0.00    -0.356 N 
ATOM      3  C   UNL A   1      36.337  22.942  24.908  1.00  0.00     0.220 C 
ATOM      4  O   UNL A   1      36.808  23.965  25.406  1.00  0.00    -0.275 OA
ATOM      5  H   UNL A   1      37.113  21.829  26.365  1.00  0.00     0.163 HD
BRANCH   3   6
ATOM      6  C   UNL A   1      35.482  22.988  23.652  1.00  0.00     0.107 C 
BRANCH   6   7
ATOM      7  C   UNL A   1      34.128  23.680  23.789  1.00  0.00    -0.011 C 
ATOM      8  C   UNL A   1      33.383  23.939  22.487  1.00  0.00     0.009 C 
ATOM      9  C   UNL A   1      33.975  25.090  23.226  1.00  0.00     0.009 C 
BRANCH   7  10
ATOM     10  C   UNL A   1      33.365  23.401  25.066  1.00  0.00     0.084 C 
BRANCH  10  11
ATOM     11  S   UNL A   1      31.875  22.390  25.012  1.00  0.00    -0.106 SA
BRANCH  11  12
ATOM     12  C   UNL A   1      32.356  20.728  24.611  1.00  0.00     0.099 A 
ATOM     13  C   UNL A   1      31.913  20.729  22.062  1.00  0.00     0.047 C 
ATOM     14  C   UNL A   1      32.333  20.102  23.357  1.00  0.00    -0.018 A 
ATOM     15  C   UNL A   1      32.651  18.727  23.298  1.00  0.00     0.023 A 
ATOM     16  C   UNL A   1      32.919  18.014  24.456  1.00  0.00     0.036 A 
ATOM     17  N   UNL A   1      32.630  20.021  25.743  1.00  0.00    -0.248 NA
ATOM     18  Br  UNL A   1      33.278  16.167  24.392  1.00  0.00    -0.049 Br
ATOM     19  C   UNL A   1      32.884  18.696  25.651  1.00  0.00     0.128 A 
ENDBRANCH  11  12
ENDBRANCH  10  11
ENDBRANCH   7  10
ENDBRANCH   6   7
ENDBRANCH   3   6
ENDBRANCH   1   2
BRANCH   1  20
ATOM     20  C   UNL A   1      37.489  19.535  24.941  1.00  0.00     0.042 C 
BRANCH  20  21
ATOM     21  C   UNL A   1      38.771  20.157  25.484  1.00  0.00     0.118 C 
BRANCH  21  22
ATOM     22  N   UNL A   1      39.801  19.161  25.745  1.00  0.00    -0.352 N 
ATOM     23  C   UNL A   1      41.124  19.306  26.072  1.00  0.00     0.251 C 
ATOM     24  H   UNL A   1      39.495  18.228  25.675  1.00  0.00     0.163 HD
ATOM     25  O   UNL A   1      41.870  18.328  26.004  1.00  0.00    -0.269 OA
BRANCH  23  26
ATOM     26  C   UNL A   1      41.674  20.613  26.494  1.00  0.00     0.039 A 
ATOM     27  C   UNL A   1      42.060  21.531  25.510  1.00  0.00     0.014 A 
ATOM     28  C   UNL A   1      41.868  20.920  27.842  1.00  0.00     0.014 A 
ATOM     29  C   UNL A   1      42.577  22.775  25.881  1.00  0.00     0.010 A 
ATOM     30  C   UNL A   1      42.311  22.190  28.212  1.00  0.00     0.010 A 
ATOM     31  C   UNL A   1      42.673  23.129  27.235  1.00  0.00    -0.014 A 
BRANCH  31  32
ATOM     32  C   UNL A   1      43.138  24.476  27.652  1.00  0.00     0.031 A 
ATOM     33  C   UNL A   1      42.149  25.524  28.079  1.00  0.00     0.074 A 
ATOM     34  C   UNL A   1      44.449  24.779  27.571  1.00  0.00     0.049 A 
ATOM     35  N   UNL A   1      42.355  26.782  28.382  1.00  0.00    -0.248 NA
ATOM     36  C   UNL A   1      40.738  25.113  28.151  1.00  0.00     0.031 C 
ATOM     37  C   UNL A   1      45.504  23.863  27.133  1.00  0.00     0.029 A 
ATOM     38  N   UNL A   1      45.116  25.948  27.841  1.00  0.00    -0.354 N 
ATOM     39  C   UNL A   1      41.102  27.313  28.664  1.00  0.00     0.074 A 
ATOM     40  C   UNL A   1      40.137  26.255  28.450  1.00  0.00     0.031 C 
ATOM     41  C   UNL A   1      46.685  24.499  27.178  1.00  0.00     0.029 A 
ATOM     42  C   UNL A   1      46.468  25.877  27.607  1.00  0.00     0.049 A 
ATOM     43  H   UNL A   1      44.668  26.761  28.170  1.00  0.00     0.167 HD
ATOM     44  C   UNL A   1      40.787  28.563  29.081  1.00  0.00     0.037 A 
ATOM     45  C   UNL A   1      47.423  26.819  27.711  1.00  0.00     0.037 A 
ATOM     46  C   UNL A   1      41.752  29.605  29.315  1.00  0.00     0.049 A 
ATOM     47  C   UNL A   1      47.045  28.203  28.161  1.00  0.00     0.074 A 
ATOM     48  C   UNL A   1      41.538  30.885  29.800  1.00  0.00     0.029 A 
ATOM     49  N   UNL A   1      43.112  29.491  29.078  1.00  0.00    -0.354 N 
ATOM     50  N   UNL A   1      45.865  28.672  28.485  1.00  0.00    -0.248 NA
ATOM     51  C   UNL A   1      48.132  29.187  28.263  1.00  0.00     0.031 C 
ATOM     52  C   UNL A   1      42.763  31.558  29.812  1.00  0.00     0.029 A 
ATOM     53  C   UNL A   1      43.748  30.684  29.381  1.00  0.00     0.049 A 
ATOM     54  H   UNL A   1      43.561  28.681  28.745  1.00  0.00     0.167 HD
ATOM     55  C   UNL A   1      46.070  29.997  28.850  1.00  0.00     0.074 A 
ATOM     56  C   UNL A   1      47.490  30.250  28.724  1.00  0.00     0.031 C 
ATOM     57  C   UNL A   1      45.163  30.920  29.251  1.00  0.00     0.037 A 
BRANCH  44  58
ATOM     58  C   UNL A   1      39.335  28.871  29.312  1.00  0.00     0.057 A 
ATOM     59  C   UNL A   1      38.722  28.653  30.552  1.00  0.00     0.134 A 
ATOM     60  C   UNL A   1      38.552  29.429  28.293  1.00  0.00     0.134 A 
ATOM     61  F   UNL A   1      39.413  28.111  31.567  1.00  0.00    -0.206 F 
ATOM     62  C   UNL A   1      37.375  28.953  30.763  1.00  0.00     0.040 A 
ATOM     63  C   UNL A   1      37.212  29.759  28.501  1.00  0.00     0.040 A 
ATOM     64  F   UNL A   1      39.079  29.672  27.083  1.00  0.00    -0.206 F 
ATOM     65  C   UNL A   1      36.618  29.515  29.737  1.00  0.00     0.006 A 
ENDBRANCH  44  58
BRANCH  45  66
ATOM     66  C   UNL A   1      48.834  26.485  27.392  1.00  0.00     0.057 A 
ATOM     67  C   UNL A   1      49.335  26.639  26.095  1.00  0.00     0.134 A 
ATOM     68  C   UNL A   1      49.711  26.000  28.370  1.00  0.00     0.134 A 
ATOM     69  F   UNL A   1      48.539  27.082  25.112  1.00  0.00    -0.206 F 
ATOM     70  C   UNL A   1      50.653  26.305  25.776  1.00  0.00     0.040 A 
ATOM     71  C   UNL A   1      51.037  25.686  28.071  1.00  0.00     0.040 A 
ATOM     72  F   UNL A   1      49.293  25.839  29.634  1.00  0.00    -0.206 F 
ATOM     73  C   UNL A   1      51.509  25.831  26.767  1.00  0.00     0.006 A 
ENDBRANCH  45  66
BRANCH  57  74
ATOM     74  C   UNL A   1      45.683  32.282  29.608  1.00  0.00     0.057 A 
ATOM     75  C   UNL A   1      46.125  32.588  30.901  1.00  0.00     0.134 A 
ATOM     76  C   UNL A   1      45.774  33.287  28.637  1.00  0.00     0.134 A 
ATOM     77  F   UNL A   1      46.050  31.674  31.879  1.00  0.00    -0.206 F 
ATOM     78  C   UNL A   1      46.621  33.853  31.221  1.00  0.00     0.040 A 
ATOM     79  C   UNL A   1      46.292  34.548  28.938  1.00  0.00     0.040 A 
ATOM     80  F   UNL A   1      45.375  33.057  27.378  1.00  0.00    -0.206 F 
ATOM     81  C   UNL A   1      46.712  34.835  30.235  1.00  0.00     0.006 A 
ENDBRANCH  57  74
ENDBRANCH  31  32
ENDBRANCH  23  26
ENDBRANCH  21  22
ENDBRANCH  20  21
ENDBRANCH   1  20
TORSDOF 14
ENDMDL
MODEL 2
REMARK VINA RESULT:     -10.8      5.362      9.718
REMARK SMILES Cc1cc(Br)cnc1SCC1(CC(=O)NCCCNC(=O)c2ccc(-c3c4nc(c(-c5c(F)cccc5F)c5ccc([nH]5)c(-c5c(F)cccc5F)c5nc(c(-c6c(F)cccc6F)c6ccc3[nH]6)C=C5)C=C4)cc2)CC1
REMARK SMILES IDX 16 1 15 2 13 3 14 4 12 6 11 7 76 8 77 9 10 10 9 11 8 12 1 13
REMARK SMILES IDX 2 14 3 15 4 16 7 17 5 18 6 19 17 20 18 21 19 22 20 23 21 25
REMARK SMILES IDX 22 26 23 27 75 28 24 29 74 30 25 31 26 32 27 33 68 34 28 35
REMARK SMILES IDX 73 36 67 37 69 38 29 39 72 40 66 41 65 42 30 44 56 45 39 46
REMARK SMILES IDX 55 47 40 48 43 49 54 50 70 51 41 52 42 53 53 55 71 56 44 57
REMARK SMILES IDX 31 58 32 59 37 60 33 61 34 62 36 63 38 64 35 65 57 66 58 67
REMARK SMILES IDX 63 68 59 69 60 70 62 71 64 72 61 73 45 74 46 75 51 76 47 77
REMARK SMILES IDX 48 78 50 79 52 80 49 81
REMARK H PARENT 15 5 19 24 69 43 43 54
REMARK Flexibility Score: inf
ROOT
ATOM      1  C   UNL A   1      32.022  29.596  25.501  1.00  0.00     0.117 C 
ENDROOT
BRANCH   1   2
ATOM      2  N   UNL A   1      32.709  29.642  24.226  1.00  0.00    -0.356 N 
ATOM      3  C   UNL A   1      33.435  28.680  23.592  1.00  0.00     0.220 C 
ATOM      4  O   UNL A   1      33.985  28.985  22.533  1.00  0.00    -0.275 OA
ATOM      5  H   UNL A   1      32.639  30.498  23.746  1.00  0.00     0.163 HD
BRANCH   3   6
ATOM      6  C   UNL A   1      33.550  27.282  24.176  1.00  0.00     0.107 C 
BRANCH   6   7
ATOM      7  C   UNL A   1      32.788  26.183  23.438  1.00  0.00    -0.011 C 
ATOM      8  C   UNL A   1      32.821  24.805  24.087  1.00  0.00     0.009 C 
ATOM      9  C   UNL A   1      33.585  25.034  22.827  1.00  0.00     0.009 C 
BRANCH   7  10
ATOM     10  C   UNL A   1      31.577  26.630  22.648  1.00  0.00     0.084 C 
BRANCH  10  11
ATOM     11  S   UNL A   1      30.001  26.863  23.488  1.00  0.00    -0.106 SA
BRANCH  11  12
ATOM     12  C   UNL A   1      29.288  28.382  22.904  1.00  0.00     0.099 A 
ATOM     13  C   UNL A   1      26.831  28.043  23.641  1.00  0.00     0.047 C 
ATOM     14  C   UNL A   1      27.953  28.799  22.996  1.00  0.00    -0.018 A 
ATOM     15  C   UNL A   1      27.591  30.002  22.351  1.00  0.00     0.023 A 
ATOM     16  C   UNL A   1      28.519  30.712  21.606  1.00  0.00     0.036 A 
ATOM     17  N   UNL A   1      30.196  29.091  22.178  1.00  0.00    -0.248 NA
ATOM     18  Br  UNL A   1      28.027  32.281  20.689  1.00  0.00    -0.049 Br
ATOM     19  C   UNL A   1      29.800  30.214  21.537  1.00  0.00     0.128 A 
ENDBRANCH  11  12
ENDBRANCH  10  11
ENDBRANCH   7  10
ENDBRANCH   6   7
ENDBRANCH   3   6
ENDBRANCH   1   2
BRANCH   1  20
ATOM     20  C   UNL A   1      31.552  30.984  25.938  1.00  0.00     0.042 C 
BRANCH  20  21
ATOM     21  C   UNL A   1      32.202  31.476  27.226  1.00  0.00     0.118 C 
BRANCH  21  22
ATOM     22  N   UNL A   1      32.137  32.925  27.358  1.00  0.00    -0.352 N 
ATOM     23  C   UNL A   1      32.954  33.801  28.023  1.00  0.00     0.251 C 
ATOM     24  H   UNL A   1      31.378  33.345  26.892  1.00  0.00     0.163 HD
ATOM     25  O   UNL A   1      32.572  34.957  28.209  1.00  0.00    -0.269 OA
BRANCH  23  26
ATOM     26  C   UNL A   1      34.279  33.383  28.531  1.00  0.00     0.039 A 
ATOM     27  C   UNL A   1      34.348  32.687  29.743  1.00  0.00     0.014 A 
ATOM     28  C   UNL A   1      35.456  33.720  27.859  1.00  0.00     0.014 A 
ATOM     29  C   UNL A   1      35.586  32.274  30.243  1.00  0.00     0.010 A 
ATOM     30  C   UNL A   1      36.683  33.242  28.317  1.00  0.00     0.010 A 
ATOM     31  C   UNL A   1      36.761  32.517  29.515  1.00  0.00    -0.014 A 
BRANCH  31  32
ATOM     32  C   UNL A   1      38.078  32.014  29.983  1.00  0.00     0.031 A 
ATOM     33  C   UNL A   1      38.621  30.710  29.468  1.00  0.00     0.074 A 
ATOM     34  C   UNL A   1      38.750  32.697  30.931  1.00  0.00     0.049 A 
ATOM     35  N   UNL A   1      39.701  30.063  29.830  1.00  0.00    -0.248 NA
ATOM     36  C   UNL A   1      37.834  30.030  28.428  1.00  0.00     0.031 C 
ATOM     37  C   UNL A   1      38.310  33.953  31.541  1.00  0.00     0.029 A 
ATOM     38  N   UNL A   1      39.939  32.422  31.559  1.00  0.00    -0.354 N 
ATOM     39  C   UNL A   1      39.713  28.897  29.075  1.00  0.00     0.074 A 
ATOM     40  C   UNL A   1      38.510  28.902  28.270  1.00  0.00     0.031 C 
ATOM     41  C   UNL A   1      39.222  34.348  32.442  1.00  0.00     0.029 A 
ATOM     42  C   UNL A   1      40.289  33.354  32.505  1.00  0.00     0.049 A 
ATOM     43  H   UNL A   1      40.488  31.632  31.351  1.00  0.00     0.167 HD
ATOM     44  C   UNL A   1      40.651  27.920  29.042  1.00  0.00     0.037 A 
ATOM     45  C   UNL A   1      41.343  33.396  33.341  1.00  0.00     0.037 A 
ATOM     46  C   UNL A   1      41.858  27.930  29.826  1.00  0.00     0.049 A 
ATOM     47  C   UNL A   1      42.362  32.292  33.296  1.00  0.00     0.074 A 
ATOM     48  C   UNL A   1      42.900  27.018  29.816  1.00  0.00     0.029 A 
ATOM     49  N   UNL A   1      42.183  28.897  30.765  1.00  0.00    -0.354 N 
ATOM     50  N   UNL A   1      42.393  31.228  32.532  1.00  0.00    -0.248 NA
ATOM     51  C   UNL A   1      43.495  32.396  34.228  1.00  0.00     0.031 C 
ATOM     52  C   UNL A   1      43.834  27.410  30.781  1.00  0.00     0.029 A 
ATOM     53  C   UNL A   1      43.397  28.591  31.359  1.00  0.00     0.049 A 
ATOM     54  H   UNL A   1      41.633  29.685  30.978  1.00  0.00     0.167 HD
ATOM     55  C   UNL A   1      43.556  30.548  32.873  1.00  0.00     0.074 A 
ATOM     56  C   UNL A   1      44.211  31.330  33.901  1.00  0.00     0.031 C 
ATOM     57  C   UNL A   1      44.036  29.381  32.380  1.00  0.00     0.037 A 
BRANCH  44  58
ATOM     58  C   UNL A   1      40.408  26.756  28.124  1.00  0.00     0.057 A 
ATOM     59  C   UNL A   1      39.564  25.697  28.481  1.00  0.00     0.134 A 
ATOM     60  C   UNL A   1      40.994  26.714  26.853  1.00  0.00     0.134 A 
ATOM     61  F   UNL A   1      38.979  25.671  29.689  1.00  0.00    -0.206 F 
ATOM     62  C   UNL A   1      39.333  24.624  27.618  1.00  0.00     0.040 A 
ATOM     63  C   UNL A   1      40.748  25.660  25.970  1.00  0.00     0.040 A 
ATOM     64  F   UNL A   1      41.806  27.700  26.443  1.00  0.00    -0.206 F 
ATOM     65  C   UNL A   1      39.921  24.608  26.355  1.00  0.00     0.006 A 
ENDBRANCH  44  58
BRANCH  45  66
ATOM     66  C   UNL A   1      41.496  34.529  34.289  1.00  0.00     0.057 A 
ATOM     67  C   UNL A   1      42.162  35.700  33.910  1.00  0.00     0.134 A 
ATOM     68  C   UNL A   1      40.988  34.468  35.592  1.00  0.00     0.134 A 
ATOM     69  F   UNL A   1      42.685  35.811  32.681  1.00  0.00    -0.206 F 
ATOM     70  C   UNL A   1      42.334  36.763  34.798  1.00  0.00     0.040 A 
ATOM     71  C   UNL A   1      41.131  35.532  36.482  1.00  0.00     0.040 A 
ATOM     72  F   UNL A   1      40.332  33.377  36.013  1.00  0.00    -0.206 F 
ATOM     73  C   UNL A   1      41.813  36.683  36.088  1.00  0.00     0.006 A 
ENDBRANCH  45  66
BRANCH  57  74
ATOM     74  C   UNL A   1      45.345  28.892  32.929  1.00  0.00     0.057 A 
ATOM     75  C   UNL A   1      45.407  28.020  34.023  1.00  0.00     0.134 A 
ATOM     76  C   UNL A   1      46.554  29.272  32.334  1.00  0.00     0.134 A 
ATOM     77  F   UNL A   1      44.285  27.631  34.647  1.00  0.00    -0.206 F 
ATOM     78  C   UNL A   1      46.627  27.559  34.519  1.00  0.00     0.040 A 
ATOM     79  C   UNL A   1      47.780  28.798  32.804  1.00  0.00     0.040 A 
ATOM     80  F   UNL A   1      46.564  30.100  31.279  1.00  0.00    -0.206 F 
ATOM     81  C   UNL A   1      47.818  27.943  33.904  1.00  0.00     0.006 A 
ENDBRANCH  57  74
ENDBRANCH  31  32
ENDBRANCH  23  26
ENDBRANCH  21  22
ENDBRANCH  20  21
ENDBRANCH   1  20
TORSDOF 14
ENDMDL
MODEL 3
REMARK VINA RESULT:     -10.8      5.710     10.239
REMARK SMILES Cc1cc(Br)cnc1SCC1(CC(=O)NCCCNC(=O)c2ccc(-c3c4nc(c(-c5c(F)cccc5F)c5ccc([nH]5)c(-c5c(F)cccc5F)c5nc(c(-c6c(F)cccc6F)c6ccc3[nH]6)C=C5)C=C4)cc2)CC1
REMARK SMILES IDX 16 1 15 2 13 3 14 4 12 6 11 7 76 8 77 9 10 10 9 11 8 12 1 13
REMARK SMILES IDX 2 14 3 15 4 16 7 17 5 18 6 19 17 20 18 21 19 22 20 23 21 25
REMARK SMILES IDX 22 26 23 27 75 28 24 29 74 30 25 31 26 32 27 33 68 34 28 35
REMARK SMILES IDX 73 36 67 37 69 38 29 39 72 40 66 41 65 42 30 44 56 45 39 46
REMARK SMILES IDX 55 47 40 48 43 49 54 50 70 51 41 52 42 53 53 55 71 56 44 57
REMARK SMILES IDX 31 58 32 59 37 60 33 61 34 62 36 63 38 64 35 65 57 66 58 67
REMARK SMILES IDX 63 68 59 69 60 70 62 71 64 72 61 73 45 74 46 75 51 76 47 77
REMARK SMILES IDX 48 78 50 79 52 80 49 81
REMARK H PARENT 15 5 19 24 69 43 43 54
REMARK Flexibility Score: inf
ROOT
ATOM      1  C   UNL A   1      32.675  29.267  25.158  1.00  0.00     0.117 C 
ENDROOT
BRANCH   1   2
ATOM      2  N   UNL A   1      33.161  29.279  23.793  1.00  0.00    -0.356 N 
ATOM      3  C   UNL A   1      33.661  28.263  23.036  1.00  0.00     0.220 C 
ATOM      4  O   UNL A   1      34.078  28.541  21.911  1.00  0.00    -0.275 OA
ATOM      5  H   UNL A   1      33.124  30.155  23.346  1.00  0.00     0.163 HD
BRANCH   3   6
ATOM      6  C   UNL A   1      33.693  26.840  23.570  1.00  0.00     0.107 C 
BRANCH   6   7
ATOM      7  C   UNL A   1      32.624  25.897  23.023  1.00  0.00    -0.011 C 
ATOM      8  C   UNL A   1      32.527  24.539  23.707  1.00  0.00     0.009 C 
ATOM      9  C   UNL A   1      33.076  24.618  22.323  1.00  0.00     0.009 C 
BRANCH   7  10
ATOM     10  C   UNL A   1      31.389  26.554  22.446  1.00  0.00     0.084 C 
BRANCH  10  11
ATOM     11  S   UNL A   1      30.036  27.024  23.539  1.00  0.00    -0.106 SA
BRANCH  11  12
ATOM     12  C   UNL A   1      29.306  28.512  22.899  1.00  0.00     0.099 A 
ATOM     13  C   UNL A   1      26.848  28.159  23.625  1.00  0.00     0.047 C 
ATOM     14  C   UNL A   1      27.964  28.911  22.965  1.00  0.00    -0.018 A 
ATOM     15  C   UNL A   1      27.590  30.086  22.278  1.00  0.00     0.023 A 
ATOM     16  C   UNL A   1      28.514  30.785  21.517  1.00  0.00     0.036 A 
ATOM     17  N   UNL A   1      30.210  29.210  22.158  1.00  0.00    -0.248 NA
ATOM     18  Br  UNL A   1      28.007  32.316  20.545  1.00  0.00    -0.049 Br
ATOM     19  C   UNL A   1      29.803  30.305  21.476  1.00  0.00     0.128 A 
ENDBRANCH  11  12
ENDBRANCH  10  11
ENDBRANCH   7  10
ENDBRANCH   6   7
ENDBRANCH   3   6
ENDBRANCH   1   2
BRANCH   1  20
ATOM     20  C   UNL A   1      31.720  30.430  25.427  1.00  0.00     0.042 C 
BRANCH  20  21
ATOM     21  C   UNL A   1      31.803  30.978  26.847  1.00  0.00     0.118 C 
BRANCH  21  22
ATOM     22  N   UNL A   1      31.897  32.431  26.873  1.00  0.00    -0.352 N 
ATOM     23  C   UNL A   1      32.767  33.259  27.533  1.00  0.00     0.251 C 
ATOM     24  H   UNL A   1      31.224  32.895  26.326  1.00  0.00     0.163 HD
ATOM     25  O   UNL A   1      32.510  34.462  27.610  1.00  0.00    -0.269 OA
BRANCH  23  26
ATOM     26  C   UNL A   1      34.000  32.738  28.162  1.00  0.00     0.039 A 
ATOM     27  C   UNL A   1      35.067  33.616  28.386  1.00  0.00     0.014 A 
ATOM     28  C   UNL A   1      34.138  31.385  28.480  1.00  0.00     0.014 A 
ATOM     29  C   UNL A   1      36.241  33.151  28.984  1.00  0.00     0.010 A 
ATOM     30  C   UNL A   1      35.279  30.938  29.147  1.00  0.00     0.010 A 
ATOM     31  C   UNL A   1      36.342  31.815  29.403  1.00  0.00    -0.014 A 
BRANCH  31  32
ATOM     32  C   UNL A   1      37.545  31.318  30.118  1.00  0.00     0.031 A 
ATOM     33  C   UNL A   1      38.499  30.377  29.437  1.00  0.00     0.074 A 
ATOM     34  C   UNL A   1      37.737  31.656  31.408  1.00  0.00     0.049 A 
ATOM     35  N   UNL A   1      39.547  29.762  29.928  1.00  0.00    -0.248 NA
ATOM     36  C   UNL A   1      38.228  30.064  28.026  1.00  0.00     0.031 C 
ATOM     37  C   UNL A   1      36.862  32.529  32.193  1.00  0.00     0.029 A 
ATOM     38  N   UNL A   1      38.723  31.293  32.292  1.00  0.00    -0.354 N 
ATOM     39  C   UNL A   1      40.046  28.981  28.893  1.00  0.00     0.074 A 
ATOM     40  C   UNL A   1      39.161  29.162  27.762  1.00  0.00     0.031 C 
ATOM     41  C   UNL A   1      37.357  32.646  33.435  1.00  0.00     0.029 A 
ATOM     42  C   UNL A   1      38.559  31.825  33.548  1.00  0.00     0.049 A 
ATOM     43  H   UNL A   1      39.475  30.706  32.049  1.00  0.00     0.167 HD
ATOM     44  C   UNL A   1      41.152  28.199  28.881  1.00  0.00     0.037 A 
ATOM     45  C   UNL A   1      39.286  31.659  34.668  1.00  0.00     0.037 A 
ATOM     46  C   UNL A   1      42.043  28.039  30.000  1.00  0.00     0.049 A 
ATOM     47  C   UNL A   1      40.499  30.773  34.633  1.00  0.00     0.074 A 
ATOM     48  C   UNL A   1      43.224  27.319  30.066  1.00  0.00     0.029 A 
ATOM     49  N   UNL A   1      41.850  28.603  31.251  1.00  0.00    -0.354 N 
ATOM     50  N   UNL A   1      40.995  30.092  33.629  1.00  0.00    -0.248 NA
ATOM     51  C   UNL A   1      41.257  30.636  35.885  1.00  0.00     0.031 C 
ATOM     52  C   UNL A   1      43.721  27.412  31.370  1.00  0.00     0.029 A 
ATOM     53  C   UNL A   1      42.875  28.228  32.104  1.00  0.00     0.049 A 
ATOM     54  H   UNL A   1      41.096  29.186  31.497  1.00  0.00     0.167 HD
ATOM     55  C   UNL A   1      42.133  29.464  34.121  1.00  0.00     0.074 A 
ATOM     56  C   UNL A   1      42.263  29.860  35.508  1.00  0.00     0.031 C 
ATOM     57  C   UNL A   1      42.991  28.632  33.482  1.00  0.00     0.037 A 
BRANCH  44  58
ATOM     58  C   UNL A   1      41.461  27.454  27.613  1.00  0.00     0.057 A 
ATOM     59  C   UNL A   1      41.014  26.145  27.398  1.00  0.00     0.134 A 
ATOM     60  C   UNL A   1      42.180  28.069  26.580  1.00  0.00     0.134 A 
ATOM     61  F   UNL A   1      40.328  25.494  28.351  1.00  0.00    -0.206 F 
ATOM     62  C   UNL A   1      41.294  25.463  26.212  1.00  0.00     0.040 A 
ATOM     63  C   UNL A   1      42.442  27.408  25.379  1.00  0.00     0.040 A 
ATOM     64  F   UNL A   1      42.631  29.325  26.717  1.00  0.00    -0.206 F 
ATOM     65  C   UNL A   1      42.004  26.098  25.196  1.00  0.00     0.006 A 
ENDBRANCH  44  58
BRANCH  45  66
ATOM     66  C   UNL A   1      38.891  32.354  35.920  1.00  0.00     0.057 A 
ATOM     67  C   UNL A   1      38.138  31.699  36.901  1.00  0.00     0.134 A 
ATOM     68  C   UNL A   1      39.250  33.685  36.162  1.00  0.00     0.134 A 
ATOM     69  F   UNL A   1      37.749  30.429  36.717  1.00  0.00    -0.206 F 
ATOM     70  C   UNL A   1      37.740  32.348  38.071  1.00  0.00     0.040 A 
ATOM     71  C   UNL A   1      38.879  34.339  37.338  1.00  0.00     0.040 A 
ATOM     72  F   UNL A   1      39.978  34.365  35.265  1.00  0.00    -0.206 F 
ATOM     73  C   UNL A   1      38.114  33.671  38.294  1.00  0.00     0.006 A 
ENDBRANCH  45  66
BRANCH  57  74
ATOM     74  C   UNL A   1      44.160  28.116  34.269  1.00  0.00     0.057 A 
ATOM     75  C   UNL A   1      45.362  28.829  34.359  1.00  0.00     0.134 A 
ATOM     76  C   UNL A   1      44.069  26.909  34.973  1.00  0.00     0.134 A 
ATOM     77  F   UNL A   1      45.517  29.985  33.695  1.00  0.00    -0.206 F 
ATOM     78  C   UNL A   1      46.440  28.350  35.104  1.00  0.00     0.040 A 
ATOM     79  C   UNL A   1      45.131  26.432  35.743  1.00  0.00     0.040 A 
ATOM     80  F   UNL A   1      42.943  26.181  34.934  1.00  0.00    -0.206 F 
ATOM     81  C   UNL A   1      46.323  27.151  35.805  1.00  0.00     0.006 A 
ENDBRANCH  57  74
ENDBRANCH  31  32
ENDBRANCH  23  26
ENDBRANCH  21  22
ENDBRANCH  20  21
ENDBRANCH   1  20
TORSDOF 14
ENDMDL
