MODEL 1
REMARK VINA RESULT:     -11.7      0.000      0.000
REMARK SMILES CC(C)(C[S@@](=O)c1ccc(C(C)(C)C)cc1)C(=O)NCCCNC(=O)c1ccc(-c2c3nc(c(-c4c(F)cccc4F)c4ccc([nH]4)c(-c4c(F)cccc4F)c4nc(c(-c5c(F)cccc5F)c5ccc2[nH]5)C=C4)C=C3)cc1
REMARK SMILES IDX 20 1 19 2 17 3 18 4 2 6 1 7 3 8 4 9 5 10 6 11 7 12 8 13
REMARK SMILES IDX 16 14 9 15 15 16 10 17 11 18 12 19 13 20 14 21 21 22 22 23
REMARK SMILES IDX 23 24 24 25 25 27 26 28 27 29 79 30 28 31 78 32 29 33 30 34
REMARK SMILES IDX 31 35 72 36 32 37 77 38 71 39 73 40 33 41 76 42 70 43 69 44
REMARK SMILES IDX 34 46 60 47 43 48 59 49 44 50 47 51 58 52 74 53 45 54 46 55
REMARK SMILES IDX 57 57 75 58 48 59 35 60 36 61 41 62 37 63 38 64 40 65 42 66
REMARK SMILES IDX 39 67 61 68 62 69 67 70 63 71 64 72 66 73 68 74 65 75 49 76
REMARK SMILES IDX 50 77 55 78 51 79 52 80 54 81 56 82 53 83
REMARK H PARENT 19 5 23 26 73 45 47 56
REMARK Flexibility Score: inf
ROOT
ATOM      1  C   UNL A   1      36.684  20.460  25.233  1.00  0.00     0.117 C 
ENDROOT
BRANCH   1   2
ATOM      2  N   UNL A   1      35.445  19.740  25.002  1.00  0.00    -0.356 N 
ATOM      3  C   UNL A   1      34.173  20.128  24.738  1.00  0.00     0.226 C 
ATOM      4  O   UNL A   1      33.352  19.210  24.631  1.00  0.00    -0.274 OA
ATOM      5  H   UNL A   1      35.551  18.762  25.045  1.00  0.00     0.163 HD
BRANCH   3   6
ATOM      6  C   UNL A   1      33.745  21.599  24.596  1.00  0.00     0.055 C 
ATOM      7  C   UNL A   1      32.503  21.661  23.674  1.00  0.00     0.022 C 
ATOM      8  C   UNL A   1      34.827  22.411  23.852  1.00  0.00     0.022 C 
BRANCH   6   9
ATOM      9  C   UNL A   1      33.445  22.252  25.957  1.00  0.00     0.126 C 
BRANCH   9  10
ATOM     10  S   UNL A   1      31.755  22.914  26.183  1.00  0.00     0.054 S 
ATOM     11  O   UNL A   1      31.403  22.683  27.624  1.00  0.00    -0.254 OA
BRANCH  10  12
ATOM     12  C   UNL A   1      32.051  24.689  26.061  1.00  0.00     0.039 A 
ATOM     13  C   UNL A   1      31.034  25.632  26.202  1.00  0.00     0.018 A 
ATOM     14  C   UNL A   1      33.356  25.134  25.842  1.00  0.00     0.018 A 
ATOM     15  C   UNL A   1      31.337  26.997  26.224  1.00  0.00     0.005 A 
ATOM     16  C   UNL A   1      33.651  26.503  25.834  1.00  0.00     0.005 A 
ATOM     17  C   UNL A   1      32.653  27.466  26.052  1.00  0.00    -0.043 A 
BRANCH  17  18
ATOM     18  C   UNL A   1      32.955  28.972  26.136  1.00  0.00    -0.013 C 
ATOM     19  C   UNL A   1      34.287  29.215  26.877  1.00  0.00     0.016 C 
ATOM     20  C   UNL A   1      33.062  29.539  24.703  1.00  0.00     0.016 C 
ATOM     21  C   UNL A   1      31.871  29.787  26.875  1.00  0.00     0.016 C 
ENDBRANCH  17  18
ENDBRANCH  10  12
ENDBRANCH   9  10
ENDBRANCH   6   9
ENDBRANCH   3   6
ENDBRANCH   1   2
BRANCH   1  22
ATOM     22  C   UNL A   1      37.912  19.588  25.001  1.00  0.00     0.042 C 
BRANCH  22  23
ATOM     23  C   UNL A   1      39.187  20.117  25.645  1.00  0.00     0.118 C 
BRANCH  23  24
ATOM     24  N   UNL A   1      40.205  19.087  25.811  1.00  0.00    -0.352 N 
ATOM     25  C   UNL A   1      41.551  19.200  26.057  1.00  0.00     0.251 C 
ATOM     26  H   UNL A   1      39.875  18.163  25.736  1.00  0.00     0.163 HD
ATOM     27  O   UNL A   1      42.267  18.204  25.976  1.00  0.00    -0.269 OA
BRANCH  25  28
ATOM     28  C   UNL A   1      42.150  20.508  26.399  1.00  0.00     0.039 A 
ATOM     29  C   UNL A   1      42.701  21.287  25.376  1.00  0.00     0.014 A 
ATOM     30  C   UNL A   1      42.197  20.959  27.720  1.00  0.00     0.014 A 
ATOM     31  C   UNL A   1      43.231  22.545  25.670  1.00  0.00     0.010 A 
ATOM     32  C   UNL A   1      42.645  22.247  27.999  1.00  0.00     0.010 A 
ATOM     33  C   UNL A   1      43.171  23.052  26.978  1.00  0.00    -0.014 A 
BRANCH  33  34
ATOM     34  C   UNL A   1      43.655  24.418  27.303  1.00  0.00     0.031 A 
ATOM     35  C   UNL A   1      42.686  25.477  27.750  1.00  0.00     0.074 A 
ATOM     36  C   UNL A   1      44.954  24.725  27.122  1.00  0.00     0.049 A 
ATOM     37  N   UNL A   1      42.900  26.746  27.991  1.00  0.00    -0.248 NA
ATOM     38  C   UNL A   1      41.284  25.062  27.923  1.00  0.00     0.031 C 
ATOM     39  C   UNL A   1      45.985  23.802  26.644  1.00  0.00     0.029 A 
ATOM     40  N   UNL A   1      45.627  25.906  27.306  1.00  0.00    -0.354 N 
ATOM     41  C   UNL A   1      41.661  27.282  28.319  1.00  0.00     0.074 A 
ATOM     42  C   UNL A   1      40.693  26.214  28.200  1.00  0.00     0.031 C 
ATOM     43  C   UNL A   1      47.163  24.445  26.593  1.00  0.00     0.029 A 
ATOM     44  C   UNL A   1      46.963  25.834  26.995  1.00  0.00     0.049 A 
ATOM     45  H   UNL A   1      45.193  26.729  27.630  1.00  0.00     0.167 HD
ATOM     46  C   UNL A   1      41.360  28.544  28.708  1.00  0.00     0.037 A 
ATOM     47  C   UNL A   1      47.920  26.781  27.025  1.00  0.00     0.037 A 
ATOM     48  C   UNL A   1      42.330  29.598  28.856  1.00  0.00     0.049 A 
ATOM     49  C   UNL A   1      47.561  28.173  27.463  1.00  0.00     0.074 A 
ATOM     50  C   UNL A   1      42.135  30.892  29.305  1.00  0.00     0.029 A 
ATOM     51  N   UNL A   1      43.678  29.476  28.558  1.00  0.00    -0.354 N 
ATOM     52  N   UNL A   1      46.397  28.650  27.834  1.00  0.00    -0.248 NA
ATOM     53  C   UNL A   1      48.651  29.160  27.492  1.00  0.00     0.031 C 
ATOM     54  C   UNL A   1      43.360  31.565  29.243  1.00  0.00     0.029 A 
ATOM     55  C   UNL A   1      44.325  30.678  28.796  1.00  0.00     0.049 A 
ATOM     56  H   UNL A   1      44.113  28.657  28.226  1.00  0.00     0.167 HD
ATOM     57  C   UNL A   1      46.620  29.979  28.167  1.00  0.00     0.074 A 
ATOM     58  C   UNL A   1      48.031  30.231  27.965  1.00  0.00     0.031 C 
ATOM     59  C   UNL A   1      45.733  30.909  28.600  1.00  0.00     0.037 A 
BRANCH  46  60
ATOM     60  C   UNL A   1      39.922  28.852  29.007  1.00  0.00     0.057 A 
ATOM     61  C   UNL A   1      39.027  29.246  28.004  1.00  0.00     0.134 A 
ATOM     62  C   UNL A   1      39.418  28.724  30.307  1.00  0.00     0.134 A 
ATOM     63  F   UNL A   1      39.448  29.400  26.739  1.00  0.00    -0.206 F 
ATOM     64  C   UNL A   1      37.690  29.528  28.287  1.00  0.00     0.040 A 
ATOM     65  C   UNL A   1      38.076  28.976  30.598  1.00  0.00     0.040 A 
ATOM     66  F   UNL A   1      40.218  28.344  31.314  1.00  0.00    -0.206 F 
ATOM     67  C   UNL A   1      37.209  29.386  29.587  1.00  0.00     0.006 A 
ENDBRANCH  46  60
BRANCH  47  68
ATOM     68  C   UNL A   1      49.314  26.440  26.650  1.00  0.00     0.057 A 
ATOM     69  C   UNL A   1      50.199  25.899  27.588  1.00  0.00     0.134 A 
ATOM     70  C   UNL A   1      49.797  26.650  25.352  1.00  0.00     0.134 A 
ATOM     71  F   UNL A   1      49.800  25.693  28.852  1.00  0.00    -0.206 F 
ATOM     72  C   UNL A   1      51.521  25.595  27.257  1.00  0.00     0.040 A 
ATOM     73  C   UNL A   1      51.108  26.328  25.000  1.00  0.00     0.040 A 
ATOM     74  F   UNL A   1      48.995  27.160  24.405  1.00  0.00    -0.206 F 
ATOM     75  C   UNL A   1      51.977  25.805  25.956  1.00  0.00     0.006 A 
ENDBRANCH  47  68
BRANCH  59  76
ATOM     76  C   UNL A   1      46.271  32.271  28.921  1.00  0.00     0.057 A 
ATOM     77  C   UNL A   1      46.313  33.294  27.965  1.00  0.00     0.134 A 
ATOM     78  C   UNL A   1      46.715  32.574  30.214  1.00  0.00     0.134 A 
ATOM     79  F   UNL A   1      45.915  33.063  26.704  1.00  0.00    -0.206 F 
ATOM     80  C   UNL A   1      46.799  34.564  28.279  1.00  0.00     0.040 A 
ATOM     81  C   UNL A   1      47.178  33.848  30.546  1.00  0.00     0.040 A 
ATOM     82  F   UNL A   1      46.693  31.641  31.178  1.00  0.00    -0.206 F 
ATOM     83  C   UNL A   1      47.226  34.846  29.575  1.00  0.00     0.006 A 
ENDBRANCH  59  76
ENDBRANCH  33  34
ENDBRANCH  25  28
ENDBRANCH  23  24
ENDBRANCH  22  23
ENDBRANCH   1  22
TORSDOF 14
ENDMDL
MODEL 2
REMARK VINA RESULT:     -11.7      1.330      2.329
REMARK SMILES CC(C)(C[S@@](=O)c1ccc(C(C)(C)C)cc1)C(=O)NCCCNC(=O)c1ccc(-c2c3nc(c(-c4c(F)cccc4F)c4ccc([nH]4)c(-c4c(F)cccc4F)c4nc(c(-c5c(F)cccc5F)c5ccc2[nH]5)C=C4)C=C3)cc1
REMARK SMILES IDX 20 1 19 2 17 3 18 4 2 6 1 7 3 8 4 9 5 10 6 11 7 12 8 13
REMARK SMILES IDX 16 14 9 15 15 16 10 17 11 18 12 19 13 20 14 21 21 22 22 23
REMARK SMILES IDX 23 24 24 25 25 27 26 28 27 29 79 30 28 31 78 32 29 33 30 34
REMARK SMILES IDX 31 35 72 36 32 37 77 38 71 39 73 40 33 41 76 42 70 43 69 44
REMARK SMILES IDX 34 46 60 47 43 48 59 49 44 50 47 51 58 52 74 53 45 54 46 55
REMARK SMILES IDX 57 57 75 58 48 59 35 60 36 61 41 62 37 63 38 64 40 65 42 66
REMARK SMILES IDX 39 67 61 68 62 69 67 70 63 71 64 72 66 73 68 74 65 75 49 76
REMARK SMILES IDX 50 77 55 78 51 79 52 80 54 81 56 82 53 83
REMARK H PARENT 19 5 23 26 73 45 47 56
REMARK Flexibility Score: inf
ROOT
ATOM      1  C   UNL A   1      36.342  20.708  25.192  1.00  0.00     0.117 C 
ENDROOT
BRANCH   1   2
ATOM      2  N   UNL A   1      35.153  19.897  24.998  1.00  0.00    -0.356 N 
ATOM      3  C   UNL A   1      33.848  20.188  24.773  1.00  0.00     0.226 C 
ATOM      4  O   UNL A   1      33.095  19.210  24.692  1.00  0.00    -0.274 OA
ATOM      5  H   UNL A   1      35.333  18.929  25.039  1.00  0.00     0.163 HD
BRANCH   3   6
ATOM      6  C   UNL A   1      33.307  21.621  24.644  1.00  0.00     0.055 C 
ATOM      7  C   UNL A   1      32.019  21.583  23.787  1.00  0.00     0.022 C 
ATOM      8  C   UNL A   1      34.287  22.502  23.838  1.00  0.00     0.022 C 
BRANCH   6   9
ATOM      9  C   UNL A   1      33.031  22.266  26.014  1.00  0.00     0.126 C 
BRANCH   9  10
ATOM     10  S   UNL A   1      31.398  23.063  26.220  1.00  0.00     0.054 S 
ATOM     11  O   UNL A   1      31.038  22.916  27.669  1.00  0.00    -0.254 OA
BRANCH  10  12
ATOM     12  C   UNL A   1      31.828  24.805  26.029  1.00  0.00     0.039 A 
ATOM     13  C   UNL A   1      33.144  25.245  25.903  1.00  0.00     0.018 A 
ATOM     14  C   UNL A   1      30.796  25.744  25.979  1.00  0.00     0.018 A 
ATOM     15  C   UNL A   1      33.415  26.590  25.631  1.00  0.00     0.005 A 
ATOM     16  C   UNL A   1      31.072  27.096  25.737  1.00  0.00     0.005 A 
ATOM     17  C   UNL A   1      32.386  27.546  25.530  1.00  0.00    -0.043 A 
BRANCH  17  18
ATOM     18  C   UNL A   1      32.718  29.006  25.178  1.00  0.00    -0.013 C 
ATOM     19  C   UNL A   1      31.431  29.858  25.137  1.00  0.00     0.016 C 
ATOM     20  C   UNL A   1      33.668  29.575  26.254  1.00  0.00     0.016 C 
ATOM     21  C   UNL A   1      33.416  29.176  23.809  1.00  0.00     0.016 C 
ENDBRANCH  17  18
ENDBRANCH  10  12
ENDBRANCH   9  10
ENDBRANCH   6   9
ENDBRANCH   3   6
ENDBRANCH   1   2
BRANCH   1  22
ATOM     22  C   UNL A   1      37.623  19.931  24.917  1.00  0.00     0.042 C 
BRANCH  22  23
ATOM     23  C   UNL A   1      38.837  20.432  25.689  1.00  0.00     0.118 C 
BRANCH  23  24
ATOM     24  N   UNL A   1      39.909  19.447  25.757  1.00  0.00    -0.352 N 
ATOM     25  C   UNL A   1      41.239  19.601  26.063  1.00  0.00     0.251 C 
ATOM     26  H   UNL A   1      39.636  18.524  25.552  1.00  0.00     0.163 HD
ATOM     27  O   UNL A   1      42.014  18.664  25.879  1.00  0.00    -0.269 OA
BRANCH  25  28
ATOM     28  C   UNL A   1      41.751  20.883  26.590  1.00  0.00     0.039 A 
ATOM     29  C   UNL A   1      42.194  21.856  25.688  1.00  0.00     0.014 A 
ATOM     30  C   UNL A   1      41.820  21.124  27.964  1.00  0.00     0.014 A 
ATOM     31  C   UNL A   1      42.638  23.092  26.163  1.00  0.00     0.010 A 
ATOM     32  C   UNL A   1      42.180  22.385  28.431  1.00  0.00     0.010 A 
ATOM     33  C   UNL A   1      42.597  23.381  27.536  1.00  0.00    -0.014 A 
BRANCH  33  34
ATOM     34  C   UNL A   1      42.988  24.714  28.060  1.00  0.00     0.031 A 
ATOM     35  C   UNL A   1      41.941  25.758  28.330  1.00  0.00     0.074 A 
ATOM     36  C   UNL A   1      44.293  25.011  28.220  1.00  0.00     0.049 A 
ATOM     37  N   UNL A   1      42.091  27.005  28.701  1.00  0.00    -0.248 NA
ATOM     38  C   UNL A   1      40.538  25.356  28.130  1.00  0.00     0.031 C 
ATOM     39  C   UNL A   1      45.408  24.103  27.944  1.00  0.00     0.029 A 
ATOM     40  N   UNL A   1      44.902  26.166  28.641  1.00  0.00    -0.354 N 
ATOM     41  C   UNL A   1      40.809  27.539  28.755  1.00  0.00     0.074 A 
ATOM     42  C   UNL A   1      39.898  26.497  28.334  1.00  0.00     0.031 C 
ATOM     43  C   UNL A   1      46.564  24.729  28.223  1.00  0.00     0.029 A 
ATOM     44  C   UNL A   1      46.273  26.091  28.658  1.00  0.00     0.049 A 
ATOM     45  H   UNL A   1      44.403  26.973  28.904  1.00  0.00     0.167 HD
ATOM     46  C   UNL A   1      40.424  28.778  29.144  1.00  0.00     0.037 A 
ATOM     47  C   UNL A   1      47.195  27.019  28.982  1.00  0.00     0.037 A 
ATOM     48  C   UNL A   1      41.329  29.803  29.593  1.00  0.00     0.049 A 
ATOM     49  C   UNL A   1      46.741  28.385  29.413  1.00  0.00     0.074 A 
ATOM     50  C   UNL A   1      41.032  31.068  30.068  1.00  0.00     0.029 A 
ATOM     51  N   UNL A   1      42.710  29.679  29.622  1.00  0.00    -0.354 N 
ATOM     52  N   UNL A   1      45.522  28.856  29.523  1.00  0.00    -0.248 NA
ATOM     53  C   UNL A   1      47.792  29.349  29.771  1.00  0.00     0.031 C 
ATOM     54  C   UNL A   1      42.235  31.723  30.349  1.00  0.00     0.029 A 
ATOM     55  C   UNL A   1      43.280  30.851  30.091  1.00  0.00     0.049 A 
ATOM     56  H   UNL A   1      43.211  28.876  29.350  1.00  0.00     0.167 HD
ATOM     57  C   UNL A   1      45.658  30.157  29.989  1.00  0.00     0.074 A 
ATOM     58  C   UNL A   1      47.077  30.397  30.152  1.00  0.00     0.031 C 
ATOM     59  C   UNL A   1      44.693  31.071  30.257  1.00  0.00     0.037 A 
BRANCH  46  60
ATOM     60  C   UNL A   1      38.956  29.089  29.106  1.00  0.00     0.057 A 
ATOM     61  C   UNL A   1      38.147  28.974  30.244  1.00  0.00     0.134 A 
ATOM     62  C   UNL A   1      38.350  29.539  27.926  1.00  0.00     0.134 A 
ATOM     63  F   UNL A   1      38.663  28.536  31.403  1.00  0.00    -0.206 F 
ATOM     64  C   UNL A   1      36.783  29.268  30.204  1.00  0.00     0.040 A 
ATOM     65  C   UNL A   1      36.993  29.862  27.880  1.00  0.00     0.040 A 
ATOM     66  F   UNL A   1      39.067  29.679  26.801  1.00  0.00    -0.206 F 
ATOM     67  C   UNL A   1      36.204  29.721  29.020  1.00  0.00     0.006 A 
ENDBRANCH  46  60
BRANCH  47  68
ATOM     68  C   UNL A   1      48.638  26.680  28.933  1.00  0.00     0.057 A 
ATOM     69  C   UNL A   1      49.403  26.954  27.793  1.00  0.00     0.134 A 
ATOM     70  C   UNL A   1      49.286  26.072  30.015  1.00  0.00     0.134 A 
ATOM     71  F   UNL A   1      48.833  27.517  26.718  1.00  0.00    -0.206 F 
ATOM     72  C   UNL A   1      50.757  26.620  27.723  1.00  0.00     0.040 A 
ATOM     73  C   UNL A   1      50.645  25.756  29.968  1.00  0.00     0.040 A 
ATOM     74  F   UNL A   1      48.610  25.791  31.138  1.00  0.00    -0.206 F 
ATOM     75  C   UNL A   1      51.382  26.023  28.816  1.00  0.00     0.006 A 
ENDBRANCH  47  68
BRANCH  59  76
ATOM     76  C   UNL A   1      45.138  32.400  30.789  1.00  0.00     0.057 A 
ATOM     77  C   UNL A   1      45.331  32.622  32.158  1.00  0.00     0.134 A 
ATOM     78  C   UNL A   1      45.412  33.460  29.916  1.00  0.00     0.134 A 
ATOM     79  F   UNL A   1      45.072  31.650  33.048  1.00  0.00    -0.206 F 
ATOM     80  C   UNL A   1      45.763  33.858  32.642  1.00  0.00     0.040 A 
ATOM     81  C   UNL A   1      45.869  34.692  30.386  1.00  0.00     0.040 A 
ATOM     82  F   UNL A   1      45.255  33.310  28.592  1.00  0.00    -0.206 F 
ATOM     83  C   UNL A   1      46.040  34.895  31.753  1.00  0.00     0.006 A 
ENDBRANCH  59  76
ENDBRANCH  33  34
ENDBRANCH  25  28
ENDBRANCH  23  24
ENDBRANCH  22  23
ENDBRANCH   1  22
TORSDOF 14
ENDMDL
MODEL 3
REMARK VINA RESULT:     -11.7      1.583      6.490
REMARK SMILES CC(C)(C[S@@](=O)c1ccc(C(C)(C)C)cc1)C(=O)NCCCNC(=O)c1ccc(-c2c3nc(c(-c4c(F)cccc4F)c4ccc([nH]4)c(-c4c(F)cccc4F)c4nc(c(-c5c(F)cccc5F)c5ccc2[nH]5)C=C4)C=C3)cc1
REMARK SMILES IDX 20 1 19 2 17 3 18 4 2 6 1 7 3 8 4 9 5 10 6 11 7 12 8 13
REMARK SMILES IDX 16 14 9 15 15 16 10 17 11 18 12 19 13 20 14 21 21 22 22 23
REMARK SMILES IDX 23 24 24 25 25 27 26 28 27 29 79 30 28 31 78 32 29 33 30 34
REMARK SMILES IDX 31 35 72 36 32 37 77 38 71 39 73 40 33 41 76 42 70 43 69 44
REMARK SMILES IDX 34 46 60 47 43 48 59 49 44 50 47 51 58 52 74 53 45 54 46 55
REMARK SMILES IDX 57 57 75 58 48 59 35 60 36 61 41 62 37 63 38 64 40 65 42 66
REMARK SMILES IDX 39 67 61 68 62 69 67 70 63 71 64 72 66 73 68 74 65 75 49 76
REMARK SMILES IDX 50 77 55 78 51 79 52 80 54 81 56 82 53 83
REMARK H PARENT 19 5 23 26 73 45 47 56
REMARK Flexibility Score: inf
ROOT
ATOM      1  C   UNL A   1      36.529  20.448  24.992  1.00  0.00     0.117 C 
ENDROOT
BRANCH   1   2
ATOM      2  N   UNL A   1      35.298  19.678  24.984  1.00  0.00    -0.356 N 
ATOM      3  C   UNL A   1      33.988  20.009  24.864  1.00  0.00     0.226 C 
ATOM      4  O   UNL A   1      33.196  19.063  24.938  1.00  0.00    -0.274 OA
ATOM      5  H   UNL A   1      35.445  18.709  25.086  1.00  0.00     0.163 HD
BRANCH   3   6
ATOM      6  C   UNL A   1      33.490  21.451  24.671  1.00  0.00     0.055 C 
ATOM      7  C   UNL A   1      32.232  21.417  23.769  1.00  0.00     0.022 C 
ATOM      8  C   UNL A   1      34.521  22.281  23.875  1.00  0.00     0.022 C 
BRANCH   6   9
ATOM      9  C   UNL A   1      33.182  22.145  26.009  1.00  0.00     0.126 C 
BRANCH   9  10
ATOM     10  S   UNL A   1      31.519  22.887  26.173  1.00  0.00     0.054 S 
ATOM     11  O   UNL A   1      31.128  22.727  27.614  1.00  0.00    -0.254 OA
BRANCH  10  12
ATOM     12  C   UNL A   1      31.893  24.642  25.991  1.00  0.00     0.039 A 
ATOM     13  C   UNL A   1      33.195  25.139  26.016  1.00  0.00     0.018 A 
ATOM     14  C   UNL A   1      30.836  25.532  25.792  1.00  0.00     0.018 A 
ATOM     15  C   UNL A   1      33.439  26.489  25.744  1.00  0.00     0.005 A 
ATOM     16  C   UNL A   1      31.082  26.889  25.551  1.00  0.00     0.005 A 
ATOM     17  C   UNL A   1      32.390  27.395  25.494  1.00  0.00    -0.043 A 
BRANCH  17  18
ATOM     18  C   UNL A   1      32.700  28.861  25.147  1.00  0.00    -0.013 C 
ATOM     19  C   UNL A   1      33.443  28.951  23.797  1.00  0.00     0.016 C 
ATOM     20  C   UNL A   1      31.371  29.642  25.048  1.00  0.00     0.016 C 
ATOM     21  C   UNL A   1      33.579  29.579  26.195  1.00  0.00     0.016 C 
ENDBRANCH  17  18
ENDBRANCH  10  12
ENDBRANCH   9  10
ENDBRANCH   6   9
ENDBRANCH   3   6
ENDBRANCH   1   2
BRANCH   1  22
ATOM     22  C   UNL A   1      37.766  19.560  25.016  1.00  0.00     0.042 C 
BRANCH  22  23
ATOM     23  C   UNL A   1      38.939  20.141  25.795  1.00  0.00     0.118 C 
BRANCH  23  24
ATOM     24  N   UNL A   1      40.091  19.247  25.833  1.00  0.00    -0.352 N 
ATOM     25  C   UNL A   1      41.413  19.512  26.091  1.00  0.00     0.251 C 
ATOM     26  H   UNL A   1      39.887  18.303  25.645  1.00  0.00     0.163 HD
ATOM     27  O   UNL A   1      42.255  18.640  25.887  1.00  0.00    -0.269 OA
BRANCH  25  28
ATOM     28  C   UNL A   1      41.835  20.838  26.591  1.00  0.00     0.039 A 
ATOM     29  C   UNL A   1      42.282  21.795  25.674  1.00  0.00     0.014 A 
ATOM     30  C   UNL A   1      41.819  21.135  27.955  1.00  0.00     0.014 A 
ATOM     31  C   UNL A   1      42.641  23.069  26.119  1.00  0.00     0.010 A 
ATOM     32  C   UNL A   1      42.095  22.429  28.388  1.00  0.00     0.010 A 
ATOM     33  C   UNL A   1      42.513  23.409  27.475  1.00  0.00    -0.014 A 
BRANCH  33  34
ATOM     34  C   UNL A   1      42.813  24.778  27.963  1.00  0.00     0.031 A 
ATOM     35  C   UNL A   1      44.223  25.164  28.316  1.00  0.00     0.074 A 
ATOM     36  C   UNL A   1      41.806  25.652  28.160  1.00  0.00     0.049 A 
ATOM     37  N   UNL A   1      44.670  26.276  28.841  1.00  0.00    -0.248 NA
ATOM     38  C   UNL A   1      45.266  24.153  28.073  1.00  0.00     0.031 C 
ATOM     39  C   UNL A   1      40.390  25.384  27.904  1.00  0.00     0.029 A 
ATOM     40  N   UNL A   1      41.820  26.939  28.634  1.00  0.00    -0.354 N 
ATOM     41  C   UNL A   1      46.037  26.090  29.012  1.00  0.00     0.074 A 
ATOM     42  C   UNL A   1      46.337  24.742  28.580  1.00  0.00     0.031 C 
ATOM     43  C   UNL A   1      39.673  26.480  28.204  1.00  0.00     0.029 A 
ATOM     44  C   UNL A   1      40.573  27.511  28.710  1.00  0.00     0.049 A 
ATOM     45  H   UNL A   1      42.645  27.408  28.896  1.00  0.00     0.167 HD
ATOM     46  C   UNL A   1      46.961  26.970  29.465  1.00  0.00     0.037 A 
ATOM     47  C   UNL A   1      40.196  28.729  29.145  1.00  0.00     0.037 A 
ATOM     48  C   UNL A   1      46.665  28.320  29.864  1.00  0.00     0.049 A 
ATOM     49  C   UNL A   1      41.242  29.688  29.639  1.00  0.00     0.074 A 
ATOM     50  C   UNL A   1      47.540  29.310  30.277  1.00  0.00     0.029 A 
ATOM     51  N   UNL A   1      45.393  28.872  29.901  1.00  0.00    -0.354 N 
ATOM     52  N   UNL A   1      42.539  29.522  29.733  1.00  0.00    -0.248 NA
ATOM     53  C   UNL A   1      40.771  31.008  30.084  1.00  0.00     0.031 C 
ATOM     54  C   UNL A   1      46.794  30.448  30.599  1.00  0.00     0.029 A 
ATOM     55  C   UNL A   1      45.458  30.182  30.346  1.00  0.00     0.049 A 
ATOM     56  H   UNL A   1      44.566  28.401  29.647  1.00  0.00     0.167 HD
ATOM     57  C   UNL A   1      43.041  30.722  30.219  1.00  0.00     0.074 A 
ATOM     58  C   UNL A   1      41.911  31.611  30.389  1.00  0.00     0.031 C 
ATOM     59  C   UNL A   1      44.325  31.057  30.500  1.00  0.00     0.037 A 
BRANCH  46  60
ATOM     60  C   UNL A   1      48.384  26.499  29.546  1.00  0.00     0.057 A 
ATOM     61  C   UNL A   1      49.289  26.699  28.495  1.00  0.00     0.134 A 
ATOM     62  C   UNL A   1      48.863  25.864  30.698  1.00  0.00     0.134 A 
ATOM     63  F   UNL A   1      48.890  27.288  27.358  1.00  0.00    -0.206 F 
ATOM     64  C   UNL A   1      50.612  26.260  28.576  1.00  0.00     0.040 A 
ATOM     65  C   UNL A   1      50.191  25.446  30.803  1.00  0.00     0.040 A 
ATOM     66  F   UNL A   1      48.053  25.647  31.745  1.00  0.00    -0.206 F 
ATOM     67  C   UNL A   1      51.068  25.638  29.737  1.00  0.00     0.006 A 
ENDBRANCH  46  60
BRANCH  47  68
ATOM     68  C   UNL A   1      38.765  29.119  29.111  1.00  0.00     0.057 A 
ATOM     69  C   UNL A   1      38.178  29.599  27.934  1.00  0.00     0.134 A 
ATOM     70  C   UNL A   1      37.952  29.027  30.247  1.00  0.00     0.134 A 
ATOM     71  F   UNL A   1      38.911  29.728  26.819  1.00  0.00    -0.206 F 
ATOM     72  C   UNL A   1      36.839  29.992  27.892  1.00  0.00     0.040 A 
ATOM     73  C   UNL A   1      36.606  29.393  30.213  1.00  0.00     0.040 A 
ATOM     74  F   UNL A   1      38.453  28.568  31.403  1.00  0.00    -0.206 F 
ATOM     75  C   UNL A   1      36.048  29.884  29.034  1.00  0.00     0.006 A 
ENDBRANCH  47  68
BRANCH  59  76
ATOM     76  C   UNL A   1      44.578  32.453  30.983  1.00  0.00     0.057 A 
ATOM     77  C   UNL A   1      44.611  32.770  32.347  1.00  0.00     0.134 A 
ATOM     78  C   UNL A   1      44.832  33.486  30.072  1.00  0.00     0.134 A 
ATOM     79  F   UNL A   1      44.363  31.827  33.270  1.00  0.00    -0.206 F 
ATOM     80  C   UNL A   1      44.867  34.069  32.787  1.00  0.00     0.040 A 
ATOM     81  C   UNL A   1      45.113  34.784  30.501  1.00  0.00     0.040 A 
ATOM     82  F   UNL A   1      44.823  33.248  28.752  1.00  0.00    -0.206 F 
ATOM     83  C   UNL A   1      45.126  35.079  31.862  1.00  0.00     0.006 A 
ENDBRANCH  59  76
ENDBRANCH  33  34
ENDBRANCH  25  28
ENDBRANCH  23  24
ENDBRANCH  22  23
ENDBRANCH   1  22
TORSDOF 14
ENDMDL
