MODEL 1
REMARK VINA RESULT:     -10.9      0.000      0.000
REMARK SMILES COC[C@@H](C)N(C)C(=O)N[C@@H]1C=C[C@@H](C(=O)NCCCNC(=O)c2ccc(-c3c4nc(c(-c5c(F)cccc5F)c5ccc([nH]5)c(-c5c(F)cccc5F)c5nc(c(-c6c(F)cccc6F)c6ccc3[nH]6)C=C5)C=C4)cc2)C1
REMARK SMILES IDX 15 1 16 2 17 3 14 5 11 6 12 7 78 8 13 9 10 10 8 11 9 12 6 14
REMARK SMILES IDX 7 15 4 16 5 17 3 18 2 19 1 20 18 21 19 22 20 23 21 24 22 25
REMARK SMILES IDX 23 27 24 28 25 29 77 30 26 31 76 32 27 33 28 34 29 35 70 36
REMARK SMILES IDX 30 37 75 38 69 39 71 40 31 41 74 42 68 43 67 44 32 46 58 47
REMARK SMILES IDX 41 48 57 49 42 50 45 51 56 52 72 53 43 54 44 55 55 57 73 58
REMARK SMILES IDX 46 59 33 60 34 61 39 62 35 63 36 64 38 65 40 66 37 67 59 68
REMARK SMILES IDX 60 69 65 70 61 71 62 72 64 73 66 74 63 75 47 76 48 77 53 78
REMARK SMILES IDX 49 79 50 80 52 81 54 82 51 83
REMARK H PARENT 17 4 10 13 21 26 71 45 45 56
REMARK Flexibility Score: inf
ROOT
ATOM      1  C   UNL A   1      31.739  28.368  27.135  1.00  0.00     0.227 C 
ATOM      2  O   UNL A   1      31.612  27.796  28.223  1.00  0.00    -0.274 OA
ATOM      3  N   UNL A   1      31.635  29.723  27.147  1.00  0.00    -0.356 N 
ATOM      4  H   UNL A   1      31.447  30.102  28.036  1.00  0.00     0.163 HD
ENDROOT
BRANCH   1   5
ATOM      5  C   UNL A   1      32.010  27.551  25.869  1.00  0.00     0.103 C 
ATOM      6  C   UNL A   1      33.625  25.708  25.588  1.00  0.00     0.107 C 
ATOM      7  C   UNL A   1      32.214  25.221  25.688  1.00  0.00    -0.006 C 
ATOM      8  C   UNL A   1      33.482  27.241  25.572  1.00  0.00     0.047 C 
ATOM      9  C   UNL A   1      31.339  26.215  25.866  1.00  0.00    -0.016 C 
BRANCH   6  10
ATOM     10  N   UNL A   1      34.200  25.173  24.382  1.00  0.00    -0.332 N 
ATOM     11  C   UNL A   1      34.608  23.957  23.977  1.00  0.00     0.317 C 
ATOM     12  O   UNL A   1      34.936  23.895  22.788  1.00  0.00    -0.249 OA
ATOM     13  H   UNL A   1      34.326  25.861  23.689  1.00  0.00     0.165 HD
BRANCH  11  14
ATOM     14  N   UNL A   1      34.655  22.861  24.803  1.00  0.00    -0.323 N 
ATOM     15  C   UNL A   1      35.443  22.729  26.019  1.00  0.00     0.149 C 
BRANCH  14  16
ATOM     16  C   UNL A   1      33.985  21.616  24.343  1.00  0.00     0.109 C 
ATOM     17  C   UNL A   1      32.464  21.753  24.467  1.00  0.00     0.033 C 
BRANCH  16  18
ATOM     18  C   UNL A   1      34.563  20.344  25.011  1.00  0.00     0.184 C 
BRANCH  18  19
ATOM     19  O   UNL A   1      33.605  19.287  25.141  1.00  0.00    -0.383 OA
ATOM     20  C   UNL A   1      33.820  18.205  24.245  1.00  0.00     0.194 C 
ENDBRANCH  18  19
ENDBRANCH  16  18
ENDBRANCH  14  16
ENDBRANCH  11  14
ENDBRANCH   6  10
ENDBRANCH   1   5
BRANCH   3  21
ATOM     21  C   UNL A   1      31.746  30.714  26.097  1.00  0.00     0.117 C 
BRANCH  21  22
ATOM     22  C   UNL A   1      31.449  32.119  26.606  1.00  0.00     0.042 C 
BRANCH  22  23
ATOM     23  C   UNL A   1      32.644  32.776  27.283  1.00  0.00     0.118 C 
BRANCH  23  24
ATOM     24  N   UNL A   1      32.395  34.172  27.620  1.00  0.00    -0.352 N 
ATOM     25  C   UNL A   1      32.988  34.965  28.573  1.00  0.00     0.251 C 
ATOM     26  H   UNL A   1      31.699  34.613  27.084  1.00  0.00     0.163 HD
ATOM     27  O   UNL A   1      32.512  36.061  28.840  1.00  0.00    -0.269 OA
BRANCH  25  28
ATOM     28  C   UNL A   1      34.187  34.481  29.289  1.00  0.00     0.039 A 
ATOM     29  C   UNL A   1      34.035  33.887  30.545  1.00  0.00     0.014 A 
ATOM     30  C   UNL A   1      35.455  34.617  28.723  1.00  0.00     0.014 A 
ATOM     31  C   UNL A   1      35.153  33.368  31.202  1.00  0.00     0.010 A 
ATOM     32  C   UNL A   1      36.551  34.021  29.335  1.00  0.00     0.010 A 
ATOM     33  C   UNL A   1      36.414  33.399  30.586  1.00  0.00    -0.014 A 
BRANCH  33  34
ATOM     34  C   UNL A   1      37.616  32.815  31.230  1.00  0.00     0.031 A 
ATOM     35  C   UNL A   1      38.282  31.616  30.612  1.00  0.00     0.074 A 
ATOM     36  C   UNL A   1      38.053  33.300  32.408  1.00  0.00     0.049 A 
ATOM     37  N   UNL A   1      39.246  30.869  31.082  1.00  0.00    -0.248 NA
ATOM     38  C   UNL A   1      37.769  31.180  29.301  1.00  0.00     0.031 C 
ATOM     39  C   UNL A   1      37.474  34.436  33.126  1.00  0.00     0.029 A 
ATOM     40  N   UNL A   1      39.077  32.880  33.221  1.00  0.00    -0.354 N 
ATOM     41  C   UNL A   1      39.438  29.865  30.141  1.00  0.00     0.074 A 
ATOM     42  C   UNL A   1      38.454  30.066  29.101  1.00  0.00     0.031 C 
ATOM     43  C   UNL A   1      38.160  34.633  34.264  1.00  0.00     0.029 A 
ATOM     44  C   UNL A   1      39.193  33.608  34.380  1.00  0.00     0.049 A 
ATOM     45  H   UNL A   1      39.672  32.129  32.994  1.00  0.00     0.167 HD
ATOM     46  C   UNL A   1      40.366  28.878  30.133  1.00  0.00     0.037 A 
ATOM     47  C   UNL A   1      40.027  33.455  35.427  1.00  0.00     0.037 A 
ATOM     48  C   UNL A   1      41.359  28.699  31.158  1.00  0.00     0.049 A 
ATOM     49  C   UNL A   1      41.035  32.338  35.405  1.00  0.00     0.074 A 
ATOM     50  C   UNL A   1      42.375  27.762  31.218  1.00  0.00     0.029 A 
ATOM     51  N   UNL A   1      41.459  29.473  32.305  1.00  0.00    -0.354 N 
ATOM     52  N   UNL A   1      41.241  31.428  34.484  1.00  0.00    -0.248 NA
ATOM     53  C   UNL A   1      41.929  32.229  36.565  1.00  0.00     0.031 C 
ATOM     54  C   UNL A   1      43.059  27.936  32.425  1.00  0.00     0.029 A 
ATOM     55  C   UNL A   1      42.508  29.021  33.088  1.00  0.00     0.049 A 
ATOM     56  H   UNL A   1      40.871  30.230  32.528  1.00  0.00     0.167 HD
ATOM     57  C   UNL A   1      42.312  30.665  34.934  1.00  0.00     0.074 A 
ATOM     58  C   UNL A   1      42.715  31.223  36.209  1.00  0.00     0.031 C 
ATOM     59  C   UNL A   1      42.910  29.600  34.345  1.00  0.00     0.037 A 
BRANCH  46  60
ATOM     60  C   UNL A   1      40.344  27.917  28.979  1.00  0.00     0.057 A 
ATOM     61  C   UNL A   1      39.566  26.752  28.999  1.00  0.00     0.134 A 
ATOM     62  C   UNL A   1      41.089  28.173  27.821  1.00  0.00     0.134 A 
ATOM     63  F   UNL A   1      38.838  26.438  30.082  1.00  0.00    -0.206 F 
ATOM     64  C   UNL A   1      39.553  25.861  27.923  1.00  0.00     0.040 A 
ATOM     65  C   UNL A   1      41.062  27.307  26.727  1.00  0.00     0.040 A 
ATOM     66  F   UNL A   1      41.852  29.272  27.731  1.00  0.00    -0.206 F 
ATOM     67  C   UNL A   1      40.297  26.144  26.780  1.00  0.00     0.006 A 
ENDBRANCH  46  60
BRANCH  47  68
ATOM     68  C   UNL A   1      39.958  34.390  36.580  1.00  0.00     0.057 A 
ATOM     69  C   UNL A   1      39.183  34.090  37.706  1.00  0.00     0.134 A 
ATOM     70  C   UNL A   1      40.647  35.609  36.579  1.00  0.00     0.134 A 
ATOM     71  F   UNL A   1      38.485  32.945  37.759  1.00  0.00    -0.206 F 
ATOM     72  C   UNL A   1      39.075  34.977  38.779  1.00  0.00     0.040 A 
ATOM     73  C   UNL A   1      40.572  36.492  37.657  1.00  0.00     0.040 A 
ATOM     74  F   UNL A   1      41.415  35.952  35.534  1.00  0.00    -0.206 F 
ATOM     75  C   UNL A   1      39.775  36.181  38.757  1.00  0.00     0.006 A 
ENDBRANCH  47  68
BRANCH  59  76
ATOM     76  C   UNL A   1      44.101  29.004  35.037  1.00  0.00     0.057 A 
ATOM     77  C   UNL A   1      45.406  29.444  34.790  1.00  0.00     0.134 A 
ATOM     78  C   UNL A   1      43.928  28.006  36.007  1.00  0.00     0.134 A 
ATOM     79  F   UNL A   1      45.642  30.387  33.865  1.00  0.00    -0.206 F 
ATOM     80  C   UNL A   1      46.499  28.902  35.467  1.00  0.00     0.040 A 
ATOM     81  C   UNL A   1      45.009  27.478  36.712  1.00  0.00     0.040 A 
ATOM     82  F   UNL A   1      42.702  27.546  36.300  1.00  0.00    -0.206 F 
ATOM     83  C   UNL A   1      46.300  27.922  36.439  1.00  0.00     0.006 A 
ENDBRANCH  59  76
ENDBRANCH  33  34
ENDBRANCH  25  28
ENDBRANCH  23  24
ENDBRANCH  22  23
ENDBRANCH  21  22
ENDBRANCH   3  21
TORSDOF 15
ENDMDL
MODEL 2
REMARK VINA RESULT:     -10.8      5.399     10.618
REMARK SMILES COC[C@@H](C)N(C)C(=O)N[C@@H]1C=C[C@@H](C(=O)NCCCNC(=O)c2ccc(-c3c4nc(c(-c5c(F)cccc5F)c5ccc([nH]5)c(-c5c(F)cccc5F)c5nc(c(-c6c(F)cccc6F)c6ccc3[nH]6)C=C5)C=C4)cc2)C1
REMARK SMILES IDX 15 1 16 2 17 3 14 5 11 6 12 7 78 8 13 9 10 10 8 11 9 12 6 14
REMARK SMILES IDX 7 15 4 16 5 17 3 18 2 19 1 20 18 21 19 22 20 23 21 24 22 25
REMARK SMILES IDX 23 27 24 28 25 29 77 30 26 31 76 32 27 33 28 34 29 35 70 36
REMARK SMILES IDX 30 37 75 38 69 39 71 40 31 41 74 42 68 43 67 44 32 46 58 47
REMARK SMILES IDX 41 48 57 49 42 50 45 51 56 52 72 53 43 54 44 55 55 57 73 58
REMARK SMILES IDX 46 59 33 60 34 61 39 62 35 63 36 64 38 65 40 66 37 67 59 68
REMARK SMILES IDX 60 69 65 70 61 71 62 72 64 73 66 74 63 75 47 76 48 77 53 78
REMARK SMILES IDX 49 79 50 80 52 81 54 82 51 83
REMARK H PARENT 17 4 10 13 21 26 71 45 45 56
REMARK Flexibility Score: inf
ROOT
ATOM      1  C   UNL A   1      34.187  20.459  25.240  1.00  0.00     0.227 C 
ATOM      2  O   UNL A   1      33.287  19.618  25.143  1.00  0.00    -0.274 OA
ATOM      3  N   UNL A   1      35.453  20.019  25.016  1.00  0.00    -0.356 N 
ATOM      4  H   UNL A   1      35.513  19.057  24.816  1.00  0.00     0.163 HD
ENDROOT
BRANCH   1   5
ATOM      5  C   UNL A   1      33.844  21.909  25.586  1.00  0.00     0.103 C 
ATOM      6  C   UNL A   1      31.885  22.732  26.840  1.00  0.00     0.107 C 
ATOM      7  C   UNL A   1      33.138  22.757  27.657  1.00  0.00    -0.006 C 
ATOM      8  C   UNL A   1      32.369  22.303  25.442  1.00  0.00     0.047 C 
ATOM      9  C   UNL A   1      34.197  22.289  26.988  1.00  0.00    -0.016 C 
BRANCH   6  10
ATOM     10  N   UNL A   1      31.305  24.049  26.866  1.00  0.00    -0.332 N 
ATOM     11  C   UNL A   1      31.486  25.186  26.169  1.00  0.00     0.317 C 
ATOM     12  O   UNL A   1      30.675  26.080  26.428  1.00  0.00    -0.249 OA
ATOM     13  H   UNL A   1      30.611  24.139  27.559  1.00  0.00     0.165 HD
BRANCH  11  14
ATOM     14  N   UNL A   1      32.482  25.352  25.239  1.00  0.00    -0.323 N 
ATOM     15  C   UNL A   1      33.876  25.664  25.511  1.00  0.00     0.149 C 
BRANCH  14  16
ATOM     16  C   UNL A   1      32.090  25.395  23.805  1.00  0.00     0.109 C 
ATOM     17  C   UNL A   1      30.684  24.817  23.618  1.00  0.00     0.033 C 
BRANCH  16  18
ATOM     18  C   UNL A   1      33.159  24.771  22.875  1.00  0.00     0.184 C 
BRANCH  18  19
ATOM     19  O   UNL A   1      33.652  25.683  21.885  1.00  0.00    -0.383 OA
ATOM     20  C   UNL A   1      33.246  27.028  22.094  1.00  0.00     0.194 C 
ENDBRANCH  18  19
ENDBRANCH  16  18
ENDBRANCH  14  16
ENDBRANCH  11  14
ENDBRANCH   6  10
ENDBRANCH   1   5
BRANCH   3  21
ATOM     21  C   UNL A   1      36.732  20.699  25.018  1.00  0.00     0.117 C 
BRANCH  21  22
ATOM     22  C   UNL A   1      37.897  19.723  24.925  1.00  0.00     0.042 C 
BRANCH  22  23
ATOM     23  C   UNL A   1      39.123  20.178  25.706  1.00  0.00     0.118 C 
BRANCH  23  24
ATOM     24  N   UNL A   1      40.111  19.116  25.859  1.00  0.00    -0.352 N 
ATOM     25  C   UNL A   1      41.464  19.202  26.082  1.00  0.00     0.251 C 
ATOM     26  H   UNL A   1      39.755  18.202  25.792  1.00  0.00     0.163 HD
ATOM     27  O   UNL A   1      42.164  18.202  25.990  1.00  0.00    -0.269 OA
BRANCH  25  28
ATOM     28  C   UNL A   1      42.073  20.507  26.413  1.00  0.00     0.039 A 
ATOM     29  C   UNL A   1      42.510  21.335  25.376  1.00  0.00     0.014 A 
ATOM     30  C   UNL A   1      42.215  20.908  27.742  1.00  0.00     0.014 A 
ATOM     31  C   UNL A   1      43.028  22.599  25.673  1.00  0.00     0.010 A 
ATOM     32  C   UNL A   1      42.646  22.198  28.031  1.00  0.00     0.010 A 
ATOM     33  C   UNL A   1      43.066  23.053  27.000  1.00  0.00    -0.014 A 
BRANCH  33  34
ATOM     34  C   UNL A   1      43.563  24.406  27.351  1.00  0.00     0.031 A 
ATOM     35  C   UNL A   1      42.590  25.462  27.800  1.00  0.00     0.074 A 
ATOM     36  C   UNL A   1      44.864  24.711  27.182  1.00  0.00     0.049 A 
ATOM     37  N   UNL A   1      42.791  26.736  28.015  1.00  0.00    -0.248 NA
ATOM     38  C   UNL A   1      41.197  25.030  28.002  1.00  0.00     0.031 C 
ATOM     39  C   UNL A   1      45.901  23.786  26.722  1.00  0.00     0.029 A 
ATOM     40  N   UNL A   1      45.533  25.898  27.359  1.00  0.00    -0.354 N 
ATOM     41  C   UNL A   1      41.549  27.261  28.352  1.00  0.00     0.074 A 
ATOM     42  C   UNL A   1      40.593  26.180  28.259  1.00  0.00     0.031 C 
ATOM     43  C   UNL A   1      47.076  24.435  26.667  1.00  0.00     0.029 A 
ATOM     44  C   UNL A   1      46.867  25.831  27.040  1.00  0.00     0.049 A 
ATOM     45  H   UNL A   1      45.097  26.718  27.684  1.00  0.00     0.167 HD
ATOM     46  C   UNL A   1      41.238  28.524  28.727  1.00  0.00     0.037 A 
ATOM     47  C   UNL A   1      47.811  26.792  27.031  1.00  0.00     0.037 A 
ATOM     48  C   UNL A   1      42.197  29.589  28.842  1.00  0.00     0.049 A 
ATOM     49  C   UNL A   1      47.436  28.193  27.431  1.00  0.00     0.074 A 
ATOM     50  C   UNL A   1      41.993  30.891  29.263  1.00  0.00     0.029 A 
ATOM     51  N   UNL A   1      43.545  29.475  28.533  1.00  0.00    -0.354 N 
ATOM     52  N   UNL A   1      46.269  28.664  27.799  1.00  0.00    -0.248 NA
ATOM     53  C   UNL A   1      48.510  29.196  27.419  1.00  0.00     0.031 C 
ATOM     54  C   UNL A   1      43.206  31.579  29.160  1.00  0.00     0.029 A 
ATOM     55  C   UNL A   1      44.179  30.689  28.735  1.00  0.00     0.049 A 
ATOM     56  H   UNL A   1      43.984  28.652  28.216  1.00  0.00     0.167 HD
ATOM     57  C   UNL A   1      46.477  30.005  28.100  1.00  0.00     0.074 A 
ATOM     58  C   UNL A   1      47.883  30.270  27.876  1.00  0.00     0.031 C 
ATOM     59  C   UNL A   1      45.584  30.932  28.526  1.00  0.00     0.037 A 
BRANCH  46  60
ATOM     60  C   UNL A   1      39.798  28.820  29.037  1.00  0.00     0.057 A 
ATOM     61  C   UNL A   1      38.892  29.215  28.044  1.00  0.00     0.134 A 
ATOM     62  C   UNL A   1      39.304  28.679  30.340  1.00  0.00     0.134 A 
ATOM     63  F   UNL A   1      39.301  29.382  26.777  1.00  0.00    -0.206 F 
ATOM     64  C   UNL A   1      37.555  29.491  28.340  1.00  0.00     0.040 A 
ATOM     65  C   UNL A   1      37.963  28.922  30.643  1.00  0.00     0.040 A 
ATOM     66  F   UNL A   1      40.114  28.299  31.339  1.00  0.00    -0.206 F 
ATOM     67  C   UNL A   1      37.087  29.336  29.643  1.00  0.00     0.006 A 
ENDBRANCH  46  60
BRANCH  47  68
ATOM     68  C   UNL A   1      49.207  26.463  26.644  1.00  0.00     0.057 A 
ATOM     69  C   UNL A   1      50.126  25.992  27.590  1.00  0.00     0.134 A 
ATOM     70  C   UNL A   1      49.663  26.625  25.330  1.00  0.00     0.134 A 
ATOM     71  F   UNL A   1      49.755  25.833  28.869  1.00  0.00    -0.206 F 
ATOM     72  C   UNL A   1      51.452  25.719  27.251  1.00  0.00     0.040 A 
ATOM     73  C   UNL A   1      50.979  26.328  24.971  1.00  0.00     0.040 A 
ATOM     74  F   UNL A   1      48.831  27.063  24.374  1.00  0.00    -0.206 F 
ATOM     75  C   UNL A   1      51.880  25.883  25.935  1.00  0.00     0.006 A 
ENDBRANCH  47  68
BRANCH  59  76
ATOM     76  C   UNL A   1      46.107  32.305  28.838  1.00  0.00     0.057 A 
ATOM     77  C   UNL A   1      46.588  32.650  30.107  1.00  0.00     0.134 A 
ATOM     78  C   UNL A   1      46.178  33.279  27.832  1.00  0.00     0.134 A 
ATOM     79  F   UNL A   1      46.536  31.768  31.116  1.00  0.00    -0.206 F 
ATOM     80  C   UNL A   1      47.102  33.920  30.370  1.00  0.00     0.040 A 
ATOM     81  C   UNL A   1      46.717  34.542  28.076  1.00  0.00     0.040 A 
ATOM     82  F   UNL A   1      45.744  33.010  26.591  1.00  0.00    -0.206 F 
ATOM     83  C   UNL A   1      47.176  34.868  29.350  1.00  0.00     0.006 A 
ENDBRANCH  59  76
ENDBRANCH  33  34
ENDBRANCH  25  28
ENDBRANCH  23  24
ENDBRANCH  22  23
ENDBRANCH  21  22
ENDBRANCH   3  21
TORSDOF 15
ENDMDL
MODEL 3
REMARK VINA RESULT:     -10.8      5.147     10.523
REMARK SMILES COC[C@@H](C)N(C)C(=O)N[C@@H]1C=C[C@@H](C(=O)NCCCNC(=O)c2ccc(-c3c4nc(c(-c5c(F)cccc5F)c5ccc([nH]5)c(-c5c(F)cccc5F)c5nc(c(-c6c(F)cccc6F)c6ccc3[nH]6)C=C5)C=C4)cc2)C1
REMARK SMILES IDX 15 1 16 2 17 3 14 5 11 6 12 7 78 8 13 9 10 10 8 11 9 12 6 14
REMARK SMILES IDX 7 15 4 16 5 17 3 18 2 19 1 20 18 21 19 22 20 23 21 24 22 25
REMARK SMILES IDX 23 27 24 28 25 29 77 30 26 31 76 32 27 33 28 34 29 35 70 36
REMARK SMILES IDX 30 37 75 38 69 39 71 40 31 41 74 42 68 43 67 44 32 46 58 47
REMARK SMILES IDX 41 48 57 49 42 50 45 51 56 52 72 53 43 54 44 55 55 57 73 58
REMARK SMILES IDX 46 59 33 60 34 61 39 62 35 63 36 64 38 65 40 66 37 67 59 68
REMARK SMILES IDX 60 69 65 70 61 71 62 72 64 73 66 74 63 75 47 76 48 77 53 78
REMARK SMILES IDX 49 79 50 80 52 81 54 82 51 83
REMARK H PARENT 17 4 10 13 21 26 71 45 45 56
REMARK Flexibility Score: inf
ROOT
ATOM      1  C   UNL A   1      36.531  23.115  25.765  1.00  0.00     0.227 C 
ATOM      2  O   UNL A   1      37.159  24.022  26.323  1.00  0.00    -0.274 OA
ATOM      3  N   UNL A   1      37.210  21.959  25.540  1.00  0.00    -0.356 N 
ATOM      4  H   UNL A   1      38.148  21.982  25.836  1.00  0.00     0.163 HD
ENDROOT
BRANCH   1   5
ATOM      5  C   UNL A   1      35.066  23.326  25.377  1.00  0.00     0.103 C 
ATOM      6  C   UNL A   1      33.633  25.260  25.917  1.00  0.00     0.107 C 
ATOM      7  C   UNL A   1      34.087  25.266  24.492  1.00  0.00    -0.006 C 
ATOM      8  C   UNL A   1      34.163  23.921  26.464  1.00  0.00     0.047 C 
ATOM      9  C   UNL A   1      34.884  24.233  24.202  1.00  0.00    -0.016 C 
BRANCH   6  10
ATOM     10  N   UNL A   1      32.197  25.357  25.932  1.00  0.00    -0.332 N 
ATOM     11  C   UNL A   1      31.308  26.365  25.868  1.00  0.00     0.317 C 
ATOM     12  O   UNL A   1      30.130  26.005  25.783  1.00  0.00    -0.249 OA
ATOM     13  H   UNL A   1      31.762  24.477  26.007  1.00  0.00     0.165 HD
BRANCH  11  14
ATOM     14  N   UNL A   1      31.665  27.691  25.889  1.00  0.00    -0.323 N 
ATOM     15  C   UNL A   1      31.715  28.554  27.058  1.00  0.00     0.149 C 
BRANCH  14  16
ATOM     16  C   UNL A   1      31.855  28.378  24.584  1.00  0.00     0.109 C 
ATOM     17  C   UNL A   1      33.267  28.964  24.489  1.00  0.00     0.033 C 
BRANCH  16  18
ATOM     18  C   UNL A   1      30.726  29.392  24.273  1.00  0.00     0.184 C 
BRANCH  18  19
ATOM     19  O   UNL A   1      29.804  28.927  23.280  1.00  0.00    -0.383 OA
ATOM     20  C   UNL A   1      29.725  29.764  22.135  1.00  0.00     0.194 C 
ENDBRANCH  18  19
ENDBRANCH  16  18
ENDBRANCH  14  16
ENDBRANCH  11  14
ENDBRANCH   6  10
ENDBRANCH   1   5
BRANCH   3  21
ATOM     21  C   UNL A   1      36.811  20.700  24.944  1.00  0.00     0.117 C 
BRANCH  21  22
ATOM     22  C   UNL A   1      37.945  19.683  24.951  1.00  0.00     0.042 C 
BRANCH  22  23
ATOM     23  C   UNL A   1      39.184  20.171  25.690  1.00  0.00     0.118 C 
BRANCH  23  24
ATOM     24  N   UNL A   1      40.188  19.126  25.843  1.00  0.00    -0.352 N 
ATOM     25  C   UNL A   1      41.531  19.232  26.117  1.00  0.00     0.251 C 
ATOM     26  H   UNL A   1      39.855  18.207  25.735  1.00  0.00     0.163 HD
ATOM     27  O   UNL A   1      42.256  18.250  26.017  1.00  0.00    -0.269 OA
BRANCH  25  28
ATOM     28  C   UNL A   1      42.100  20.538  26.510  1.00  0.00     0.039 A 
ATOM     29  C   UNL A   1      42.568  21.402  25.517  1.00  0.00     0.014 A 
ATOM     30  C   UNL A   1      42.172  20.905  27.855  1.00  0.00     0.014 A 
ATOM     31  C   UNL A   1      43.048  22.665  25.871  1.00  0.00     0.010 A 
ATOM     32  C   UNL A   1      42.565  22.194  28.197  1.00  0.00     0.010 A 
ATOM     33  C   UNL A   1      43.016  23.084  27.210  1.00  0.00    -0.014 A 
BRANCH  33  34
ATOM     34  C   UNL A   1      43.472  24.435  27.621  1.00  0.00     0.031 A 
ATOM     35  C   UNL A   1      42.457  25.475  28.010  1.00  0.00     0.074 A 
ATOM     36  C   UNL A   1      44.779  24.755  27.557  1.00  0.00     0.049 A 
ATOM     37  N   UNL A   1      42.627  26.747  28.260  1.00  0.00    -0.248 NA
ATOM     38  C   UNL A   1      41.056  25.027  28.098  1.00  0.00     0.031 C 
ATOM     39  C   UNL A   1      45.857  23.847  27.162  1.00  0.00     0.029 A 
ATOM     40  N   UNL A   1      45.420  25.944  27.803  1.00  0.00    -0.354 N 
ATOM     41  C   UNL A   1      41.358  27.255  28.509  1.00  0.00     0.074 A 
ATOM     42  C   UNL A   1      40.423  26.167  28.326  1.00  0.00     0.031 C 
ATOM     43  C   UNL A   1      47.026  24.507  27.209  1.00  0.00     0.029 A 
ATOM     44  C   UNL A   1      46.775  25.895  27.586  1.00  0.00     0.049 A 
ATOM     45  H   UNL A   1      44.952  26.755  28.107  1.00  0.00     0.167 HD
ATOM     46  C   UNL A   1      41.007  28.509  28.880  1.00  0.00     0.037 A 
ATOM     47  C   UNL A   1      47.707  26.863  27.665  1.00  0.00     0.037 A 
ATOM     48  C   UNL A   1      41.944  29.581  29.085  1.00  0.00     0.049 A 
ATOM     49  C   UNL A   1      47.289  28.254  28.058  1.00  0.00     0.074 A 
ATOM     50  C   UNL A   1      41.694  30.873  29.510  1.00  0.00     0.029 A 
ATOM     51  N   UNL A   1      43.312  29.483  28.878  1.00  0.00    -0.354 N 
ATOM     52  N   UNL A   1      46.093  28.709  28.343  1.00  0.00    -0.248 NA
ATOM     53  C   UNL A   1      48.350  29.267  28.144  1.00  0.00     0.031 C 
ATOM     54  C   UNL A   1      42.905  31.573  29.511  1.00  0.00     0.029 A 
ATOM     55  C   UNL A   1      43.917  30.700  29.147  1.00  0.00     0.049 A 
ATOM     56  H   UNL A   1      43.783  28.670  28.583  1.00  0.00     0.167 HD
ATOM     57  C   UNL A   1      46.263  30.046  28.680  1.00  0.00     0.074 A 
ATOM     58  C   UNL A   1      47.679  30.327  28.569  1.00  0.00     0.031 C 
ATOM     59  C   UNL A   1      45.331  30.959  29.052  1.00  0.00     0.037 A 
BRANCH  46  60
ATOM     60  C   UNL A   1      39.545  28.787  29.082  1.00  0.00     0.057 A 
ATOM     61  C   UNL A   1      38.923  28.617  30.326  1.00  0.00     0.134 A 
ATOM     62  C   UNL A   1      38.753  29.258  28.027  1.00  0.00     0.134 A 
ATOM     63  F   UNL A   1      39.619  28.157  31.378  1.00  0.00    -0.206 F 
ATOM     64  C   UNL A   1      37.562  28.875  30.507  1.00  0.00     0.040 A 
ATOM     65  C   UNL A   1      37.399  29.548  28.201  1.00  0.00     0.040 A 
ATOM     66  F   UNL A   1      39.283  29.449  26.810  1.00  0.00    -0.206 F 
ATOM     67  C   UNL A   1      36.799  29.350  29.443  1.00  0.00     0.006 A 
ENDBRANCH  46  60
BRANCH  47  68
ATOM     68  C   UNL A   1      49.132  26.553  27.382  1.00  0.00     0.057 A 
ATOM     69  C   UNL A   1      49.679  26.769  26.111  1.00  0.00     0.134 A 
ATOM     70  C   UNL A   1      49.977  26.020  28.363  1.00  0.00     0.134 A 
ATOM     71  F   UNL A   1      48.916  27.262  25.124  1.00  0.00    -0.206 F 
ATOM     72  C   UNL A   1      51.004  26.444  25.818  1.00  0.00     0.040 A 
ATOM     73  C   UNL A   1      51.312  25.716  28.092  1.00  0.00     0.040 A 
ATOM     74  F   UNL A   1      49.519  25.797  29.604  1.00  0.00    -0.206 F 
ATOM     75  C   UNL A   1      51.827  25.919  26.813  1.00  0.00     0.006 A 
ENDBRANCH  47  68
BRANCH  59  76
ATOM     76  C   UNL A   1      45.815  32.330  29.425  1.00  0.00     0.057 A 
ATOM     77  C   UNL A   1      46.193  32.659  30.731  1.00  0.00     0.134 A 
ATOM     78  C   UNL A   1      45.952  33.322  28.443  1.00  0.00     0.134 A 
ATOM     79  F   UNL A   1      46.074  31.759  31.720  1.00  0.00    -0.206 F 
ATOM     80  C   UNL A   1      46.673  33.929  31.054  1.00  0.00     0.040 A 
ATOM     81  C   UNL A   1      46.459  34.585  28.747  1.00  0.00     0.040 A 
ATOM     82  F   UNL A   1      45.617  33.070  27.168  1.00  0.00    -0.206 F 
ATOM     83  C   UNL A   1      46.816  34.894  30.057  1.00  0.00     0.006 A 
ENDBRANCH  59  76
ENDBRANCH  33  34
ENDBRANCH  25  28
ENDBRANCH  23  24
ENDBRANCH  22  23
ENDBRANCH  21  22
ENDBRANCH   3  21
TORSDOF 15
ENDMDL
