MODEL 1
REMARK VINA RESULT:     -13.2      0.000      0.000
REMARK SMILES Cc1coc2c(C)c3oc(=O)c(CCC(=O)N[C@H](CC(C)C)C(=O)NCCCNC(=O)c4ccc(-c5c6nc(c(-c7c(F)cccc7F)c7ccc([nH]7)c(-c7c(F)cccc7F)c7nc(c(-c8c(F)cccc8F)c8ccc5[nH]8)C=C7)C=C6)cc4)c(C)c3cc12
REMARK SMILES IDX 26 1 25 2 23 3 24 4 18 6 17 7 15 8 16 9 14 11 13 12 12 13
REMARK SMILES IDX 1 14 2 15 3 16 90 17 4 18 5 19 89 20 6 21 88 22 7 23 8 24
REMARK SMILES IDX 86 25 9 26 87 27 10 28 11 29 19 30 20 31 21 32 22 33 27 34
REMARK SMILES IDX 28 35 29 36 30 37 31 39 32 40 33 41 85 42 34 43 84 44 35 45
REMARK SMILES IDX 36 46 37 47 78 48 38 49 83 50 77 51 79 52 39 53 82 54 76 55
REMARK SMILES IDX 75 56 40 58 66 59 49 60 65 61 50 62 53 63 64 64 80 65 51 66
REMARK SMILES IDX 52 67 63 69 81 70 54 71 41 72 42 73 47 74 43 75 44 76 46 77
REMARK SMILES IDX 48 78 45 79 67 80 68 81 73 82 69 83 70 84 72 85 74 86 71 87
REMARK SMILES IDX 55 88 56 89 61 90 57 91 58 92 60 93 62 94 59 95
REMARK H PARENT 25 5 17 10 29 38 79 57 53 68
REMARK Flexibility Score: inf
ROOT
ATOM      1  C   UNL A   1      32.030  30.350  25.976  1.00  0.00     0.117 C 
ENDROOT
BRANCH   1   2
ATOM      2  N   UNL A   1      32.287  29.622  24.698  1.00  0.00    -0.354 N 
ATOM      3  C   UNL A   1      31.588  29.239  23.563  1.00  0.00     0.242 C 
ATOM      4  O   UNL A   1      32.307  28.954  22.593  1.00  0.00    -0.273 OA
ATOM      5  H   UNL A   1      33.226  29.330  24.645  1.00  0.00     0.163 HD
BRANCH   3   6
ATOM      6  C   UNL A   1      30.011  29.152  23.359  1.00  0.00     0.171 C 
BRANCH   6   7
ATOM      7  N   UNL A   1      29.596  27.760  23.220  1.00  0.00    -0.344 N 
ATOM      8  C   UNL A   1      30.192  26.680  23.787  1.00  0.00     0.220 C 
ATOM      9  O   UNL A   1      30.465  25.786  22.971  1.00  0.00    -0.275 OA
ATOM     10  H   UNL A   1      28.806  27.588  22.658  1.00  0.00     0.164 HD
BRANCH   8  11
ATOM     11  C   UNL A   1      30.323  26.356  25.288  1.00  0.00     0.105 C 
BRANCH  11  12
ATOM     12  C   UNL A   1      31.201  25.470  26.261  1.00  0.00     0.053 C 
BRANCH  12  13
ATOM     13  C   UNL A   1      32.174  24.325  25.918  1.00  0.00     0.042 A 
ATOM     14  C   UNL A   1      39.006  23.701  26.571  1.00  0.00     0.048 C 
ATOM     15  C   UNL A   1      38.095  22.664  26.022  1.00  0.00    -0.005 A 
ATOM     16  C   UNL A   1      38.474  21.470  25.444  1.00  0.00     0.199 A 
ATOM     17  C   UNL A   1      36.680  22.701  25.851  1.00  0.00     0.024 A 
ATOM     18  O   UNL A   1      37.396  20.750  25.033  1.00  0.00    -0.464 OA
ATOM     19  C   UNL A   1      36.294  21.521  25.249  1.00  0.00     0.140 A 
ATOM     20  C   UNL A   1      35.647  23.575  26.171  1.00  0.00     0.024 A 
ATOM     21  C   UNL A   1      34.951  21.193  25.004  1.00  0.00     0.036 A 
ATOM     22  C   UNL A   1      34.415  23.529  25.546  1.00  0.00     0.022 A 
ATOM     23  C   UNL A   1      34.541  19.780  24.785  1.00  0.00     0.052 C 
ATOM     24  C   UNL A   1      34.048  22.283  25.097  1.00  0.00     0.145 A 
ATOM     25  C   UNL A   1      33.437  24.625  25.580  1.00  0.00    -0.030 A 
ATOM     26  O   UNL A   1      32.682  22.097  24.864  1.00  0.00    -0.422 OA
ATOM     27  C   UNL A   1      33.821  26.048  25.253  1.00  0.00     0.046 C 
ATOM     28  C   UNL A   1      31.790  22.879  25.614  1.00  0.00     0.339 A 
ATOM     29  O   UNL A   1      30.708  22.379  25.891  1.00  0.00    -0.246 OA
ENDBRANCH  12  13
ENDBRANCH  11  12
ENDBRANCH   8  11
ENDBRANCH   6   7
BRANCH   6  30
ATOM     30  C   UNL A   1      29.287  29.940  22.192  1.00  0.00     0.038 C 
BRANCH  30  31
ATOM     31  C   UNL A   1      28.583  31.342  22.066  1.00  0.00    -0.015 C 
ATOM     32  C   UNL A   1      27.936  31.727  20.743  1.00  0.00     0.007 C 
ATOM     33  C   UNL A   1      27.652  31.636  23.299  1.00  0.00     0.007 C 
ENDBRANCH  30  31
ENDBRANCH   6  30
ENDBRANCH   3   6
ENDBRANCH   1   2
BRANCH   1  34
ATOM     34  C   UNL A   1      32.927  30.029  27.209  1.00  0.00     0.042 C 
BRANCH  34  35
ATOM     35  C   UNL A   1      34.303  30.621  27.446  1.00  0.00     0.118 C 
BRANCH  35  36
ATOM     36  N   UNL A   1      34.319  31.475  28.683  1.00  0.00    -0.352 N 
ATOM     37  C   UNL A   1      35.267  31.604  29.704  1.00  0.00     0.251 C 
ATOM     38  H   UNL A   1      33.523  32.044  28.794  1.00  0.00     0.163 HD
ATOM     39  O   UNL A   1      34.998  32.151  30.752  1.00  0.00    -0.269 OA
BRANCH  37  40
ATOM     40  C   UNL A   1      36.611  31.044  29.469  1.00  0.00     0.039 A 
ATOM     41  C   UNL A   1      37.800  31.771  29.509  1.00  0.00     0.014 A 
ATOM     42  C   UNL A   1      36.649  29.677  29.336  1.00  0.00     0.014 A 
ATOM     43  C   UNL A   1      38.988  31.041  29.522  1.00  0.00     0.010 A 
ATOM     44  C   UNL A   1      37.703  29.042  29.888  1.00  0.00     0.010 A 
ATOM     45  C   UNL A   1      38.917  29.653  29.750  1.00  0.00    -0.014 A 
BRANCH  45  46
ATOM     46  C   UNL A   1      40.067  28.784  29.919  1.00  0.00     0.031 A 
ATOM     47  C   UNL A   1      40.537  28.752  31.309  1.00  0.00     0.074 A 
ATOM     48  C   UNL A   1      40.588  27.997  28.946  1.00  0.00     0.049 A 
ATOM     49  N   UNL A   1      41.474  29.490  31.792  1.00  0.00    -0.248 NA
ATOM     50  C   UNL A   1      39.742  28.044  32.321  1.00  0.00     0.031 C 
ATOM     51  C   UNL A   1      40.080  27.690  27.596  1.00  0.00     0.029 A 
ATOM     52  N   UNL A   1      41.730  27.260  28.990  1.00  0.00    -0.354 N 
ATOM     53  C   UNL A   1      41.569  29.144  33.127  1.00  0.00     0.074 A 
ATOM     54  C   UNL A   1      40.354  28.438  33.442  1.00  0.00     0.031 C 
ATOM     55  C   UNL A   1      40.795  26.683  27.044  1.00  0.00     0.029 A 
ATOM     56  C   UNL A   1      41.928  26.413  27.903  1.00  0.00     0.049 A 
ATOM     57  H   UNL A   1      42.369  27.321  29.737  1.00  0.00     0.167 HD
ATOM     58  C   UNL A   1      42.777  29.222  33.747  1.00  0.00     0.037 A 
ATOM     59  C   UNL A   1      42.988  25.589  27.701  1.00  0.00     0.037 A 
ATOM     60  C   UNL A   1      43.702  30.006  32.952  1.00  0.00     0.049 A 
ATOM     61  C   UNL A   1      44.099  26.133  28.519  1.00  0.00     0.074 A 
ATOM     62  C   UNL A   1      43.734  31.310  32.497  1.00  0.00     0.029 A 
ATOM     63  N   UNL A   1      44.563  29.300  32.145  1.00  0.00    -0.354 N 
ATOM     64  N   UNL A   1      44.684  27.272  28.275  1.00  0.00    -0.248 NA
ATOM     65  C   UNL A   1      44.231  25.636  29.879  1.00  0.00     0.031 C 
ATOM     66  C   UNL A   1      44.271  31.232  31.177  1.00  0.00     0.029 A 
ATOM     67  C   UNL A   1      44.620  29.905  30.917  1.00  0.00     0.049 A 
ATOM     68  H   UNL A   1      45.058  28.491  32.408  1.00  0.00     0.167 HD
ATOM     69  C   UNL A   1      44.871  27.845  29.526  1.00  0.00     0.074 A 
ATOM     70  C   UNL A   1      44.657  26.752  30.475  1.00  0.00     0.031 C 
ATOM     71  C   UNL A   1      44.888  29.201  29.679  1.00  0.00     0.037 A 
BRANCH  58  72
ATOM     72  C   UNL A   1      43.252  28.244  34.790  1.00  0.00     0.057 A 
ATOM     73  C   UNL A   1      43.721  28.746  36.016  1.00  0.00     0.134 A 
ATOM     74  C   UNL A   1      43.550  26.888  34.545  1.00  0.00     0.134 A 
ATOM     75  F   UNL A   1      43.515  30.026  36.360  1.00  0.00    -0.206 F 
ATOM     76  C   UNL A   1      44.498  27.980  36.892  1.00  0.00     0.040 A 
ATOM     77  C   UNL A   1      44.282  26.101  35.435  1.00  0.00     0.040 A 
ATOM     78  F   UNL A   1      43.247  26.273  33.397  1.00  0.00    -0.206 F 
ATOM     79  C   UNL A   1      44.787  26.654  36.598  1.00  0.00     0.006 A 
ENDBRANCH  58  72
BRANCH  59  80
ATOM     80  C   UNL A   1      43.004  24.197  27.187  1.00  0.00     0.057 A 
ATOM     81  C   UNL A   1      42.466  23.149  27.954  1.00  0.00     0.134 A 
ATOM     82  C   UNL A   1      43.232  23.910  25.830  1.00  0.00     0.134 A 
ATOM     83  F   UNL A   1      42.191  23.330  29.254  1.00  0.00    -0.206 F 
ATOM     84  C   UNL A   1      42.116  21.914  27.392  1.00  0.00     0.040 A 
ATOM     85  C   UNL A   1      42.890  22.679  25.259  1.00  0.00     0.040 A 
ATOM     86  F   UNL A   1      43.705  24.847  24.995  1.00  0.00    -0.206 F 
ATOM     87  C   UNL A   1      42.308  21.682  26.034  1.00  0.00     0.006 A 
ENDBRANCH  59  80
BRANCH  71  88
ATOM     88  C   UNL A   1      45.000  30.051  28.439  1.00  0.00     0.057 A 
ATOM     89  C   UNL A   1      43.912  30.596  27.739  1.00  0.00     0.134 A 
ATOM     90  C   UNL A   1      46.275  30.479  28.049  1.00  0.00     0.134 A 
ATOM     91  F   UNL A   1      42.651  30.303  28.078  1.00  0.00    -0.206 F 
ATOM     92  C   UNL A   1      44.089  31.516  26.698  1.00  0.00     0.040 A 
ATOM     93  C   UNL A   1      46.464  31.418  27.033  1.00  0.00     0.040 A 
ATOM     94  F   UNL A   1      47.363  30.030  28.695  1.00  0.00    -0.206 F 
ATOM     95  C   UNL A   1      45.368  31.941  26.352  1.00  0.00     0.006 A 
ENDBRANCH  71  88
ENDBRANCH  45  46
ENDBRANCH  37  40
ENDBRANCH  35  36
ENDBRANCH  34  35
ENDBRANCH   1  34
TORSDOF 16
ENDMDL
MODEL 2
REMARK VINA RESULT:     -12.9      2.558      8.464
REMARK SMILES Cc1coc2c(C)c3oc(=O)c(CCC(=O)N[C@H](CC(C)C)C(=O)NCCCNC(=O)c4ccc(-c5c6nc(c(-c7c(F)cccc7F)c7ccc([nH]7)c(-c7c(F)cccc7F)c7nc(c(-c8c(F)cccc8F)c8ccc5[nH]8)C=C7)C=C6)cc4)c(C)c3cc12
REMARK SMILES IDX 26 1 25 2 23 3 24 4 18 6 17 7 15 8 16 9 14 11 13 12 12 13
REMARK SMILES IDX 1 14 2 15 3 16 90 17 4 18 5 19 89 20 6 21 88 22 7 23 8 24
REMARK SMILES IDX 86 25 9 26 87 27 10 28 11 29 19 30 20 31 21 32 22 33 27 34
REMARK SMILES IDX 28 35 29 36 30 37 31 39 32 40 33 41 85 42 34 43 84 44 35 45
REMARK SMILES IDX 36 46 37 47 78 48 38 49 83 50 77 51 79 52 39 53 82 54 76 55
REMARK SMILES IDX 75 56 40 58 66 59 49 60 65 61 50 62 53 63 64 64 80 65 51 66
REMARK SMILES IDX 52 67 63 69 81 70 54 71 41 72 42 73 47 74 43 75 44 76 46 77
REMARK SMILES IDX 48 78 45 79 67 80 68 81 73 82 69 83 70 84 72 85 74 86 71 87
REMARK SMILES IDX 55 88 56 89 61 90 57 91 58 92 60 93 62 94 59 95
REMARK H PARENT 25 5 17 10 29 38 79 57 53 68
REMARK Flexibility Score: inf
ROOT
ATOM      1  C   UNL A   1      36.320  21.870  24.613  1.00  0.00     0.117 C 
ENDROOT
BRANCH   1   2
ATOM      2  N   UNL A   1      35.177  21.634  25.545  1.00  0.00    -0.354 N 
ATOM      3  C   UNL A   1      34.079  20.794  25.649  1.00  0.00     0.242 C 
ATOM      4  O   UNL A   1      33.594  20.726  26.789  1.00  0.00    -0.273 OA
ATOM      5  H   UNL A   1      35.215  22.256  26.308  1.00  0.00     0.163 HD
BRANCH   3   6
ATOM      6  C   UNL A   1      33.404  19.908  24.511  1.00  0.00     0.171 C 
BRANCH   6   7
ATOM      7  N   UNL A   1      32.305  20.637  23.888  1.00  0.00    -0.344 N 
ATOM      8  C   UNL A   1      32.235  21.979  23.695  1.00  0.00     0.220 C 
ATOM      9  O   UNL A   1      31.189  22.484  24.133  1.00  0.00    -0.275 OA
ATOM     10  H   UNL A   1      31.537  20.103  23.579  1.00  0.00     0.164 HD
BRANCH   8  11
ATOM     11  C   UNL A   1      33.144  22.853  22.809  1.00  0.00     0.105 C 
BRANCH  11  12
ATOM     12  C   UNL A   1      33.748  24.315  22.766  1.00  0.00     0.053 C 
BRANCH  12  13
ATOM     13  C   UNL A   1      33.153  25.626  23.319  1.00  0.00     0.042 A 
ATOM     14  C   UNL A   1      35.446  30.139  27.995  1.00  0.00     0.048 C 
ATOM     15  C   UNL A   1      34.165  30.245  27.251  1.00  0.00    -0.005 A 
ATOM     16  C   UNL A   1      33.177  31.186  27.460  1.00  0.00     0.199 A 
ATOM     17  C   UNL A   1      33.611  29.370  26.271  1.00  0.00     0.024 A 
ATOM     18  O   UNL A   1      32.126  31.001  26.617  1.00  0.00    -0.464 OA
ATOM     19  C   UNL A   1      32.374  29.863  25.911  1.00  0.00     0.140 A 
ATOM     20  C   UNL A   1      34.019  28.225  25.595  1.00  0.00     0.024 A 
ATOM     21  C   UNL A   1      31.585  29.283  24.905  1.00  0.00     0.036 A 
ATOM     22  C   UNL A   1      33.126  27.371  24.976  1.00  0.00     0.022 A 
ATOM     23  C   UNL A   1      30.508  30.063  24.239  1.00  0.00     0.052 C 
ATOM     24  C   UNL A   1      31.977  27.974  24.525  1.00  0.00     0.145 A 
ATOM     25  C   UNL A   1      33.452  25.995  24.573  1.00  0.00    -0.030 A 
ATOM     26  O   UNL A   1      31.268  27.276  23.542  1.00  0.00    -0.422 OA
ATOM     27  C   UNL A   1      34.104  25.019  25.522  1.00  0.00     0.046 C 
ATOM     28  C   UNL A   1      32.001  26.419  22.708  1.00  0.00     0.339 A 
ATOM     29  O   UNL A   1      31.601  26.283  21.559  1.00  0.00    -0.246 OA
ENDBRANCH  12  13
ENDBRANCH  11  12
ENDBRANCH   8  11
ENDBRANCH   6   7
BRANCH   6  30
ATOM     30  C   UNL A   1      32.845  18.459  24.818  1.00  0.00     0.038 C 
BRANCH  30  31
ATOM     31  C   UNL A   1      33.109  17.019  24.241  1.00  0.00    -0.015 C 
ATOM     32  C   UNL A   1      34.051  16.859  23.055  1.00  0.00     0.007 C 
ATOM     33  C   UNL A   1      33.404  15.982  25.386  1.00  0.00     0.007 C 
ENDBRANCH  30  31
ENDBRANCH   6  30
ENDBRANCH   3   6
ENDBRANCH   1   2
BRANCH   1  34
ATOM     34  C   UNL A   1      37.029  23.257  24.640  1.00  0.00     0.042 C 
BRANCH  34  35
ATOM     35  C   UNL A   1      37.965  23.720  25.740  1.00  0.00     0.118 C 
BRANCH  35  36
ATOM     36  N   UNL A   1      38.979  22.660  26.070  1.00  0.00    -0.352 N 
ATOM     37  C   UNL A   1      40.171  22.718  26.802  1.00  0.00     0.251 C 
ATOM     38  H   UNL A   1      38.767  21.769  25.709  1.00  0.00     0.163 HD
ATOM     39  O   UNL A   1      40.988  21.824  26.752  1.00  0.00    -0.269 OA
BRANCH  37  40
ATOM     40  C   UNL A   1      40.407  23.910  27.637  1.00  0.00     0.039 A 
ATOM     41  C   UNL A   1      41.637  24.274  28.184  1.00  0.00     0.014 A 
ATOM     42  C   UNL A   1      39.333  24.760  27.743  1.00  0.00     0.014 A 
ATOM     43  C   UNL A   1      41.735  25.556  28.723  1.00  0.00     0.010 A 
ATOM     44  C   UNL A   1      39.602  26.082  27.746  1.00  0.00     0.010 A 
ATOM     45  C   UNL A   1      40.700  26.473  28.459  1.00  0.00    -0.014 A 
BRANCH  45  46
ATOM     46  C   UNL A   1      40.719  27.873  28.840  1.00  0.00     0.031 A 
ATOM     47  C   UNL A   1      41.840  28.598  28.227  1.00  0.00     0.074 A 
ATOM     48  C   UNL A   1      39.762  28.484  29.579  1.00  0.00     0.049 A 
ATOM     49  N   UNL A   1      42.983  28.801  28.780  1.00  0.00    -0.248 NA
ATOM     50  C   UNL A   1      41.801  28.898  26.789  1.00  0.00     0.031 C 
ATOM     51  C   UNL A   1      38.448  27.992  30.030  1.00  0.00     0.029 A 
ATOM     52  N   UNL A   1      39.774  29.749  30.081  1.00  0.00    -0.354 N 
ATOM     53  C   UNL A   1      43.729  29.498  27.847  1.00  0.00     0.074 A 
ATOM     54  C   UNL A   1      43.050  29.328  26.589  1.00  0.00     0.031 C 
ATOM     55  C   UNL A   1      37.719  29.006  30.550  1.00  0.00     0.029 A 
ATOM     56  C   UNL A   1      38.577  30.166  30.658  1.00  0.00     0.049 A 
ATOM     57  H   UNL A   1      40.570  30.326  30.038  1.00  0.00     0.167 HD
ATOM     58  C   UNL A   1      44.664  30.385  28.278  1.00  0.00     0.037 A 
ATOM     59  C   UNL A   1      38.334  31.369  31.238  1.00  0.00     0.037 A 
ATOM     60  C   UNL A   1      44.949  30.176  29.684  1.00  0.00     0.049 A 
ATOM     61  C   UNL A   1      39.656  31.919  31.624  1.00  0.00     0.074 A 
ATOM     62  C   UNL A   1      45.449  29.128  30.432  1.00  0.00     0.029 A 
ATOM     63  N   UNL A   1      44.285  30.993  30.569  1.00  0.00    -0.354 N 
ATOM     64  N   UNL A   1      40.411  31.400  32.551  1.00  0.00    -0.248 NA
ATOM     65  C   UNL A   1      40.341  32.755  30.650  1.00  0.00     0.031 C 
ATOM     66  C   UNL A   1      44.693  29.139  31.643  1.00  0.00     0.029 A 
ATOM     67  C   UNL A   1      43.831  30.237  31.618  1.00  0.00     0.049 A 
ATOM     68  H   UNL A   1      44.158  31.963  30.466  1.00  0.00     0.167 HD
ATOM     69  C   UNL A   1      41.698  31.471  32.037  1.00  0.00     0.074 A 
ATOM     70  C   UNL A   1      41.601  32.396  30.907  1.00  0.00     0.031 C 
ATOM     71  C   UNL A   1      42.645  30.552  32.389  1.00  0.00     0.037 A 
BRANCH  58  72
ATOM     72  C   UNL A   1      44.964  31.691  27.590  1.00  0.00     0.057 A 
ATOM     73  C   UNL A   1      46.212  31.848  26.962  1.00  0.00     0.134 A 
ATOM     74  C   UNL A   1      44.230  32.882  27.767  1.00  0.00     0.134 A 
ATOM     75  F   UNL A   1      47.013  30.793  26.748  1.00  0.00    -0.206 F 
ATOM     76  C   UNL A   1      46.724  33.103  26.614  1.00  0.00     0.040 A 
ATOM     77  C   UNL A   1      44.711  34.134  27.378  1.00  0.00     0.040 A 
ATOM     78  F   UNL A   1      43.061  32.926  28.414  1.00  0.00    -0.206 F 
ATOM     79  C   UNL A   1      45.976  34.252  26.830  1.00  0.00     0.006 A 
ENDBRANCH  58  72
BRANCH  59  80
ATOM     80  C   UNL A   1      37.129  32.229  31.135  1.00  0.00     0.057 A 
ATOM     81  C   UNL A   1      36.814  32.870  29.925  1.00  0.00     0.134 A 
ATOM     82  C   UNL A   1      36.100  32.180  32.091  1.00  0.00     0.134 A 
ATOM     83  F   UNL A   1      37.721  32.949  28.940  1.00  0.00    -0.206 F 
ATOM     84  C   UNL A   1      35.534  33.373  29.656  1.00  0.00     0.040 A 
ATOM     85  C   UNL A   1      34.819  32.682  31.835  1.00  0.00     0.040 A 
ATOM     86  F   UNL A   1      36.276  31.559  33.266  1.00  0.00    -0.206 F 
ATOM     87  C   UNL A   1      34.524  33.262  30.606  1.00  0.00     0.006 A 
ENDBRANCH  59  80
BRANCH  71  88
ATOM     88  C   UNL A   1      42.353  29.651  33.563  1.00  0.00     0.057 A 
ATOM     89  C   UNL A   1      41.785  28.371  33.469  1.00  0.00     0.134 A 
ATOM     90  C   UNL A   1      42.837  30.034  34.819  1.00  0.00     0.134 A 
ATOM     91  F   UNL A   1      41.354  27.886  32.298  1.00  0.00    -0.206 F 
ATOM     92  C   UNL A   1      41.699  27.518  34.577  1.00  0.00     0.040 A 
ATOM     93  C   UNL A   1      42.785  29.182  35.925  1.00  0.00     0.040 A 
ATOM     94  F   UNL A   1      43.428  31.230  34.979  1.00  0.00    -0.206 F 
ATOM     95  C   UNL A   1      42.214  27.918  35.807  1.00  0.00     0.006 A 
ENDBRANCH  71  88
ENDBRANCH  45  46
ENDBRANCH  37  40
ENDBRANCH  35  36
ENDBRANCH  34  35
ENDBRANCH   1  34
TORSDOF 16
ENDMDL
MODEL 3
REMARK VINA RESULT:     -12.9      3.183      8.161
REMARK SMILES Cc1coc2c(C)c3oc(=O)c(CCC(=O)N[C@H](CC(C)C)C(=O)NCCCNC(=O)c4ccc(-c5c6nc(c(-c7c(F)cccc7F)c7ccc([nH]7)c(-c7c(F)cccc7F)c7nc(c(-c8c(F)cccc8F)c8ccc5[nH]8)C=C7)C=C6)cc4)c(C)c3cc12
REMARK SMILES IDX 26 1 25 2 23 3 24 4 18 6 17 7 15 8 16 9 14 11 13 12 12 13
REMARK SMILES IDX 1 14 2 15 3 16 90 17 4 18 5 19 89 20 6 21 88 22 7 23 8 24
REMARK SMILES IDX 86 25 9 26 87 27 10 28 11 29 19 30 20 31 21 32 22 33 27 34
REMARK SMILES IDX 28 35 29 36 30 37 31 39 32 40 33 41 85 42 34 43 84 44 35 45
REMARK SMILES IDX 36 46 37 47 78 48 38 49 83 50 77 51 79 52 39 53 82 54 76 55
REMARK SMILES IDX 75 56 40 58 66 59 49 60 65 61 50 62 53 63 64 64 80 65 51 66
REMARK SMILES IDX 52 67 63 69 81 70 54 71 41 72 42 73 47 74 43 75 44 76 46 77
REMARK SMILES IDX 48 78 45 79 67 80 68 81 73 82 69 83 70 84 72 85 74 86 71 87
REMARK SMILES IDX 55 88 56 89 61 90 57 91 58 92 60 93 62 94 59 95
REMARK H PARENT 25 5 17 10 29 38 79 57 53 68
REMARK Flexibility Score: inf
ROOT
ATOM      1  C   UNL A   1      36.387  23.185  25.558  1.00  0.00     0.117 C 
ENDROOT
BRANCH   1   2
ATOM      2  N   UNL A   1      35.376  22.509  26.424  1.00  0.00    -0.354 N 
ATOM      3  C   UNL A   1      34.313  21.629  26.285  1.00  0.00     0.242 C 
ATOM      4  O   UNL A   1      33.978  21.064  27.338  1.00  0.00    -0.273 OA
ATOM      5  H   UNL A   1      35.500  22.762  27.367  1.00  0.00     0.163 HD
BRANCH   3   6
ATOM      6  C   UNL A   1      33.514  21.249  24.961  1.00  0.00     0.171 C 
BRANCH   6   7
ATOM      7  N   UNL A   1      32.079  21.393  25.179  1.00  0.00    -0.344 N 
ATOM      8  C   UNL A   1      31.393  22.560  25.285  1.00  0.00     0.220 C 
ATOM      9  O   UNL A   1      30.686  22.623  26.304  1.00  0.00    -0.275 OA
ATOM     10  H   UNL A   1      31.557  20.562  25.258  1.00  0.00     0.164 HD
BRANCH   8  11
ATOM     11  C   UNL A   1      31.207  23.646  24.208  1.00  0.00     0.105 C 
BRANCH  11  12
ATOM     12  C   UNL A   1      31.885  24.987  23.713  1.00  0.00     0.053 C 
BRANCH  12  13
ATOM     13  C   UNL A   1      31.948  26.358  24.415  1.00  0.00     0.042 A 
ATOM     14  C   UNL A   1      36.940  29.519  27.963  1.00  0.00     0.048 C 
ATOM     15  C   UNL A   1      35.587  30.074  27.697  1.00  0.00    -0.005 A 
ATOM     16  C   UNL A   1      35.071  31.243  28.216  1.00  0.00     0.199 A 
ATOM     17  C   UNL A   1      34.499  29.500  26.978  1.00  0.00     0.024 A 
ATOM     18  O   UNL A   1      33.800  31.462  27.784  1.00  0.00    -0.464 OA
ATOM     19  C   UNL A   1      33.432  30.373  27.053  1.00  0.00     0.140 A 
ATOM     20  C   UNL A   1      34.281  28.354  26.221  1.00  0.00     0.024 A 
ATOM     21  C   UNL A   1      32.218  30.153  26.385  1.00  0.00     0.036 A 
ATOM     22  C   UNL A   1      33.014  27.869  25.956  1.00  0.00     0.022 A 
ATOM     23  C   UNL A   1      31.285  31.279  26.113  1.00  0.00     0.052 C 
ATOM     24  C   UNL A   1      32.032  28.828  25.913  1.00  0.00     0.145 A 
ATOM     25  C   UNL A   1      32.741  26.503  25.487  1.00  0.00    -0.030 A 
ATOM     26  O   UNL A   1      30.859  28.470  25.242  1.00  0.00    -0.422 OA
ATOM     27  C   UNL A   1      33.327  25.291  26.172  1.00  0.00     0.046 C 
ATOM     28  C   UNL A   1      30.970  27.514  24.221  1.00  0.00     0.339 A 
ATOM     29  O   UNL A   1      30.195  27.612  23.279  1.00  0.00    -0.246 OA
ENDBRANCH  12  13
ENDBRANCH  11  12
ENDBRANCH   8  11
ENDBRANCH   6   7
BRANCH   6  30
ATOM     30  C   UNL A   1      33.707  19.844  24.257  1.00  0.00     0.038 C 
BRANCH  30  31
ATOM     31  C   UNL A   1      33.754  18.350  24.749  1.00  0.00    -0.015 C 
ATOM     32  C   UNL A   1      32.678  17.852  25.705  1.00  0.00     0.007 C 
ATOM     33  C   UNL A   1      34.006  17.356  23.557  1.00  0.00     0.007 C 
ENDBRANCH  30  31
ENDBRANCH   6  30
ENDBRANCH   3   6
ENDBRANCH   1   2
BRANCH   1  34
ATOM     34  C   UNL A   1      37.882  23.155  25.995  1.00  0.00     0.042 C 
BRANCH  34  35
ATOM     35  C   UNL A   1      38.543  24.206  26.866  1.00  0.00     0.118 C 
BRANCH  35  36
ATOM     36  N   UNL A   1      39.739  24.804  26.180  1.00  0.00    -0.352 N 
ATOM     37  C   UNL A   1      40.358  26.051  26.322  1.00  0.00     0.251 C 
ATOM     38  H   UNL A   1      40.162  24.215  25.514  1.00  0.00     0.163 HD
ATOM     39  O   UNL A   1      41.157  26.458  25.507  1.00  0.00    -0.269 OA
BRANCH  37  40
ATOM     40  C   UNL A   1      40.001  26.865  27.500  1.00  0.00     0.039 A 
ATOM     41  C   UNL A   1      39.586  26.356  28.729  1.00  0.00     0.014 A 
ATOM     42  C   UNL A   1      40.241  28.211  27.362  1.00  0.00     0.014 A 
ATOM     43  C   UNL A   1      39.542  27.246  29.801  1.00  0.00     0.010 A 
ATOM     44  C   UNL A   1      40.706  28.859  28.449  1.00  0.00     0.010 A 
ATOM     45  C   UNL A   1      40.150  28.507  29.647  1.00  0.00    -0.014 A 
BRANCH  45  46
ATOM     46  C   UNL A   1      40.298  29.488  30.706  1.00  0.00     0.031 A 
ATOM     47  C   UNL A   1      39.033  30.171  31.009  1.00  0.00     0.074 A 
ATOM     48  C   UNL A   1      41.431  29.684  31.423  1.00  0.00     0.049 A 
ATOM     49  N   UNL A   1      38.660  31.296  30.508  1.00  0.00    -0.248 NA
ATOM     50  C   UNL A   1      37.972  29.439  31.713  1.00  0.00     0.031 C 
ATOM     51  C   UNL A   1      42.685  28.910  31.451  1.00  0.00     0.029 A 
ATOM     52  N   UNL A   1      41.685  30.661  32.334  1.00  0.00    -0.354 N 
ATOM     53  C   UNL A   1      37.412  31.547  31.049  1.00  0.00     0.074 A 
ATOM     54  C   UNL A   1      36.952  30.292  31.585  1.00  0.00     0.031 C 
ATOM     55  C   UNL A   1      43.469  29.323  32.473  1.00  0.00     0.029 A 
ATOM     56  C   UNL A   1      42.876  30.514  33.042  1.00  0.00     0.049 A 
ATOM     57  H   UNL A   1      41.071  31.416  32.484  1.00  0.00     0.167 HD
ATOM     58  C   UNL A   1      37.029  32.835  31.256  1.00  0.00     0.037 A 
ATOM     59  C   UNL A   1      43.363  31.354  33.990  1.00  0.00     0.037 A 
ATOM     60  C   UNL A   1      37.894  33.743  30.529  1.00  0.00     0.049 A 
ATOM     61  C   UNL A   1      42.717  32.667  33.754  1.00  0.00     0.074 A 
ATOM     62  C   UNL A   1      38.203  33.939  29.197  1.00  0.00     0.029 A 
ATOM     63  N   UNL A   1      38.922  34.310  31.245  1.00  0.00    -0.354 N 
ATOM     64  N   UNL A   1      42.941  33.404  32.703  1.00  0.00    -0.248 NA
ATOM     65  C   UNL A   1      41.468  32.930  34.452  1.00  0.00     0.031 C 
ATOM     66  C   UNL A   1      39.602  34.224  29.175  1.00  0.00     0.029 A 
ATOM     67  C   UNL A   1      40.065  34.272  30.491  1.00  0.00     0.049 A 
ATOM     68  H   UNL A   1      38.847  34.685  32.153  1.00  0.00     0.167 HD
ATOM     69  C   UNL A   1      41.694  33.900  32.349  1.00  0.00     0.074 A 
ATOM     70  C   UNL A   1      40.846  33.650  33.515  1.00  0.00     0.031 C 
ATOM     71  C   UNL A   1      41.401  34.194  31.049  1.00  0.00     0.037 A 
BRANCH  58  72
ATOM     72  C   UNL A   1      36.207  33.289  32.435  1.00  0.00     0.057 A 
ATOM     73  C   UNL A   1      35.102  34.125  32.200  1.00  0.00     0.134 A 
ATOM     74  C   UNL A   1      36.613  33.197  33.782  1.00  0.00     0.134 A 
ATOM     75  F   UNL A   1      34.627  34.308  30.959  1.00  0.00    -0.206 F 
ATOM     76  C   UNL A   1      34.502  34.876  33.217  1.00  0.00     0.040 A 
ATOM     77  C   UNL A   1      35.989  33.905  34.811  1.00  0.00     0.040 A 
ATOM     78  F   UNL A   1      37.692  32.509  34.171  1.00  0.00    -0.206 F 
ATOM     79  C   UNL A   1      34.951  34.773  34.527  1.00  0.00     0.006 A 
ENDBRANCH  58  72
BRANCH  59  80
ATOM     80  C   UNL A   1      44.019  31.025  35.280  1.00  0.00     0.057 A 
ATOM     81  C   UNL A   1      43.390  30.169  36.200  1.00  0.00     0.134 A 
ATOM     82  C   UNL A   1      45.387  31.261  35.497  1.00  0.00     0.134 A 
ATOM     83  F   UNL A   1      42.091  29.862  36.066  1.00  0.00    -0.206 F 
ATOM     84  C   UNL A   1      44.092  29.535  37.234  1.00  0.00     0.040 A 
ATOM     85  C   UNL A   1      46.099  30.637  36.529  1.00  0.00     0.040 A 
ATOM     86  F   UNL A   1      46.098  32.030  34.660  1.00  0.00    -0.206 F 
ATOM     87  C   UNL A   1      45.457  29.752  37.389  1.00  0.00     0.006 A 
ENDBRANCH  59  80
BRANCH  71  88
ATOM     88  C   UNL A   1      42.540  34.252  30.062  1.00  0.00     0.057 A 
ATOM     89  C   UNL A   1      43.386  35.357  29.879  1.00  0.00     0.134 A 
ATOM     90  C   UNL A   1      42.898  33.071  29.403  1.00  0.00     0.134 A 
ATOM     91  F   UNL A   1      43.167  36.513  30.518  1.00  0.00    -0.206 F 
ATOM     92  C   UNL A   1      44.528  35.288  29.072  1.00  0.00     0.040 A 
ATOM     93  C   UNL A   1      44.051  32.979  28.620  1.00  0.00     0.040 A 
ATOM     94  F   UNL A   1      42.158  31.961  29.559  1.00  0.00    -0.206 F 
ATOM     95  C   UNL A   1      44.871  34.090  28.450  1.00  0.00     0.006 A 
ENDBRANCH  71  88
ENDBRANCH  45  46
ENDBRANCH  37  40
ENDBRANCH  35  36
ENDBRANCH  34  35
ENDBRANCH   1  34
TORSDOF 16
ENDMDL
