MODEL 1
REMARK VINA RESULT:     -11.4      0.000      0.000
REMARK SMILES O=C1N[C@H](C(=O)N[C@H]2C=C[C@@H](C(=O)NCCCNC(=O)c3ccc(-c4c5nc(c(-c6c(F)cccc6F)c6ccc([nH]6)c(-c6c(F)cccc6F)c6nc(c(-c7c(F)cccc7F)c7ccc4[nH]7)C=C6)C=C5)cc3)C2)CS1
REMARK SMILES IDX 16 1 15 2 14 3 12 4 13 5 11 7 8 8 9 9 75 10 10 11 7 12 5 13
REMARK SMILES IDX 6 14 4 16 1 17 2 18 3 19 77 20 76 22 17 23 18 24 19 25 20 27
REMARK SMILES IDX 21 28 22 29 74 30 23 31 73 32 24 33 25 34 26 35 67 36 27 37
REMARK SMILES IDX 72 38 66 39 68 40 28 41 71 42 65 43 64 44 29 46 55 47 38 48
REMARK SMILES IDX 54 49 39 50 42 51 53 52 69 53 40 54 41 55 52 57 70 58 43 59
REMARK SMILES IDX 30 60 31 61 36 62 32 63 33 64 35 65 37 66 34 67 56 68 57 69
REMARK SMILES IDX 62 70 58 71 59 72 61 73 63 74 60 75 44 76 45 77 50 78 46 79
REMARK SMILES IDX 47 80 49 81 51 82 48 83
REMARK H PARENT 14 6 7 15 3 21 18 26 68 45 42 56
REMARK Flexibility Score: inf
ROOT
ATOM      1  C   UNL A   1      37.790  19.672  25.001  1.00  0.00     0.042 C 
ENDROOT
BRANCH   1   2
ATOM      2  C   UNL A   1      36.668  20.698  24.907  1.00  0.00     0.117 C 
BRANCH   2   3
ATOM      3  N   UNL A   1      36.933  21.737  23.930  1.00  0.00    -0.356 N 
ATOM      4  C   UNL A   1      36.200  22.813  23.537  1.00  0.00     0.227 C 
ATOM      5  O   UNL A   1      36.744  23.597  22.751  1.00  0.00    -0.274 OA
ATOM      6  H   UNL A   1      37.797  21.646  23.467  1.00  0.00     0.163 HD
BRANCH   4   7
ATOM      7  C   UNL A   1      34.746  23.045  23.961  1.00  0.00     0.103 C 
ATOM      8  C   UNL A   1      33.333  25.076  23.998  1.00  0.00     0.106 C 
ATOM      9  C   UNL A   1      32.931  24.111  22.925  1.00  0.00    -0.006 C 
ATOM     10  C   UNL A   1      34.545  24.398  24.649  1.00  0.00     0.047 C 
ATOM     11  C   UNL A   1      33.709  23.023  22.888  1.00  0.00    -0.016 C 
BRANCH   8  12
ATOM     12  N   UNL A   1      33.649  26.340  23.359  1.00  0.00    -0.348 N 
ATOM     13  C   UNL A   1      33.706  27.611  23.844  1.00  0.00     0.243 C 
ATOM     14  O   UNL A   1      34.085  28.487  23.058  1.00  0.00    -0.273 OA
ATOM     15  H   UNL A   1      33.863  26.265  22.401  1.00  0.00     0.164 HD
BRANCH  13  16
ATOM     16  C   UNL A   1      33.507  27.960  25.328  1.00  0.00     0.182 C 
ATOM     17  O   UNL A   1      34.212  30.860  27.251  1.00  0.00    -0.262 OA
ATOM     18  C   UNL A   1      33.667  29.921  26.703  1.00  0.00     0.279 C 
ATOM     19  N   UNL A   1      34.274  29.071  25.831  1.00  0.00    -0.334 N 
ATOM     20  S   UNL A   1      31.993  29.480  26.905  1.00  0.00    -0.062 SA
ATOM     21  H   UNL A   1      35.208  29.211  25.553  1.00  0.00     0.165 HD
ATOM     22  C   UNL A   1      32.032  28.205  25.617  1.00  0.00     0.115 C 
ENDBRANCH  13  16
ENDBRANCH   8  12
ENDBRANCH   4   7
ENDBRANCH   2   3
ENDBRANCH   1   2
BRANCH   1  23
ATOM     23  C   UNL A   1      39.002  20.133  25.804  1.00  0.00     0.118 C 
BRANCH  23  24
ATOM     24  N   UNL A   1      40.072  19.145  25.827  1.00  0.00    -0.352 N 
ATOM     25  C   UNL A   1      41.427  19.298  25.981  1.00  0.00     0.251 C 
ATOM     26  H   UNL A   1      39.774  18.214  25.713  1.00  0.00     0.163 HD
ATOM     27  O   UNL A   1      42.170  18.343  25.773  1.00  0.00    -0.269 OA
BRANCH  25  28
ATOM     28  C   UNL A   1      42.006  20.601  26.377  1.00  0.00     0.039 A 
ATOM     29  C   UNL A   1      42.407  21.491  25.376  1.00  0.00     0.014 A 
ATOM     30  C   UNL A   1      42.195  20.936  27.720  1.00  0.00     0.014 A 
ATOM     31  C   UNL A   1      42.926  22.742  25.722  1.00  0.00     0.010 A 
ATOM     32  C   UNL A   1      42.639  22.211  28.064  1.00  0.00     0.010 A 
ATOM     33  C   UNL A   1      43.007  23.128  27.069  1.00  0.00    -0.014 A 
BRANCH  33  34
ATOM     34  C   UNL A   1      43.463  24.486  27.460  1.00  0.00     0.031 A 
ATOM     35  C   UNL A   1      42.467  25.532  27.880  1.00  0.00     0.074 A 
ATOM     36  C   UNL A   1      44.769  24.803  27.363  1.00  0.00     0.049 A 
ATOM     37  N   UNL A   1      42.661  26.797  28.158  1.00  0.00    -0.248 NA
ATOM     38  C   UNL A   1      41.063  25.105  27.978  1.00  0.00     0.031 C 
ATOM     39  C   UNL A   1      45.832  23.892  26.932  1.00  0.00     0.029 A 
ATOM     40  N   UNL A   1      45.425  25.985  27.606  1.00  0.00    -0.354 N 
ATOM     41  C   UNL A   1      41.406  27.318  28.445  1.00  0.00     0.074 A 
ATOM     42  C   UNL A   1      40.452  26.246  28.262  1.00  0.00     0.031 C 
ATOM     43  C   UNL A   1      47.006  24.543  26.958  1.00  0.00     0.029 A 
ATOM     44  C   UNL A   1      46.776  25.925  27.365  1.00  0.00     0.049 A 
ATOM     45  H   UNL A   1      44.969  26.798  27.924  1.00  0.00     0.167 HD
ATOM     46  C   UNL A   1      41.081  28.571  28.844  1.00  0.00     0.037 A 
ATOM     47  C   UNL A   1      47.721  26.881  27.446  1.00  0.00     0.037 A 
ATOM     48  C   UNL A   1      42.034  29.630  29.048  1.00  0.00     0.049 A 
ATOM     49  C   UNL A   1      47.331  28.269  27.871  1.00  0.00     0.074 A 
ATOM     50  C   UNL A   1      41.809  30.916  29.508  1.00  0.00     0.029 A 
ATOM     51  N   UNL A   1      43.395  29.527  28.802  1.00  0.00    -0.354 N 
ATOM     52  N   UNL A   1      46.149  28.732  28.196  1.00  0.00    -0.248 NA
ATOM     53  C   UNL A   1      48.407  29.268  27.939  1.00  0.00     0.031 C 
ATOM     54  C   UNL A   1      43.026  31.605  29.498  1.00  0.00     0.029 A 
ATOM     55  C   UNL A   1      44.018  30.733  29.077  1.00  0.00     0.049 A 
ATOM     56  H   UNL A   1      43.851  28.715  28.479  1.00  0.00     0.167 HD
ATOM     57  C   UNL A   1      46.342  30.065  28.534  1.00  0.00     0.074 A 
ATOM     58  C   UNL A   1      47.758  30.334  28.386  1.00  0.00     0.031 C 
ATOM     59  C   UNL A   1      45.428  30.984  28.931  1.00  0.00     0.037 A 
BRANCH  46  60
ATOM     60  C   UNL A   1      39.629  28.865  29.089  1.00  0.00     0.057 A 
ATOM     61  C   UNL A   1      39.051  28.725  30.358  1.00  0.00     0.134 A 
ATOM     62  C   UNL A   1      38.809  29.331  28.054  1.00  0.00     0.134 A 
ATOM     63  F   UNL A   1      39.779  28.273  31.390  1.00  0.00    -0.206 F 
ATOM     64  C   UNL A   1      37.704  29.011  30.582  1.00  0.00     0.040 A 
ATOM     65  C   UNL A   1      37.466  29.646  28.273  1.00  0.00     0.040 A 
ATOM     66  F   UNL A   1      39.299  29.495  26.817  1.00  0.00    -0.206 F 
ATOM     67  C   UNL A   1      36.909  29.480  29.539  1.00  0.00     0.006 A 
ENDBRANCH  46  60
BRANCH  47  68
ATOM     68  C   UNL A   1      49.136  26.555  27.131  1.00  0.00     0.057 A 
ATOM     69  C   UNL A   1      49.614  26.625  25.818  1.00  0.00     0.134 A 
ATOM     70  C   UNL A   1      50.036  26.160  28.127  1.00  0.00     0.134 A 
ATOM     71  F   UNL A   1      48.793  26.978  24.817  1.00  0.00    -0.206 F 
ATOM     72  C   UNL A   1      50.933  26.297  25.502  1.00  0.00     0.040 A 
ATOM     73  C   UNL A   1      51.366  25.853  27.829  1.00  0.00     0.040 A 
ATOM     74  F   UNL A   1      49.641  26.079  29.406  1.00  0.00    -0.206 F 
ATOM     75  C   UNL A   1      51.815  25.914  26.511  1.00  0.00     0.006 A 
ENDBRANCH  47  68
BRANCH  59  76
ATOM     76  C   UNL A   1      45.934  32.357  29.266  1.00  0.00     0.057 A 
ATOM     77  C   UNL A   1      46.402  32.680  30.546  1.00  0.00     0.134 A 
ATOM     78  C   UNL A   1      45.998  33.352  28.283  1.00  0.00     0.134 A 
ATOM     79  F   UNL A   1      46.355  31.775  31.535  1.00  0.00    -0.206 F 
ATOM     80  C   UNL A   1      46.898  33.951  30.840  1.00  0.00     0.040 A 
ATOM     81  C   UNL A   1      46.516  34.617  28.558  1.00  0.00     0.040 A 
ATOM     82  F   UNL A   1      45.574  33.105  27.034  1.00  0.00    -0.206 F 
ATOM     83  C   UNL A   1      46.964  34.921  29.842  1.00  0.00     0.006 A 
ENDBRANCH  59  76
ENDBRANCH  33  34
ENDBRANCH  25  28
ENDBRANCH  23  24
ENDBRANCH   1  23
TORSDOF 12
ENDMDL
MODEL 2
REMARK VINA RESULT:     -11.4      4.114      9.342
REMARK SMILES O=C1N[C@H](C(=O)N[C@H]2C=C[C@@H](C(=O)NCCCNC(=O)c3ccc(-c4c5nc(c(-c6c(F)cccc6F)c6ccc([nH]6)c(-c6c(F)cccc6F)c6nc(c(-c7c(F)cccc7F)c7ccc4[nH]7)C=C6)C=C5)cc3)C2)CS1
REMARK SMILES IDX 16 1 15 2 14 3 12 4 13 5 11 7 8 8 9 9 75 10 10 11 7 12 5 13
REMARK SMILES IDX 6 14 4 16 1 17 2 18 3 19 77 20 76 22 17 23 18 24 19 25 20 27
REMARK SMILES IDX 21 28 22 29 74 30 23 31 73 32 24 33 25 34 26 35 67 36 27 37
REMARK SMILES IDX 72 38 66 39 68 40 28 41 71 42 65 43 64 44 29 46 55 47 38 48
REMARK SMILES IDX 54 49 39 50 42 51 53 52 69 53 40 54 41 55 52 57 70 58 43 59
REMARK SMILES IDX 30 60 31 61 36 62 32 63 33 64 35 65 37 66 34 67 56 68 57 69
REMARK SMILES IDX 62 70 58 71 59 72 61 73 63 74 60 75 44 76 45 77 50 78 46 79
REMARK SMILES IDX 47 80 49 81 51 82 48 83
REMARK H PARENT 14 6 7 15 3 21 18 26 68 45 42 56
REMARK Flexibility Score: inf
ROOT
ATOM      1  C   UNL A   1      34.436  33.639  28.012  1.00  0.00     0.042 C 
ENDROOT
BRANCH   1   2
ATOM      2  C   UNL A   1      33.074  34.255  28.307  1.00  0.00     0.117 C 
BRANCH   2   3
ATOM      3  N   UNL A   1      33.121  35.700  28.423  1.00  0.00    -0.356 N 
ATOM      4  C   UNL A   1      33.186  36.516  29.509  1.00  0.00     0.227 C 
ATOM      5  O   UNL A   1      33.328  37.724  29.288  1.00  0.00    -0.274 OA
ATOM      6  H   UNL A   1      33.100  36.176  27.561  1.00  0.00     0.163 HD
BRANCH   4   7
ATOM      7  C   UNL A   1      33.022  36.020  30.949  1.00  0.00     0.103 C 
ATOM      8  C   UNL A   1      34.653  35.179  32.610  1.00  0.00     0.106 C 
ATOM      9  C   UNL A   1      34.127  36.538  32.953  1.00  0.00    -0.006 C 
ATOM     10  C   UNL A   1      33.961  34.856  31.279  1.00  0.00     0.047 C 
ATOM     11  C   UNL A   1      33.263  37.005  32.045  1.00  0.00    -0.016 C 
BRANCH   8  12
ATOM     12  N   UNL A   1      36.097  35.278  32.504  1.00  0.00    -0.348 N 
ATOM     13  C   UNL A   1      37.098  34.509  33.016  1.00  0.00     0.243 C 
ATOM     14  O   UNL A   1      38.250  34.807  32.683  1.00  0.00    -0.273 OA
ATOM     15  H   UNL A   1      36.411  36.038  31.963  1.00  0.00     0.164 HD
BRANCH  13  16
ATOM     16  C   UNL A   1      36.849  33.215  33.810  1.00  0.00     0.182 C 
ATOM     17  O   UNL A   1      37.943  29.865  33.385  1.00  0.00    -0.262 OA
ATOM     18  C   UNL A   1      37.712  30.975  33.822  1.00  0.00     0.279 C 
ATOM     19  N   UNL A   1      37.123  31.981  33.119  1.00  0.00    -0.334 N 
ATOM     20  S   UNL A   1      38.105  31.517  35.431  1.00  0.00    -0.062 SA
ATOM     21  H   UNL A   1      36.891  31.868  32.169  1.00  0.00     0.165 HD
ATOM     22  C   UNL A   1      37.637  33.239  35.113  1.00  0.00     0.115 C 
ENDBRANCH  13  16
ENDBRANCH   8  12
ENDBRANCH   4   7
ENDBRANCH   2   3
ENDBRANCH   1   2
BRANCH   1  23
ATOM     23  C   UNL A   1      34.790  32.443  28.889  1.00  0.00     0.118 C 
BRANCH  23  24
ATOM     24  N   UNL A   1      34.185  31.203  28.423  1.00  0.00    -0.352 N 
ATOM     25  C   UNL A   1      34.756  30.006  28.070  1.00  0.00     0.251 C 
ATOM     26  H   UNL A   1      33.203  31.227  28.349  1.00  0.00     0.163 HD
ATOM     27  O   UNL A   1      34.071  29.150  27.516  1.00  0.00    -0.269 OA
BRANCH  25  28
ATOM     28  C   UNL A   1      36.188  29.739  28.330  1.00  0.00     0.039 A 
ATOM     29  C   UNL A   1      36.570  29.294  29.600  1.00  0.00     0.014 A 
ATOM     30  C   UNL A   1      37.160  29.962  27.352  1.00  0.00     0.014 A 
ATOM     31  C   UNL A   1      37.911  29.001  29.862  1.00  0.00     0.010 A 
ATOM     32  C   UNL A   1      38.483  29.598  27.589  1.00  0.00     0.010 A 
ATOM     33  C   UNL A   1      38.873  29.112  28.846  1.00  0.00    -0.014 A 
BRANCH  33  34
ATOM     34  C   UNL A   1      40.287  28.717  29.070  1.00  0.00     0.031 A 
ATOM     35  C   UNL A   1      41.263  29.690  29.670  1.00  0.00     0.074 A 
ATOM     36  C   UNL A   1      40.711  27.504  28.662  1.00  0.00     0.049 A 
ATOM     37  N   UNL A   1      42.555  29.566  29.847  1.00  0.00    -0.248 NA
ATOM     38  C   UNL A   1      40.720  30.987  30.105  1.00  0.00     0.031 C 
ATOM     39  C   UNL A   1      39.873  26.482  28.032  1.00  0.00     0.029 A 
ATOM     40  N   UNL A   1      41.958  26.932  28.703  1.00  0.00    -0.354 N 
ATOM     41  C   UNL A   1      42.979  30.768  30.397  1.00  0.00     0.074 A 
ATOM     42  C   UNL A   1      41.819  31.628  30.479  1.00  0.00     0.031 C 
ATOM     43  C   UNL A   1      40.625  25.403  27.762  1.00  0.00     0.029 A 
ATOM     44  C   UNL A   1      42.004  25.671  28.159  1.00  0.00     0.049 A 
ATOM     45  H   UNL A   1      42.745  27.382  29.087  1.00  0.00     0.167 HD
ATOM     46  C   UNL A   1      44.220  31.118  30.813  1.00  0.00     0.037 A 
ATOM     47  C   UNL A   1      43.042  24.832  27.984  1.00  0.00     0.037 A 
ATOM     48  C   UNL A   1      45.369  30.253  30.751  1.00  0.00     0.049 A 
ATOM     49  C   UNL A   1      44.413  25.251  28.435  1.00  0.00     0.074 A 
ATOM     50  C   UNL A   1      46.656  30.495  31.202  1.00  0.00     0.029 A 
ATOM     51  N   UNL A   1      45.372  28.980  30.202  1.00  0.00    -0.354 N 
ATOM     52  N   UNL A   1      44.789  26.370  29.007  1.00  0.00    -0.248 NA
ATOM     53  C   UNL A   1      45.505  24.293  28.215  1.00  0.00     0.031 C 
ATOM     54  C   UNL A   1      47.447  29.386  30.886  1.00  0.00     0.029 A 
ATOM     55  C   UNL A   1      46.642  28.434  30.280  1.00  0.00     0.049 A 
ATOM     56  H   UNL A   1      44.586  28.531  29.813  1.00  0.00     0.167 HD
ATOM     57  C   UNL A   1      46.151  26.238  29.240  1.00  0.00     0.074 A 
ATOM     58  C   UNL A   1      46.534  24.927  28.760  1.00  0.00     0.031 C 
ATOM     59  C   UNL A   1      47.008  27.125  29.803  1.00  0.00     0.037 A 
BRANCH  46  60
ATOM     60  C   UNL A   1      44.399  32.498  31.376  1.00  0.00     0.057 A 
ATOM     61  C   UNL A   1      44.740  33.589  30.564  1.00  0.00     0.134 A 
ATOM     62  C   UNL A   1      44.188  32.748  32.737  1.00  0.00     0.134 A 
ATOM     63  F   UNL A   1      44.965  33.416  29.253  1.00  0.00    -0.206 F 
ATOM     64  C   UNL A   1      44.892  34.872  31.091  1.00  0.00     0.040 A 
ATOM     65  C   UNL A   1      44.312  34.032  33.271  1.00  0.00     0.040 A 
ATOM     66  F   UNL A   1      43.853  31.752  33.570  1.00  0.00    -0.206 F 
ATOM     67  C   UNL A   1      44.671  35.097  32.448  1.00  0.00     0.006 A 
ENDBRANCH  46  60
BRANCH  47  68
ATOM     68  C   UNL A   1      42.824  23.500  27.363  1.00  0.00     0.057 A 
ATOM     69  C   UNL A   1      43.004  23.309  25.988  1.00  0.00     0.134 A 
ATOM     70  C   UNL A   1      42.425  22.394  28.122  1.00  0.00     0.134 A 
ATOM     71  F   UNL A   1      43.366  24.337  25.205  1.00  0.00    -0.206 F 
ATOM     72  C   UNL A   1      42.778  22.071  25.386  1.00  0.00     0.040 A 
ATOM     73  C   UNL A   1      42.220  21.143  27.537  1.00  0.00     0.040 A 
ATOM     74  F   UNL A   1      42.241  22.510  29.445  1.00  0.00    -0.206 F 
ATOM     75  C   UNL A   1      42.389  20.981  26.163  1.00  0.00     0.006 A 
ENDBRANCH  47  68
BRANCH  59  76
ATOM     76  C   UNL A   1      48.437  26.696  29.961  1.00  0.00     0.057 A 
ATOM     77  C   UNL A   1      48.859  25.916  31.046  1.00  0.00     0.134 A 
ATOM     78  C   UNL A   1      49.391  27.026  28.990  1.00  0.00     0.134 A 
ATOM     79  F   UNL A   1      47.997  25.579  32.016  1.00  0.00    -0.206 F 
ATOM     80  C   UNL A   1      50.185  25.497  31.168  1.00  0.00     0.040 A 
ATOM     81  C   UNL A   1      50.713  26.590  29.088  1.00  0.00     0.040 A 
ATOM     82  F   UNL A   1      49.050  27.763  27.922  1.00  0.00    -0.206 F 
ATOM     83  C   UNL A   1      51.114  25.827  30.183  1.00  0.00     0.006 A 
ENDBRANCH  59  76
ENDBRANCH  33  34
ENDBRANCH  25  28
ENDBRANCH  23  24
ENDBRANCH   1  23
TORSDOF 12
ENDMDL
MODEL 3
REMARK VINA RESULT:     -11.3      5.296     10.628
REMARK SMILES O=C1N[C@H](C(=O)N[C@H]2C=C[C@@H](C(=O)NCCCNC(=O)c3ccc(-c4c5nc(c(-c6c(F)cccc6F)c6ccc([nH]6)c(-c6c(F)cccc6F)c6nc(c(-c7c(F)cccc7F)c7ccc4[nH]7)C=C6)C=C5)cc3)C2)CS1
REMARK SMILES IDX 16 1 15 2 14 3 12 4 13 5 11 7 8 8 9 9 75 10 10 11 7 12 5 13
REMARK SMILES IDX 6 14 4 16 1 17 2 18 3 19 77 20 76 22 17 23 18 24 19 25 20 27
REMARK SMILES IDX 21 28 22 29 74 30 23 31 73 32 24 33 25 34 26 35 67 36 27 37
REMARK SMILES IDX 72 38 66 39 68 40 28 41 71 42 65 43 64 44 29 46 55 47 38 48
REMARK SMILES IDX 54 49 39 50 42 51 53 52 69 53 40 54 41 55 52 57 70 58 43 59
REMARK SMILES IDX 30 60 31 61 36 62 32 63 33 64 35 65 37 66 34 67 56 68 57 69
REMARK SMILES IDX 62 70 58 71 59 72 61 73 63 74 60 75 44 76 45 77 50 78 46 79
REMARK SMILES IDX 47 80 49 81 51 82 48 83
REMARK H PARENT 14 6 7 15 3 21 18 26 68 45 42 56
REMARK Flexibility Score: inf
ROOT
ATOM      1  C   UNL A   1      31.402  32.226  26.519  1.00  0.00     0.042 C 
ENDROOT
BRANCH   1   2
ATOM      2  C   UNL A   1      31.413  30.704  26.464  1.00  0.00     0.117 C 
BRANCH   2   3
ATOM      3  N   UNL A   1      31.981  30.187  25.234  1.00  0.00    -0.356 N 
ATOM      4  C   UNL A   1      32.438  28.949  24.902  1.00  0.00     0.227 C 
ATOM      5  O   UNL A   1      32.767  28.777  23.723  1.00  0.00    -0.274 OA
ATOM      6  H   UNL A   1      32.049  30.850  24.509  1.00  0.00     0.163 HD
BRANCH   4   7
ATOM      7  C   UNL A   1      32.624  27.817  25.918  1.00  0.00     0.103 C 
ATOM      8  C   UNL A   1      32.024  25.417  25.856  1.00  0.00     0.106 C 
ATOM      9  C   UNL A   1      33.500  25.648  25.749  1.00  0.00    -0.006 C 
ATOM     10  C   UNL A   1      31.448  26.837  25.925  1.00  0.00     0.047 C 
ATOM     11  C   UNL A   1      33.825  26.945  25.759  1.00  0.00    -0.016 C 
BRANCH   8  12
ATOM     12  N   UNL A   1      31.607  24.679  24.678  1.00  0.00    -0.348 N 
ATOM     13  C   UNL A   1      31.808  23.386  24.301  1.00  0.00     0.243 C 
ATOM     14  O   UNL A   1      31.253  23.021  23.258  1.00  0.00    -0.273 OA
ATOM     15  H   UNL A   1      31.081  25.208  24.035  1.00  0.00     0.164 HD
BRANCH  13  16
ATOM     16  C   UNL A   1      32.514  22.346  25.187  1.00  0.00     0.182 C 
ATOM     17  O   UNL A   1      32.263  18.815  25.450  1.00  0.00    -0.262 OA
ATOM     18  C   UNL A   1      32.663  19.953  25.300  1.00  0.00     0.279 C 
ATOM     19  N   UNL A   1      31.873  21.061  25.298  1.00  0.00    -0.334 N 
ATOM     20  S   UNL A   1      34.327  20.401  25.040  1.00  0.00    -0.062 SA
ATOM     21  H   UNL A   1      30.893  20.986  25.371  1.00  0.00     0.165 HD
ATOM     22  C   UNL A   1      33.949  22.145  24.718  1.00  0.00     0.115 C 
ENDBRANCH  13  16
ENDBRANCH   8  12
ENDBRANCH   4   7
ENDBRANCH   2   3
ENDBRANCH   1   2
BRANCH   1  23
ATOM     23  C   UNL A   1      32.630  32.842  27.183  1.00  0.00     0.118 C 
BRANCH  23  24
ATOM     24  N   UNL A   1      32.411  34.218  27.606  1.00  0.00    -0.352 N 
ATOM     25  C   UNL A   1      33.011  34.957  28.594  1.00  0.00     0.251 C 
ATOM     26  H   UNL A   1      31.717  34.699  27.098  1.00  0.00     0.163 HD
ATOM     27  O   UNL A   1      32.535  36.043  28.910  1.00  0.00    -0.269 OA
BRANCH  25  28
ATOM     28  C   UNL A   1      34.213  34.454  29.297  1.00  0.00     0.039 A 
ATOM     29  C   UNL A   1      34.055  33.828  30.537  1.00  0.00     0.014 A 
ATOM     30  C   UNL A   1      35.493  34.631  28.766  1.00  0.00     0.014 A 
ATOM     31  C   UNL A   1      35.169  33.313  31.206  1.00  0.00     0.010 A 
ATOM     32  C   UNL A   1      36.593  34.051  29.395  1.00  0.00     0.010 A 
ATOM     33  C   UNL A   1      36.443  33.384  30.620  1.00  0.00    -0.014 A 
BRANCH  33  34
ATOM     34  C   UNL A   1      37.628  32.762  31.263  1.00  0.00     0.031 A 
ATOM     35  C   UNL A   1      38.300  31.574  30.631  1.00  0.00     0.074 A 
ATOM     36  C   UNL A   1      38.053  33.218  32.458  1.00  0.00     0.049 A 
ATOM     37  N   UNL A   1      39.278  30.834  31.091  1.00  0.00    -0.248 NA
ATOM     38  C   UNL A   1      37.789  31.146  29.320  1.00  0.00     0.031 C 
ATOM     39  C   UNL A   1      37.464  34.338  33.194  1.00  0.00     0.029 A 
ATOM     40  N   UNL A   1      39.071  32.785  33.271  1.00  0.00    -0.354 N 
ATOM     41  C   UNL A   1      39.486  29.847  30.136  1.00  0.00     0.074 A 
ATOM     42  C   UNL A   1      38.503  30.052  29.095  1.00  0.00     0.031 C 
ATOM     43  C   UNL A   1      38.141  34.515  34.340  1.00  0.00     0.029 A 
ATOM     44  C   UNL A   1      39.183  33.497  34.441  1.00  0.00     0.049 A 
ATOM     45  H   UNL A   1      39.666  32.036  33.037  1.00  0.00     0.167 HD
ATOM     46  C   UNL A   1      40.425  28.870  30.119  1.00  0.00     0.037 A 
ATOM     47  C   UNL A   1      40.018  33.337  35.485  1.00  0.00     0.037 A 
ATOM     48  C   UNL A   1      41.417  28.681  31.145  1.00  0.00     0.049 A 
ATOM     49  C   UNL A   1      41.036  32.233  35.451  1.00  0.00     0.074 A 
ATOM     50  C   UNL A   1      42.447  27.758  31.189  1.00  0.00     0.029 A 
ATOM     51  N   UNL A   1      41.502  29.430  32.309  1.00  0.00    -0.354 N 
ATOM     52  N   UNL A   1      41.260  31.343  34.515  1.00  0.00    -0.248 NA
ATOM     53  C   UNL A   1      41.918  32.108  36.620  1.00  0.00     0.031 C 
ATOM     54  C   UNL A   1      43.128  27.917  32.399  1.00  0.00     0.029 A 
ATOM     55  C   UNL A   1      42.551  28.972  33.089  1.00  0.00     0.049 A 
ATOM     56  H   UNL A   1      40.904  30.176  32.547  1.00  0.00     0.167 HD
ATOM     57  C   UNL A   1      42.324  30.573  34.967  1.00  0.00     0.074 A 
ATOM     58  C   UNL A   1      42.709  31.108  36.257  1.00  0.00     0.031 C 
ATOM     59  C   UNL A   1      42.927  29.518  34.368  1.00  0.00     0.037 A 
BRANCH  46  60
ATOM     60  C   UNL A   1      40.423  27.929  28.950  1.00  0.00     0.057 A 
ATOM     61  C   UNL A   1      41.175  28.184  27.794  1.00  0.00     0.134 A 
ATOM     62  C   UNL A   1      39.695  26.734  28.994  1.00  0.00     0.134 A 
ATOM     63  F   UNL A   1      41.886  29.316  27.684  1.00  0.00    -0.206 F 
ATOM     64  C   UNL A   1      41.179  27.300  26.715  1.00  0.00     0.040 A 
ATOM     65  C   UNL A   1      39.713  25.828  27.932  1.00  0.00     0.040 A 
ATOM     66  F   UNL A   1      38.960  26.422  30.072  1.00  0.00    -0.206 F 
ATOM     67  C   UNL A   1      40.452  26.114  26.786  1.00  0.00     0.006 A 
ENDBRANCH  46  60
BRANCH  47  68
ATOM     68  C   UNL A   1      39.936  34.257  36.648  1.00  0.00     0.057 A 
ATOM     69  C   UNL A   1      39.159  33.935  37.766  1.00  0.00     0.134 A 
ATOM     70  C   UNL A   1      40.623  35.476  36.668  1.00  0.00     0.134 A 
ATOM     71  F   UNL A   1      38.461  32.789  37.797  1.00  0.00    -0.206 F 
ATOM     72  C   UNL A   1      39.052  34.800  38.855  1.00  0.00     0.040 A 
ATOM     73  C   UNL A   1      40.545  36.340  37.762  1.00  0.00     0.040 A 
ATOM     74  F   UNL A   1      41.390  35.840  35.630  1.00  0.00    -0.206 F 
ATOM     75  C   UNL A   1      39.751  36.006  38.857  1.00  0.00     0.006 A 
ENDBRANCH  47  68
BRANCH  59  76
ATOM     76  C   UNL A   1      44.088  28.892  35.083  1.00  0.00     0.057 A 
ATOM     77  C   UNL A   1      43.920  27.815  35.963  1.00  0.00     0.134 A 
ATOM     78  C   UNL A   1      45.394  29.342  34.853  1.00  0.00     0.134 A 
ATOM     79  F   UNL A   1      42.693  27.347  36.238  1.00  0.00    -0.206 F 
ATOM     80  C   UNL A   1      45.009  27.220  36.602  1.00  0.00     0.040 A 
ATOM     81  C   UNL A   1      46.493  28.739  35.465  1.00  0.00     0.040 A 
ATOM     82  F   UNL A   1      45.625  30.364  34.015  1.00  0.00    -0.206 F 
ATOM     83  C   UNL A   1      46.301  27.676  36.347  1.00  0.00     0.006 A 
ENDBRANCH  59  76
ENDBRANCH  33  34
ENDBRANCH  25  28
ENDBRANCH  23  24
ENDBRANCH   1  23
TORSDOF 12
ENDMDL
