MODEL 1
REMARK VINA RESULT:     -11.5      0.000      0.000
REMARK SMILES Cc1nn(C)c(C)c1CNC(=O)NCC(=O)NCC(=O)NCCCNC(=O)c1ccc(-c2c3nc(c(-c4c(F)cccc4F)c4ccc([nH]4)c(-c4c(F)cccc4F)c4nc(c(-c5c(F)cccc5F)c5ccc2[nH]5)C=C4)C=C3)cc1
REMARK SMILES IDX 19 1 20 2 21 3 18 5 17 6 15 7 16 8 14 10 13 11 10 12 11 13
REMARK SMILES IDX 12 15 9 17 8 18 1 19 2 20 3 21 4 22 6 23 5 24 7 25 22 26
REMARK SMILES IDX 23 27 24 28 25 29 26 30 27 32 28 33 29 34 81 35 30 36 80 37
REMARK SMILES IDX 31 38 32 39 33 40 74 41 34 42 79 43 73 44 75 45 35 46 78 47
REMARK SMILES IDX 72 48 71 49 36 51 62 52 45 53 61 54 46 55 49 56 60 57 76 58
REMARK SMILES IDX 47 59 48 60 59 62 77 63 50 64 37 65 38 66 43 67 39 68 40 69
REMARK SMILES IDX 42 70 44 71 41 72 63 73 64 74 69 75 65 76 66 77 68 78 70 79
REMARK SMILES IDX 67 80 51 81 52 82 57 83 53 84 54 85 56 86 58 87 55 88
REMARK H PARENT 21 4 17 9 10 14 13 16 25 31 75 50 49 61
REMARK Flexibility Score: inf
ROOT
ATOM      1  C   UNL A   1      33.788  29.189  27.077  1.00  0.00     0.239 C 
ATOM      2  O   UNL A   1      34.877  29.091  27.643  1.00  0.00    -0.273 OA
ATOM      3  N   UNL A   1      32.933  30.184  27.467  1.00  0.00    -0.355 N 
ATOM      4  H   UNL A   1      33.191  30.692  28.270  1.00  0.00     0.163 HD
ENDROOT
BRANCH   1   5
ATOM      5  C   UNL A   1      33.404  28.259  25.916  1.00  0.00     0.216 C 
BRANCH   5   6
ATOM      6  N   UNL A   1      34.088  28.608  24.679  1.00  0.00    -0.346 N 
ATOM      7  C   UNL A   1      33.840  28.304  23.378  1.00  0.00     0.239 C 
ATOM      8  O   UNL A   1      34.523  28.899  22.536  1.00  0.00    -0.273 OA
ATOM      9  H   UNL A   1      34.882  29.174  24.811  1.00  0.00     0.164 HD
BRANCH   7  10
ATOM     10  C   UNL A   1      32.700  27.382  22.917  1.00  0.00     0.217 C 
BRANCH  10  11
ATOM     11  N   UNL A   1      32.859  26.804  21.596  1.00  0.00    -0.329 N 
ATOM     12  N   UNL A   1      32.312  24.508  21.686  1.00  0.00    -0.334 N 
ATOM     13  C   UNL A   1      32.720  25.598  21.041  1.00  0.00     0.315 C 
ATOM     14  H   UNL A   1      32.288  23.712  21.106  1.00  0.00     0.165 HD
ATOM     15  O   UNL A   1      33.002  25.492  19.845  1.00  0.00    -0.249 OA
ATOM     16  H   UNL A   1      33.143  27.476  20.935  1.00  0.00     0.165 HD
BRANCH  12  17
ATOM     17  C   UNL A   1      31.899  24.221  23.036  1.00  0.00     0.157 C 
BRANCH  17  18
ATOM     18  C   UNL A   1      32.835  23.273  23.706  1.00  0.00     0.015 A 
ATOM     19  C   UNL A   1      32.028  21.064  22.535  1.00  0.00     0.069 C 
ATOM     20  C   UNL A   1      32.849  21.865  23.479  1.00  0.00     0.065 A 
ATOM     21  N   UNL A   1      33.733  21.241  24.259  1.00  0.00    -0.178 NA
ATOM     22  N   UNL A   1      34.290  22.222  24.984  1.00  0.00    -0.272 N 
ATOM     23  C   UNL A   1      33.858  23.476  24.629  1.00  0.00     0.040 A 
ATOM     24  C   UNL A   1      35.218  21.850  26.027  1.00  0.00     0.174 C 
ATOM     25  C   UNL A   1      34.439  24.705  25.233  1.00  0.00     0.067 C 
ENDBRANCH  17  18
ENDBRANCH  12  17
ENDBRANCH  10  11
ENDBRANCH   7  10
ENDBRANCH   5   6
ENDBRANCH   1   5
BRANCH   3  26
ATOM     26  C   UNL A   1      31.695  30.573  26.830  1.00  0.00     0.117 C 
BRANCH  26  27
ATOM     27  C   UNL A   1      31.504  32.079  26.763  1.00  0.00     0.042 C 
BRANCH  27  28
ATOM     28  C   UNL A   1      32.754  32.835  27.182  1.00  0.00     0.118 C 
BRANCH  28  29
ATOM     29  N   UNL A   1      32.461  34.196  27.621  1.00  0.00    -0.352 N 
ATOM     30  C   UNL A   1      33.042  34.937  28.623  1.00  0.00     0.251 C 
ATOM     31  H   UNL A   1      31.739  34.650  27.127  1.00  0.00     0.163 HD
ATOM     32  O   UNL A   1      32.572  36.019  28.947  1.00  0.00    -0.269 OA
BRANCH  30  33
ATOM     33  C   UNL A   1      34.220  34.399  29.333  1.00  0.00     0.039 A 
ATOM     34  C   UNL A   1      34.031  33.705  30.531  1.00  0.00     0.014 A 
ATOM     35  C   UNL A   1      35.500  34.544  28.794  1.00  0.00     0.014 A 
ATOM     36  C   UNL A   1      35.119  33.078  31.143  1.00  0.00     0.010 A 
ATOM     37  C   UNL A   1      36.562  33.847  29.354  1.00  0.00     0.010 A 
ATOM     38  C   UNL A   1      36.381  33.103  30.531  1.00  0.00    -0.014 A 
BRANCH  38  39
ATOM     39  C   UNL A   1      37.540  32.363  31.086  1.00  0.00     0.031 A 
ATOM     40  C   UNL A   1      38.215  32.868  32.331  1.00  0.00     0.074 A 
ATOM     41  C   UNL A   1      38.053  31.315  30.414  1.00  0.00     0.049 A 
ATOM     42  N   UNL A   1      39.342  32.487  32.874  1.00  0.00    -0.248 NA
ATOM     43  C   UNL A   1      37.553  33.980  33.033  1.00  0.00     0.031 C 
ATOM     44  C   UNL A   1      37.516  30.758  29.169  1.00  0.00     0.029 A 
ATOM     45  N   UNL A   1      39.159  30.545  30.672  1.00  0.00    -0.354 N 
ATOM     46  C   UNL A   1      39.544  33.338  33.953  1.00  0.00     0.074 A 
ATOM     47  C   UNL A   1      38.445  34.277  33.966  1.00  0.00     0.031 C 
ATOM     48  C   UNL A   1      38.282  29.724  28.785  1.00  0.00     0.029 A 
ATOM     49  C   UNL A   1      39.386  29.574  29.728  1.00  0.00     0.049 A 
ATOM     50  H   UNL A   1      39.733  30.676  31.460  1.00  0.00     0.167 HD
ATOM     51  C   UNL A   1      40.549  33.326  34.860  1.00  0.00     0.037 A 
ATOM     52  C   UNL A   1      40.382  28.675  29.626  1.00  0.00     0.037 A 
ATOM     53  C   UNL A   1      41.609  32.355  34.877  1.00  0.00     0.049 A 
ATOM     54  C   UNL A   1      41.468  28.662  30.664  1.00  0.00     0.074 A 
ATOM     55  C   UNL A   1      42.631  32.209  35.799  1.00  0.00     0.029 A 
ATOM     56  N   UNL A   1      41.777  31.357  33.929  1.00  0.00    -0.354 N 
ATOM     57  N   UNL A   1      41.624  29.443  31.705  1.00  0.00    -0.248 NA
ATOM     58  C   UNL A   1      42.518  27.645  30.511  1.00  0.00     0.031 C 
ATOM     59  C   UNL A   1      43.433  31.137  35.394  1.00  0.00     0.029 A 
ATOM     60  C   UNL A   1      42.891  30.596  34.238  1.00  0.00     0.049 A 
ATOM     61  H   UNL A   1      41.192  31.211  33.152  1.00  0.00     0.167 HD
ATOM     62  C   UNL A   1      42.770  28.993  32.348  1.00  0.00     0.074 A 
ATOM     63  C   UNL A   1      43.266  27.869  31.582  1.00  0.00     0.031 C 
ATOM     64  C   UNL A   1      43.358  29.469  33.473  1.00  0.00     0.037 A 
BRANCH  51  65
ATOM     65  C   UNL A   1      40.540  34.395  35.912  1.00  0.00     0.057 A 
ATOM     66  C   UNL A   1      41.220  35.607  35.739  1.00  0.00     0.134 A 
ATOM     67  C   UNL A   1      39.825  34.219  37.103  1.00  0.00     0.134 A 
ATOM     68  F   UNL A   1      41.936  35.832  34.627  1.00  0.00    -0.206 F 
ATOM     69  C   UNL A   1      41.215  36.594  36.726  1.00  0.00     0.040 A 
ATOM     70  C   UNL A   1      39.791  35.209  38.087  1.00  0.00     0.040 A 
ATOM     71  F   UNL A   1      39.149  33.083  37.330  1.00  0.00    -0.206 F 
ATOM     72  C   UNL A   1      40.493  36.398  37.902  1.00  0.00     0.006 A 
ENDBRANCH  51  65
BRANCH  52  73
ATOM     73  C   UNL A   1      40.385  27.691  28.516  1.00  0.00     0.057 A 
ATOM     74  C   UNL A   1      39.685  26.484  28.629  1.00  0.00     0.134 A 
ATOM     75  C   UNL A   1      41.083  27.925  27.326  1.00  0.00     0.134 A 
ATOM     76  F   UNL A   1      39.013  26.198  29.754  1.00  0.00    -0.206 F 
ATOM     77  C   UNL A   1      39.690  25.537  27.604  1.00  0.00     0.040 A 
ATOM     78  C   UNL A   1      41.080  26.995  26.284  1.00  0.00     0.040 A 
ATOM     79  F   UNL A   1      41.768  29.064  27.155  1.00  0.00    -0.206 F 
ATOM     80  C   UNL A   1      40.387  25.794  26.425  1.00  0.00     0.006 A 
ENDBRANCH  52  73
BRANCH  64  81
ATOM     81  C   UNL A   1      44.573  28.747  33.967  1.00  0.00     0.057 A 
ATOM     82  C   UNL A   1      44.479  27.647  34.827  1.00  0.00     0.134 A 
ATOM     83  C   UNL A   1      45.850  29.132  33.539  1.00  0.00     0.134 A 
ATOM     84  F   UNL A   1      43.285  27.240  35.282  1.00  0.00    -0.206 F 
ATOM     85  C   UNL A   1      45.617  26.962  35.257  1.00  0.00     0.040 A 
ATOM     86  C   UNL A   1      46.992  28.441  33.944  1.00  0.00     0.040 A 
ATOM     87  F   UNL A   1      46.004  30.174  32.708  1.00  0.00    -0.206 F 
ATOM     88  C   UNL A   1      46.878  27.356  34.810  1.00  0.00     0.006 A 
ENDBRANCH  64  81
ENDBRANCH  38  39
ENDBRANCH  30  33
ENDBRANCH  28  29
ENDBRANCH  27  28
ENDBRANCH  26  27
ENDBRANCH   3  26
TORSDOF 15
ENDMDL
MODEL 2
REMARK VINA RESULT:     -11.4      4.124      8.970
REMARK SMILES Cc1nn(C)c(C)c1CNC(=O)NCC(=O)NCC(=O)NCCCNC(=O)c1ccc(-c2c3nc(c(-c4c(F)cccc4F)c4ccc([nH]4)c(-c4c(F)cccc4F)c4nc(c(-c5c(F)cccc5F)c5ccc2[nH]5)C=C4)C=C3)cc1
REMARK SMILES IDX 19 1 20 2 21 3 18 5 17 6 15 7 16 8 14 10 13 11 10 12 11 13
REMARK SMILES IDX 12 15 9 17 8 18 1 19 2 20 3 21 4 22 6 23 5 24 7 25 22 26
REMARK SMILES IDX 23 27 24 28 25 29 26 30 27 32 28 33 29 34 81 35 30 36 80 37
REMARK SMILES IDX 31 38 32 39 33 40 74 41 34 42 79 43 73 44 75 45 35 46 78 47
REMARK SMILES IDX 72 48 71 49 36 51 62 52 45 53 61 54 46 55 49 56 60 57 76 58
REMARK SMILES IDX 47 59 48 60 59 62 77 63 50 64 37 65 38 66 43 67 39 68 40 69
REMARK SMILES IDX 42 70 44 71 41 72 63 73 64 74 69 75 65 76 66 77 68 78 70 79
REMARK SMILES IDX 67 80 51 81 52 82 57 83 53 84 54 85 56 86 58 87 55 88
REMARK H PARENT 21 4 17 9 10 14 13 16 25 31 75 50 49 61
REMARK Flexibility Score: inf
ROOT
ATOM      1  C   UNL A   1      34.127  19.146  24.809  1.00  0.00     0.239 C 
ATOM      2  O   UNL A   1      33.833  18.002  24.462  1.00  0.00    -0.273 OA
ATOM      3  N   UNL A   1      35.449  19.467  24.961  1.00  0.00    -0.355 N 
ATOM      4  H   UNL A   1      36.089  18.721  24.905  1.00  0.00     0.163 HD
ENDROOT
BRANCH   1   5
ATOM      5  C   UNL A   1      33.048  20.222  25.012  1.00  0.00     0.216 C 
BRANCH   5   6
ATOM      6  N   UNL A   1      32.254  20.442  23.813  1.00  0.00    -0.346 N 
ATOM      7  C   UNL A   1      32.307  21.389  22.841  1.00  0.00     0.239 C 
ATOM      8  O   UNL A   1      31.586  21.202  21.853  1.00  0.00    -0.273 OA
ATOM      9  H   UNL A   1      31.542  19.775  23.681  1.00  0.00     0.164 HD
BRANCH   7  10
ATOM     10  C   UNL A   1      33.283  22.576  22.854  1.00  0.00     0.217 C 
BRANCH  10  11
ATOM     11  N   UNL A   1      32.973  23.653  21.932  1.00  0.00    -0.329 N 
ATOM     12  N   UNL A   1      33.434  25.721  22.975  1.00  0.00    -0.334 N 
ATOM     13  C   UNL A   1      33.009  24.986  21.950  1.00  0.00     0.315 C 
ATOM     14  H   UNL A   1      33.369  26.687  22.801  1.00  0.00     0.165 HD
ATOM     15  O   UNL A   1      32.607  25.575  20.944  1.00  0.00    -0.249 OA
ATOM     16  H   UNL A   1      32.652  23.310  21.067  1.00  0.00     0.165 HD
BRANCH  12  17
ATOM     17  C   UNL A   1      33.966  25.429  24.282  1.00  0.00     0.157 C 
BRANCH  17  18
ATOM     18  C   UNL A   1      33.097  25.977  25.362  1.00  0.00     0.015 A 
ATOM     19  C   UNL A   1      31.570  23.870  25.717  1.00  0.00     0.069 C 
ATOM     20  C   UNL A   1      32.019  25.264  25.964  1.00  0.00     0.065 A 
ATOM     21  N   UNL A   1      31.358  26.009  26.852  1.00  0.00    -0.178 NA
ATOM     22  N   UNL A   1      31.993  27.191  26.834  1.00  0.00    -0.272 N 
ATOM     23  C   UNL A   1      33.105  27.202  26.028  1.00  0.00     0.040 A 
ATOM     24  C   UNL A   1      31.434  28.272  27.612  1.00  0.00     0.174 C 
ATOM     25  C   UNL A   1      34.011  28.378  25.959  1.00  0.00     0.067 C 
ENDBRANCH  17  18
ENDBRANCH  12  17
ENDBRANCH  10  11
ENDBRANCH   7  10
ENDBRANCH   5   6
ENDBRANCH   1   5
BRANCH   3  26
ATOM     26  C   UNL A   1      36.009  20.778  25.196  1.00  0.00     0.117 C 
BRANCH  26  27
ATOM     27  C   UNL A   1      37.397  20.951  24.600  1.00  0.00     0.042 C 
BRANCH  27  28
ATOM     28  C   UNL A   1      38.472  21.044  25.669  1.00  0.00     0.118 C 
BRANCH  28  29
ATOM     29  N   UNL A   1      39.409  19.925  25.617  1.00  0.00    -0.352 N 
ATOM     30  C   UNL A   1      40.743  19.883  25.946  1.00  0.00     0.251 C 
ATOM     31  H   UNL A   1      39.028  19.074  25.297  1.00  0.00     0.163 HD
ATOM     32  O   UNL A   1      41.411  18.887  25.705  1.00  0.00    -0.269 OA
BRANCH  30  33
ATOM     33  C   UNL A   1      41.375  21.069  26.561  1.00  0.00     0.039 A 
ATOM     34  C   UNL A   1      41.943  22.041  25.733  1.00  0.00     0.014 A 
ATOM     35  C   UNL A   1      41.370  21.236  27.947  1.00  0.00     0.014 A 
ATOM     36  C   UNL A   1      42.424  23.226  26.292  1.00  0.00     0.010 A 
ATOM     37  C   UNL A   1      41.767  22.450  28.492  1.00  0.00     0.010 A 
ATOM     38  C   UNL A   1      42.293  23.458  27.669  1.00  0.00    -0.014 A 
BRANCH  38  39
ATOM     39  C   UNL A   1      42.691  24.744  28.293  1.00  0.00     0.031 A 
ATOM     40  C   UNL A   1      41.654  25.804  28.534  1.00  0.00     0.074 A 
ATOM     41  C   UNL A   1      43.992  25.000  28.534  1.00  0.00     0.049 A 
ATOM     42  N   UNL A   1      41.812  27.052  28.891  1.00  0.00    -0.248 NA
ATOM     43  C   UNL A   1      40.252  25.418  28.300  1.00  0.00     0.031 C 
ATOM     44  C   UNL A   1      45.099  24.070  28.299  1.00  0.00     0.029 A 
ATOM     45  N   UNL A   1      44.604  26.132  29.008  1.00  0.00    -0.354 N 
ATOM     46  C   UNL A   1      40.541  27.610  28.881  1.00  0.00     0.074 A 
ATOM     47  C   UNL A   1      39.626  26.575  28.449  1.00  0.00     0.031 C 
ATOM     48  C   UNL A   1      46.252  24.663  28.650  1.00  0.00     0.029 A 
ATOM     49  C   UNL A   1      45.971  26.026  29.088  1.00  0.00     0.049 A 
ATOM     50  H   UNL A   1      44.110  26.944  29.266  1.00  0.00     0.167 HD
ATOM     51  C   UNL A   1      40.167  28.866  29.219  1.00  0.00     0.037 A 
ATOM     52  C   UNL A   1      46.895  26.931  29.460  1.00  0.00     0.037 A 
ATOM     53  C   UNL A   1      41.071  29.874  29.702  1.00  0.00     0.049 A 
ATOM     54  C   UNL A   1      46.451  28.310  29.860  1.00  0.00     0.074 A 
ATOM     55  C   UNL A   1      40.782  31.153  30.144  1.00  0.00     0.029 A 
ATOM     56  N   UNL A   1      42.443  29.711  29.815  1.00  0.00    -0.354 N 
ATOM     57  N   UNL A   1      45.240  28.811  29.890  1.00  0.00    -0.248 NA
ATOM     58  C   UNL A   1      47.503  29.250  30.275  1.00  0.00     0.031 C 
ATOM     59  C   UNL A   1      41.984  31.773  30.501  1.00  0.00     0.029 A 
ATOM     60  C   UNL A   1      43.017  30.869  30.311  1.00  0.00     0.049 A 
ATOM     61  H   UNL A   1      42.938  28.893  29.577  1.00  0.00     0.167 HD
ATOM     62  C   UNL A   1      45.380  30.112  30.356  1.00  0.00     0.074 A 
ATOM     63  C   UNL A   1      46.792  30.321  30.599  1.00  0.00     0.031 C 
ATOM     64  C   UNL A   1      44.423  31.049  30.564  1.00  0.00     0.037 A 
BRANCH  51  65
ATOM     65  C   UNL A   1      38.715  29.214  29.080  1.00  0.00     0.057 A 
ATOM     66  C   UNL A   1      37.835  29.160  30.167  1.00  0.00     0.134 A 
ATOM     67  C   UNL A   1      38.196  29.628  27.847  1.00  0.00     0.134 A 
ATOM     68  F   UNL A   1      38.266  28.756  31.372  1.00  0.00    -0.206 F 
ATOM     69  C   UNL A   1      36.482  29.476  30.028  1.00  0.00     0.040 A 
ATOM     70  C   UNL A   1      36.850  29.972  27.700  1.00  0.00     0.040 A 
ATOM     71  F   UNL A   1      38.986  29.706  26.765  1.00  0.00    -0.206 F 
ATOM     72  C   UNL A   1      35.989  29.890  28.792  1.00  0.00     0.006 A 
ENDBRANCH  51  65
BRANCH  52  73
ATOM     73  C   UNL A   1      48.329  26.557  29.500  1.00  0.00     0.057 A 
ATOM     74  C   UNL A   1      49.162  26.800  28.401  1.00  0.00     0.134 A 
ATOM     75  C   UNL A   1      48.901  25.949  30.622  1.00  0.00     0.134 A 
ATOM     76  F   UNL A   1      48.664  27.364  27.291  1.00  0.00    -0.206 F 
ATOM     77  C   UNL A   1      50.509  26.438  28.411  1.00  0.00     0.040 A 
ATOM     78  C   UNL A   1      50.253  25.600  30.653  1.00  0.00     0.040 A 
ATOM     79  F   UNL A   1      48.157  25.694  31.708  1.00  0.00    -0.206 F 
ATOM     80  C   UNL A   1      51.060  25.840  29.542  1.00  0.00     0.006 A 
ENDBRANCH  52  73
BRANCH  64  81
ATOM     81  C   UNL A   1      44.867  32.366  31.123  1.00  0.00     0.057 A 
ATOM     82  C   UNL A   1      44.956  32.590  32.502  1.00  0.00     0.134 A 
ATOM     83  C   UNL A   1      45.252  33.406  30.268  1.00  0.00     0.134 A 
ATOM     84  F   UNL A   1      44.588  31.637  33.370  1.00  0.00    -0.206 F 
ATOM     85  C   UNL A   1      45.399  33.811  33.012  1.00  0.00     0.040 A 
ATOM     86  C   UNL A   1      45.718  34.623  30.766  1.00  0.00     0.040 A 
ATOM     87  F   UNL A   1      45.196  33.250  28.937  1.00  0.00    -0.206 F 
ATOM     88  C   UNL A   1      45.788  34.830  32.142  1.00  0.00     0.006 A 
ENDBRANCH  64  81
ENDBRANCH  38  39
ENDBRANCH  30  33
ENDBRANCH  28  29
ENDBRANCH  27  28
ENDBRANCH  26  27
ENDBRANCH   3  26
TORSDOF 15
ENDMDL
MODEL 3
REMARK VINA RESULT:     -11.4      1.839      6.585
REMARK SMILES Cc1nn(C)c(C)c1CNC(=O)NCC(=O)NCC(=O)NCCCNC(=O)c1ccc(-c2c3nc(c(-c4c(F)cccc4F)c4ccc([nH]4)c(-c4c(F)cccc4F)c4nc(c(-c5c(F)cccc5F)c5ccc2[nH]5)C=C4)C=C3)cc1
REMARK SMILES IDX 19 1 20 2 21 3 18 5 17 6 15 7 16 8 14 10 13 11 10 12 11 13
REMARK SMILES IDX 12 15 9 17 8 18 1 19 2 20 3 21 4 22 6 23 5 24 7 25 22 26
REMARK SMILES IDX 23 27 24 28 25 29 26 30 27 32 28 33 29 34 81 35 30 36 80 37
REMARK SMILES IDX 31 38 32 39 33 40 74 41 34 42 79 43 73 44 75 45 35 46 78 47
REMARK SMILES IDX 72 48 71 49 36 51 62 52 45 53 61 54 46 55 49 56 60 57 76 58
REMARK SMILES IDX 47 59 48 60 59 62 77 63 50 64 37 65 38 66 43 67 39 68 40 69
REMARK SMILES IDX 42 70 44 71 41 72 63 73 64 74 69 75 65 76 66 77 68 78 70 79
REMARK SMILES IDX 67 80 51 81 52 82 57 83 53 84 54 85 56 86 58 87 55 88
REMARK H PARENT 21 4 17 9 10 14 13 16 25 31 75 50 49 61
REMARK Flexibility Score: inf
ROOT
ATOM      1  C   UNL A   1      31.642  27.996  26.751  1.00  0.00     0.239 C 
ATOM      2  O   UNL A   1      31.434  27.156  27.626  1.00  0.00    -0.273 OA
ATOM      3  N   UNL A   1      31.757  29.310  27.117  1.00  0.00    -0.355 N 
ATOM      4  H   UNL A   1      31.542  29.524  28.053  1.00  0.00     0.163 HD
ENDROOT
BRANCH   1   5
ATOM      5  C   UNL A   1      31.830  27.590  25.281  1.00  0.00     0.216 C 
BRANCH   5   6
ATOM      6  N   UNL A   1      30.562  27.367  24.602  1.00  0.00    -0.346 N 
ATOM      7  C   UNL A   1      29.890  26.236  24.265  1.00  0.00     0.239 C 
ATOM      8  O   UNL A   1      28.740  26.388  23.835  1.00  0.00    -0.273 OA
ATOM      9  H   UNL A   1      30.102  28.196  24.337  1.00  0.00     0.164 HD
BRANCH   7  10
ATOM     10  C   UNL A   1      30.428  24.817  24.508  1.00  0.00     0.217 C 
BRANCH  10  11
ATOM     11  N   UNL A   1      30.154  24.259  25.820  1.00  0.00    -0.329 N 
ATOM     12  N   UNL A   1      31.237  22.169  26.013  1.00  0.00    -0.334 N 
ATOM     13  C   UNL A   1      30.464  23.144  26.484  1.00  0.00     0.315 C 
ATOM     14  H   UNL A   1      31.335  21.424  26.648  1.00  0.00     0.165 HD
ATOM     15  O   UNL A   1      29.985  23.010  27.613  1.00  0.00    -0.249 OA
ATOM     16  H   UNL A   1      29.594  24.861  26.362  1.00  0.00     0.165 HD
BRANCH  12  17
ATOM     17  C   UNL A   1      31.965  21.952  24.789  1.00  0.00     0.157 C 
BRANCH  17  18
ATOM     18  C   UNL A   1      33.424  21.778  25.042  1.00  0.00     0.015 A 
ATOM     19  C   UNL A   1      33.968  24.237  25.789  1.00  0.00     0.069 C 
ATOM     20  C   UNL A   1      34.296  22.825  25.463  1.00  0.00     0.065 A 
ATOM     21  N   UNL A   1      35.564  22.419  25.546  1.00  0.00    -0.178 NA
ATOM     22  N   UNL A   1      35.525  21.127  25.185  1.00  0.00    -0.272 N 
ATOM     23  C   UNL A   1      34.253  20.661  24.963  1.00  0.00     0.040 A 
ATOM     24  C   UNL A   1      36.779  20.423  25.054  1.00  0.00     0.174 C 
ATOM     25  C   UNL A   1      33.984  19.228  24.667  1.00  0.00     0.067 C 
ENDBRANCH  17  18
ENDBRANCH  12  17
ENDBRANCH  10  11
ENDBRANCH   7  10
ENDBRANCH   5   6
ENDBRANCH   1   5
BRANCH   3  26
ATOM     26  C   UNL A   1      32.162  30.418  26.281  1.00  0.00     0.117 C 
BRANCH  26  27
ATOM     27  C   UNL A   1      31.701  31.766  26.810  1.00  0.00     0.042 C 
BRANCH  27  28
ATOM     28  C   UNL A   1      32.855  32.599  27.342  1.00  0.00     0.118 C 
BRANCH  28  29
ATOM     29  N   UNL A   1      32.466  33.980  27.613  1.00  0.00    -0.352 N 
ATOM     30  C   UNL A   1      32.983  34.873  28.523  1.00  0.00     0.251 C 
ATOM     31  H   UNL A   1      31.724  34.323  27.064  1.00  0.00     0.163 HD
ATOM     32  O   UNL A   1      32.439  35.952  28.711  1.00  0.00    -0.269 OA
BRANCH  30  33
ATOM     33  C   UNL A   1      34.184  34.503  29.299  1.00  0.00     0.039 A 
ATOM     34  C   UNL A   1      34.025  33.964  30.579  1.00  0.00     0.014 A 
ATOM     35  C   UNL A   1      35.458  34.650  28.748  1.00  0.00     0.014 A 
ATOM     36  C   UNL A   1      35.141  33.489  31.269  1.00  0.00     0.010 A 
ATOM     37  C   UNL A   1      36.554  34.097  29.397  1.00  0.00     0.010 A 
ATOM     38  C   UNL A   1      36.405  33.506  30.662  1.00  0.00    -0.014 A 
BRANCH  38  39
ATOM     39  C   UNL A   1      37.601  32.915  31.312  1.00  0.00     0.031 A 
ATOM     40  C   UNL A   1      38.279  31.732  30.681  1.00  0.00     0.074 A 
ATOM     41  C   UNL A   1      38.001  33.365  32.516  1.00  0.00     0.049 A 
ATOM     42  N   UNL A   1      39.212  30.956  31.167  1.00  0.00    -0.248 NA
ATOM     43  C   UNL A   1      37.814  31.347  29.338  1.00  0.00     0.031 C 
ATOM     44  C   UNL A   1      37.396  34.476  33.254  1.00  0.00     0.029 A 
ATOM     45  N   UNL A   1      39.002  32.923  33.345  1.00  0.00    -0.354 N 
ATOM     46  C   UNL A   1      39.414  29.968  30.213  1.00  0.00     0.074 A 
ATOM     47  C   UNL A   1      38.482  30.221  29.135  1.00  0.00     0.031 C 
ATOM     48  C   UNL A   1      38.051  34.642  34.415  1.00  0.00     0.029 A 
ATOM     49  C   UNL A   1      39.089  33.622  34.524  1.00  0.00     0.049 A 
ATOM     50  H   UNL A   1      39.601  32.177  33.115  1.00  0.00     0.167 HD
ATOM     51  C   UNL A   1      40.307  28.951  30.226  1.00  0.00     0.037 A 
ATOM     52  C   UNL A   1      39.905  33.449  35.580  1.00  0.00     0.037 A 
ATOM     53  C   UNL A   1      41.269  28.736  31.273  1.00  0.00     0.049 A 
ATOM     54  C   UNL A   1      40.909  32.331  35.557  1.00  0.00     0.074 A 
ATOM     55  C   UNL A   1      42.269  27.781  31.344  1.00  0.00     0.029 A 
ATOM     56  N   UNL A   1      41.356  29.496  32.429  1.00  0.00    -0.354 N 
ATOM     57  N   UNL A   1      41.121  31.431  34.627  1.00  0.00    -0.248 NA
ATOM     58  C   UNL A   1      41.786  32.204  36.730  1.00  0.00     0.031 C 
ATOM     59  C   UNL A   1      42.945  27.948  32.557  1.00  0.00     0.029 A 
ATOM     60  C   UNL A   1      42.387  29.027  33.225  1.00  0.00     0.049 A 
ATOM     61  H   UNL A   1      40.772  30.256  32.652  1.00  0.00     0.167 HD
ATOM     62  C   UNL A   1      42.173  30.651  35.088  1.00  0.00     0.074 A 
ATOM     63  C   UNL A   1      42.559  31.187  36.377  1.00  0.00     0.031 C 
ATOM     64  C   UNL A   1      42.767  29.586  34.496  1.00  0.00     0.037 A 
BRANCH  51  65
ATOM     65  C   UNL A   1      40.284  27.998  29.068  1.00  0.00     0.057 A 
ATOM     66  C   UNL A   1      39.524  26.822  29.094  1.00  0.00     0.134 A 
ATOM     67  C   UNL A   1      41.013  28.272  27.905  1.00  0.00     0.134 A 
ATOM     68  F   UNL A   1      38.815  26.494  30.185  1.00  0.00    -0.206 F 
ATOM     69  C   UNL A   1      39.515  25.935  28.015  1.00  0.00     0.040 A 
ATOM     70  C   UNL A   1      40.992  27.406  26.809  1.00  0.00     0.040 A 
ATOM     71  F   UNL A   1      41.759  29.384  27.813  1.00  0.00    -0.206 F 
ATOM     72  C   UNL A   1      40.246  26.231  26.866  1.00  0.00     0.006 A 
ENDBRANCH  51  65
BRANCH  52  73
ATOM     73  C   UNL A   1      39.828  34.373  36.738  1.00  0.00     0.057 A 
ATOM     74  C   UNL A   1      39.080  34.035  37.872  1.00  0.00     0.134 A 
ATOM     75  C   UNL A   1      40.488  35.606  36.742  1.00  0.00     0.134 A 
ATOM     76  F   UNL A   1      38.411  32.874  37.917  1.00  0.00    -0.206 F 
ATOM     77  C   UNL A   1      38.979  34.898  38.964  1.00  0.00     0.040 A 
ATOM     78  C   UNL A   1      40.412  36.470  37.836  1.00  0.00     0.040 A 
ATOM     79  F   UNL A   1      41.224  35.984  35.687  1.00  0.00    -0.206 F 
ATOM     80  C   UNL A   1      39.651  36.119  38.949  1.00  0.00     0.006 A 
ENDBRANCH  52  73
BRANCH  64  81
ATOM     81  C   UNL A   1      43.923  28.962  35.214  1.00  0.00     0.057 A 
ATOM     82  C   UNL A   1      43.744  27.944  36.158  1.00  0.00     0.134 A 
ATOM     83  C   UNL A   1      45.235  29.356  34.923  1.00  0.00     0.134 A 
ATOM     84  F   UNL A   1      42.511  27.533  36.488  1.00  0.00    -0.206 F 
ATOM     85  C   UNL A   1      44.831  27.349  36.799  1.00  0.00     0.040 A 
ATOM     86  C   UNL A   1      46.330  28.753  35.541  1.00  0.00     0.040 A 
ATOM     87  F   UNL A   1      45.472  30.322  34.023  1.00  0.00    -0.206 F 
ATOM     88  C   UNL A   1      46.129  27.749  36.486  1.00  0.00     0.006 A 
ENDBRANCH  64  81
ENDBRANCH  38  39
ENDBRANCH  30  33
ENDBRANCH  28  29
ENDBRANCH  27  28
ENDBRANCH  26  27
ENDBRANCH   3  26
TORSDOF 15
ENDMDL
