MODEL 1
REMARK VINA RESULT:     -13.5      0.000      0.000
REMARK SMILES Cc1cc(S(F)(F)(F)(F)F)cc2c1O[C@H](C(F)(F)F)C(C(=O)NCCCNC(=O)c1ccc(-c3c4nc(c(-c5c(F)cccc5F)c5ccc([nH]5)c(-c5c(F)cccc5F)c5nc(c(-c6c(F)cccc6F)c6ccc3[nH]6)C=C5)C=C4)cc1)=C2
REMARK SMILES IDX 25 1 24 2 23 3 21 4 22 5 20 7 1 8 2 9 3 10 13 11 4 12 12 13
REMARK SMILES IDX 14 14 11 15 84 16 15 17 5 18 6 19 7 20 8 21 9 22 10 23 16 24
REMARK SMILES IDX 17 25 18 26 19 27 26 28 27 29 28 30 29 32 30 33 31 34 83 35
REMARK SMILES IDX 32 36 82 37 33 38 34 39 35 40 76 41 36 42 81 43 75 44 77 45
REMARK SMILES IDX 37 46 80 47 74 48 73 49 38 51 64 52 47 53 63 54 48 55 51 56
REMARK SMILES IDX 62 57 78 58 49 59 50 60 61 62 79 63 52 64 39 65 40 66 45 67
REMARK SMILES IDX 41 68 42 69 44 70 46 71 43 72 65 73 66 74 71 75 67 76 68 77
REMARK SMILES IDX 70 78 72 79 69 80 53 81 54 82 59 83 55 84 56 85 58 86 60 87
REMARK SMILES IDX 57 88
REMARK H PARENT 23 6 27 31 77 50 51 61
REMARK Flexibility Score: inf
ROOT
ATOM      1  C   UNL A   1      37.700  20.155  24.622  1.00  0.00     0.042 C 
ENDROOT
BRANCH   1   2
ATOM      2  C   UNL A   1      36.604  21.190  24.817  1.00  0.00     0.118 C 
BRANCH   2   3
ATOM      3  N   UNL A   1      35.636  20.698  25.807  1.00  0.00    -0.352 N 
ATOM      4  C   UNL A   1      34.412  21.464  26.083  1.00  0.00     0.251 C 
ATOM      5  O   UNL A   1      33.575  21.038  26.939  1.00  0.00    -0.270 OA
ATOM      6  H   UNL A   1      35.807  19.855  26.286  1.00  0.00     0.163 HD
BRANCH   4   7
ATOM      7  C   UNL A   1      34.148  22.765  25.344  1.00  0.00     0.067 C 
ATOM      8  C   UNL A   1      33.272  26.338  21.757  1.00  0.00     0.048 C 
ATOM      9  C   UNL A   1      33.422  26.327  23.270  1.00  0.00    -0.007 A 
ATOM     10  C   UNL A   1      33.316  27.498  23.988  1.00  0.00     0.031 A 
ATOM     11  C   UNL A   1      33.663  25.130  23.943  1.00  0.00     0.130 A 
ATOM     12  C   UNL A   1      33.452  27.498  25.370  1.00  0.00     0.108 A 
ATOM     13  C   UNL A   1      33.795  25.133  25.350  1.00  0.00     0.019 A 
ATOM     14  O   UNL A   1      33.788  23.850  23.235  1.00  0.00    -0.475 OA
ATOM     15  C   UNL A   1      33.683  26.335  26.052  1.00  0.00     0.036 A 
ATOM     16  C   UNL A   1      34.049  23.863  26.031  1.00  0.00     0.025 C 
ATOM     17  C   UNL A   1      34.023  22.732  23.954  1.00  0.00     0.314 C 
BRANCH  12  18
ATOM     18  S   UNL A   1      33.321  29.056  26.281  1.00  0.00     0.310 S 
ATOM     19  F   UNL A   1      33.470  28.485  27.753  1.00  0.00    -0.094 F 
ATOM     20  F   UNL A   1      31.764  28.868  26.439  1.00  0.00    -0.094 F 
ATOM     21  F   UNL A   1      33.240  30.477  26.906  1.00  0.00    -0.094 F 
ATOM     22  F   UNL A   1      34.895  29.170  26.244  1.00  0.00    -0.094 F 
ATOM     23  F   UNL A   1      33.430  27.572  25.749  1.00  0.00    -0.094 F 
ENDBRANCH  12  18
BRANCH  17  24
ATOM     24  C   UNL A   1      32.733  21.950  23.766  1.00  0.00     0.429 C 
ATOM     25  F   UNL A   1      32.229  22.208  22.562  1.00  0.00    -0.167 F 
ATOM     26  F   UNL A   1      32.984  20.648  23.873  1.00  0.00    -0.167 F 
ATOM     27  F   UNL A   1      31.855  22.310  24.699  1.00  0.00    -0.167 F 
ENDBRANCH  17  24
ENDBRANCH   4   7
ENDBRANCH   2   3
ENDBRANCH   1   2
BRANCH   1  28
ATOM     28  C   UNL A   1      38.722  20.281  25.740  1.00  0.00     0.118 C 
BRANCH  28  29
ATOM     29  N   UNL A   1      39.682  19.170  25.654  1.00  0.00    -0.352 N 
ATOM     30  C   UNL A   1      41.070  19.364  26.097  1.00  0.00     0.251 C 
ATOM     31  H   UNL A   1      39.395  18.299  25.299  1.00  0.00     0.163 HD
ATOM     32  O   UNL A   1      41.901  18.404  26.022  1.00  0.00    -0.269 OA
BRANCH  30  33
ATOM     33  C   UNL A   1      41.513  20.711  26.645  1.00  0.00     0.039 A 
ATOM     34  C   UNL A   1      42.110  21.643  25.804  1.00  0.00     0.014 A 
ATOM     35  C   UNL A   1      41.307  21.044  27.901  1.00  0.00     0.014 A 
ATOM     36  C   UNL A   1      41.994  23.000  26.181  1.00  0.00     0.010 A 
ATOM     37  C   UNL A   1      41.690  22.302  28.380  1.00  0.00     0.010 A 
ATOM     38  C   UNL A   1      42.026  23.265  27.549  1.00  0.00    -0.014 A 
BRANCH  38  39
ATOM     39  C   UNL A   1      42.437  24.633  28.068  1.00  0.00     0.031 A 
ATOM     40  C   UNL A   1      43.800  24.855  28.264  1.00  0.00     0.074 A 
ATOM     41  C   UNL A   1      41.458  25.589  28.280  1.00  0.00     0.049 A 
ATOM     42  N   UNL A   1      44.394  25.988  28.642  1.00  0.00    -0.248 NA
ATOM     43  C   UNL A   1      44.839  23.831  28.072  1.00  0.00     0.031 C 
ATOM     44  C   UNL A   1      40.081  25.376  28.076  1.00  0.00     0.029 A 
ATOM     45  N   UNL A   1      41.624  26.885  28.716  1.00  0.00    -0.354 N 
ATOM     46  C   UNL A   1      45.717  25.818  28.703  1.00  0.00     0.074 A 
ATOM     47  C   UNL A   1      46.021  24.426  28.343  1.00  0.00     0.031 C 
ATOM     48  C   UNL A   1      39.425  26.523  28.394  1.00  0.00     0.029 A 
ATOM     49  C   UNL A   1      40.380  27.473  28.802  1.00  0.00     0.049 A 
ATOM     50  H   UNL A   1      42.483  27.318  28.928  1.00  0.00     0.167 HD
ATOM     51  C   UNL A   1      46.681  26.769  29.042  1.00  0.00     0.037 A 
ATOM     52  C   UNL A   1      40.077  28.760  29.213  1.00  0.00     0.037 A 
ATOM     53  C   UNL A   1      46.380  28.070  29.412  1.00  0.00     0.049 A 
ATOM     54  C   UNL A   1      41.037  29.695  29.609  1.00  0.00     0.074 A 
ATOM     55  C   UNL A   1      47.341  29.043  29.750  1.00  0.00     0.029 A 
ATOM     56  N   UNL A   1      45.135  28.649  29.523  1.00  0.00    -0.354 N 
ATOM     57  N   UNL A   1      42.361  29.536  29.632  1.00  0.00    -0.248 NA
ATOM     58  C   UNL A   1      40.725  31.051  30.077  1.00  0.00     0.031 C 
ATOM     59  C   UNL A   1      46.684  30.191  30.068  1.00  0.00     0.029 A 
ATOM     60  C   UNL A   1      45.302  29.952  29.936  1.00  0.00     0.049 A 
ATOM     61  H   UNL A   1      44.275  28.208  29.338  1.00  0.00     0.167 HD
ATOM     62  C   UNL A   1      42.952  30.657  30.051  1.00  0.00     0.074 A 
ATOM     63  C   UNL A   1      41.907  31.646  30.350  1.00  0.00     0.031 C 
ATOM     64  C   UNL A   1      44.320  30.897  30.190  1.00  0.00     0.037 A 
BRANCH  51  65
ATOM     65  C   UNL A   1      48.143  26.353  29.004  1.00  0.00     0.057 A 
ATOM     66  C   UNL A   1      48.741  25.845  30.059  1.00  0.00     0.134 A 
ATOM     67  C   UNL A   1      48.839  26.540  27.805  1.00  0.00     0.134 A 
ATOM     68  F   UNL A   1      48.082  25.675  31.202  1.00  0.00    -0.206 F 
ATOM     69  C   UNL A   1      50.081  25.488  29.950  1.00  0.00     0.040 A 
ATOM     70  C   UNL A   1      50.020  25.988  27.620  1.00  0.00     0.040 A 
ATOM     71  F   UNL A   1      48.304  27.284  26.843  1.00  0.00    -0.206 F 
ATOM     72  C   UNL A   1      50.558  25.216  28.648  1.00  0.00     0.006 A 
ENDBRANCH  51  65
BRANCH  52  73
ATOM     73  C   UNL A   1      38.616  29.181  29.236  1.00  0.00     0.057 A 
ATOM     74  C   UNL A   1      37.935  28.987  30.345  1.00  0.00     0.134 A 
ATOM     75  C   UNL A   1      38.013  29.769  28.118  1.00  0.00     0.134 A 
ATOM     76  F   UNL A   1      38.505  28.420  31.404  1.00  0.00    -0.206 F 
ATOM     77  C   UNL A   1      36.605  29.392  30.382  1.00  0.00     0.040 A 
ATOM     78  C   UNL A   1      36.847  30.369  28.221  1.00  0.00     0.040 A 
ATOM     79  F   UNL A   1      38.626  29.721  26.939  1.00  0.00    -0.206 F 
ATOM     80  C   UNL A   1      36.226  30.401  29.468  1.00  0.00     0.006 A 
ENDBRANCH  52  73
BRANCH  64  81
ATOM     81  C   UNL A   1      44.759  32.277  30.650  1.00  0.00     0.057 A 
ATOM     82  C   UNL A   1      44.955  33.210  29.745  1.00  0.00     0.134 A 
ATOM     83  C   UNL A   1      44.906  32.561  32.013  1.00  0.00     0.134 A 
ATOM     84  F   UNL A   1      44.823  32.940  28.449  1.00  0.00    -0.206 F 
ATOM     85  C   UNL A   1      45.303  34.487  30.175  1.00  0.00     0.040 A 
ATOM     86  C   UNL A   1      44.993  33.803  32.437  1.00  0.00     0.040 A 
ATOM     87  F   UNL A   1      44.960  31.562  32.890  1.00  0.00    -0.206 F 
ATOM     88  C   UNL A   1      44.937  34.829  31.495  1.00  0.00     0.006 A 
ENDBRANCH  64  81
ENDBRANCH  38  39
ENDBRANCH  30  33
ENDBRANCH  28  29
ENDBRANCH   1  28
TORSDOF 12
ENDMDL
MODEL 2
REMARK VINA RESULT:     -13.4      0.233      5.912
REMARK SMILES Cc1cc(S(F)(F)(F)(F)F)cc2c1O[C@H](C(F)(F)F)C(C(=O)NCCCNC(=O)c1ccc(-c3c4nc(c(-c5c(F)cccc5F)c5ccc([nH]5)c(-c5c(F)cccc5F)c5nc(c(-c6c(F)cccc6F)c6ccc3[nH]6)C=C5)C=C4)cc1)=C2
REMARK SMILES IDX 25 1 24 2 23 3 21 4 22 5 20 7 1 8 2 9 3 10 13 11 4 12 12 13
REMARK SMILES IDX 14 14 11 15 84 16 15 17 5 18 6 19 7 20 8 21 9 22 10 23 16 24
REMARK SMILES IDX 17 25 18 26 19 27 26 28 27 29 28 30 29 32 30 33 31 34 83 35
REMARK SMILES IDX 32 36 82 37 33 38 34 39 35 40 76 41 36 42 81 43 75 44 77 45
REMARK SMILES IDX 37 46 80 47 74 48 73 49 38 51 64 52 47 53 63 54 48 55 51 56
REMARK SMILES IDX 62 57 78 58 49 59 50 60 61 62 79 63 52 64 39 65 40 66 45 67
REMARK SMILES IDX 41 68 42 69 44 70 46 71 43 72 65 73 66 74 71 75 67 76 68 77
REMARK SMILES IDX 70 78 72 79 69 80 53 81 54 82 59 83 55 84 56 85 58 86 60 87
REMARK SMILES IDX 57 88
REMARK H PARENT 23 6 27 31 77 50 51 61
REMARK Flexibility Score: inf
ROOT
ATOM      1  C   UNL A   1      37.729  20.152  24.621  1.00  0.00     0.042 C 
ENDROOT
BRANCH   1   2
ATOM      2  C   UNL A   1      36.619  21.174  24.806  1.00  0.00     0.118 C 
BRANCH   2   3
ATOM      3  N   UNL A   1      35.665  20.684  25.811  1.00  0.00    -0.352 N 
ATOM      4  C   UNL A   1      34.443  21.449  26.100  1.00  0.00     0.251 C 
ATOM      5  O   UNL A   1      33.618  21.026  26.969  1.00  0.00    -0.270 OA
ATOM      6  H   UNL A   1      35.844  19.843  26.291  1.00  0.00     0.163 HD
BRANCH   4   7
ATOM      7  C   UNL A   1      34.167  22.747  25.360  1.00  0.00     0.067 C 
ATOM      8  C   UNL A   1      33.253  26.307  21.769  1.00  0.00     0.048 C 
ATOM      9  C   UNL A   1      33.408  26.300  23.281  1.00  0.00    -0.007 A 
ATOM     10  C   UNL A   1      33.295  27.471  23.997  1.00  0.00     0.031 A 
ATOM     11  C   UNL A   1      33.660  25.106  23.956  1.00  0.00     0.130 A 
ATOM     12  C   UNL A   1      33.435  27.474  25.379  1.00  0.00     0.108 A 
ATOM     13  C   UNL A   1      33.796  25.113  25.362  1.00  0.00     0.019 A 
ATOM     14  O   UNL A   1      33.792  23.825  23.250  1.00  0.00    -0.475 OA
ATOM     15  C   UNL A   1      33.676  26.315  26.063  1.00  0.00     0.036 A 
ATOM     16  C   UNL A   1      34.062  23.846  26.045  1.00  0.00     0.025 C 
ATOM     17  C   UNL A   1      34.038  22.710  23.970  1.00  0.00     0.314 C 
BRANCH  12  18
ATOM     18  S   UNL A   1      33.295  29.033  26.287  1.00  0.00     0.310 S 
ATOM     19  F   UNL A   1      33.439  28.465  27.761  1.00  0.00    -0.094 F 
ATOM     20  F   UNL A   1      31.738  28.840  26.439  1.00  0.00    -0.094 F 
ATOM     21  F   UNL A   1      33.207  30.455  26.910  1.00  0.00    -0.094 F 
ATOM     22  F   UNL A   1      34.869  29.152  26.257  1.00  0.00    -0.094 F 
ATOM     23  F   UNL A   1      33.411  27.549  25.758  1.00  0.00    -0.094 F 
ENDBRANCH  12  18
BRANCH  17  24
ATOM     24  C   UNL A   1      32.753  21.918  23.787  1.00  0.00     0.429 C 
ATOM     25  F   UNL A   1      33.014  20.619  23.900  1.00  0.00    -0.167 F 
ATOM     26  F   UNL A   1      31.874  22.277  24.718  1.00  0.00    -0.167 F 
ATOM     27  F   UNL A   1      32.248  22.165  22.581  1.00  0.00    -0.167 F 
ENDBRANCH  17  24
ENDBRANCH   4   7
ENDBRANCH   2   3
ENDBRANCH   1   2
BRANCH   1  28
ATOM     28  C   UNL A   1      38.746  20.300  25.740  1.00  0.00     0.118 C 
BRANCH  28  29
ATOM     29  N   UNL A   1      39.715  19.196  25.672  1.00  0.00    -0.352 N 
ATOM     30  C   UNL A   1      41.101  19.406  26.113  1.00  0.00     0.251 C 
ATOM     31  H   UNL A   1      39.435  18.317  25.329  1.00  0.00     0.163 HD
ATOM     32  O   UNL A   1      41.939  18.451  26.053  1.00  0.00    -0.269 OA
BRANCH  30  33
ATOM     33  C   UNL A   1      41.533  20.764  26.641  1.00  0.00     0.039 A 
ATOM     34  C   UNL A   1      42.198  21.656  25.808  1.00  0.00     0.014 A 
ATOM     35  C   UNL A   1      41.256  21.144  27.870  1.00  0.00     0.014 A 
ATOM     36  C   UNL A   1      42.084  23.027  26.131  1.00  0.00     0.010 A 
ATOM     37  C   UNL A   1      41.631  22.412  28.329  1.00  0.00     0.010 A 
ATOM     38  C   UNL A   1      42.036  23.340  27.488  1.00  0.00    -0.014 A 
BRANCH  38  39
ATOM     39  C   UNL A   1      42.439  24.719  27.985  1.00  0.00     0.031 A 
ATOM     40  C   UNL A   1      41.417  25.647  28.181  1.00  0.00     0.074 A 
ATOM     41  C   UNL A   1      43.774  24.968  28.252  1.00  0.00     0.049 A 
ATOM     42  N   UNL A   1      41.523  26.883  28.673  1.00  0.00    -0.248 NA
ATOM     43  C   UNL A   1      40.002  25.396  27.866  1.00  0.00     0.031 C 
ATOM     44  C   UNL A   1      44.811  24.033  28.065  1.00  0.00     0.029 A 
ATOM     45  N   UNL A   1      44.336  26.131  28.732  1.00  0.00    -0.354 N 
ATOM     46  C   UNL A   1      40.322  27.463  28.728  1.00  0.00     0.074 A 
ATOM     47  C   UNL A   1      39.327  26.517  28.205  1.00  0.00     0.031 C 
ATOM     48  C   UNL A   1      45.982  24.626  28.417  1.00  0.00     0.029 A 
ATOM     49  C   UNL A   1      45.698  25.942  28.830  1.00  0.00     0.049 A 
ATOM     50  H   UNL A   1      43.850  26.954  28.966  1.00  0.00     0.167 HD
ATOM     51  C   UNL A   1      40.017  28.742  29.196  1.00  0.00     0.037 A 
ATOM     52  C   UNL A   1      46.653  26.853  29.250  1.00  0.00     0.037 A 
ATOM     53  C   UNL A   1      40.968  29.638  29.658  1.00  0.00     0.049 A 
ATOM     54  C   UNL A   1      46.355  28.153  29.664  1.00  0.00     0.074 A 
ATOM     55  C   UNL A   1      40.676  30.929  30.140  1.00  0.00     0.029 A 
ATOM     56  N   UNL A   1      42.331  29.458  29.731  1.00  0.00    -0.354 N 
ATOM     57  N   UNL A   1      45.150  28.719  29.756  1.00  0.00    -0.248 NA
ATOM     58  C   UNL A   1      47.362  29.137  30.081  1.00  0.00     0.031 C 
ATOM     59  C   UNL A   1      41.849  31.522  30.492  1.00  0.00     0.029 A 
ATOM     60  C   UNL A   1      42.891  30.612  30.233  1.00  0.00     0.049 A 
ATOM     61  H   UNL A   1      42.822  28.645  29.471  1.00  0.00     0.167 HD
ATOM     62  C   UNL A   1      45.262  29.969  30.208  1.00  0.00     0.074 A 
ATOM     63  C   UNL A   1      46.687  30.260  30.417  1.00  0.00     0.031 C 
ATOM     64  C   UNL A   1      44.233  30.878  30.460  1.00  0.00     0.037 A 
BRANCH  51  65
ATOM     65  C   UNL A   1      38.560  29.176  29.200  1.00  0.00     0.057 A 
ATOM     66  C   UNL A   1      37.787  28.986  30.247  1.00  0.00     0.134 A 
ATOM     67  C   UNL A   1      38.061  29.780  28.041  1.00  0.00     0.134 A 
ATOM     68  F   UNL A   1      38.259  28.404  31.346  1.00  0.00    -0.206 F 
ATOM     69  C   UNL A   1      36.465  29.409  30.178  1.00  0.00     0.040 A 
ATOM     70  C   UNL A   1      36.898  30.397  28.052  1.00  0.00     0.040 A 
ATOM     71  F   UNL A   1      38.768  29.730  26.916  1.00  0.00    -0.206 F 
ATOM     72  C   UNL A   1      36.177  30.430  29.243  1.00  0.00     0.006 A 
ENDBRANCH  51  65
BRANCH  52  73
ATOM     73  C   UNL A   1      48.108  26.413  29.262  1.00  0.00     0.057 A 
ATOM     74  C   UNL A   1      48.568  25.830  30.349  1.00  0.00     0.134 A 
ATOM     75  C   UNL A   1      48.933  26.606  28.148  1.00  0.00     0.134 A 
ATOM     76  F   UNL A   1      47.786  25.655  31.410  1.00  0.00    -0.206 F 
ATOM     77  C   UNL A   1      49.891  25.402  30.359  1.00  0.00     0.040 A 
ATOM     78  C   UNL A   1      50.096  25.994  28.059  1.00  0.00     0.040 A 
ATOM     79  F   UNL A   1      48.539  27.416  27.170  1.00  0.00    -0.206 F 
ATOM     80  C   UNL A   1      50.485  25.155  29.101  1.00  0.00     0.006 A 
ENDBRANCH  52  73
BRANCH  64  81
ATOM     81  C   UNL A   1      44.606  32.243  31.014  1.00  0.00     0.057 A 
ATOM     82  C   UNL A   1      44.824  33.228  30.170  1.00  0.00     0.134 A 
ATOM     83  C   UNL A   1      44.668  32.458  32.397  1.00  0.00     0.134 A 
ATOM     84  F   UNL A   1      44.773  33.023  28.857  1.00  0.00    -0.206 F 
ATOM     85  C   UNL A   1      45.110  34.488  30.684  1.00  0.00     0.040 A 
ATOM     86  C   UNL A   1      44.694  33.679  32.888  1.00  0.00     0.040 A 
ATOM     87  F   UNL A   1      44.702  31.416  33.222  1.00  0.00    -0.206 F 
ATOM     88  C   UNL A   1      44.661  34.751  31.997  1.00  0.00     0.006 A 
ENDBRANCH  64  81
ENDBRANCH  38  39
ENDBRANCH  30  33
ENDBRANCH  28  29
ENDBRANCH   1  28
TORSDOF 12
ENDMDL
MODEL 3
REMARK VINA RESULT:     -13.3      4.549      9.080
REMARK SMILES Cc1cc(S(F)(F)(F)(F)F)cc2c1O[C@H](C(F)(F)F)C(C(=O)NCCCNC(=O)c1ccc(-c3c4nc(c(-c5c(F)cccc5F)c5ccc([nH]5)c(-c5c(F)cccc5F)c5nc(c(-c6c(F)cccc6F)c6ccc3[nH]6)C=C5)C=C4)cc1)=C2
REMARK SMILES IDX 25 1 24 2 23 3 21 4 22 5 20 7 1 8 2 9 3 10 13 11 4 12 12 13
REMARK SMILES IDX 14 14 11 15 84 16 15 17 5 18 6 19 7 20 8 21 9 22 10 23 16 24
REMARK SMILES IDX 17 25 18 26 19 27 26 28 27 29 28 30 29 32 30 33 31 34 83 35
REMARK SMILES IDX 32 36 82 37 33 38 34 39 35 40 76 41 36 42 81 43 75 44 77 45
REMARK SMILES IDX 37 46 80 47 74 48 73 49 38 51 64 52 47 53 63 54 48 55 51 56
REMARK SMILES IDX 62 57 78 58 49 59 50 60 61 62 79 63 52 64 39 65 40 66 45 67
REMARK SMILES IDX 41 68 42 69 44 70 46 71 43 72 65 73 66 74 71 75 67 76 68 77
REMARK SMILES IDX 70 78 72 79 69 80 53 81 54 82 59 83 55 84 56 85 58 86 60 87
REMARK SMILES IDX 57 88
REMARK H PARENT 23 6 27 31 77 50 51 61
REMARK Flexibility Score: inf
ROOT
ATOM      1  C   UNL A   1      31.427  31.362  26.693  1.00  0.00     0.042 C 
ENDROOT
BRANCH   1   2
ATOM      2  C   UNL A   1      31.807  30.004  26.126  1.00  0.00     0.118 C 
BRANCH   2   3
ATOM      3  N   UNL A   1      31.881  30.088  24.660  1.00  0.00    -0.352 N 
ATOM      4  C   UNL A   1      32.140  28.879  23.866  1.00  0.00     0.251 C 
ATOM      5  O   UNL A   1      32.204  28.951  22.599  1.00  0.00    -0.270 OA
ATOM      6  H   UNL A   1      31.756  30.955  24.210  1.00  0.00     0.163 HD
BRANCH   4   7
ATOM      7  C   UNL A   1      32.332  27.541  24.561  1.00  0.00     0.067 C 
ATOM      8  C   UNL A   1      31.683  23.229  27.278  1.00  0.00     0.048 C 
ATOM      9  C   UNL A   1      32.820  23.859  26.490  1.00  0.00    -0.007 A 
ATOM     10  C   UNL A   1      34.037  23.221  26.395  1.00  0.00     0.031 A 
ATOM     11  C   UNL A   1      32.638  25.086  25.853  1.00  0.00     0.130 A 
ATOM     12  C   UNL A   1      35.082  23.789  25.677  1.00  0.00     0.108 A 
ATOM     13  C   UNL A   1      33.702  25.658  25.120  1.00  0.00     0.019 A 
ATOM     14  O   UNL A   1      31.366  25.816  25.919  1.00  0.00    -0.475 OA
ATOM     15  C   UNL A   1      34.925  24.989  25.040  1.00  0.00     0.036 A 
ATOM     16  C   UNL A   1      33.484  26.947  24.463  1.00  0.00     0.025 C 
ATOM     17  C   UNL A   1      31.264  27.000  25.278  1.00  0.00     0.314 C 
BRANCH  12  18
ATOM     18  S   UNL A   1      36.672  22.931  25.585  1.00  0.00     0.310 S 
ATOM     19  F   UNL A   1      37.352  23.810  24.453  1.00  0.00    -0.094 F 
ATOM     20  F   UNL A   1      36.133  21.994  24.437  1.00  0.00    -0.094 F 
ATOM     21  F   UNL A   1      37.996  22.119  25.663  1.00  0.00    -0.094 F 
ATOM     22  F   UNL A   1      37.251  23.961  26.631  1.00  0.00    -0.094 F 
ATOM     23  F   UNL A   1      35.381  23.829  25.435  1.00  0.00    -0.094 F 
ENDBRANCH  12  18
BRANCH  17  24
ATOM     24  C   UNL A   1      30.263  26.687  24.178  1.00  0.00     0.429 C 
ATOM     25  F   UNL A   1      29.384  25.792  24.621  1.00  0.00    -0.167 F 
ATOM     26  F   UNL A   1      29.625  27.800  23.829  1.00  0.00    -0.167 F 
ATOM     27  F   UNL A   1      30.904  26.193  23.122  1.00  0.00    -0.167 F 
ENDBRANCH  17  24
ENDBRANCH   4   7
ENDBRANCH   2   3
ENDBRANCH   1   2
BRANCH   1  28
ATOM     28  C   UNL A   1      32.681  32.199  26.888  1.00  0.00     0.118 C 
BRANCH  28  29
ATOM     29  N   UNL A   1      32.302  33.565  27.280  1.00  0.00    -0.352 N 
ATOM     30  C   UNL A   1      33.113  34.298  28.262  1.00  0.00     0.251 C 
ATOM     31  H   UNL A   1      31.506  33.987  26.885  1.00  0.00     0.163 HD
ATOM     32  O   UNL A   1      32.786  35.479  28.601  1.00  0.00    -0.269 OA
BRANCH  30  33
ATOM     33  C   UNL A   1      34.343  33.645  28.872  1.00  0.00     0.039 A 
ATOM     34  C   UNL A   1      34.210  32.784  29.954  1.00  0.00     0.014 A 
ATOM     35  C   UNL A   1      35.544  33.841  28.372  1.00  0.00     0.014 A 
ATOM     36  C   UNL A   1      35.227  31.817  30.121  1.00  0.00     0.010 A 
ATOM     37  C   UNL A   1      36.662  33.205  28.926  1.00  0.00     0.010 A 
ATOM     38  C   UNL A   1      36.518  32.214  29.779  1.00  0.00    -0.014 A 
BRANCH  38  39
ATOM     39  C   UNL A   1      37.731  31.519  30.377  1.00  0.00     0.031 A 
ATOM     40  C   UNL A   1      38.070  31.850  31.689  1.00  0.00     0.074 A 
ATOM     41  C   UNL A   1      38.404  30.579  29.616  1.00  0.00     0.049 A 
ATOM     42  N   UNL A   1      39.042  31.322  32.435  1.00  0.00    -0.248 NA
ATOM     43  C   UNL A   1      37.378  32.873  32.487  1.00  0.00     0.031 C 
ATOM     44  C   UNL A   1      38.061  30.233  28.293  1.00  0.00     0.029 A 
ATOM     45  N   UNL A   1      39.498  29.824  29.979  1.00  0.00    -0.354 N 
ATOM     46  C   UNL A   1      39.049  31.882  33.647  1.00  0.00     0.074 A 
ATOM     47  C   UNL A   1      37.982  32.891  33.696  1.00  0.00     0.031 C 
ATOM     48  C   UNL A   1      38.943  29.292  27.862  1.00  0.00     0.029 A 
ATOM     49  C   UNL A   1      39.850  29.033  28.907  1.00  0.00     0.049 A 
ATOM     50  H   UNL A   1      39.949  29.846  30.853  1.00  0.00     0.167 HD
ATOM     51  C   UNL A   1      39.900  31.588  34.714  1.00  0.00     0.037 A 
ATOM     52  C   UNL A   1      40.900  28.133  28.825  1.00  0.00     0.037 A 
ATOM     53  C   UNL A   1      40.923  30.656  34.646  1.00  0.00     0.049 A 
ATOM     54  C   UNL A   1      41.789  27.882  29.873  1.00  0.00     0.074 A 
ATOM     55  C   UNL A   1      41.786  30.344  35.714  1.00  0.00     0.029 A 
ATOM     56  N   UNL A   1      41.291  29.885  33.566  1.00  0.00    -0.354 N 
ATOM     57  N   UNL A   1      41.771  28.413  31.097  1.00  0.00    -0.248 NA
ATOM     58  C   UNL A   1      42.925  26.955  29.787  1.00  0.00     0.031 C 
ATOM     59  C   UNL A   1      42.668  29.402  35.282  1.00  0.00     0.029 A 
ATOM     60  C   UNL A   1      42.370  29.113  33.937  1.00  0.00     0.049 A 
ATOM     61  H   UNL A   1      40.858  29.884  32.682  1.00  0.00     0.167 HD
ATOM     62  C   UNL A   1      42.769  27.915  31.830  1.00  0.00     0.074 A 
ATOM     63  C   UNL A   1      43.530  26.975  30.996  1.00  0.00     0.031 C 
ATOM     64  C   UNL A   1      43.072  28.203  33.161  1.00  0.00     0.037 A 
BRANCH  51  65
ATOM     65  C   UNL A   1      39.693  32.333  36.022  1.00  0.00     0.057 A 
ATOM     66  C   UNL A   1      40.446  33.357  36.359  1.00  0.00     0.134 A 
ATOM     67  C   UNL A   1      38.673  31.884  36.870  1.00  0.00     0.134 A 
ATOM     68  F   UNL A   1      41.421  33.778  35.558  1.00  0.00    -0.206 F 
ATOM     69  C   UNL A   1      40.199  33.989  37.572  1.00  0.00     0.040 A 
ATOM     70  C   UNL A   1      38.276  32.615  37.890  1.00  0.00     0.040 A 
ATOM     71  F   UNL A   1      38.100  30.707  36.642  1.00  0.00    -0.206 F 
ATOM     72  C   UNL A   1      38.898  33.843  38.107  1.00  0.00     0.006 A 
ENDBRANCH  51  65
BRANCH  52  73
ATOM     73  C   UNL A   1      41.097  27.377  27.522  1.00  0.00     0.057 A 
ATOM     74  C   UNL A   1      41.897  27.903  26.618  1.00  0.00     0.134 A 
ATOM     75  C   UNL A   1      40.462  26.152  27.291  1.00  0.00     0.134 A 
ATOM     76  F   UNL A   1      42.493  29.071  26.833  1.00  0.00    -0.206 F 
ATOM     77  C   UNL A   1      42.102  27.205  25.432  1.00  0.00     0.040 A 
ATOM     78  C   UNL A   1      40.835  25.378  26.293  1.00  0.00     0.040 A 
ATOM     79  F   UNL A   1      39.470  25.765  28.087  1.00  0.00    -0.206 F 
ATOM     80  C   UNL A   1      41.875  25.811  25.472  1.00  0.00     0.006 A 
ENDBRANCH  52  73
BRANCH  64  81
ATOM     81  C   UNL A   1      44.244  27.476  33.800  1.00  0.00     0.057 A 
ATOM     82  C   UNL A   1      44.023  26.320  34.388  1.00  0.00     0.134 A 
ATOM     83  C   UNL A   1      45.539  28.003  33.721  1.00  0.00     0.134 A 
ATOM     84  F   UNL A   1      42.793  25.821  34.470  1.00  0.00    -0.206 F 
ATOM     85  C   UNL A   1      45.108  25.632  34.921  1.00  0.00     0.040 A 
ATOM     86  C   UNL A   1      46.587  27.259  34.000  1.00  0.00     0.040 A 
ATOM     87  F   UNL A   1      45.710  29.272  33.362  1.00  0.00    -0.206 F 
ATOM     88  C   UNL A   1      46.376  25.933  34.378  1.00  0.00     0.006 A 
ENDBRANCH  64  81
ENDBRANCH  38  39
ENDBRANCH  30  33
ENDBRANCH  28  29
ENDBRANCH   1  28
TORSDOF 12
ENDMDL
