MODEL 1
REMARK VINA RESULT:     -11.1      0.000      0.000
REMARK SMILES C[C@@H](CC[NH+](C)C)NC(=O)Cn1cccc1C(=O)NCCCNC(=O)c1ccc(-c2c3nc(c(-c4c(F)cccc4F)c4ccc([nH]4)c(-c4c(F)cccc4F)c4nc(c(-c5c(F)cccc5F)c5ccc2[nH]5)C=C4)C=C3)cc1
REMARK SMILES IDX 17 1 18 2 19 3 16 5 12 6 13 7 14 8 15 9 11 10 9 11 8 12
REMARK SMILES IDX 10 14 2 15 1 16 3 17 4 18 5 19 6 20 7 21 20 23 21 24 22 25
REMARK SMILES IDX 23 26 24 27 25 29 26 30 27 31 79 32 28 33 78 34 29 35 30 36
REMARK SMILES IDX 31 37 72 38 32 39 77 40 71 41 73 42 33 43 76 44 70 45 69 46
REMARK SMILES IDX 34 48 60 49 43 50 59 51 44 52 47 53 58 54 74 55 45 56 46 57
REMARK SMILES IDX 57 59 75 60 48 61 35 62 36 63 41 64 37 65 38 66 40 67 42 68
REMARK SMILES IDX 39 69 61 70 62 71 67 72 63 73 64 74 66 75 68 76 65 77 49 78
REMARK SMILES IDX 50 79 55 80 51 81 52 82 54 83 56 84 53 85
REMARK H PARENT 19 4 8 13 5 22 23 28 73 47 47 58
REMARK Flexibility Score: inf
ROOT
ATOM      1  C   UNL A   1      31.210  25.595  25.903  1.00  0.00     0.267 C 
ATOM      2  O   UNL A   1      30.029  25.633  26.274  1.00  0.00    -0.268 OA
ATOM      3  N   UNL A   1      31.907  26.705  26.307  1.00  0.00    -0.351 N 
ATOM      4  H   UNL A   1      31.299  27.438  26.561  1.00  0.00     0.163 HD
ENDROOT
BRANCH   1   5
ATOM      5  C   UNL A   1      31.678  24.460  25.100  1.00  0.00     0.107 A 
ATOM      6  N   UNL A   1      32.428  24.338  23.933  1.00  0.00    -0.334 N 
ATOM      7  C   UNL A   1      32.223  23.106  23.370  1.00  0.00     0.087 A 
ATOM      8  C   UNL A   1      31.602  22.309  24.293  1.00  0.00     0.020 A 
ATOM      9  C   UNL A   1      31.267  23.149  25.372  1.00  0.00     0.033 A 
BRANCH   6  10
ATOM     10  C   UNL A   1      33.289  25.351  23.368  1.00  0.00     0.222 C 
BRANCH  10  11
ATOM     11  C   UNL A   1      33.003  25.946  22.025  1.00  0.00     0.240 C 
ATOM     12  N   UNL A   1      32.295  27.096  21.920  1.00  0.00    -0.352 N 
ATOM     13  H   UNL A   1      31.955  27.273  21.013  1.00  0.00     0.163 HD
ATOM     14  O   UNL A   1      33.266  25.330  20.989  1.00  0.00    -0.273 OA
BRANCH  12  15
ATOM     15  C   UNL A   1      31.942  28.120  22.893  1.00  0.00     0.084 C 
ATOM     16  C   UNL A   1      33.121  29.026  23.256  1.00  0.00     0.031 C 
BRANCH  15  17
ATOM     17  C   UNL A   1      30.748  28.938  22.378  1.00  0.00     0.086 C 
BRANCH  17  18
ATOM     18  C   UNL A   1      29.880  29.698  23.412  1.00  0.00     0.263 C 
BRANCH  18  19
ATOM     19  N   UNL A   1      28.879  30.626  22.851  1.00  0.00    -0.340 N 
ATOM     20  C   UNL A   1      27.552  29.985  22.868  1.00  0.00     0.332 C 
ATOM     21  C   UNL A   1      28.742  31.899  23.578  1.00  0.00     0.332 C 
ATOM     22  H   UNL A   1      29.214  30.840  21.912  1.00  0.00     0.347 HD
ENDBRANCH  18  19
ENDBRANCH  17  18
ENDBRANCH  15  17
ENDBRANCH  12  15
ENDBRANCH  10  11
ENDBRANCH   6  10
ENDBRANCH   1   5
BRANCH   3  23
ATOM     23  C   UNL A   1      33.299  27.094  26.462  1.00  0.00     0.118 C 
BRANCH  23  24
ATOM     24  C   UNL A   1      33.481  28.524  27.002  1.00  0.00     0.042 C 
BRANCH  24  25
ATOM     25  C   UNL A   1      34.914  28.982  27.155  1.00  0.00     0.118 C 
BRANCH  25  26
ATOM     26  N   UNL A   1      35.040  30.070  28.105  1.00  0.00    -0.352 N 
ATOM     27  C   UNL A   1      36.011  30.244  29.064  1.00  0.00     0.251 C 
ATOM     28  H   UNL A   1      34.348  30.767  28.060  1.00  0.00     0.163 HD
ATOM     29  O   UNL A   1      35.786  30.952  30.033  1.00  0.00    -0.269 OA
BRANCH  27  30
ATOM     30  C   UNL A   1      37.312  29.558  28.930  1.00  0.00     0.039 A 
ATOM     31  C   UNL A   1      38.091  29.830  27.802  1.00  0.00     0.014 A 
ATOM     32  C   UNL A   1      37.741  28.624  29.881  1.00  0.00     0.014 A 
ATOM     33  C   UNL A   1      39.318  29.200  27.658  1.00  0.00     0.010 A 
ATOM     34  C   UNL A   1      39.003  28.064  29.789  1.00  0.00     0.010 A 
ATOM     35  C   UNL A   1      39.780  28.337  28.666  1.00  0.00    -0.014 A 
BRANCH  35  36
ATOM     36  C   UNL A   1      41.164  27.832  28.571  1.00  0.00     0.031 A 
ATOM     37  C   UNL A   1      41.137  26.353  28.124  1.00  0.00     0.074 A 
ATOM     38  C   UNL A   1      42.154  28.700  28.952  1.00  0.00     0.049 A 
ATOM     39  N   UNL A   1      41.718  25.305  28.623  1.00  0.00    -0.248 NA
ATOM     40  C   UNL A   1      40.185  25.969  27.042  1.00  0.00     0.031 C 
ATOM     41  C   UNL A   1      41.963  30.144  29.239  1.00  0.00     0.029 A 
ATOM     42  N   UNL A   1      43.506  28.574  29.185  1.00  0.00    -0.354 N 
ATOM     43  C   UNL A   1      41.368  24.194  27.813  1.00  0.00     0.074 A 
ATOM     44  C   UNL A   1      40.306  24.641  26.963  1.00  0.00     0.031 C 
ATOM     45  C   UNL A   1      43.103  30.716  29.685  1.00  0.00     0.029 A 
ATOM     46  C   UNL A   1      44.134  29.707  29.780  1.00  0.00     0.049 A 
ATOM     47  H   UNL A   1      44.005  27.756  28.955  1.00  0.00     0.167 HD
ATOM     48  C   UNL A   1      42.109  23.043  27.775  1.00  0.00     0.037 A 
ATOM     49  C   UNL A   1      45.352  29.789  30.409  1.00  0.00     0.037 A 
ATOM     50  C   UNL A   1      43.221  23.183  28.648  1.00  0.00     0.049 A 
ATOM     51  C   UNL A   1      45.857  28.413  30.355  1.00  0.00     0.074 A 
ATOM     52  C   UNL A   1      43.428  23.038  29.989  1.00  0.00     0.029 A 
ATOM     53  N   UNL A   1      44.319  23.782  28.089  1.00  0.00    -0.354 N 
ATOM     54  N   UNL A   1      46.328  27.824  29.300  1.00  0.00    -0.248 NA
ATOM     55  C   UNL A   1      45.630  27.574  31.533  1.00  0.00     0.031 C 
ATOM     56  C   UNL A   1      44.522  23.893  30.265  1.00  0.00     0.029 A 
ATOM     57  C   UNL A   1      44.969  24.474  29.074  1.00  0.00     0.049 A 
ATOM     58  H   UNL A   1      44.592  23.725  27.144  1.00  0.00     0.167 HD
ATOM     59  C   UNL A   1      46.162  26.491  29.599  1.00  0.00     0.074 A 
ATOM     60  C   UNL A   1      45.997  26.401  31.033  1.00  0.00     0.031 C 
ATOM     61  C   UNL A   1      45.740  25.618  28.652  1.00  0.00     0.037 A 
BRANCH  48  62
ATOM     62  C   UNL A   1      42.209  21.892  26.793  1.00  0.00     0.057 A 
ATOM     63  C   UNL A   1      41.722  20.626  27.215  1.00  0.00     0.134 A 
ATOM     64  C   UNL A   1      43.091  21.860  25.710  1.00  0.00     0.134 A 
ATOM     65  F   UNL A   1      40.799  20.524  28.185  1.00  0.00    -0.206 F 
ATOM     66  C   UNL A   1      42.239  19.417  26.739  1.00  0.00     0.040 A 
ATOM     67  C   UNL A   1      43.570  20.650  25.183  1.00  0.00     0.040 A 
ATOM     68  F   UNL A   1      43.598  22.981  25.184  1.00  0.00    -0.206 F 
ATOM     69  C   UNL A   1      43.191  19.428  25.735  1.00  0.00     0.006 A 
ENDBRANCH  48  62
BRANCH  49  70
ATOM     70  C   UNL A   1      46.111  30.762  31.288  1.00  0.00     0.057 A 
ATOM     71  C   UNL A   1      47.393  31.263  31.050  1.00  0.00     0.134 A 
ATOM     72  C   UNL A   1      45.507  31.288  32.467  1.00  0.00     0.134 A 
ATOM     73  F   UNL A   1      48.161  30.763  30.076  1.00  0.00    -0.206 F 
ATOM     74  C   UNL A   1      47.960  32.295  31.835  1.00  0.00     0.040 A 
ATOM     75  C   UNL A   1      46.031  32.342  33.222  1.00  0.00     0.040 A 
ATOM     76  F   UNL A   1      44.359  30.796  32.954  1.00  0.00    -0.206 F 
ATOM     77  C   UNL A   1      47.261  32.869  32.893  1.00  0.00     0.006 A 
ENDBRANCH  49  70
BRANCH  61  78
ATOM     78  C   UNL A   1      45.811  26.167  27.230  1.00  0.00     0.057 A 
ATOM     79  C   UNL A   1      47.046  26.329  26.594  1.00  0.00     0.134 A 
ATOM     80  C   UNL A   1      44.702  26.660  26.518  1.00  0.00     0.134 A 
ATOM     81  F   UNL A   1      48.166  25.892  27.186  1.00  0.00    -0.206 F 
ATOM     82  C   UNL A   1      47.166  26.947  25.339  1.00  0.00     0.040 A 
ATOM     83  C   UNL A   1      44.800  27.274  25.261  1.00  0.00     0.040 A 
ATOM     84  F   UNL A   1      43.475  26.565  27.024  1.00  0.00    -0.206 F 
ATOM     85  C   UNL A   1      46.043  27.425  24.668  1.00  0.00     0.006 A 
ENDBRANCH  61  78
ENDBRANCH  35  36
ENDBRANCH  27  30
ENDBRANCH  25  26
ENDBRANCH  24  25
ENDBRANCH  23  24
ENDBRANCH   3  23
TORSDOF 16
ENDMDL
MODEL 2
REMARK VINA RESULT:     -11.1      1.817      3.659
REMARK SMILES C[C@@H](CC[NH+](C)C)NC(=O)Cn1cccc1C(=O)NCCCNC(=O)c1ccc(-c2c3nc(c(-c4c(F)cccc4F)c4ccc([nH]4)c(-c4c(F)cccc4F)c4nc(c(-c5c(F)cccc5F)c5ccc2[nH]5)C=C4)C=C3)cc1
REMARK SMILES IDX 17 1 18 2 19 3 16 5 12 6 13 7 14 8 15 9 11 10 9 11 8 12
REMARK SMILES IDX 10 14 2 15 1 16 3 17 4 18 5 19 6 20 7 21 20 23 21 24 22 25
REMARK SMILES IDX 23 26 24 27 25 29 26 30 27 31 79 32 28 33 78 34 29 35 30 36
REMARK SMILES IDX 31 37 72 38 32 39 77 40 71 41 73 42 33 43 76 44 70 45 69 46
REMARK SMILES IDX 34 48 60 49 43 50 59 51 44 52 47 53 58 54 74 55 45 56 46 57
REMARK SMILES IDX 57 59 75 60 48 61 35 62 36 63 41 64 37 65 38 66 40 67 42 68
REMARK SMILES IDX 39 69 61 70 62 71 67 72 63 73 64 74 66 75 68 76 65 77 49 78
REMARK SMILES IDX 50 79 55 80 51 81 52 82 54 83 56 84 53 85
REMARK H PARENT 19 4 8 13 5 22 23 28 73 47 47 58
REMARK Flexibility Score: inf
ROOT
ATOM      1  C   UNL A   1      31.936  24.964  26.269  1.00  0.00     0.267 C 
ATOM      2  O   UNL A   1      31.415  24.427  27.256  1.00  0.00    -0.268 OA
ATOM      3  N   UNL A   1      32.337  26.247  26.540  1.00  0.00    -0.351 N 
ATOM      4  H   UNL A   1      31.899  26.598  27.349  1.00  0.00     0.163 HD
ENDROOT
BRANCH   1   5
ATOM      5  C   UNL A   1      32.021  24.223  25.005  1.00  0.00     0.107 A 
ATOM      6  N   UNL A   1      33.045  23.955  24.102  1.00  0.00    -0.334 N 
ATOM      7  C   UNL A   1      32.520  23.596  22.889  1.00  0.00     0.087 A 
ATOM      8  C   UNL A   1      31.190  23.326  23.059  1.00  0.00     0.020 A 
ATOM      9  C   UNL A   1      30.878  23.711  24.377  1.00  0.00     0.033 A 
BRANCH   6  10
ATOM     10  C   UNL A   1      34.461  24.049  24.374  1.00  0.00     0.222 C 
BRANCH  10  11
ATOM     11  C   UNL A   1      35.408  22.987  23.909  1.00  0.00     0.240 C 
ATOM     12  N   UNL A   1      35.673  21.912  24.690  1.00  0.00    -0.352 N 
ATOM     13  H   UNL A   1      36.472  21.408  24.416  1.00  0.00     0.163 HD
ATOM     14  O   UNL A   1      36.082  23.141  22.886  1.00  0.00    -0.273 OA
BRANCH  12  15
ATOM     15  C   UNL A   1      34.999  21.362  25.858  1.00  0.00     0.084 C 
ATOM     16  C   UNL A   1      34.690  22.421  26.919  1.00  0.00     0.031 C 
BRANCH  15  17
ATOM     17  C   UNL A   1      33.725  20.622  25.422  1.00  0.00     0.086 C 
BRANCH  17  18
ATOM     18  C   UNL A   1      33.871  19.408  24.470  1.00  0.00     0.263 C 
BRANCH  18  19
ATOM     19  N   UNL A   1      33.984  18.090  25.123  1.00  0.00    -0.340 N 
ATOM     20  C   UNL A   1      32.685  17.723  25.716  1.00  0.00     0.332 C 
ATOM     21  C   UNL A   1      34.364  16.987  24.225  1.00  0.00     0.332 C 
ATOM     22  H   UNL A   1      34.727  18.199  25.813  1.00  0.00     0.347 HD
ENDBRANCH  18  19
ENDBRANCH  17  18
ENDBRANCH  15  17
ENDBRANCH  12  15
ENDBRANCH  10  11
ENDBRANCH   6  10
ENDBRANCH   1   5
BRANCH   3  23
ATOM     23  C   UNL A   1      33.234  27.231  25.955  1.00  0.00     0.118 C 
BRANCH  23  24
ATOM     24  C   UNL A   1      33.458  28.465  26.847  1.00  0.00     0.042 C 
BRANCH  24  25
ATOM     25  C   UNL A   1      34.904  28.831  27.096  1.00  0.00     0.118 C 
BRANCH  25  26
ATOM     26  N   UNL A   1      35.033  29.968  27.987  1.00  0.00    -0.352 N 
ATOM     27  C   UNL A   1      36.011  30.198  28.926  1.00  0.00     0.251 C 
ATOM     28  H   UNL A   1      34.337  30.659  27.910  1.00  0.00     0.163 HD
ATOM     29  O   UNL A   1      35.791  30.954  29.858  1.00  0.00    -0.269 OA
BRANCH  27  30
ATOM     30  C   UNL A   1      37.314  29.511  28.818  1.00  0.00     0.039 A 
ATOM     31  C   UNL A   1      38.108  29.771  27.697  1.00  0.00     0.014 A 
ATOM     32  C   UNL A   1      37.731  28.589  29.785  1.00  0.00     0.014 A 
ATOM     33  C   UNL A   1      39.337  29.141  27.577  1.00  0.00     0.010 A 
ATOM     34  C   UNL A   1      38.994  28.028  29.716  1.00  0.00     0.010 A 
ATOM     35  C   UNL A   1      39.786  28.289  28.601  1.00  0.00    -0.014 A 
BRANCH  35  36
ATOM     36  C   UNL A   1      41.172  27.784  28.530  1.00  0.00     0.031 A 
ATOM     37  C   UNL A   1      41.153  26.307  28.078  1.00  0.00     0.074 A 
ATOM     38  C   UNL A   1      42.154  28.651  28.933  1.00  0.00     0.049 A 
ATOM     39  N   UNL A   1      41.724  25.258  28.584  1.00  0.00    -0.248 NA
ATOM     40  C   UNL A   1      40.221  25.927  26.977  1.00  0.00     0.031 C 
ATOM     41  C   UNL A   1      41.958  30.094  29.221  1.00  0.00     0.029 A 
ATOM     42  N   UNL A   1      43.502  28.524  29.191  1.00  0.00    -0.354 N 
ATOM     43  C   UNL A   1      41.390  24.149  27.764  1.00  0.00     0.074 A 
ATOM     44  C   UNL A   1      40.344  24.599  26.896  1.00  0.00     0.031 C 
ATOM     45  C   UNL A   1      43.090  30.664  29.690  1.00  0.00     0.029 A 
ATOM     46  C   UNL A   1      44.119  29.656  29.801  1.00  0.00     0.049 A 
ATOM     47  H   UNL A   1      44.005  27.707  28.968  1.00  0.00     0.167 HD
ATOM     48  C   UNL A   1      42.131  22.999  27.736  1.00  0.00     0.037 A 
ATOM     49  C   UNL A   1      45.324  29.734  30.453  1.00  0.00     0.037 A 
ATOM     50  C   UNL A   1      43.227  23.135  28.630  1.00  0.00     0.049 A 
ATOM     51  C   UNL A   1      45.830  28.359  30.404  1.00  0.00     0.074 A 
ATOM     52  C   UNL A   1      43.409  22.985  29.975  1.00  0.00     0.029 A 
ATOM     53  N   UNL A   1      44.335  23.735  28.094  1.00  0.00    -0.354 N 
ATOM     54  N   UNL A   1      46.321  27.773  29.357  1.00  0.00    -0.248 NA
ATOM     55  C   UNL A   1      45.581  27.516  31.575  1.00  0.00     0.031 C 
ATOM     56  C   UNL A   1      44.497  23.839  30.274  1.00  0.00     0.029 A 
ATOM     57  C   UNL A   1      44.967  24.425  29.093  1.00  0.00     0.049 A 
ATOM     58  H   UNL A   1      44.626  23.682  27.154  1.00  0.00     0.167 HD
ATOM     59  C   UNL A   1      46.149  26.439  29.648  1.00  0.00     0.074 A 
ATOM     60  C   UNL A   1      45.958  26.345  31.078  1.00  0.00     0.031 C 
ATOM     61  C   UNL A   1      45.746  25.569  28.690  1.00  0.00     0.037 A 
BRANCH  48  62
ATOM     62  C   UNL A   1      42.250  21.851  26.752  1.00  0.00     0.057 A 
ATOM     63  C   UNL A   1      41.732  20.589  27.151  1.00  0.00     0.134 A 
ATOM     64  C   UNL A   1      43.168  21.811  25.700  1.00  0.00     0.134 A 
ATOM     65  F   UNL A   1      40.775  20.495  28.088  1.00  0.00    -0.206 F 
ATOM     66  C   UNL A   1      42.249  19.376  26.686  1.00  0.00     0.040 A 
ATOM     67  C   UNL A   1      43.648  20.597  25.183  1.00  0.00     0.040 A 
ATOM     68  F   UNL A   1      43.708  22.928  25.197  1.00  0.00    -0.206 F 
ATOM     69  C   UNL A   1      43.235  19.379  25.716  1.00  0.00     0.006 A 
ENDBRANCH  48  62
BRANCH  49  70
ATOM     70  C   UNL A   1      46.067  30.705  31.349  1.00  0.00     0.057 A 
ATOM     71  C   UNL A   1      47.297  31.306  31.076  1.00  0.00     0.134 A 
ATOM     72  C   UNL A   1      45.498  31.118  32.589  1.00  0.00     0.134 A 
ATOM     73  F   UNL A   1      48.041  30.917  30.034  1.00  0.00    -0.206 F 
ATOM     74  C   UNL A   1      47.839  32.326  31.892  1.00  0.00     0.040 A 
ATOM     75  C   UNL A   1      45.994  32.160  33.380  1.00  0.00     0.040 A 
ATOM     76  F   UNL A   1      44.414  30.521  33.105  1.00  0.00    -0.206 F 
ATOM     77  C   UNL A   1      47.166  32.789  33.020  1.00  0.00     0.006 A 
ENDBRANCH  49  70
BRANCH  61  78
ATOM     78  C   UNL A   1      45.843  26.124  27.271  1.00  0.00     0.057 A 
ATOM     79  C   UNL A   1      47.090  26.296  26.662  1.00  0.00     0.134 A 
ATOM     80  C   UNL A   1      44.747  26.611  26.537  1.00  0.00     0.134 A 
ATOM     81  F   UNL A   1      48.200  25.866  27.278  1.00  0.00    -0.206 F 
ATOM     82  C   UNL A   1      47.233  26.918  25.412  1.00  0.00     0.040 A 
ATOM     83  C   UNL A   1      44.867  27.229  25.284  1.00  0.00     0.040 A 
ATOM     84  F   UNL A   1      43.510  26.505  27.016  1.00  0.00    -0.206 F 
ATOM     85  C   UNL A   1      46.122  27.391  24.719  1.00  0.00     0.006 A 
ENDBRANCH  61  78
ENDBRANCH  35  36
ENDBRANCH  27  30
ENDBRANCH  25  26
ENDBRANCH  24  25
ENDBRANCH  23  24
ENDBRANCH   3  23
TORSDOF 16
ENDMDL
MODEL 3
REMARK VINA RESULT:     -10.9      1.941      7.082
REMARK SMILES C[C@@H](CC[NH+](C)C)NC(=O)Cn1cccc1C(=O)NCCCNC(=O)c1ccc(-c2c3nc(c(-c4c(F)cccc4F)c4ccc([nH]4)c(-c4c(F)cccc4F)c4nc(c(-c5c(F)cccc5F)c5ccc2[nH]5)C=C4)C=C3)cc1
REMARK SMILES IDX 17 1 18 2 19 3 16 5 12 6 13 7 14 8 15 9 11 10 9 11 8 12
REMARK SMILES IDX 10 14 2 15 1 16 3 17 4 18 5 19 6 20 7 21 20 23 21 24 22 25
REMARK SMILES IDX 23 26 24 27 25 29 26 30 27 31 79 32 28 33 78 34 29 35 30 36
REMARK SMILES IDX 31 37 72 38 32 39 77 40 71 41 73 42 33 43 76 44 70 45 69 46
REMARK SMILES IDX 34 48 60 49 43 50 59 51 44 52 47 53 58 54 74 55 45 56 46 57
REMARK SMILES IDX 57 59 75 60 48 61 35 62 36 63 41 64 37 65 38 66 40 67 42 68
REMARK SMILES IDX 39 69 61 70 62 71 67 72 63 73 64 74 66 75 68 76 65 77 49 78
REMARK SMILES IDX 50 79 55 80 51 81 52 82 54 83 56 84 53 85
REMARK H PARENT 19 4 8 13 5 22 23 28 73 47 47 58
REMARK Flexibility Score: inf
ROOT
ATOM      1  C   UNL A   1      31.332  26.119  25.984  1.00  0.00     0.267 C 
ATOM      2  O   UNL A   1      30.356  25.398  25.738  1.00  0.00    -0.268 OA
ATOM      3  N   UNL A   1      31.018  27.117  26.871  1.00  0.00    -0.351 N 
ATOM      4  H   UNL A   1      30.045  27.253  26.929  1.00  0.00     0.163 HD
ENDROOT
BRANCH   1   5
ATOM      5  C   UNL A   1      32.611  25.855  25.315  1.00  0.00     0.107 A 
ATOM      6  N   UNL A   1      33.090  26.049  24.022  1.00  0.00    -0.334 N 
ATOM      7  C   UNL A   1      34.182  25.253  23.802  1.00  0.00     0.087 A 
ATOM      8  C   UNL A   1      34.615  24.771  25.007  1.00  0.00     0.020 A 
ATOM      9  C   UNL A   1      33.641  25.150  25.951  1.00  0.00     0.033 A 
BRANCH   6  10
ATOM     10  C   UNL A   1      32.528  26.941  23.034  1.00  0.00     0.222 C 
BRANCH  10  11
ATOM     11  C   UNL A   1      32.370  28.403  23.315  1.00  0.00     0.240 C 
ATOM     12  N   UNL A   1      31.267  29.067  22.895  1.00  0.00    -0.352 N 
ATOM     13  H   UNL A   1      31.362  30.047  22.909  1.00  0.00     0.163 HD
ATOM     14  O   UNL A   1      33.299  29.062  23.790  1.00  0.00    -0.273 OA
BRANCH  12  15
ATOM     15  C   UNL A   1      29.966  28.608  22.430  1.00  0.00     0.084 C 
ATOM     16  C   UNL A   1      29.210  27.796  23.485  1.00  0.00     0.031 C 
BRANCH  15  17
ATOM     17  C   UNL A   1      29.133  29.805  21.946  1.00  0.00     0.086 C 
BRANCH  17  18
ATOM     18  C   UNL A   1      29.010  31.037  22.876  1.00  0.00     0.263 C 
BRANCH  18  19
ATOM     19  N   UNL A   1      29.177  32.351  22.228  1.00  0.00    -0.340 N 
ATOM     20  C   UNL A   1      28.080  32.567  21.267  1.00  0.00     0.332 C 
ATOM     21  C   UNL A   1      29.165  33.500  23.148  1.00  0.00     0.332 C 
ATOM     22  H   UNL A   1      30.097  32.314  21.789  1.00  0.00     0.347 HD
ENDBRANCH  18  19
ENDBRANCH  17  18
ENDBRANCH  15  17
ENDBRANCH  12  15
ENDBRANCH  10  11
ENDBRANCH   6  10
ENDBRANCH   1   5
BRANCH   3  23
ATOM     23  C   UNL A   1      31.733  28.031  27.747  1.00  0.00     0.118 C 
BRANCH  23  24
ATOM     24  C   UNL A   1      32.324  29.248  27.015  1.00  0.00     0.042 C 
BRANCH  24  25
ATOM     25  C   UNL A   1      33.781  29.533  27.300  1.00  0.00     0.118 C 
BRANCH  25  26
ATOM     26  N   UNL A   1      33.974  30.834  27.910  1.00  0.00    -0.352 N 
ATOM     27  C   UNL A   1      34.961  31.218  28.787  1.00  0.00     0.251 C 
ATOM     28  H   UNL A   1      33.318  31.527  27.668  1.00  0.00     0.163 HD
ATOM     29  O   UNL A   1      34.784  32.178  29.519  1.00  0.00    -0.269 OA
BRANCH  27  30
ATOM     30  C   UNL A   1      36.224  30.453  28.857  1.00  0.00     0.039 A 
ATOM     31  C   UNL A   1      37.063  30.458  27.740  1.00  0.00     0.014 A 
ATOM     32  C   UNL A   1      36.556  29.704  29.992  1.00  0.00     0.014 A 
ATOM     33  C   UNL A   1      38.255  29.751  27.785  1.00  0.00     0.010 A 
ATOM     34  C   UNL A   1      37.784  29.073  30.076  1.00  0.00     0.010 A 
ATOM     35  C   UNL A   1      38.623  29.080  28.964  1.00  0.00    -0.014 A 
BRANCH  35  36
ATOM     36  C   UNL A   1      39.976  28.496  29.041  1.00  0.00     0.031 A 
ATOM     37  C   UNL A   1      41.009  29.628  29.239  1.00  0.00     0.074 A 
ATOM     38  C   UNL A   1      40.064  27.141  28.851  1.00  0.00     0.049 A 
ATOM     39  N   UNL A   1      42.109  29.894  28.604  1.00  0.00    -0.248 NA
ATOM     40  C   UNL A   1      40.671  30.718  30.199  1.00  0.00     0.031 C 
ATOM     41  C   UNL A   1      38.911  26.208  28.794  1.00  0.00     0.029 A 
ATOM     42  N   UNL A   1      41.108  26.262  28.664  1.00  0.00    -0.354 N 
ATOM     43  C   UNL A   1      42.685  31.043  29.206  1.00  0.00     0.074 A 
ATOM     44  C   UNL A   1      41.678  31.587  30.067  1.00  0.00     0.031 C 
ATOM     45  C   UNL A   1      39.305  24.950  28.501  1.00  0.00     0.029 A 
ATOM     46  C   UNL A   1      40.735  24.937  28.291  1.00  0.00     0.049 A 
ATOM     47  H   UNL A   1      42.048  26.530  28.781  1.00  0.00     0.167 HD
ATOM     48  C   UNL A   1      44.013  31.352  29.091  1.00  0.00     0.037 A 
ATOM     49  C   UNL A   1      41.508  23.945  27.741  1.00  0.00     0.037 A 
ATOM     50  C   UNL A   1      44.651  30.354  28.304  1.00  0.00     0.049 A 
ATOM     51  C   UNL A   1      42.822  24.578  27.594  1.00  0.00     0.074 A 
ATOM     52  C   UNL A   1      44.794  30.114  26.968  1.00  0.00     0.029 A 
ATOM     53  N   UNL A   1      45.077  29.256  29.004  1.00  0.00    -0.354 N 
ATOM     54  N   UNL A   1      43.651  24.828  28.559  1.00  0.00    -0.248 NA
ATOM     55  C   UNL A   1      43.142  25.153  26.285  1.00  0.00     0.031 C 
ATOM     56  C   UNL A   1      44.974  28.713  26.886  1.00  0.00     0.029 A 
ATOM     57  C   UNL A   1      44.991  28.170  28.175  1.00  0.00     0.049 A 
ATOM     58  H   UNL A   1      45.387  29.249  29.938  1.00  0.00     0.167 HD
ATOM     59  C   UNL A   1      44.424  25.841  28.040  1.00  0.00     0.074 A 
ATOM     60  C   UNL A   1      44.253  25.804  26.605  1.00  0.00     0.031 C 
ATOM     61  C   UNL A   1      44.795  26.891  28.813  1.00  0.00     0.037 A 
BRANCH  48  62
ATOM     62  C   UNL A   1      44.955  32.244  29.876  1.00  0.00     0.057 A 
ATOM     63  C   UNL A   1      45.063  32.015  31.274  1.00  0.00     0.134 A 
ATOM     64  C   UNL A   1      45.388  33.500  29.444  1.00  0.00     0.134 A 
ATOM     65  F   UNL A   1      44.767  30.818  31.807  1.00  0.00    -0.206 F 
ATOM     66  C   UNL A   1      45.371  33.027  32.187  1.00  0.00     0.040 A 
ATOM     67  C   UNL A   1      45.759  34.506  30.350  1.00  0.00     0.040 A 
ATOM     68  F   UNL A   1      45.378  33.839  28.149  1.00  0.00    -0.206 F 
ATOM     69  C   UNL A   1      45.694  34.291  31.725  1.00  0.00     0.006 A 
ENDBRANCH  48  62
BRANCH  49  70
ATOM     70  C   UNL A   1      41.317  22.601  27.068  1.00  0.00     0.057 A 
ATOM     71  C   UNL A   1      42.267  21.583  26.972  1.00  0.00     0.134 A 
ATOM     72  C   UNL A   1      40.061  22.260  26.487  1.00  0.00     0.134 A 
ATOM     73  F   UNL A   1      43.541  21.789  27.326  1.00  0.00    -0.206 F 
ATOM     74  C   UNL A   1      41.952  20.297  26.473  1.00  0.00     0.040 A 
ATOM     75  C   UNL A   1      39.718  20.980  26.037  1.00  0.00     0.040 A 
ATOM     76  F   UNL A   1      39.086  23.165  26.324  1.00  0.00    -0.206 F 
ATOM     77  C   UNL A   1      40.664  19.979  26.049  1.00  0.00     0.006 A 
ENDBRANCH  49  70
BRANCH  61  78
ATOM     78  C   UNL A   1      44.581  26.665  30.307  1.00  0.00     0.057 A 
ATOM     79  C   UNL A   1      43.529  27.299  30.975  1.00  0.00     0.134 A 
ATOM     80  C   UNL A   1      45.461  25.939  31.129  1.00  0.00     0.134 A 
ATOM     81  F   UNL A   1      42.633  28.016  30.283  1.00  0.00    -0.206 F 
ATOM     82  C   UNL A   1      43.371  27.220  32.368  1.00  0.00     0.040 A 
ATOM     83  C   UNL A   1      45.318  25.841  32.521  1.00  0.00     0.040 A 
ATOM     84  F   UNL A   1      46.502  25.295  30.606  1.00  0.00    -0.206 F 
ATOM     85  C   UNL A   1      44.267  26.493  33.147  1.00  0.00     0.006 A 
ENDBRANCH  61  78
ENDBRANCH  35  36
ENDBRANCH  27  30
ENDBRANCH  25  26
ENDBRANCH  24  25
ENDBRANCH  23  24
ENDBRANCH   3  23
TORSDOF 16
ENDMDL
