MODEL 1
REMARK VINA RESULT:     -12.5      0.000      0.000
REMARK SMILES O=C(NCCCNC(=O)c1ccc(-c2c3nc(c(-c4c(F)cccc4F)c4ccc([nH]4)c(-c4c(F)cccc4F)c4nc(c(-c5c(F)cccc5F)c5ccc2[nH]5)C=C4)C=C3)cc1)C1=Cc2c(ccc(Cl)c2-c2ccccc2)O[C@H]1C(F)(F)F
REMARK SMILES IDX 5 1 4 2 3 3 1 4 2 5 64 7 65 8 80 9 66 10 79 11 67 12 72 13
REMARK SMILES IDX 68 14 70 15 69 16 71 17 81 18 82 19 83 20 84 21 73 22 74 23
REMARK SMILES IDX 78 24 75 25 77 26 76 27 6 28 7 29 8 30 9 32 10 33 11 34
REMARK SMILES IDX 63 35 12 36 62 37 13 38 14 39 15 40 56 41 16 42 61 43 55 44
REMARK SMILES IDX 57 45 17 46 60 47 54 48 53 49 18 51 44 52 27 53 43 54 28 55
REMARK SMILES IDX 31 56 42 57 58 58 29 59 30 60 41 62 59 63 32 64 19 65 20 66
REMARK SMILES IDX 25 67 21 68 22 69 24 70 26 71 23 72 45 73 46 74 51 75 47 76
REMARK SMILES IDX 48 77 50 78 52 79 49 80 33 81 34 82 39 83 35 84 36 85 38 86
REMARK SMILES IDX 40 87 37 88
REMARK H PARENT 3 6 7 31 57 50 31 61
REMARK Flexibility Score: inf
ROOT
ATOM      1  C   UNL A   1      37.828  20.235  24.742  1.00  0.00     0.042 C 
ENDROOT
BRANCH   1   2
ATOM      2  C   UNL A   1      36.971  21.449  24.435  1.00  0.00     0.118 C 
BRANCH   2   3
ATOM      3  N   UNL A   1      36.456  22.163  25.589  1.00  0.00    -0.352 N 
ATOM      4  O   UNL A   1      34.896  23.020  26.963  1.00  0.00    -0.270 OA
ATOM      5  C   UNL A   1      35.153  22.369  25.953  1.00  0.00     0.251 C 
ATOM      6  H   UNL A   1      37.134  22.549  26.189  1.00  0.00     0.163 HD
BRANCH   5   7
ATOM      7  C   UNL A   1      34.044  21.816  25.146  1.00  0.00     0.067 C 
ATOM      8  C   UNL A   1      33.444  22.640  24.274  1.00  0.00     0.026 C 
ATOM      9  C   UNL A   1      33.286  20.617  25.628  1.00  0.00     0.314 C 
ATOM     10  C   UNL A   1      32.149  23.097  24.851  1.00  0.00     0.027 A 
ATOM     11  O   UNL A   1      31.872  20.914  25.903  1.00  0.00    -0.475 OA
ATOM     12  C   UNL A   1      31.440  22.198  25.664  1.00  0.00     0.128 A 
ATOM     13  C   UNL A   1      31.777  24.462  24.733  1.00  0.00     0.011 A 
ATOM     14  C   UNL A   1      30.336  22.647  26.378  1.00  0.00     0.049 A 
ATOM     15  C   UNL A   1      30.679  24.896  25.488  1.00  0.00     0.049 A 
ATOM     16  C   UNL A   1      29.969  23.997  26.304  1.00  0.00     0.025 A 
ATOM     17  Cl  UNL A   1      30.196  26.553  25.509  1.00  0.00    -0.084 Cl
BRANCH   9  18
ATOM     18  C   UNL A   1      33.417  19.436  24.641  1.00  0.00     0.429 C 
ATOM     19  F   UNL A   1      32.940  19.716  23.405  1.00  0.00    -0.167 F 
ATOM     20  F   UNL A   1      34.713  19.070  24.494  1.00  0.00    -0.167 F 
ATOM     21  F   UNL A   1      32.743  18.340  25.071  1.00  0.00    -0.167 F 
ENDBRANCH   9  18
BRANCH  13  22
ATOM     22  C   UNL A   1      32.683  25.333  23.953  1.00  0.00    -0.016 A 
ATOM     23  C   UNL A   1      32.474  25.498  22.574  1.00  0.00     0.009 A 
ATOM     24  C   UNL A   1      33.492  26.265  24.626  1.00  0.00     0.009 A 
ATOM     25  C   UNL A   1      32.948  26.632  21.914  1.00  0.00     0.001 A 
ATOM     26  C   UNL A   1      33.955  27.404  23.966  1.00  0.00     0.001 A 
ATOM     27  C   UNL A   1      33.658  27.601  22.619  1.00  0.00     0.000 A 
ENDBRANCH  13  22
ENDBRANCH   5   7
ENDBRANCH   2   3
ENDBRANCH   1   2
BRANCH   1  28
ATOM     28  C   UNL A   1      38.915  20.507  25.775  1.00  0.00     0.118 C 
BRANCH  28  29
ATOM     29  N   UNL A   1      40.001  19.524  25.787  1.00  0.00    -0.352 N 
ATOM     30  C   UNL A   1      41.329  19.597  26.138  1.00  0.00     0.251 C 
ATOM     31  H   UNL A   1      39.724  18.630  25.481  1.00  0.00     0.163 HD
ATOM     32  O   UNL A   1      42.043  18.604  26.004  1.00  0.00    -0.269 OA
BRANCH  30  33
ATOM     33  C   UNL A   1      41.938  20.859  26.605  1.00  0.00     0.039 A 
ATOM     34  C   UNL A   1      42.465  21.751  25.663  1.00  0.00     0.014 A 
ATOM     35  C   UNL A   1      41.978  21.187  27.955  1.00  0.00     0.014 A 
ATOM     36  C   UNL A   1      42.887  23.021  26.064  1.00  0.00     0.010 A 
ATOM     37  C   UNL A   1      42.264  22.490  28.334  1.00  0.00     0.010 A 
ATOM     38  C   UNL A   1      42.707  23.431  27.393  1.00  0.00    -0.014 A 
BRANCH  38  39
ATOM     39  C   UNL A   1      42.954  24.826  27.848  1.00  0.00     0.031 A 
ATOM     40  C   UNL A   1      44.334  25.228  28.293  1.00  0.00     0.074 A 
ATOM     41  C   UNL A   1      41.919  25.676  28.008  1.00  0.00     0.049 A 
ATOM     42  N   UNL A   1      44.715  26.281  28.968  1.00  0.00    -0.248 NA
ATOM     43  C   UNL A   1      45.424  24.285  27.987  1.00  0.00     0.031 C 
ATOM     44  C   UNL A   1      40.522  25.395  27.668  1.00  0.00     0.029 A 
ATOM     45  N   UNL A   1      41.880  26.945  28.530  1.00  0.00    -0.354 N 
ATOM     46  C   UNL A   1      46.069  26.097  29.217  1.00  0.00     0.074 A 
ATOM     47  C   UNL A   1      46.432  24.811  28.665  1.00  0.00     0.031 C 
ATOM     48  C   UNL A   1      39.769  26.465  27.968  1.00  0.00     0.029 A 
ATOM     49  C   UNL A   1      40.616  27.486  28.574  1.00  0.00     0.049 A 
ATOM     50  H   UNL A   1      42.681  27.424  28.842  1.00  0.00     0.167 HD
ATOM     51  C   UNL A   1      46.938  26.935  29.832  1.00  0.00     0.037 A 
ATOM     52  C   UNL A   1      40.185  28.660  29.069  1.00  0.00     0.037 A 
ATOM     53  C   UNL A   1      46.587  28.244  30.311  1.00  0.00     0.049 A 
ATOM     54  C   UNL A   1      41.176  29.595  29.705  1.00  0.00     0.074 A 
ATOM     55  C   UNL A   1      47.407  29.208  30.867  1.00  0.00     0.029 A 
ATOM     56  N   UNL A   1      45.308  28.779  30.271  1.00  0.00    -0.354 N 
ATOM     57  N   UNL A   1      42.462  29.427  29.897  1.00  0.00    -0.248 NA
ATOM     58  C   UNL A   1      40.657  30.879  30.196  1.00  0.00     0.031 C 
ATOM     59  C   UNL A   1      46.620  30.317  31.191  1.00  0.00     0.029 A 
ATOM     60  C   UNL A   1      45.315  30.058  30.801  1.00  0.00     0.049 A 
ATOM     61  H   UNL A   1      44.512  28.319  29.919  1.00  0.00     0.167 HD
ATOM     62  C   UNL A   1      42.911  30.594  30.501  1.00  0.00     0.074 A 
ATOM     63  C   UNL A   1      41.762  31.464  30.639  1.00  0.00     0.031 C 
ATOM     64  C   UNL A   1      44.163  30.915  30.907  1.00  0.00     0.037 A 
BRANCH  51  65
ATOM     65  C   UNL A   1      48.353  26.463  30.004  1.00  0.00     0.057 A 
ATOM     66  C   UNL A   1      49.343  26.727  29.049  1.00  0.00     0.134 A 
ATOM     67  C   UNL A   1      48.734  25.750  31.147  1.00  0.00     0.134 A 
ATOM     68  F   UNL A   1      49.043  27.394  27.923  1.00  0.00    -0.206 F 
ATOM     69  C   UNL A   1      50.653  26.269  29.208  1.00  0.00     0.040 A 
ATOM     70  C   UNL A   1      50.048  25.314  31.332  1.00  0.00     0.040 A 
ATOM     71  F   UNL A   1      47.838  25.468  32.106  1.00  0.00    -0.206 F 
ATOM     72  C   UNL A   1      51.009  25.565  30.355  1.00  0.00     0.006 A 
ENDBRANCH  51  65
BRANCH  52  73
ATOM     73  C   UNL A   1      38.751  29.033  28.962  1.00  0.00     0.057 A 
ATOM     74  C   UNL A   1      38.226  29.521  27.760  1.00  0.00     0.134 A 
ATOM     75  C   UNL A   1      37.874  28.915  30.048  1.00  0.00     0.134 A 
ATOM     76  F   UNL A   1      39.021  29.673  26.690  1.00  0.00    -0.206 F 
ATOM     77  C   UNL A   1      36.886  29.896  27.643  1.00  0.00     0.040 A 
ATOM     78  C   UNL A   1      36.526  29.264  29.939  1.00  0.00     0.040 A 
ATOM     79  F   UNL A   1      38.312  28.444  31.224  1.00  0.00    -0.206 F 
ATOM     80  C   UNL A   1      36.031  29.762  28.735  1.00  0.00     0.006 A 
ENDBRANCH  52  73
BRANCH  64  81
ATOM     81  C   UNL A   1      44.368  32.279  31.493  1.00  0.00     0.057 A 
ATOM     82  C   UNL A   1      44.649  33.391  30.691  1.00  0.00     0.134 A 
ATOM     83  C   UNL A   1      44.214  32.490  32.869  1.00  0.00     0.134 A 
ATOM     84  F   UNL A   1      44.820  33.250  29.369  1.00  0.00    -0.206 F 
ATOM     85  C   UNL A   1      44.783  34.667  31.240  1.00  0.00     0.040 A 
ATOM     86  C   UNL A   1      44.321  33.763  33.427  1.00  0.00     0.040 A 
ATOM     87  F   UNL A   1      43.936  31.464  33.688  1.00  0.00    -0.206 F 
ATOM     88  C   UNL A   1      44.609  34.856  32.612  1.00  0.00     0.006 A 
ENDBRANCH  64  81
ENDBRANCH  38  39
ENDBRANCH  30  33
ENDBRANCH  28  29
ENDBRANCH   1  28
TORSDOF 12
ENDMDL
MODEL 2
REMARK VINA RESULT:     -12.5      5.025      9.297
REMARK SMILES O=C(NCCCNC(=O)c1ccc(-c2c3nc(c(-c4c(F)cccc4F)c4ccc([nH]4)c(-c4c(F)cccc4F)c4nc(c(-c5c(F)cccc5F)c5ccc2[nH]5)C=C4)C=C3)cc1)C1=Cc2c(ccc(Cl)c2-c2ccccc2)O[C@H]1C(F)(F)F
REMARK SMILES IDX 5 1 4 2 3 3 1 4 2 5 64 7 65 8 80 9 66 10 79 11 67 12 72 13
REMARK SMILES IDX 68 14 70 15 69 16 71 17 81 18 82 19 83 20 84 21 73 22 74 23
REMARK SMILES IDX 78 24 75 25 77 26 76 27 6 28 7 29 8 30 9 32 10 33 11 34
REMARK SMILES IDX 63 35 12 36 62 37 13 38 14 39 15 40 56 41 16 42 61 43 55 44
REMARK SMILES IDX 57 45 17 46 60 47 54 48 53 49 18 51 44 52 27 53 43 54 28 55
REMARK SMILES IDX 31 56 42 57 58 58 29 59 30 60 41 62 59 63 32 64 19 65 20 66
REMARK SMILES IDX 25 67 21 68 22 69 24 70 26 71 23 72 45 73 46 74 51 75 47 76
REMARK SMILES IDX 48 77 50 78 52 79 49 80 33 81 34 82 39 83 35 84 36 85 38 86
REMARK SMILES IDX 40 87 37 88
REMARK H PARENT 3 6 7 31 57 50 31 61
REMARK Flexibility Score: inf
ROOT
ATOM      1  C   UNL A   1      31.765  31.338  26.815  1.00  0.00     0.042 C 
ENDROOT
BRANCH   1   2
ATOM      2  C   UNL A   1      32.121  29.863  26.786  1.00  0.00     0.118 C 
BRANCH   2   3
ATOM      3  N   UNL A   1      33.200  29.493  25.890  1.00  0.00    -0.352 N 
ATOM      4  O   UNL A   1      34.162  28.555  24.087  1.00  0.00    -0.270 OA
ATOM      5  C   UNL A   1      33.133  28.799  24.713  1.00  0.00     0.251 C 
ATOM      6  H   UNL A   1      34.101  29.781  26.165  1.00  0.00     0.163 HD
BRANCH   5   7
ATOM      7  C   UNL A   1      31.834  28.333  24.181  1.00  0.00     0.067 C 
ATOM      8  C   UNL A   1      31.437  27.097  24.513  1.00  0.00     0.026 C 
ATOM      9  C   UNL A   1      31.259  28.957  22.946  1.00  0.00     0.314 C 
ATOM     10  C   UNL A   1      31.682  26.183  23.362  1.00  0.00     0.027 A 
ATOM     11  O   UNL A   1      31.147  28.004  21.831  1.00  0.00    -0.475 OA
ATOM     12  C   UNL A   1      31.542  26.708  22.067  1.00  0.00     0.128 A 
ATOM     13  C   UNL A   1      32.236  24.898  23.599  1.00  0.00     0.011 A 
ATOM     14  C   UNL A   1      31.952  25.953  20.975  1.00  0.00     0.049 A 
ATOM     15  C   UNL A   1      32.669  24.169  22.483  1.00  0.00     0.049 A 
ATOM     16  C   UNL A   1      32.531  24.695  21.185  1.00  0.00     0.025 A 
ATOM     17  Cl  UNL A   1      33.453  22.641  22.651  1.00  0.00    -0.084 Cl
BRANCH   9  18
ATOM     18  C   UNL A   1      29.897  29.626  23.235  1.00  0.00     0.429 C 
ATOM     19  F   UNL A   1      28.910  28.737  23.500  1.00  0.00    -0.167 F 
ATOM     20  F   UNL A   1      29.982  30.454  24.304  1.00  0.00    -0.167 F 
ATOM     21  F   UNL A   1      29.467  30.374  22.189  1.00  0.00    -0.167 F 
ENDBRANCH   9  18
BRANCH  13  22
ATOM     22  C   UNL A   1      32.452  24.516  25.011  1.00  0.00    -0.016 A 
ATOM     23  C   UNL A   1      31.449  23.823  25.708  1.00  0.00     0.009 A 
ATOM     24  C   UNL A   1      33.759  24.507  25.530  1.00  0.00     0.009 A 
ATOM     25  C   UNL A   1      31.766  23.035  26.814  1.00  0.00     0.001 A 
ATOM     26  C   UNL A   1      34.076  23.708  26.630  1.00  0.00     0.001 A 
ATOM     27  C   UNL A   1      33.086  22.951  27.252  1.00  0.00     0.000 A 
ENDBRANCH  13  22
ENDBRANCH   5   7
ENDBRANCH   2   3
ENDBRANCH   1   2
BRANCH   1  28
ATOM     28  C   UNL A   1      32.918  32.230  27.259  1.00  0.00     0.118 C 
BRANCH  28  29
ATOM     29  N   UNL A   1      32.536  33.612  27.556  1.00  0.00    -0.352 N 
ATOM     30  C   UNL A   1      33.058  34.570  28.395  1.00  0.00     0.251 C 
ATOM     31  H   UNL A   1      31.747  33.918  27.054  1.00  0.00     0.163 HD
ATOM     32  O   UNL A   1      32.497  35.662  28.485  1.00  0.00    -0.269 OA
BRANCH  30  33
ATOM     33  C   UNL A   1      34.233  34.297  29.247  1.00  0.00     0.039 A 
ATOM     34  C   UNL A   1      34.044  33.686  30.493  1.00  0.00     0.014 A 
ATOM     35  C   UNL A   1      35.520  34.613  28.828  1.00  0.00     0.014 A 
ATOM     36  C   UNL A   1      35.149  33.261  31.236  1.00  0.00     0.010 A 
ATOM     37  C   UNL A   1      36.609  34.071  29.494  1.00  0.00     0.010 A 
ATOM     38  C   UNL A   1      36.439  33.374  30.700  1.00  0.00    -0.014 A 
BRANCH  38  39
ATOM     39  C   UNL A   1      37.637  32.774  31.346  1.00  0.00     0.031 A 
ATOM     40  C   UNL A   1      38.355  31.638  30.668  1.00  0.00     0.074 A 
ATOM     41  C   UNL A   1      37.984  33.141  32.596  1.00  0.00     0.049 A 
ATOM     42  N   UNL A   1      39.234  30.802  31.158  1.00  0.00    -0.248 NA
ATOM     43  C   UNL A   1      37.987  31.370  29.268  1.00  0.00     0.031 C 
ATOM     44  C   UNL A   1      37.338  34.191  33.388  1.00  0.00     0.029 A 
ATOM     45  N   UNL A   1      38.950  32.646  33.436  1.00  0.00    -0.354 N 
ATOM     46  C   UNL A   1      39.476  29.880  30.148  1.00  0.00     0.074 A 
ATOM     47  C   UNL A   1      38.617  30.229  29.038  1.00  0.00     0.031 C 
ATOM     48  C   UNL A   1      37.940  34.277  34.585  1.00  0.00     0.029 A 
ATOM     49  C   UNL A   1      38.974  33.251  34.670  1.00  0.00     0.049 A 
ATOM     50  H   UNL A   1      39.571  31.926  33.178  1.00  0.00     0.167 HD
ATOM     51  C   UNL A   1      40.353  28.847  30.137  1.00  0.00     0.037 A 
ATOM     52  C   UNL A   1      39.726  32.995  35.756  1.00  0.00     0.037 A 
ATOM     53  C   UNL A   1      41.258  28.552  31.215  1.00  0.00     0.049 A 
ATOM     54  C   UNL A   1      40.725  31.872  35.705  1.00  0.00     0.074 A 
ATOM     55  C   UNL A   1      42.246  27.587  31.272  1.00  0.00     0.029 A 
ATOM     56  N   UNL A   1      41.294  29.237  32.420  1.00  0.00    -0.354 N 
ATOM     57  N   UNL A   1      40.975  31.034  34.729  1.00  0.00    -0.248 NA
ATOM     58  C   UNL A   1      41.545  31.659  36.906  1.00  0.00     0.031 C 
ATOM     59  C   UNL A   1      42.863  27.668  32.524  1.00  0.00     0.029 A 
ATOM     60  C   UNL A   1      42.284  28.710  33.232  1.00  0.00     0.049 A 
ATOM     61  H   UNL A   1      40.704  29.986  32.664  1.00  0.00     0.167 HD
ATOM     62  C   UNL A   1      41.999  30.214  35.184  1.00  0.00     0.074 A 
ATOM     63  C   UNL A   1      42.329  30.660  36.522  1.00  0.00     0.031 C 
ATOM     64  C   UNL A   1      42.610  29.184  34.552  1.00  0.00     0.037 A 
BRANCH  51  65
ATOM     65  C   UNL A   1      40.383  27.974  28.916  1.00  0.00     0.057 A 
ATOM     66  C   UNL A   1      41.147  28.302  27.789  1.00  0.00     0.134 A 
ATOM     67  C   UNL A   1      39.649  26.782  28.872  1.00  0.00     0.134 A 
ATOM     68  F   UNL A   1      41.863  29.438  27.760  1.00  0.00    -0.206 F 
ATOM     69  C   UNL A   1      41.156  27.495  26.650  1.00  0.00     0.040 A 
ATOM     70  C   UNL A   1      39.674  25.950  27.751  1.00  0.00     0.040 A 
ATOM     71  F   UNL A   1      38.900  26.403  29.919  1.00  0.00    -0.206 F 
ATOM     72  C   UNL A   1      40.421  26.311  26.632  1.00  0.00     0.006 A 
ENDBRANCH  51  65
BRANCH  52  73
ATOM     73  C   UNL A   1      39.583  33.828  36.977  1.00  0.00     0.057 A 
ATOM     74  C   UNL A   1      38.756  33.419  38.029  1.00  0.00     0.134 A 
ATOM     75  C   UNL A   1      40.260  35.045  37.125  1.00  0.00     0.134 A 
ATOM     76  F   UNL A   1      38.068  32.271  37.939  1.00  0.00    -0.206 F 
ATOM     77  C   UNL A   1      38.591  34.196  39.177  1.00  0.00     0.040 A 
ATOM     78  C   UNL A   1      40.123  35.821  38.278  1.00  0.00     0.040 A 
ATOM     79  F   UNL A   1      41.076  35.487  36.158  1.00  0.00    -0.206 F 
ATOM     80  C   UNL A   1      39.281  35.400  39.305  1.00  0.00     0.006 A 
ENDBRANCH  52  73
BRANCH  64  81
ATOM     81  C   UNL A   1      43.730  28.499  35.275  1.00  0.00     0.057 A 
ATOM     82  C   UNL A   1      43.503  27.401  36.112  1.00  0.00     0.134 A 
ATOM     83  C   UNL A   1      45.056  28.904  35.075  1.00  0.00     0.134 A 
ATOM     84  F   UNL A   1      42.255  26.974  36.352  1.00  0.00    -0.206 F 
ATOM     85  C   UNL A   1      44.559  26.734  36.737  1.00  0.00     0.040 A 
ATOM     86  C   UNL A   1      46.120  28.232  35.675  1.00  0.00     0.040 A 
ATOM     87  F   UNL A   1      45.336  29.945  34.277  1.00  0.00    -0.206 F 
ATOM     88  C   UNL A   1      45.873  27.145  36.510  1.00  0.00     0.006 A 
ENDBRANCH  64  81
ENDBRANCH  38  39
ENDBRANCH  30  33
ENDBRANCH  28  29
ENDBRANCH   1  28
TORSDOF 12
ENDMDL
MODEL 3
REMARK VINA RESULT:     -12.5      1.611      6.217
REMARK SMILES O=C(NCCCNC(=O)c1ccc(-c2c3nc(c(-c4c(F)cccc4F)c4ccc([nH]4)c(-c4c(F)cccc4F)c4nc(c(-c5c(F)cccc5F)c5ccc2[nH]5)C=C4)C=C3)cc1)C1=Cc2c(ccc(Cl)c2-c2ccccc2)O[C@H]1C(F)(F)F
REMARK SMILES IDX 5 1 4 2 3 3 1 4 2 5 64 7 65 8 80 9 66 10 79 11 67 12 72 13
REMARK SMILES IDX 68 14 70 15 69 16 71 17 81 18 82 19 83 20 84 21 73 22 74 23
REMARK SMILES IDX 78 24 75 25 77 26 76 27 6 28 7 29 8 30 9 32 10 33 11 34
REMARK SMILES IDX 63 35 12 36 62 37 13 38 14 39 15 40 56 41 16 42 61 43 55 44
REMARK SMILES IDX 57 45 17 46 60 47 54 48 53 49 18 51 44 52 27 53 43 54 28 55
REMARK SMILES IDX 31 56 42 57 58 58 29 59 30 60 41 62 59 63 32 64 19 65 20 66
REMARK SMILES IDX 25 67 21 68 22 69 24 70 26 71 23 72 45 73 46 74 51 75 47 76
REMARK SMILES IDX 48 77 50 78 52 79 49 80 33 81 34 82 39 83 35 84 36 85 38 86
REMARK SMILES IDX 40 87 37 88
REMARK H PARENT 3 6 7 31 57 50 31 61
REMARK Flexibility Score: inf
ROOT
ATOM      1  C   UNL A   1      37.854  20.474  24.960  1.00  0.00     0.042 C 
ENDROOT
BRANCH   1   2
ATOM      2  C   UNL A   1      37.040  21.742  24.779  1.00  0.00     0.118 C 
BRANCH   2   3
ATOM      3  N   UNL A   1      36.434  22.278  25.984  1.00  0.00    -0.352 N 
ATOM      4  O   UNL A   1      34.770  22.873  27.374  1.00  0.00    -0.270 OA
ATOM      5  C   UNL A   1      35.108  22.366  26.307  1.00  0.00     0.251 C 
ATOM      6  H   UNL A   1      37.062  22.625  26.659  1.00  0.00     0.163 HD
BRANCH   5   7
ATOM      7  C   UNL A   1      34.069  21.857  25.386  1.00  0.00     0.067 C 
ATOM      8  C   UNL A   1      33.537  22.725  24.514  1.00  0.00     0.026 C 
ATOM      9  C   UNL A   1      33.280  20.634  25.743  1.00  0.00     0.314 C 
ATOM     10  C   UNL A   1      32.198  23.151  25.008  1.00  0.00     0.027 A 
ATOM     11  O   UNL A   1      31.847  20.917  25.920  1.00  0.00    -0.475 OA
ATOM     12  C   UNL A   1      31.430  22.211  25.714  1.00  0.00     0.128 A 
ATOM     13  C   UNL A   1      31.832  24.521  24.933  1.00  0.00     0.011 A 
ATOM     14  C   UNL A   1      30.271  22.623  26.361  1.00  0.00     0.049 A 
ATOM     15  C   UNL A   1      30.675  24.915  25.619  1.00  0.00     0.049 A 
ATOM     16  C   UNL A   1      29.906  23.975  26.328  1.00  0.00     0.025 A 
ATOM     17  Cl  UNL A   1      30.186  26.569  25.688  1.00  0.00    -0.084 Cl
BRANCH   9  18
ATOM     18  C   UNL A   1      33.493  19.506  24.710  1.00  0.00     0.429 C 
ATOM     19  F   UNL A   1      32.902  19.754  23.517  1.00  0.00    -0.167 F 
ATOM     20  F   UNL A   1      34.812  19.315  24.467  1.00  0.00    -0.167 F 
ATOM     21  F   UNL A   1      32.996  18.321  25.143  1.00  0.00    -0.167 F 
ENDBRANCH   9  18
BRANCH  13  22
ATOM     22  C   UNL A   1      32.793  25.431  24.274  1.00  0.00    -0.016 A 
ATOM     23  C   UNL A   1      32.694  25.668  22.892  1.00  0.00     0.009 A 
ATOM     24  C   UNL A   1      33.542  26.327  25.056  1.00  0.00     0.009 A 
ATOM     25  C   UNL A   1      33.215  26.834  22.332  1.00  0.00     0.001 A 
ATOM     26  C   UNL A   1      34.051  27.499  24.496  1.00  0.00     0.001 A 
ATOM     27  C   UNL A   1      33.862  27.765  23.141  1.00  0.00     0.000 A 
ENDBRANCH  13  22
ENDBRANCH   5   7
ENDBRANCH   2   3
ENDBRANCH   1   2
BRANCH   1  28
ATOM     28  C   UNL A   1      39.101  20.674  25.814  1.00  0.00     0.118 C 
BRANCH  28  29
ATOM     29  N   UNL A   1      40.031  19.542  25.804  1.00  0.00    -0.352 N 
ATOM     30  C   UNL A   1      41.368  19.423  26.106  1.00  0.00     0.251 C 
ATOM     31  H   UNL A   1      39.615  18.695  25.524  1.00  0.00     0.163 HD
ATOM     32  O   UNL A   1      41.923  18.335  25.963  1.00  0.00    -0.269 OA
BRANCH  30  33
ATOM     33  C   UNL A   1      42.173  20.588  26.528  1.00  0.00     0.039 A 
ATOM     34  C   UNL A   1      42.804  21.370  25.552  1.00  0.00     0.014 A 
ATOM     35  C   UNL A   1      42.298  20.934  27.867  1.00  0.00     0.014 A 
ATOM     36  C   UNL A   1      43.423  22.570  25.912  1.00  0.00     0.010 A 
ATOM     37  C   UNL A   1      42.787  22.186  28.208  1.00  0.00     0.010 A 
ATOM     38  C   UNL A   1      43.342  23.030  27.234  1.00  0.00    -0.014 A 
BRANCH  38  39
ATOM     39  C   UNL A   1      43.809  24.380  27.650  1.00  0.00     0.031 A 
ATOM     40  C   UNL A   1      42.802  25.415  28.072  1.00  0.00     0.074 A 
ATOM     41  C   UNL A   1      45.105  24.721  27.501  1.00  0.00     0.049 A 
ATOM     42  N   UNL A   1      42.948  26.707  28.211  1.00  0.00    -0.248 NA
ATOM     43  C   UNL A   1      41.430  24.937  28.313  1.00  0.00     0.031 C 
ATOM     44  C   UNL A   1      46.176  23.830  27.048  1.00  0.00     0.029 A 
ATOM     45  N   UNL A   1      45.738  25.925  27.685  1.00  0.00    -0.354 N 
ATOM     46  C   UNL A   1      41.680  27.199  28.494  1.00  0.00     0.074 A 
ATOM     47  C   UNL A   1      40.771  26.076  28.459  1.00  0.00     0.031 C 
ATOM     48  C   UNL A   1      47.333  24.509  27.013  1.00  0.00     0.029 A 
ATOM     49  C   UNL A   1      47.079  25.897  27.383  1.00  0.00     0.049 A 
ATOM     50  H   UNL A   1      45.275  26.733  28.006  1.00  0.00     0.167 HD
ATOM     51  C   UNL A   1      41.311  28.471  28.779  1.00  0.00     0.037 A 
ATOM     52  C   UNL A   1      47.995  26.883  27.381  1.00  0.00     0.037 A 
ATOM     53  C   UNL A   1      42.232  29.569  28.887  1.00  0.00     0.049 A 
ATOM     54  C   UNL A   1      47.570  28.278  27.746  1.00  0.00     0.074 A 
ATOM     55  C   UNL A   1      41.977  30.877  29.257  1.00  0.00     0.029 A 
ATOM     56  N   UNL A   1      43.594  29.480  28.639  1.00  0.00    -0.354 N 
ATOM     57  N   UNL A   1      46.376  28.722  28.054  1.00  0.00    -0.248 NA
ATOM     58  C   UNL A   1      48.618  29.308  27.763  1.00  0.00     0.031 C 
ATOM     59  C   UNL A   1      43.179  31.587  29.207  1.00  0.00     0.029 A 
ATOM     60  C   UNL A   1      44.191  30.712  28.843  1.00  0.00     0.049 A 
ATOM     61  H   UNL A   1      44.066  28.663  28.361  1.00  0.00     0.167 HD
ATOM     62  C   UNL A   1      46.533  30.074  28.329  1.00  0.00     0.074 A 
ATOM     63  C   UNL A   1      47.940  30.376  28.159  1.00  0.00     0.031 C 
ATOM     64  C   UNL A   1      45.597  30.984  28.689  1.00  0.00     0.037 A 
BRANCH  51  65
ATOM     65  C   UNL A   1      39.851  28.734  29.010  1.00  0.00     0.057 A 
ATOM     66  C   UNL A   1      39.261  28.582  30.272  1.00  0.00     0.134 A 
ATOM     67  C   UNL A   1      39.027  29.160  27.961  1.00  0.00     0.134 A 
ATOM     68  F   UNL A   1      39.990  28.163  31.318  1.00  0.00    -0.206 F 
ATOM     69  C   UNL A   1      37.898  28.811  30.475  1.00  0.00     0.040 A 
ATOM     70  C   UNL A   1      37.669  29.422  28.158  1.00  0.00     0.040 A 
ATOM     71  F   UNL A   1      39.527  29.333  26.727  1.00  0.00    -0.206 F 
ATOM     72  C   UNL A   1      37.100  29.238  29.416  1.00  0.00     0.006 A 
ENDBRANCH  51  65
BRANCH  52  73
ATOM     73  C   UNL A   1      49.410  26.584  27.044  1.00  0.00     0.057 A 
ATOM     74  C   UNL A   1      49.884  26.743  25.737  1.00  0.00     0.134 A 
ATOM     75  C   UNL A   1      50.321  26.135  28.009  1.00  0.00     0.134 A 
ATOM     76  F   UNL A   1      49.055  27.155  24.765  1.00  0.00    -0.206 F 
ATOM     77  C   UNL A   1      51.205  26.450  25.394  1.00  0.00     0.040 A 
ATOM     78  C   UNL A   1      51.651  25.860  27.685  1.00  0.00     0.040 A 
ATOM     79  F   UNL A   1      49.933  25.973  29.282  1.00  0.00    -0.206 F 
ATOM     80  C   UNL A   1      52.095  26.011  26.373  1.00  0.00     0.006 A 
ENDBRANCH  52  73
BRANCH  64  81
ATOM     81  C   UNL A   1      46.065  32.379  28.972  1.00  0.00     0.057 A 
ATOM     82  C   UNL A   1      46.092  33.364  27.978  1.00  0.00     0.134 A 
ATOM     83  C   UNL A   1      46.428  32.755  30.272  1.00  0.00     0.134 A 
ATOM     84  F   UNL A   1      45.767  33.061  26.712  1.00  0.00    -0.206 F 
ATOM     85  C   UNL A   1      46.476  34.674  28.264  1.00  0.00     0.040 A 
ATOM     86  C   UNL A   1      46.792  34.067  30.575  1.00  0.00     0.040 A 
ATOM     87  F   UNL A   1      46.415  31.858  31.269  1.00  0.00    -0.206 F 
ATOM     88  C   UNL A   1      46.819  35.031  29.569  1.00  0.00     0.006 A 
ENDBRANCH  64  81
ENDBRANCH  38  39
ENDBRANCH  30  33
ENDBRANCH  28  29
ENDBRANCH   1  28
TORSDOF 12
ENDMDL
