MODEL 1
REMARK VINA RESULT:      -9.5      0.000      0.000
REMARK SMILES O=C(CCc1cncc([C@@H]2CN(c3ccccc3)CCO2)n1)NCCCNC(=O)c1ccc(-c2c3nc(c(-c4c(F)cccc4F)c4ccc([nH]4)c(-c4c(F)cccc4F)c4nc(c(-c5c(F)cccc5F)c5ccc2[nH]5)C=C4)C=C3)cc1
REMARK SMILES IDX 24 1 23 2 1 3 2 4 3 6 4 7 5 8 6 9 22 10 7 11 9 12 8 13 10 14
REMARK SMILES IDX 11 15 21 16 12 17 20 18 19 19 13 20 14 21 18 22 15 23 17 24
REMARK SMILES IDX 16 25 25 26 26 27 27 28 28 29 29 31 30 32 31 33 83 34 32 35
REMARK SMILES IDX 82 36 33 37 34 38 35 39 76 40 36 41 81 42 75 43 77 44 37 45
REMARK SMILES IDX 80 46 74 47 73 48 38 50 64 51 47 52 63 53 48 54 51 55 62 56
REMARK SMILES IDX 78 57 49 58 50 59 61 61 79 62 52 63 39 64 40 65 45 66 41 67
REMARK SMILES IDX 42 68 44 69 46 70 43 71 65 72 66 73 71 74 67 75 68 76 70 77
REMARK SMILES IDX 72 78 69 79 53 80 54 81 59 82 55 83 56 84 58 85 60 86 57 87
REMARK H PARENT 23 5 27 30 77 49 51 60
REMARK Flexibility Score: inf
ROOT
ATOM      1  C   UNL A   1      34.786  35.656  33.646  1.00  0.00     0.117 C 
ENDROOT
BRANCH   1   2
ATOM      2  N   UNL A   1      35.279  34.284  33.688  1.00  0.00    -0.356 N 
ATOM      3  O   UNL A   1      37.413  34.795  34.373  1.00  0.00    -0.275 OA
ATOM      4  C   UNL A   1      36.541  33.964  34.146  1.00  0.00     0.220 C 
ATOM      5  H   UNL A   1      34.689  33.560  33.376  1.00  0.00     0.163 HD
BRANCH   4   6
ATOM      6  C   UNL A   1      36.784  32.483  34.400  1.00  0.00     0.106 C 
BRANCH   6   7
ATOM      7  C   UNL A   1      38.236  32.093  34.106  1.00  0.00     0.068 C 
BRANCH   7   8
ATOM      8  C   UNL A   1      38.375  30.729  33.483  1.00  0.00     0.060 A 
ATOM      9  C   UNL A   1      37.295  30.093  32.889  1.00  0.00     0.134 A 
ATOM     10  N   UNL A   1      39.600  30.139  33.533  1.00  0.00    -0.252 NA
ATOM     11  N   UNL A   1      37.402  28.884  32.296  1.00  0.00    -0.261 NA
ATOM     12  C   UNL A   1      39.716  28.906  32.977  1.00  0.00     0.090 A 
ATOM     13  C   UNL A   1      38.630  28.314  32.340  1.00  0.00     0.137 A 
BRANCH  12  14
ATOM     14  C   UNL A   1      41.059  28.212  33.042  1.00  0.00     0.188 C 
ATOM     15  C   UNL A   1      41.230  27.325  34.287  1.00  0.00     0.155 C 
ATOM     16  O   UNL A   1      42.113  29.169  32.876  1.00  0.00    -0.368 OA
ATOM     17  N   UNL A   1      42.654  27.075  34.543  1.00  0.00    -0.366 N 
ATOM     18  C   UNL A   1      42.916  29.483  34.015  1.00  0.00     0.182 C 
ATOM     19  C   UNL A   1      43.415  28.293  34.845  1.00  0.00     0.145 C 
BRANCH  17  20
ATOM     20  C   UNL A   1      43.360  26.016  33.997  1.00  0.00     0.037 A 
ATOM     21  C   UNL A   1      44.106  26.212  32.822  1.00  0.00     0.026 A 
ATOM     22  C   UNL A   1      43.369  24.727  34.545  1.00  0.00     0.026 A 
ATOM     23  C   UNL A   1      44.810  25.172  32.211  1.00  0.00     0.002 A 
ATOM     24  C   UNL A   1      44.059  23.674  33.930  1.00  0.00     0.002 A 
ATOM     25  C   UNL A   1      44.781  23.900  32.764  1.00  0.00     0.000 A 
ENDBRANCH  17  20
ENDBRANCH  12  14
ENDBRANCH   7   8
ENDBRANCH   6   7
ENDBRANCH   4   6
ENDBRANCH   1   2
BRANCH   1  26
ATOM     26  C   UNL A   1      34.180  36.089  32.303  1.00  0.00     0.042 C 
BRANCH  26  27
ATOM     27  C   UNL A   1      32.923  35.333  31.875  1.00  0.00     0.118 C 
BRANCH  27  28
ATOM     28  N   UNL A   1      32.559  35.380  30.473  1.00  0.00    -0.352 N 
ATOM     29  C   UNL A   1      33.113  34.649  29.434  1.00  0.00     0.251 C 
ATOM     30  H   UNL A   1      31.835  36.003  30.231  1.00  0.00     0.163 HD
ATOM     31  O   UNL A   1      32.535  34.578  28.357  1.00  0.00    -0.269 OA
BRANCH  29  32
ATOM     32  C   UNL A   1      34.435  33.987  29.579  1.00  0.00     0.039 A 
ATOM     33  C   UNL A   1      35.474  34.357  28.729  1.00  0.00     0.014 A 
ATOM     34  C   UNL A   1      34.641  32.924  30.453  1.00  0.00     0.014 A 
ATOM     35  C   UNL A   1      36.722  33.713  28.821  1.00  0.00     0.010 A 
ATOM     36  C   UNL A   1      35.920  32.364  30.631  1.00  0.00     0.010 A 
ATOM     37  C   UNL A   1      36.995  32.751  29.817  1.00  0.00    -0.014 A 
BRANCH  37  38
ATOM     38  C   UNL A   1      38.389  32.208  30.008  1.00  0.00     0.031 A 
ATOM     39  C   UNL A   1      38.836  30.871  29.447  1.00  0.00     0.074 A 
ATOM     40  C   UNL A   1      39.287  32.910  30.736  1.00  0.00     0.049 A 
ATOM     41  N   UNL A   1      40.014  30.289  29.533  1.00  0.00    -0.248 NA
ATOM     42  C   UNL A   1      37.841  30.070  28.721  1.00  0.00     0.031 C 
ATOM     43  C   UNL A   1      39.015  34.172  31.427  1.00  0.00     0.029 A 
ATOM     44  N   UNL A   1      40.615  32.670  31.015  1.00  0.00    -0.354 N 
ATOM     45  C   UNL A   1      39.888  29.055  28.901  1.00  0.00     0.074 A 
ATOM     46  C   UNL A   1      38.507  28.950  28.480  1.00  0.00     0.031 C 
ATOM     47  C   UNL A   1      40.146  34.626  31.987  1.00  0.00     0.029 A 
ATOM     48  C   UNL A   1      41.217  33.664  31.752  1.00  0.00     0.049 A 
ATOM     49  H   UNL A   1      41.090  31.863  30.713  1.00  0.00     0.167 HD
ATOM     50  C   UNL A   1      40.829  28.104  28.663  1.00  0.00     0.037 A 
ATOM     51  C   UNL A   1      42.480  33.802  32.202  1.00  0.00     0.037 A 
ATOM     52  C   UNL A   1      42.221  28.200  29.029  1.00  0.00     0.049 A 
ATOM     53  C   UNL A   1      43.511  32.748  31.907  1.00  0.00     0.074 A 
ATOM     54  C   UNL A   1      43.251  27.318  28.739  1.00  0.00     0.029 A 
ATOM     55  N   UNL A   1      42.782  29.233  29.762  1.00  0.00    -0.354 N 
ATOM     56  N   UNL A   1      43.385  31.637  31.228  1.00  0.00    -0.248 NA
ATOM     57  C   UNL A   1      44.863  32.973  32.441  1.00  0.00     0.031 C 
ATOM     58  C   UNL A   1      44.423  27.791  29.338  1.00  0.00     0.029 A 
ATOM     59  C   UNL A   1      44.136  28.995  29.956  1.00  0.00     0.049 A 
ATOM     60  H   UNL A   1      42.293  30.018  30.098  1.00  0.00     0.167 HD
ATOM     61  C   UNL A   1      44.643  31.045  31.231  1.00  0.00     0.074 A 
ATOM     62  C   UNL A   1      45.523  31.929  31.964  1.00  0.00     0.031 C 
ATOM     63  C   UNL A   1      45.025  29.871  30.675  1.00  0.00     0.037 A 
BRANCH  50  64
ATOM     64  C   UNL A   1      40.393  26.855  27.942  1.00  0.00     0.057 A 
ATOM     65  C   UNL A   1      40.779  26.592  26.622  1.00  0.00     0.134 A 
ATOM     66  C   UNL A   1      39.638  25.872  28.598  1.00  0.00     0.134 A 
ATOM     67  F   UNL A   1      41.505  27.487  25.934  1.00  0.00    -0.206 F 
ATOM     68  C   UNL A   1      40.403  25.415  25.969  1.00  0.00     0.040 A 
ATOM     69  C   UNL A   1      39.284  24.678  27.967  1.00  0.00     0.040 A 
ATOM     70  F   UNL A   1      39.251  26.046  29.872  1.00  0.00    -0.206 F 
ATOM     71  C   UNL A   1      39.659  24.451  26.645  1.00  0.00     0.006 A 
ENDBRANCH  50  64
BRANCH  51  72
ATOM     72  C   UNL A   1      42.862  35.014  32.976  1.00  0.00     0.057 A 
ATOM     73  C   UNL A   1      42.685  35.068  34.364  1.00  0.00     0.134 A 
ATOM     74  C   UNL A   1      43.387  36.149  32.347  1.00  0.00     0.134 A 
ATOM     75  F   UNL A   1      42.164  34.021  35.020  1.00  0.00    -0.206 F 
ATOM     76  C   UNL A   1      42.997  36.215  35.096  1.00  0.00     0.040 A 
ATOM     77  C   UNL A   1      43.731  37.291  33.071  1.00  0.00     0.040 A 
ATOM     78  F   UNL A   1      43.585  36.159  31.021  1.00  0.00    -0.206 F 
ATOM     79  C   UNL A   1      43.527  37.329  34.449  1.00  0.00     0.006 A 
ENDBRANCH  51  72
BRANCH  63  80
ATOM     80  C   UNL A   1      46.471  29.479  30.798  1.00  0.00     0.057 A 
ATOM     81  C   UNL A   1      46.973  28.839  31.938  1.00  0.00     0.134 A 
ATOM     82  C   UNL A   1      47.368  29.716  29.748  1.00  0.00     0.134 A 
ATOM     83  F   UNL A   1      46.174  28.594  32.989  1.00  0.00    -0.206 F 
ATOM     84  C   UNL A   1      48.317  28.469  32.039  1.00  0.00     0.040 A 
ATOM     85  C   UNL A   1      48.706  29.327  29.825  1.00  0.00     0.040 A 
ATOM     86  F   UNL A   1      46.954  30.320  28.623  1.00  0.00    -0.206 F 
ATOM     87  C   UNL A   1      49.186  28.706  30.976  1.00  0.00     0.006 A 
ENDBRANCH  63  80
ENDBRANCH  37  38
ENDBRANCH  29  32
ENDBRANCH  27  28
ENDBRANCH  26  27
ENDBRANCH   1  26
TORSDOF 14
ENDMDL
MODEL 2
REMARK VINA RESULT:      -9.4      5.749      8.841
REMARK SMILES O=C(CCc1cncc([C@@H]2CN(c3ccccc3)CCO2)n1)NCCCNC(=O)c1ccc(-c2c3nc(c(-c4c(F)cccc4F)c4ccc([nH]4)c(-c4c(F)cccc4F)c4nc(c(-c5c(F)cccc5F)c5ccc2[nH]5)C=C4)C=C3)cc1
REMARK SMILES IDX 24 1 23 2 1 3 2 4 3 6 4 7 5 8 6 9 22 10 7 11 9 12 8 13 10 14
REMARK SMILES IDX 11 15 21 16 12 17 20 18 19 19 13 20 14 21 18 22 15 23 17 24
REMARK SMILES IDX 16 25 25 26 26 27 27 28 28 29 29 31 30 32 31 33 83 34 32 35
REMARK SMILES IDX 82 36 33 37 34 38 35 39 76 40 36 41 81 42 75 43 77 44 37 45
REMARK SMILES IDX 80 46 74 47 73 48 38 50 64 51 47 52 63 53 48 54 51 55 62 56
REMARK SMILES IDX 78 57 49 58 50 59 61 61 79 62 52 63 39 64 40 65 45 66 41 67
REMARK SMILES IDX 42 68 44 69 46 70 43 71 65 72 66 73 71 74 67 75 68 76 70 77
REMARK SMILES IDX 72 78 69 79 53 80 54 81 59 82 55 83 56 84 58 85 60 86 57 87
REMARK H PARENT 23 5 27 30 77 49 51 60
REMARK Flexibility Score: inf
ROOT
ATOM      1  C   UNL A   1      32.044  29.344  26.279  1.00  0.00     0.117 C 
ENDROOT
BRANCH   1   2
ATOM      2  N   UNL A   1      31.360  28.348  25.463  1.00  0.00    -0.356 N 
ATOM      3  O   UNL A   1      31.574  26.605  26.946  1.00  0.00    -0.275 OA
ATOM      4  C   UNL A   1      31.099  27.071  25.916  1.00  0.00     0.220 C 
ATOM      5  H   UNL A   1      31.075  28.596  24.554  1.00  0.00     0.163 HD
BRANCH   4   6
ATOM      6  C   UNL A   1      30.127  26.265  25.066  1.00  0.00     0.106 C 
BRANCH   6   7
ATOM      7  C   UNL A   1      30.359  26.502  23.570  1.00  0.00     0.068 C 
BRANCH   7   8
ATOM      8  C   UNL A   1      31.610  25.847  23.048  1.00  0.00     0.060 A 
ATOM      9  C   UNL A   1      32.418  26.476  22.112  1.00  0.00     0.134 A 
ATOM     10  N   UNL A   1      31.915  24.609  23.522  1.00  0.00    -0.252 NA
ATOM     11  N   UNL A   1      33.562  25.922  21.652  1.00  0.00    -0.261 NA
ATOM     12  C   UNL A   1      33.039  24.020  23.040  1.00  0.00     0.090 A 
ATOM     13  C   UNL A   1      33.860  24.696  22.143  1.00  0.00     0.137 A 
BRANCH  12  14
ATOM     14  C   UNL A   1      33.388  22.632  23.527  1.00  0.00     0.188 C 
ATOM     15  C   UNL A   1      32.161  21.724  23.718  1.00  0.00     0.155 C 
ATOM     16  O   UNL A   1      34.220  22.716  24.692  1.00  0.00    -0.368 OA
ATOM     17  N   UNL A   1      32.488  20.606  24.614  1.00  0.00    -0.366 N 
ATOM     18  C   UNL A   1      33.652  22.341  25.948  1.00  0.00     0.182 C 
ATOM     19  C   UNL A   1      32.852  21.032  25.970  1.00  0.00     0.145 C 
BRANCH  17  20
ATOM     20  C   UNL A   1      33.004  19.397  24.179  1.00  0.00     0.037 A 
ATOM     21  C   UNL A   1      34.233  18.944  24.689  1.00  0.00     0.026 A 
ATOM     22  C   UNL A   1      32.375  18.582  23.230  1.00  0.00     0.026 A 
ATOM     23  C   UNL A   1      34.816  17.749  24.262  1.00  0.00     0.002 A 
ATOM     24  C   UNL A   1      32.959  17.390  22.783  1.00  0.00     0.002 A 
ATOM     25  C   UNL A   1      34.179  16.974  23.303  1.00  0.00     0.000 A 
ENDBRANCH  17  20
ENDBRANCH  12  14
ENDBRANCH   7   8
ENDBRANCH   6   7
ENDBRANCH   4   6
ENDBRANCH   1   2
BRANCH   1  26
ATOM     26  C   UNL A   1      33.561  29.436  26.057  1.00  0.00     0.042 C 
BRANCH  26  27
ATOM     27  C   UNL A   1      34.424  29.116  27.278  1.00  0.00     0.118 C 
BRANCH  27  28
ATOM     28  N   UNL A   1      34.421  30.071  28.368  1.00  0.00    -0.352 N 
ATOM     29  C   UNL A   1      35.520  30.643  28.989  1.00  0.00     0.251 C 
ATOM     30  H   UNL A   1      33.537  30.345  28.705  1.00  0.00     0.163 HD
ATOM     31  O   UNL A   1      35.378  31.631  29.699  1.00  0.00    -0.269 OA
BRANCH  29  32
ATOM     32  C   UNL A   1      36.875  30.046  28.861  1.00  0.00     0.039 A 
ATOM     33  C   UNL A   1      37.525  30.101  27.632  1.00  0.00     0.014 A 
ATOM     34  C   UNL A   1      37.469  29.326  29.894  1.00  0.00     0.014 A 
ATOM     35  C   UNL A   1      38.790  29.504  27.477  1.00  0.00     0.010 A 
ATOM     36  C   UNL A   1      38.783  28.838  29.778  1.00  0.00     0.010 A 
ATOM     37  C   UNL A   1      39.478  28.920  28.562  1.00  0.00    -0.014 A 
BRANCH  37  38
ATOM     38  C   UNL A   1      40.903  28.449  28.414  1.00  0.00     0.031 A 
ATOM     39  C   UNL A   1      41.265  27.023  28.043  1.00  0.00     0.074 A 
ATOM     40  C   UNL A   1      41.920  29.310  28.647  1.00  0.00     0.049 A 
ATOM     41  N   UNL A   1      42.456  26.488  27.875  1.00  0.00    -0.248 NA
ATOM     42  C   UNL A   1      40.165  26.066  27.865  1.00  0.00     0.031 C 
ATOM     43  C   UNL A   1      41.770  30.696  29.097  1.00  0.00     0.029 A 
ATOM     44  N   UNL A   1      43.285  29.155  28.533  1.00  0.00    -0.354 N 
ATOM     45  C   UNL A   1      42.246  25.140  27.600  1.00  0.00     0.074 A 
ATOM     46  C   UNL A   1      40.815  24.927  27.674  1.00  0.00     0.031 C 
ATOM     47  C   UNL A   1      42.977  31.279  29.155  1.00  0.00     0.029 A 
ATOM     48  C   UNL A   1      44.000  30.298  28.806  1.00  0.00     0.049 A 
ATOM     49  H   UNL A   1      43.709  28.303  28.279  1.00  0.00     0.167 HD
ATOM     50  C   UNL A   1      43.142  24.169  27.288  1.00  0.00     0.037 A 
ATOM     51  C   UNL A   1      45.324  30.549  28.789  1.00  0.00     0.037 A 
ATOM     52  C   UNL A   1      44.566  24.361  27.162  1.00  0.00     0.049 A 
ATOM     53  C   UNL A   1      46.297  29.465  28.418  1.00  0.00     0.074 A 
ATOM     54  C   UNL A   1      45.527  23.445  26.758  1.00  0.00     0.029 A 
ATOM     55  N   UNL A   1      45.239  25.541  27.435  1.00  0.00    -0.354 N 
ATOM     56  N   UNL A   1      46.061  28.226  28.073  1.00  0.00    -0.248 NA
ATOM     57  C   UNL A   1      47.725  29.822  28.432  1.00  0.00     0.031 C 
ATOM     58  C   UNL A   1      46.783  24.056  26.835  1.00  0.00     0.029 A 
ATOM     59  C   UNL A   1      46.601  25.368  27.235  1.00  0.00     0.049 A 
ATOM     60  H   UNL A   1      44.813  26.378  27.729  1.00  0.00     0.167 HD
ATOM     61  C   UNL A   1      47.304  27.663  27.804  1.00  0.00     0.074 A 
ATOM     62  C   UNL A   1      48.290  28.701  28.008  1.00  0.00     0.031 C 
ATOM     63  C   UNL A   1      47.592  26.395  27.425  1.00  0.00     0.037 A 
BRANCH  50  64
ATOM     64  C   UNL A   1      42.611  22.783  27.033  1.00  0.00     0.057 A 
ATOM     65  C   UNL A   1      42.533  22.248  25.741  1.00  0.00     0.134 A 
ATOM     66  C   UNL A   1      42.240  21.947  28.097  1.00  0.00     0.134 A 
ATOM     67  F   UNL A   1      42.875  22.989  24.676  1.00  0.00    -0.206 F 
ATOM     68  C   UNL A   1      42.074  20.949  25.512  1.00  0.00     0.040 A 
ATOM     69  C   UNL A   1      41.811  20.636  27.883  1.00  0.00     0.040 A 
ATOM     70  F   UNL A   1      42.310  22.385  29.364  1.00  0.00    -0.206 F 
ATOM     71  C   UNL A   1      41.718  20.136  26.586  1.00  0.00     0.006 A 
ENDBRANCH  50  64
BRANCH  51  72
ATOM     72  C   UNL A   1      45.823  31.911  29.119  1.00  0.00     0.057 A 
ATOM     73  C   UNL A   1      45.942  32.895  28.130  1.00  0.00     0.134 A 
ATOM     74  C   UNL A   1      46.214  32.253  30.420  1.00  0.00     0.134 A 
ATOM     75  F   UNL A   1      45.606  32.621  26.861  1.00  0.00    -0.206 F 
ATOM     76  C   UNL A   1      46.451  34.163  28.417  1.00  0.00     0.040 A 
ATOM     77  C   UNL A   1      46.697  33.525  30.726  1.00  0.00     0.040 A 
ATOM     78  F   UNL A   1      46.120  31.357  31.413  1.00  0.00    -0.206 F 
ATOM     79  C   UNL A   1      46.824  34.482  29.720  1.00  0.00     0.006 A 
ENDBRANCH  51  72
BRANCH  63  80
ATOM     80  C   UNL A   1      49.033  26.057  27.164  1.00  0.00     0.057 A 
ATOM     81  C   UNL A   1      49.617  26.216  25.899  1.00  0.00     0.134 A 
ATOM     82  C   UNL A   1      49.859  25.597  28.198  1.00  0.00     0.134 A 
ATOM     83  F   UNL A   1      48.881  26.638  24.859  1.00  0.00    -0.206 F 
ATOM     84  C   UNL A   1      50.960  25.909  25.669  1.00  0.00     0.040 A 
ATOM     85  C   UNL A   1      51.210  25.313  27.987  1.00  0.00     0.040 A 
ATOM     86  F   UNL A   1      49.369  25.427  29.435  1.00  0.00    -0.206 F 
ATOM     87  C   UNL A   1      51.762  25.464  26.718  1.00  0.00     0.006 A 
ENDBRANCH  63  80
ENDBRANCH  37  38
ENDBRANCH  29  32
ENDBRANCH  27  28
ENDBRANCH  26  27
ENDBRANCH   1  26
TORSDOF 14
ENDMDL
MODEL 3
REMARK VINA RESULT:      -9.4      4.179     10.110
REMARK SMILES O=C(CCc1cncc([C@@H]2CN(c3ccccc3)CCO2)n1)NCCCNC(=O)c1ccc(-c2c3nc(c(-c4c(F)cccc4F)c4ccc([nH]4)c(-c4c(F)cccc4F)c4nc(c(-c5c(F)cccc5F)c5ccc2[nH]5)C=C4)C=C3)cc1
REMARK SMILES IDX 24 1 23 2 1 3 2 4 3 6 4 7 5 8 6 9 22 10 7 11 9 12 8 13 10 14
REMARK SMILES IDX 11 15 21 16 12 17 20 18 19 19 13 20 14 21 18 22 15 23 17 24
REMARK SMILES IDX 16 25 25 26 26 27 27 28 28 29 29 31 30 32 31 33 83 34 32 35
REMARK SMILES IDX 82 36 33 37 34 38 35 39 76 40 36 41 81 42 75 43 77 44 37 45
REMARK SMILES IDX 80 46 74 47 73 48 38 50 64 51 47 52 63 53 48 54 51 55 62 56
REMARK SMILES IDX 78 57 49 58 50 59 61 61 79 62 52 63 39 64 40 65 45 66 41 67
REMARK SMILES IDX 42 68 44 69 46 70 43 71 65 72 66 73 71 74 67 75 68 76 70 77
REMARK SMILES IDX 72 78 69 79 53 80 54 81 59 82 55 83 56 84 58 85 60 86 57 87
REMARK H PARENT 23 5 27 30 77 49 51 60
REMARK Flexibility Score: inf
ROOT
ATOM      1  C   UNL A   1      42.068  20.601  26.332  1.00  0.00     0.117 C 
ENDROOT
BRANCH   1   2
ATOM      2  N   UNL A   1      43.442  20.112  26.362  1.00  0.00    -0.356 N 
ATOM      3  O   UNL A   1      43.372  19.014  24.344  1.00  0.00    -0.275 OA
ATOM      4  C   UNL A   1      44.010  19.431  25.304  1.00  0.00     0.220 C 
ATOM      5  H   UNL A   1      43.984  20.274  27.168  1.00  0.00     0.163 HD
BRANCH   4   6
ATOM      6  C   UNL A   1      45.520  19.257  25.379  1.00  0.00     0.106 C 
BRANCH   6   7
ATOM      7  C   UNL A   1      46.249  20.317  24.547  1.00  0.00     0.068 C 
BRANCH   7   8
ATOM      8  C   UNL A   1      45.844  21.727  24.887  1.00  0.00     0.060 A 
ATOM      9  C   UNL A   1      45.311  22.577  23.929  1.00  0.00     0.134 A 
ATOM     10  N   UNL A   1      46.028  22.140  26.170  1.00  0.00    -0.252 NA
ATOM     11  N   UNL A   1      44.910  23.835  24.217  1.00  0.00    -0.261 NA
ATOM     12  C   UNL A   1      45.669  23.415  26.468  1.00  0.00     0.090 A 
ATOM     13  C   UNL A   1      45.086  24.229  25.501  1.00  0.00     0.137 A 
BRANCH  12  14
ATOM     14  C   UNL A   1      45.888  23.912  27.880  1.00  0.00     0.188 C 
ATOM     15  C   UNL A   1      44.748  24.806  28.397  1.00  0.00     0.155 C 
ATOM     16  O   UNL A   1      47.182  24.520  27.990  1.00  0.00    -0.368 OA
ATOM     17  N   UNL A   1      45.213  25.621  29.528  1.00  0.00    -0.366 N 
ATOM     18  C   UNL A   1      47.244  25.939  28.143  1.00  0.00     0.182 C 
ATOM     19  C   UNL A   1      46.287  26.554  29.172  1.00  0.00     0.145 C 
BRANCH  17  20
ATOM     20  C   UNL A   1      45.155  25.209  30.849  1.00  0.00     0.037 A 
ATOM     21  C   UNL A   1      45.953  25.850  31.811  1.00  0.00     0.026 A 
ATOM     22  C   UNL A   1      44.344  24.159  31.298  1.00  0.00     0.026 A 
ATOM     23  C   UNL A   1      45.959  25.455  33.150  1.00  0.00     0.002 A 
ATOM     24  C   UNL A   1      44.355  23.745  32.636  1.00  0.00     0.002 A 
ATOM     25  C   UNL A   1      45.162  24.396  33.562  1.00  0.00     0.000 A 
ENDBRANCH  17  20
ENDBRANCH  12  14
ENDBRANCH   7   8
ENDBRANCH   6   7
ENDBRANCH   4   6
ENDBRANCH   1   2
BRANCH   1  26
ATOM     26  C   UNL A   1      41.598  21.299  27.616  1.00  0.00     0.042 C 
BRANCH  26  27
ATOM     27  C   UNL A   1      41.644  22.827  27.589  1.00  0.00     0.118 C 
BRANCH  27  28
ATOM     28  N   UNL A   1      41.558  23.476  26.296  1.00  0.00    -0.352 N 
ATOM     29  C   UNL A   1      41.596  24.835  26.032  1.00  0.00     0.251 C 
ATOM     30  H   UNL A   1      41.462  22.882  25.516  1.00  0.00     0.163 HD
ATOM     31  O   UNL A   1      41.792  25.234  24.891  1.00  0.00    -0.269 OA
BRANCH  29  32
ATOM     32  C   UNL A   1      41.344  25.835  27.103  1.00  0.00     0.039 A 
ATOM     33  C   UNL A   1      40.299  25.621  27.996  1.00  0.00     0.014 A 
ATOM     34  C   UNL A   1      42.041  27.038  27.173  1.00  0.00     0.014 A 
ATOM     35  C   UNL A   1      40.016  26.576  28.991  1.00  0.00     0.010 A 
ATOM     36  C   UNL A   1      41.841  27.933  28.240  1.00  0.00     0.010 A 
ATOM     37  C   UNL A   1      40.822  27.719  29.179  1.00  0.00    -0.014 A 
BRANCH  37  38
ATOM     38  C   UNL A   1      40.609  28.631  30.361  1.00  0.00     0.031 A 
ATOM     39  C   UNL A   1      41.438  28.543  31.629  1.00  0.00     0.074 A 
ATOM     40  C   UNL A   1      39.622  29.555  30.324  1.00  0.00     0.049 A 
ATOM     41  N   UNL A   1      41.362  29.275  32.721  1.00  0.00    -0.248 NA
ATOM     42  C   UNL A   1      42.459  27.490  31.702  1.00  0.00     0.031 C 
ATOM     43  C   UNL A   1      38.668  29.732  29.228  1.00  0.00     0.029 A 
ATOM     44  N   UNL A   1      39.256  30.528  31.229  1.00  0.00    -0.354 N 
ATOM     45  C   UNL A   1      42.300  28.755  33.608  1.00  0.00     0.074 A 
ATOM     46  C   UNL A   1      42.898  27.614  32.947  1.00  0.00     0.031 C 
ATOM     47  C   UNL A   1      37.877  30.783  29.490  1.00  0.00     0.029 A 
ATOM     48  C   UNL A   1      38.220  31.326  30.800  1.00  0.00     0.049 A 
ATOM     49  H   UNL A   1      39.695  30.642  32.103  1.00  0.00     0.167 HD
ATOM     50  C   UNL A   1      42.660  29.191  34.843  1.00  0.00     0.037 A 
ATOM     51  C   UNL A   1      37.600  32.374  31.379  1.00  0.00     0.037 A 
ATOM     52  C   UNL A   1      42.115  30.350  35.507  1.00  0.00     0.049 A 
ATOM     53  C   UNL A   1      38.030  32.854  32.737  1.00  0.00     0.074 A 
ATOM     54  C   UNL A   1      42.495  30.907  36.719  1.00  0.00     0.029 A 
ATOM     55  N   UNL A   1      41.078  31.133  35.023  1.00  0.00    -0.354 N 
ATOM     56  N   UNL A   1      38.982  32.400  33.511  1.00  0.00    -0.248 NA
ATOM     57  C   UNL A   1      37.296  33.999  33.299  1.00  0.00     0.031 C 
ATOM     58  C   UNL A   1      41.657  31.993  36.992  1.00  0.00     0.029 A 
ATOM     59  C   UNL A   1      40.790  32.148  35.925  1.00  0.00     0.049 A 
ATOM     60  H   UNL A   1      40.614  30.988  34.168  1.00  0.00     0.167 HD
ATOM     61  C   UNL A   1      38.979  33.217  34.636  1.00  0.00     0.074 A 
ATOM     62  C   UNL A   1      37.942  34.206  34.437  1.00  0.00     0.031 C 
ATOM     63  C   UNL A   1      39.768  33.144  35.735  1.00  0.00     0.037 A 
BRANCH  50  64
ATOM     64  C   UNL A   1      43.724  28.417  35.575  1.00  0.00     0.057 A 
ATOM     65  C   UNL A   1      43.406  27.379  36.460  1.00  0.00     0.134 A 
ATOM     66  C   UNL A   1      45.084  28.664  35.338  1.00  0.00     0.134 A 
ATOM     67  F   UNL A   1      42.124  27.085  36.730  1.00  0.00    -0.206 F 
ATOM     68  C   UNL A   1      44.396  26.639  37.108  1.00  0.00     0.040 A 
ATOM     69  C   UNL A   1      46.084  27.910  35.956  1.00  0.00     0.040 A 
ATOM     70  F   UNL A   1      45.464  29.629  34.486  1.00  0.00    -0.206 F 
ATOM     71  C   UNL A   1      45.741  26.899  36.852  1.00  0.00     0.006 A 
ENDBRANCH  50  64
BRANCH  51  72
ATOM     72  C   UNL A   1      36.501  33.072  30.661  1.00  0.00     0.057 A 
ATOM     73  C   UNL A   1      35.162  32.866  31.016  1.00  0.00     0.134 A 
ATOM     74  C   UNL A   1      36.758  33.939  29.592  1.00  0.00     0.134 A 
ATOM     75  F   UNL A   1      34.850  32.027  32.016  1.00  0.00    -0.206 F 
ATOM     76  C   UNL A   1      34.118  33.479  30.322  1.00  0.00     0.040 A 
ATOM     77  C   UNL A   1      35.726  34.582  28.908  1.00  0.00     0.040 A 
ATOM     78  F   UNL A   1      38.019  34.183  29.206  1.00  0.00    -0.206 F 
ATOM     79  C   UNL A   1      34.400  34.345  29.268  1.00  0.00     0.006 A 
ENDBRANCH  51  72
BRANCH  63  80
ATOM     80  C   UNL A   1      39.575  34.185  36.801  1.00  0.00     0.057 A 
ATOM     81  C   UNL A   1      38.786  33.951  37.935  1.00  0.00     0.134 A 
ATOM     82  C   UNL A   1      40.215  35.428  36.710  1.00  0.00     0.134 A 
ATOM     83  F   UNL A   1      38.132  32.788  38.080  1.00  0.00    -0.206 F 
ATOM     84  C   UNL A   1      38.622  34.922  38.926  1.00  0.00     0.040 A 
ATOM     85  C   UNL A   1      40.081  36.397  37.707  1.00  0.00     0.040 A 
ATOM     86  F   UNL A   1      40.991  35.719  35.655  1.00  0.00    -0.206 F 
ATOM     87  C   UNL A   1      39.278  36.146  38.817  1.00  0.00     0.006 A 
ENDBRANCH  63  80
ENDBRANCH  37  38
ENDBRANCH  29  32
ENDBRANCH  27  28
ENDBRANCH  26  27
ENDBRANCH   1  26
TORSDOF 14
ENDMDL
