MODEL 1
REMARK VINA RESULT:     -11.4      0.000      0.000
REMARK SMILES C[C@H](O)[C@H](NC(=O)N1CC[N@@H+]2CCC[C@@H]2C1)C(=O)NCCCNC(=O)c1ccc(-c2c3nc(c(-c4c(F)cccc4F)c4ccc([nH]4)c(-c4c(F)cccc4F)c4nc(c(-c5c(F)cccc5F)c5ccc2[nH]5)C=C4)C=C3)cc1
REMARK SMILES IDX 21 1 20 2 19 3 17 4 18 5 4 7 2 8 1 9 3 10 5 12 6 13 7 15
REMARK SMILES IDX 8 16 9 17 16 18 10 19 15 20 11 21 14 22 12 23 13 25 22 26
REMARK SMILES IDX 23 27 24 28 25 30 26 31 27 32 79 33 28 34 78 35 29 36 30 37
REMARK SMILES IDX 31 38 72 39 32 40 77 41 71 42 73 43 33 44 76 45 70 46 69 47
REMARK SMILES IDX 34 49 60 50 43 51 59 52 44 53 47 54 58 55 74 56 45 57 46 58
REMARK SMILES IDX 57 60 75 61 48 62 35 63 36 64 41 65 37 66 38 67 40 68 42 69
REMARK SMILES IDX 39 70 61 71 62 72 67 73 63 74 64 75 66 76 68 77 65 78 49 79
REMARK SMILES IDX 50 80 55 81 51 82 52 83 54 84 56 85 53 86
REMARK H PARENT 19 6 3 11 5 14 11 24 23 29 73 48 47 59
REMARK Flexibility Score: inf
ROOT
ATOM      1  C   UNL A   1      37.690  19.701  24.956  1.00  0.00     0.042 C 
ENDROOT
BRANCH   1   2
ATOM      2  C   UNL A   1      36.424  20.539  25.062  1.00  0.00     0.117 C 
BRANCH   2   3
ATOM      3  N   UNL A   1      35.180  19.848  24.802  1.00  0.00    -0.354 N 
ATOM      4  C   UNL A   1      33.903  20.320  24.772  1.00  0.00     0.245 C 
ATOM      5  O   UNL A   1      33.035  19.567  24.316  1.00  0.00    -0.273 OA
ATOM      6  H   UNL A   1      35.271  18.886  24.617  1.00  0.00     0.163 HD
BRANCH   4   7
ATOM      7  C   UNL A   1      33.535  21.753  25.193  1.00  0.00     0.201 C 
BRANCH   7   8
ATOM      8  C   UNL A   1      33.281  21.791  26.742  1.00  0.00     0.143 C 
ATOM      9  C   UNL A   1      34.209  22.690  27.568  1.00  0.00     0.041 C 
BRANCH   8  10
ATOM     10  O   UNL A   1      33.325  20.450  27.271  1.00  0.00    -0.391 OA
ATOM     11  H   UNL A   1      32.577  19.939  26.921  1.00  0.00     0.211 HD
ENDBRANCH   8  10
ENDBRANCH   7   8
BRANCH   7  12
ATOM     12  N   UNL A   1      32.426  22.417  24.469  1.00  0.00    -0.324 N 
ATOM     13  C   UNL A   1      31.809  23.623  24.503  1.00  0.00     0.318 C 
ATOM     14  H   UNL A   1      32.036  21.828  23.783  1.00  0.00     0.166 HD
ATOM     15  O   UNL A   1      30.658  23.651  24.057  1.00  0.00    -0.249 OA
BRANCH  13  16
ATOM     16  N   UNL A   1      32.437  24.760  24.935  1.00  0.00    -0.313 N 
ATOM     17  C   UNL A   1      33.404  25.524  24.169  1.00  0.00     0.183 C 
ATOM     18  C   UNL A   1      32.000  25.422  26.177  1.00  0.00     0.186 C 
ATOM     19  C   UNL A   1      33.657  26.961  24.634  1.00  0.00     0.284 C 
ATOM     20  C   UNL A   1      31.616  26.915  25.947  1.00  0.00     0.204 C 
ATOM     21  N   UNL A   1      32.376  27.633  24.889  1.00  0.00    -0.330 N 
ATOM     22  C   UNL A   1      31.813  27.785  27.185  1.00  0.00     0.073 C 
ATOM     23  C   UNL A   1      32.566  29.029  25.296  1.00  0.00     0.262 C 
ATOM     24  H   UNL A   1      31.850  27.621  24.015  1.00  0.00     0.348 HD
ATOM     25  C   UNL A   1      31.830  29.189  26.613  1.00  0.00     0.068 C 
ENDBRANCH  13  16
ENDBRANCH   7  12
ENDBRANCH   4   7
ENDBRANCH   2   3
ENDBRANCH   1   2
BRANCH   1  26
ATOM     26  C   UNL A   1      38.900  20.200  25.731  1.00  0.00     0.118 C 
BRANCH  26  27
ATOM     27  N   UNL A   1      40.041  19.302  25.682  1.00  0.00    -0.352 N 
ATOM     28  C   UNL A   1      41.340  19.514  26.057  1.00  0.00     0.251 C 
ATOM     29  H   UNL A   1      39.850  18.405  25.326  1.00  0.00     0.163 HD
ATOM     30  O   UNL A   1      42.177  18.632  25.882  1.00  0.00    -0.269 OA
BRANCH  28  31
ATOM     31  C   UNL A   1      41.751  20.814  26.626  1.00  0.00     0.039 A 
ATOM     32  C   UNL A   1      42.292  21.767  25.760  1.00  0.00     0.014 A 
ATOM     33  C   UNL A   1      41.609  21.098  27.988  1.00  0.00     0.014 A 
ATOM     34  C   UNL A   1      42.640  23.026  26.248  1.00  0.00     0.010 A 
ATOM     35  C   UNL A   1      41.893  22.378  28.460  1.00  0.00     0.010 A 
ATOM     36  C   UNL A   1      42.414  23.354  27.595  1.00  0.00    -0.014 A 
BRANCH  36  37
ATOM     37  C   UNL A   1      42.721  24.715  28.100  1.00  0.00     0.031 A 
ATOM     38  C   UNL A   1      44.129  25.092  28.462  1.00  0.00     0.074 A 
ATOM     39  C   UNL A   1      41.722  25.605  28.259  1.00  0.00     0.049 A 
ATOM     40  N   UNL A   1      44.588  26.226  28.928  1.00  0.00    -0.248 NA
ATOM     41  C   UNL A   1      45.157  24.052  28.293  1.00  0.00     0.031 C 
ATOM     42  C   UNL A   1      40.309  25.349  27.980  1.00  0.00     0.029 A 
ATOM     43  N   UNL A   1      41.744  26.906  28.698  1.00  0.00    -0.354 N 
ATOM     44  C   UNL A   1      45.951  26.034  29.114  1.00  0.00     0.074 A 
ATOM     45  C   UNL A   1      46.237  24.660  28.762  1.00  0.00     0.031 C 
ATOM     46  C   UNL A   1      39.602  26.462  28.230  1.00  0.00     0.029 A 
ATOM     47  C   UNL A   1      40.505  27.499  28.722  1.00  0.00     0.049 A 
ATOM     48  H   UNL A   1      42.569  27.370  28.968  1.00  0.00     0.167 HD
ATOM     49  C   UNL A   1      46.884  26.929  29.520  1.00  0.00     0.037 A 
ATOM     50  C   UNL A   1      40.136  28.736  29.105  1.00  0.00     0.037 A 
ATOM     51  C   UNL A   1      46.597  28.299  29.861  1.00  0.00     0.049 A 
ATOM     52  C   UNL A   1      41.187  29.702  29.578  1.00  0.00     0.074 A 
ATOM     53  C   UNL A   1      47.481  29.296  30.234  1.00  0.00     0.029 A 
ATOM     54  N   UNL A   1      45.330  28.862  29.876  1.00  0.00    -0.354 N 
ATOM     55  N   UNL A   1      42.483  29.530  29.680  1.00  0.00    -0.248 NA
ATOM     56  C   UNL A   1      40.726  31.037  29.981  1.00  0.00     0.031 C 
ATOM     57  C   UNL A   1      46.743  30.448  30.527  1.00  0.00     0.029 A 
ATOM     58  C   UNL A   1      45.405  30.185  30.280  1.00  0.00     0.049 A 
ATOM     59  H   UNL A   1      44.499  28.391  29.635  1.00  0.00     0.167 HD
ATOM     60  C   UNL A   1      42.994  30.742  30.130  1.00  0.00     0.074 A 
ATOM     61  C   UNL A   1      41.869  31.644  30.266  1.00  0.00     0.031 C 
ATOM     62  C   UNL A   1      44.278  31.076  30.405  1.00  0.00     0.037 A 
BRANCH  49  63
ATOM     63  C   UNL A   1      48.304  26.452  29.622  1.00  0.00     0.057 A 
ATOM     64  C   UNL A   1      49.214  26.604  28.567  1.00  0.00     0.134 A 
ATOM     65  C   UNL A   1      48.777  25.864  30.802  1.00  0.00     0.134 A 
ATOM     66  F   UNL A   1      48.822  27.149  27.405  1.00  0.00    -0.206 F 
ATOM     67  C   UNL A   1      50.534  26.164  28.672  1.00  0.00     0.040 A 
ATOM     68  C   UNL A   1      50.104  25.447  30.929  1.00  0.00     0.040 A 
ATOM     69  F   UNL A   1      47.963  25.694  31.855  1.00  0.00    -0.206 F 
ATOM     70  C   UNL A   1      50.985  25.591  29.859  1.00  0.00     0.006 A 
ENDBRANCH  49  63
BRANCH  50  71
ATOM     71  C   UNL A   1      38.708  29.139  29.045  1.00  0.00     0.057 A 
ATOM     72  C   UNL A   1      37.884  29.052  30.173  1.00  0.00     0.134 A 
ATOM     73  C   UNL A   1      38.130  29.607  27.860  1.00  0.00     0.134 A 
ATOM     74  F   UNL A   1      38.373  28.593  31.334  1.00  0.00    -0.206 F 
ATOM     75  C   UNL A   1      36.531  29.394  30.119  1.00  0.00     0.040 A 
ATOM     76  C   UNL A   1      36.786  29.979  27.798  1.00  0.00     0.040 A 
ATOM     77  F   UNL A   1      38.867  29.719  26.745  1.00  0.00    -0.206 F 
ATOM     78  C   UNL A   1      35.980  29.864  28.929  1.00  0.00     0.006 A 
ENDBRANCH  50  71
BRANCH  62  79
ATOM     79  C   UNL A   1      44.544  32.487  30.844  1.00  0.00     0.057 A 
ATOM     80  C   UNL A   1      44.593  32.848  32.196  1.00  0.00     0.134 A 
ATOM     81  C   UNL A   1      44.791  33.491  29.898  1.00  0.00     0.134 A 
ATOM     82  F   UNL A   1      44.353  31.937  33.153  1.00  0.00    -0.206 F 
ATOM     83  C   UNL A   1      44.854  34.161  32.592  1.00  0.00     0.040 A 
ATOM     84  C   UNL A   1      45.083  34.801  30.282  1.00  0.00     0.040 A 
ATOM     85  F   UNL A   1      44.769  33.213  28.586  1.00  0.00    -0.206 F 
ATOM     86  C   UNL A   1      45.107  35.141  31.633  1.00  0.00     0.006 A 
ENDBRANCH  62  79
ENDBRANCH  36  37
ENDBRANCH  28  31
ENDBRANCH  26  27
ENDBRANCH   1  26
TORSDOF 14
ENDMDL
MODEL 2
REMARK VINA RESULT:     -11.4      1.205      1.886
REMARK SMILES C[C@H](O)[C@H](NC(=O)N1CC[N@@H+]2CCC[C@@H]2C1)C(=O)NCCCNC(=O)c1ccc(-c2c3nc(c(-c4c(F)cccc4F)c4ccc([nH]4)c(-c4c(F)cccc4F)c4nc(c(-c5c(F)cccc5F)c5ccc2[nH]5)C=C4)C=C3)cc1
REMARK SMILES IDX 21 1 20 2 19 3 17 4 18 5 4 7 2 8 1 9 3 10 5 12 6 13 7 15
REMARK SMILES IDX 8 16 9 17 16 18 10 19 15 20 11 21 14 22 12 23 13 25 22 26
REMARK SMILES IDX 23 27 24 28 25 30 26 31 27 32 79 33 28 34 78 35 29 36 30 37
REMARK SMILES IDX 31 38 72 39 32 40 77 41 71 42 73 43 33 44 76 45 70 46 69 47
REMARK SMILES IDX 34 49 60 50 43 51 59 52 44 53 47 54 58 55 74 56 45 57 46 58
REMARK SMILES IDX 57 60 75 61 48 62 35 63 36 64 41 65 37 66 38 67 40 68 42 69
REMARK SMILES IDX 39 70 61 71 62 72 67 73 63 74 64 75 66 76 68 77 65 78 49 79
REMARK SMILES IDX 50 80 55 81 51 82 52 83 54 84 56 85 53 86
REMARK H PARENT 19 6 3 11 5 14 11 24 23 29 73 48 47 59
REMARK Flexibility Score: inf
ROOT
ATOM      1  C   UNL A   1      37.862  19.533  24.900  1.00  0.00     0.042 C 
ENDROOT
BRANCH   1   2
ATOM      2  C   UNL A   1      36.611  20.394  25.000  1.00  0.00     0.117 C 
BRANCH   2   3
ATOM      3  N   UNL A   1      35.348  19.692  24.918  1.00  0.00    -0.354 N 
ATOM      4  C   UNL A   1      34.075  20.177  24.884  1.00  0.00     0.245 C 
ATOM      5  O   UNL A   1      33.176  19.377  24.598  1.00  0.00    -0.273 OA
ATOM      6  H   UNL A   1      35.419  18.712  24.880  1.00  0.00     0.163 HD
BRANCH   4   7
ATOM      7  C   UNL A   1      33.745  21.663  25.097  1.00  0.00     0.201 C 
BRANCH   7   8
ATOM      8  C   UNL A   1      33.594  21.948  26.634  1.00  0.00     0.143 C 
ATOM      9  C   UNL A   1      34.591  22.937  27.249  1.00  0.00     0.041 C 
BRANCH   8  10
ATOM     10  O   UNL A   1      33.647  20.704  27.362  1.00  0.00    -0.391 OA
ATOM     11  H   UNL A   1      33.736  19.967  26.737  1.00  0.00     0.211 HD
ENDBRANCH   8  10
ENDBRANCH   7   8
BRANCH   7  12
ATOM     12  N   UNL A   1      32.594  22.223  24.350  1.00  0.00    -0.324 N 
ATOM     13  C   UNL A   1      31.931  23.404  24.302  1.00  0.00     0.318 C 
ATOM     14  H   UNL A   1      32.213  21.566  23.725  1.00  0.00     0.166 HD
ATOM     15  O   UNL A   1      30.770  23.352  23.885  1.00  0.00    -0.249 OA
BRANCH  13  16
ATOM     16  N   UNL A   1      32.522  24.596  24.624  1.00  0.00    -0.313 N 
ATOM     17  C   UNL A   1      33.463  25.316  23.788  1.00  0.00     0.183 C 
ATOM     18  C   UNL A   1      32.065  25.355  25.802  1.00  0.00     0.186 C 
ATOM     19  C   UNL A   1      33.671  26.797  24.117  1.00  0.00     0.284 C 
ATOM     20  C   UNL A   1      31.633  26.807  25.436  1.00  0.00     0.204 C 
ATOM     21  N   UNL A   1      32.369  27.449  24.313  1.00  0.00    -0.330 N 
ATOM     22  C   UNL A   1      31.803  27.794  26.588  1.00  0.00     0.073 C 
ATOM     23  C   UNL A   1      32.515  28.881  24.589  1.00  0.00     0.262 C 
ATOM     24  H   UNL A   1      31.843  27.339  23.446  1.00  0.00     0.348 HD
ATOM     25  C   UNL A   1      31.775  29.140  25.888  1.00  0.00     0.068 C 
ENDBRANCH  13  16
ENDBRANCH   7  12
ENDBRANCH   4   7
ENDBRANCH   2   3
ENDBRANCH   1   2
BRANCH   1  26
ATOM     26  C   UNL A   1      39.048  19.959  25.750  1.00  0.00     0.118 C 
BRANCH  26  27
ATOM     27  N   UNL A   1      40.144  19.007  25.751  1.00  0.00    -0.352 N 
ATOM     28  C   UNL A   1      41.470  19.196  26.033  1.00  0.00     0.251 C 
ATOM     29  H   UNL A   1      39.896  18.085  25.511  1.00  0.00     0.163 HD
ATOM     30  O   UNL A   1      42.258  18.259  25.922  1.00  0.00    -0.269 OA
BRANCH  28  31
ATOM     31  C   UNL A   1      41.967  20.530  26.426  1.00  0.00     0.039 A 
ATOM     32  C   UNL A   1      42.275  21.439  25.412  1.00  0.00     0.014 A 
ATOM     33  C   UNL A   1      42.130  20.888  27.768  1.00  0.00     0.014 A 
ATOM     34  C   UNL A   1      42.694  22.728  25.742  1.00  0.00     0.010 A 
ATOM     35  C   UNL A   1      42.483  22.196  28.096  1.00  0.00     0.010 A 
ATOM     36  C   UNL A   1      42.771  23.127  27.086  1.00  0.00    -0.014 A 
BRANCH  36  37
ATOM     37  C   UNL A   1      43.151  24.518  27.437  1.00  0.00     0.031 A 
ATOM     38  C   UNL A   1      44.588  24.950  27.382  1.00  0.00     0.074 A 
ATOM     39  C   UNL A   1      42.200  25.387  27.834  1.00  0.00     0.049 A 
ATOM     40  N   UNL A   1      45.112  26.117  27.662  1.00  0.00    -0.248 NA
ATOM     41  C   UNL A   1      45.570  23.933  26.975  1.00  0.00     0.031 C 
ATOM     42  C   UNL A   1      40.775  25.079  27.965  1.00  0.00     0.029 A 
ATOM     43  N   UNL A   1      42.290  26.706  28.201  1.00  0.00    -0.354 N 
ATOM     44  C   UNL A   1      46.481  25.972  27.472  1.00  0.00     0.074 A 
ATOM     45  C   UNL A   1      46.712  24.592  27.105  1.00  0.00     0.031 C 
ATOM     46  C   UNL A   1      40.121  26.182  28.360  1.00  0.00     0.029 A 
ATOM     47  C   UNL A   1      41.083  27.265  28.545  1.00  0.00     0.049 A 
ATOM     48  H   UNL A   1      43.138  27.205  28.216  1.00  0.00     0.167 HD
ATOM     49  C   UNL A   1      47.453  26.910  27.572  1.00  0.00     0.037 A 
ATOM     50  C   UNL A   1      40.785  28.508  28.970  1.00  0.00     0.037 A 
ATOM     51  C   UNL A   1      47.217  28.286  27.928  1.00  0.00     0.049 A 
ATOM     52  C   UNL A   1      41.886  29.523  29.099  1.00  0.00     0.074 A 
ATOM     53  C   UNL A   1      48.129  29.324  28.007  1.00  0.00     0.029 A 
ATOM     54  N   UNL A   1      45.981  28.814  28.273  1.00  0.00    -0.354 N 
ATOM     55  N   UNL A   1      43.166  29.392  28.846  1.00  0.00    -0.248 NA
ATOM     56  C   UNL A   1      41.502  30.863  29.565  1.00  0.00     0.031 C 
ATOM     57  C   UNL A   1      47.455  30.466  28.451  1.00  0.00     0.029 A 
ATOM     58  C   UNL A   1      46.112  30.155  28.591  1.00  0.00     0.049 A 
ATOM     59  H   UNL A   1      45.135  28.309  28.287  1.00  0.00     0.167 HD
ATOM     60  C   UNL A   1      43.733  30.637  29.093  1.00  0.00     0.074 A 
ATOM     61  C   UNL A   1      42.654  31.513  29.501  1.00  0.00     0.031 C 
ATOM     62  C   UNL A   1      45.029  31.019  28.990  1.00  0.00     0.037 A 
BRANCH  49  63
ATOM     63  C   UNL A   1      48.864  26.478  27.296  1.00  0.00     0.057 A 
ATOM     64  C   UNL A   1      49.701  25.991  28.309  1.00  0.00     0.134 A 
ATOM     65  C   UNL A   1      49.381  26.514  25.994  1.00  0.00     0.134 A 
ATOM     66  F   UNL A   1      49.272  25.939  29.579  1.00  0.00    -0.206 F 
ATOM     67  C   UNL A   1      51.009  25.583  28.042  1.00  0.00     0.040 A 
ATOM     68  C   UNL A   1      50.678  26.082  25.711  1.00  0.00     0.040 A 
ATOM     69  F   UNL A   1      48.632  26.962  24.975  1.00  0.00    -0.206 F 
ATOM     70  C   UNL A   1      51.498  25.620  26.738  1.00  0.00     0.006 A 
ENDBRANCH  49  63
BRANCH  50  71
ATOM     71  C   UNL A   1      39.381  28.868  29.291  1.00  0.00     0.057 A 
ATOM     72  C   UNL A   1      38.858  28.667  30.574  1.00  0.00     0.134 A 
ATOM     73  C   UNL A   1      38.524  29.407  28.325  1.00  0.00     0.134 A 
ATOM     74  F   UNL A   1      39.622  28.136  31.540  1.00  0.00    -0.206 F 
ATOM     75  C   UNL A   1      37.529  28.968  30.879  1.00  0.00     0.040 A 
ATOM     76  C   UNL A   1      37.201  29.739  28.622  1.00  0.00     0.040 A 
ATOM     77  F   UNL A   1      38.965  29.629  27.077  1.00  0.00    -0.206 F 
ATOM     78  C   UNL A   1      36.698  29.511  29.901  1.00  0.00     0.006 A 
ENDBRANCH  50  71
BRANCH  62  79
ATOM     79  C   UNL A   1      45.350  32.456  29.288  1.00  0.00     0.057 A 
ATOM     80  C   UNL A   1      45.263  33.454  28.310  1.00  0.00     0.134 A 
ATOM     81  C   UNL A   1      45.716  32.849  30.583  1.00  0.00     0.134 A 
ATOM     82  F   UNL A   1      44.931  33.143  27.047  1.00  0.00    -0.206 F 
ATOM     83  C   UNL A   1      45.552  34.789  28.602  1.00  0.00     0.040 A 
ATOM     84  C   UNL A   1      45.977  34.184  30.894  1.00  0.00     0.040 A 
ATOM     85  F   UNL A   1      45.810  31.945  31.569  1.00  0.00    -0.206 F 
ATOM     86  C   UNL A   1      45.903  35.158  29.900  1.00  0.00     0.006 A 
ENDBRANCH  62  79
ENDBRANCH  36  37
ENDBRANCH  28  31
ENDBRANCH  26  27
ENDBRANCH   1  26
TORSDOF 14
ENDMDL
MODEL 3
REMARK VINA RESULT:     -11.3      4.303      9.424
REMARK SMILES C[C@H](O)[C@H](NC(=O)N1CC[N@@H+]2CCC[C@@H]2C1)C(=O)NCCCNC(=O)c1ccc(-c2c3nc(c(-c4c(F)cccc4F)c4ccc([nH]4)c(-c4c(F)cccc4F)c4nc(c(-c5c(F)cccc5F)c5ccc2[nH]5)C=C4)C=C3)cc1
REMARK SMILES IDX 21 1 20 2 19 3 17 4 18 5 4 7 2 8 1 9 3 10 5 12 6 13 7 15
REMARK SMILES IDX 8 16 9 17 16 18 10 19 15 20 11 21 14 22 12 23 13 25 22 26
REMARK SMILES IDX 23 27 24 28 25 30 26 31 27 32 79 33 28 34 78 35 29 36 30 37
REMARK SMILES IDX 31 38 72 39 32 40 77 41 71 42 73 43 33 44 76 45 70 46 69 47
REMARK SMILES IDX 34 49 60 50 43 51 59 52 44 53 47 54 58 55 74 56 45 57 46 58
REMARK SMILES IDX 57 60 75 61 48 62 35 63 36 64 41 65 37 66 38 67 40 68 42 69
REMARK SMILES IDX 39 70 61 71 62 72 67 73 63 74 64 75 66 76 68 77 65 78 49 79
REMARK SMILES IDX 50 80 55 81 51 82 52 83 54 84 56 85 53 86
REMARK H PARENT 19 6 3 11 5 14 11 24 23 29 73 48 47 59
REMARK Flexibility Score: inf
ROOT
ATOM      1  C   UNL A   1      31.404  31.894  26.501  1.00  0.00     0.042 C 
ENDROOT
BRANCH   1   2
ATOM      2  C   UNL A   1      31.599  30.600  25.724  1.00  0.00     0.117 C 
BRANCH   2   3
ATOM      3  N   UNL A   1      30.653  30.349  24.658  1.00  0.00    -0.354 N 
ATOM      4  C   UNL A   1      30.492  29.252  23.867  1.00  0.00     0.245 C 
ATOM      5  O   UNL A   1      29.470  29.205  23.172  1.00  0.00    -0.273 OA
ATOM      6  H   UNL A   1      30.026  31.086  24.478  1.00  0.00     0.163 HD
BRANCH   4   7
ATOM      7  C   UNL A   1      31.469  28.066  23.881  1.00  0.00     0.201 C 
BRANCH   7   8
ATOM      8  C   UNL A   1      32.591  28.303  22.809  1.00  0.00     0.143 C 
ATOM      9  C   UNL A   1      34.021  28.472  23.338  1.00  0.00     0.041 C 
BRANCH   8  10
ATOM     10  O   UNL A   1      32.248  29.444  21.996  1.00  0.00    -0.391 OA
ATOM     11  H   UNL A   1      33.060  29.886  21.700  1.00  0.00     0.211 HD
ENDBRANCH   8  10
ENDBRANCH   7   8
BRANCH   7  12
ATOM     12  N   UNL A   1      30.898  26.705  23.741  1.00  0.00    -0.324 N 
ATOM     13  C   UNL A   1      31.373  25.437  23.693  1.00  0.00     0.318 C 
ATOM     14  H   UNL A   1      29.917  26.729  23.665  1.00  0.00     0.166 HD
ATOM     15  O   UNL A   1      30.644  24.611  23.137  1.00  0.00    -0.249 OA
BRANCH  13  16
ATOM     16  N   UNL A   1      32.552  25.068  24.284  1.00  0.00    -0.313 N 
ATOM     17  C   UNL A   1      32.736  24.822  25.701  1.00  0.00     0.183 C 
ATOM     18  C   UNL A   1      33.708  24.684  23.455  1.00  0.00     0.186 C 
ATOM     19  C   UNL A   1      33.978  24.018  26.096  1.00  0.00     0.284 C 
ATOM     20  C   UNL A   1      34.239  23.262  23.804  1.00  0.00     0.204 C 
ATOM     21  N   UNL A   1      34.106  22.842  25.226  1.00  0.00    -0.330 N 
ATOM     22  C   UNL A   1      35.727  23.086  23.515  1.00  0.00     0.073 C 
ATOM     23  C   UNL A   1      35.260  22.016  25.594  1.00  0.00     0.262 C 
ATOM     24  H   UNL A   1      33.260  22.285  25.345  1.00  0.00     0.348 HD
ATOM     25  C   UNL A   1      36.089  21.861  24.332  1.00  0.00     0.068 C 
ENDBRANCH  13  16
ENDBRANCH   7  12
ENDBRANCH   4   7
ENDBRANCH   2   3
ENDBRANCH   1   2
BRANCH   1  26
ATOM     26  C   UNL A   1      32.664  32.568  27.021  1.00  0.00     0.118 C 
BRANCH  26  27
ATOM     27  N   UNL A   1      32.435  33.887  27.584  1.00  0.00    -0.352 N 
ATOM     28  C   UNL A   1      33.133  34.562  28.549  1.00  0.00     0.251 C 
ATOM     29  H   UNL A   1      31.660  34.369  27.216  1.00  0.00     0.163 HD
ATOM     30  O   UNL A   1      32.740  35.662  28.930  1.00  0.00    -0.269 OA
BRANCH  28  31
ATOM     31  C   UNL A   1      34.330  33.955  29.167  1.00  0.00     0.039 A 
ATOM     32  C   UNL A   1      34.138  33.007  30.174  1.00  0.00     0.014 A 
ATOM     33  C   UNL A   1      35.623  34.308  28.768  1.00  0.00     0.014 A 
ATOM     34  C   UNL A   1      35.240  32.370  30.744  1.00  0.00     0.010 A 
ATOM     35  C   UNL A   1      36.718  33.622  29.289  1.00  0.00     0.010 A 
ATOM     36  C   UNL A   1      36.538  32.649  30.284  1.00  0.00    -0.014 A 
BRANCH  36  37
ATOM     37  C   UNL A   1      37.706  31.923  30.841  1.00  0.00     0.031 A 
ATOM     38  C   UNL A   1      38.218  32.248  32.215  1.00  0.00     0.074 A 
ATOM     39  C   UNL A   1      38.324  30.986  30.095  1.00  0.00     0.049 A 
ATOM     40  N   UNL A   1      39.229  31.729  32.865  1.00  0.00    -0.248 NA
ATOM     41  C   UNL A   1      37.510  33.308  32.951  1.00  0.00     0.031 C 
ATOM     42  C   UNL A   1      37.947  30.606  28.733  1.00  0.00     0.029 A 
ATOM     43  N   UNL A   1      39.402  30.185  30.377  1.00  0.00    -0.354 N 
ATOM     44  C   UNL A   1      39.283  32.402  34.079  1.00  0.00     0.074 A 
ATOM     45  C   UNL A   1      38.237  33.402  34.055  1.00  0.00     0.031 C 
ATOM     46  C   UNL A   1      38.763  29.630  28.307  1.00  0.00     0.029 A 
ATOM     47  C   UNL A   1      39.744  29.340  29.349  1.00  0.00     0.049 A 
ATOM     48  H   UNL A   1      39.884  30.211  31.235  1.00  0.00     0.167 HD
ATOM     49  C   UNL A   1      40.115  32.190  35.128  1.00  0.00     0.037 A 
ATOM     50  C   UNL A   1      40.741  28.440  29.253  1.00  0.00     0.037 A 
ATOM     51  C   UNL A   1      41.148  31.187  35.152  1.00  0.00     0.049 A 
ATOM     52  C   UNL A   1      41.667  28.243  30.421  1.00  0.00     0.074 A 
ATOM     53  C   UNL A   1      42.008  30.862  36.185  1.00  0.00     0.029 A 
ATOM     54  N   UNL A   1      41.466  30.353  34.090  1.00  0.00    -0.354 N 
ATOM     55  N   UNL A   1      41.662  28.835  31.591  1.00  0.00    -0.248 NA
ATOM     56  C   UNL A   1      42.734  27.246  30.260  1.00  0.00     0.031 C 
ATOM     57  C   UNL A   1      42.882  29.868  35.732  1.00  0.00     0.029 A 
ATOM     58  C   UNL A   1      42.528  29.533  34.435  1.00  0.00     0.049 A 
ATOM     59  H   UNL A   1      41.005  30.345  33.220  1.00  0.00     0.167 HD
ATOM     60  C   UNL A   1      42.702  28.263  32.313  1.00  0.00     0.074 A 
ATOM     61  C   UNL A   1      43.306  27.266  31.455  1.00  0.00     0.031 C 
ATOM     62  C   UNL A   1      43.117  28.539  33.573  1.00  0.00     0.037 A 
BRANCH  49  63
ATOM     63  C   UNL A   1      39.942  33.065  36.336  1.00  0.00     0.057 A 
ATOM     64  C   UNL A   1      40.679  34.245  36.507  1.00  0.00     0.134 A 
ATOM     65  C   UNL A   1      39.002  32.742  37.324  1.00  0.00     0.134 A 
ATOM     66  F   UNL A   1      41.602  34.607  35.604  1.00  0.00    -0.206 F 
ATOM     67  C   UNL A   1      40.507  35.057  37.630  1.00  0.00     0.040 A 
ATOM     68  C   UNL A   1      38.801  33.562  38.436  1.00  0.00     0.040 A 
ATOM     69  F   UNL A   1      38.258  31.631  37.220  1.00  0.00    -0.206 F 
ATOM     70  C   UNL A   1      39.559  34.720  38.594  1.00  0.00     0.006 A 
ENDBRANCH  49  63
BRANCH  50  71
ATOM     71  C   UNL A   1      40.908  27.644  28.011  1.00  0.00     0.057 A 
ATOM     72  C   UNL A   1      40.291  26.396  27.863  1.00  0.00     0.134 A 
ATOM     73  C   UNL A   1      41.696  28.102  26.949  1.00  0.00     0.134 A 
ATOM     74  F   UNL A   1      39.538  25.892  28.852  1.00  0.00    -0.206 F 
ATOM     75  C   UNL A   1      40.470  25.623  26.714  1.00  0.00     0.040 A 
ATOM     76  C   UNL A   1      41.862  27.352  25.783  1.00  0.00     0.040 A 
ATOM     77  F   UNL A   1      42.310  29.292  27.026  1.00  0.00    -0.206 F 
ATOM     78  C   UNL A   1      41.253  26.104  25.668  1.00  0.00     0.006 A 
ENDBRANCH  50  71
BRANCH  62  79
ATOM     79  C   UNL A   1      44.258  27.726  34.116  1.00  0.00     0.057 A 
ATOM     80  C   UNL A   1      44.063  26.465  34.692  1.00  0.00     0.134 A 
ATOM     81  C   UNL A   1      45.574  28.200  34.027  1.00  0.00     0.134 A 
ATOM     82  F   UNL A   1      42.827  25.959  34.820  1.00  0.00    -0.206 F 
ATOM     83  C   UNL A   1      45.133  25.714  35.182  1.00  0.00     0.040 A 
ATOM     84  C   UNL A   1      46.655  27.445  34.485  1.00  0.00     0.040 A 
ATOM     85  F   UNL A   1      45.833  29.397  33.479  1.00  0.00    -0.206 F 
ATOM     86  C   UNL A   1      46.435  26.201  35.072  1.00  0.00     0.006 A 
ENDBRANCH  62  79
ENDBRANCH  36  37
ENDBRANCH  28  31
ENDBRANCH  26  27
ENDBRANCH   1  26
TORSDOF 14
ENDMDL
