MODEL 1
REMARK VINA RESULT:     -11.8      0.000      0.000
REMARK SMILES COc1ccc(/C=C2\SC(=O)N(CC(=O)N[C@H](C)C(=O)NCCCNC(=O)c3ccc(-c4c5nc(c(-c6c(F)cccc6F)c6ccc([nH]6)c(-c6c(F)cccc6F)c6nc(c(-c7c(F)cccc7F)c7ccc4[nH]7)C=C6)C=C5)cc3)C2=O)cc1OC
REMARK SMILES IDX 19 1 20 2 21 3 17 5 18 6 16 7 14 8 15 9 13 11 12 12 7 13
REMARK SMILES IDX 8 14 9 15 82 16 10 17 83 18 11 19 6 20 3 21 4 22 85 23 5 24
REMARK SMILES IDX 84 25 2 26 1 27 86 28 87 29 22 30 23 31 24 32 25 33 26 34
REMARK SMILES IDX 27 36 28 37 29 38 81 39 30 40 80 41 31 42 32 43 33 44 74 45
REMARK SMILES IDX 34 46 79 47 73 48 75 49 35 50 78 51 72 52 71 53 36 55 62 56
REMARK SMILES IDX 45 57 61 58 46 59 49 60 60 61 76 62 47 63 48 64 59 66 77 67
REMARK SMILES IDX 50 68 37 69 38 70 43 71 39 72 40 73 42 74 44 75 41 76 63 77
REMARK SMILES IDX 64 78 69 79 65 80 66 81 68 82 70 83 67 84 51 85 52 86 57 87
REMARK SMILES IDX 53 88 54 89 56 90 58 91 55 92
REMARK H PARENT 21 4 16 10 25 35 75 54 49 65
REMARK Flexibility Score: inf
ROOT
ATOM      1  C   UNL A   1      31.341  29.222  23.741  1.00  0.00     0.242 C 
ATOM      2  O   UNL A   1      32.041  28.990  22.753  1.00  0.00    -0.273 OA
ATOM      3  N   UNL A   1      31.859  30.026  24.710  1.00  0.00    -0.354 N 
ATOM      4  H   UNL A   1      32.705  30.465  24.466  1.00  0.00     0.163 HD
ENDROOT
BRANCH   1   5
ATOM      5  C   UNL A   1      29.937  28.616  23.866  1.00  0.00     0.168 C 
ATOM      6  C   UNL A   1      28.859  29.395  23.125  1.00  0.00     0.041 C 
BRANCH   5   7
ATOM      7  N   UNL A   1      29.976  27.206  23.484  1.00  0.00    -0.343 N 
ATOM      8  C   UNL A   1      30.250  26.094  24.212  1.00  0.00     0.240 C 
ATOM      9  O   UNL A   1      29.932  25.011  23.713  1.00  0.00    -0.273 OA
ATOM     10  H   UNL A   1      29.767  27.035  22.537  1.00  0.00     0.164 HD
BRANCH   8  11
ATOM     11  C   UNL A   1      30.787  26.173  25.637  1.00  0.00     0.229 C 
BRANCH  11  12
ATOM     12  N   UNL A   1      31.960  25.347  25.848  1.00  0.00    -0.259 N 
ATOM     13  C   UNL A   1      35.399  24.598  25.025  1.00  0.00     0.029 C 
ATOM     14  C   UNL A   1      34.162  24.587  25.548  1.00  0.00     0.083 C 
ATOM     15  S   UNL A   1      33.478  23.445  26.643  1.00  0.00    -0.022 SA
ATOM     16  C   UNL A   1      33.143  25.615  25.199  1.00  0.00     0.268 C 
ATOM     17  C   UNL A   1      31.908  24.209  26.605  1.00  0.00     0.294 C 
ATOM     18  O   UNL A   1      33.346  26.543  24.431  1.00  0.00    -0.268 OA
ATOM     19  O   UNL A   1      30.938  23.772  27.201  1.00  0.00    -0.261 OA
BRANCH  13  20
ATOM     20  C   UNL A   1      36.417  23.561  25.236  1.00  0.00    -0.020 A 
ATOM     21  C   UNL A   1      38.277  21.509  25.723  1.00  0.00     0.160 A 
ATOM     22  C   UNL A   1      38.594  22.845  26.015  1.00  0.00     0.051 A 
ATOM     23  C   UNL A   1      37.039  21.192  25.161  1.00  0.00     0.161 A 
ATOM     24  C   UNL A   1      37.669  23.869  25.767  1.00  0.00     0.012 A 
ATOM     25  C   UNL A   1      36.140  22.230  24.896  1.00  0.00     0.058 A 
BRANCH  21  26
ATOM     26  O   UNL A   1      39.154  20.544  26.141  1.00  0.00    -0.493 OA
ATOM     27  C   UNL A   1      40.350  21.102  26.682  1.00  0.00     0.278 C 
ENDBRANCH  21  26
BRANCH  23  28
ATOM     28  O   UNL A   1      36.508  19.972  24.852  1.00  0.00    -0.493 OA
ATOM     29  C   UNL A   1      35.104  19.804  24.890  1.00  0.00     0.278 C 
ENDBRANCH  23  28
ENDBRANCH  13  20
ENDBRANCH  11  12
ENDBRANCH   8  11
ENDBRANCH   5   7
ENDBRANCH   1   5
BRANCH   3  30
ATOM     30  C   UNL A   1      31.378  30.345  26.042  1.00  0.00     0.117 C 
BRANCH  30  31
ATOM     31  C   UNL A   1      31.362  31.847  26.284  1.00  0.00     0.042 C 
BRANCH  31  32
ATOM     32  C   UNL A   1      32.620  32.368  26.966  1.00  0.00     0.118 C 
BRANCH  32  33
ATOM     33  N   UNL A   1      32.476  33.740  27.428  1.00  0.00    -0.352 N 
ATOM     34  C   UNL A   1      33.124  34.402  28.441  1.00  0.00     0.251 C 
ATOM     35  H   UNL A   1      31.811  34.278  26.938  1.00  0.00     0.163 HD
ATOM     36  O   UNL A   1      32.712  35.496  28.814  1.00  0.00    -0.269 OA
BRANCH  34  37
ATOM     37  C   UNL A   1      34.302  33.793  29.091  1.00  0.00     0.039 A 
ATOM     38  C   UNL A   1      34.103  32.803  30.056  1.00  0.00     0.014 A 
ATOM     39  C   UNL A   1      35.597  34.203  28.765  1.00  0.00     0.014 A 
ATOM     40  C   UNL A   1      35.205  32.181  30.644  1.00  0.00     0.010 A 
ATOM     41  C   UNL A   1      36.691  33.515  29.277  1.00  0.00     0.010 A 
ATOM     42  C   UNL A   1      36.508  32.504  30.231  1.00  0.00    -0.014 A 
BRANCH  42  43
ATOM     43  C   UNL A   1      37.690  31.801  30.791  1.00  0.00     0.031 A 
ATOM     44  C   UNL A   1      38.187  32.138  32.170  1.00  0.00     0.074 A 
ATOM     45  C   UNL A   1      38.347  30.900  30.035  1.00  0.00     0.049 A 
ATOM     46  N   UNL A   1      39.230  31.671  32.809  1.00  0.00    -0.248 NA
ATOM     47  C   UNL A   1      37.429  33.151  32.921  1.00  0.00     0.031 C 
ATOM     48  C   UNL A   1      37.992  30.521  28.666  1.00  0.00     0.029 A 
ATOM     49  N   UNL A   1      39.457  30.143  30.311  1.00  0.00    -0.354 N 
ATOM     50  C   UNL A   1      39.257  32.339  34.027  1.00  0.00     0.074 A 
ATOM     51  C   UNL A   1      38.166  33.288  34.013  1.00  0.00     0.031 C 
ATOM     52  C   UNL A   1      38.846  29.582  28.233  1.00  0.00     0.029 A 
ATOM     53  C   UNL A   1      39.836  29.323  29.274  1.00  0.00     0.049 A 
ATOM     54  H   UNL A   1      39.937  30.181  31.170  1.00  0.00     0.167 HD
ATOM     55  C   UNL A   1      40.098  32.160  35.074  1.00  0.00     0.037 A 
ATOM     56  C   UNL A   1      40.871  28.468  29.171  1.00  0.00     0.037 A 
ATOM     57  C   UNL A   1      41.174  31.204  35.088  1.00  0.00     0.049 A 
ATOM     58  C   UNL A   1      41.806  28.306  30.338  1.00  0.00     0.074 A 
ATOM     59  C   UNL A   1      42.051  30.909  36.118  1.00  0.00     0.029 A 
ATOM     60  N   UNL A   1      41.524  30.391  34.020  1.00  0.00    -0.354 N 
ATOM     61  N   UNL A   1      41.778  28.894  31.509  1.00  0.00    -0.248 NA
ATOM     62  C   UNL A   1      42.914  27.356  30.170  1.00  0.00     0.031 C 
ATOM     63  C   UNL A   1      42.967  29.961  35.653  1.00  0.00     0.029 A 
ATOM     64  C   UNL A   1      42.622  29.616  34.356  1.00  0.00     0.049 A 
ATOM     65  H   UNL A   1      41.061  30.369  33.151  1.00  0.00     0.167 HD
ATOM     66  C   UNL A   1      42.841  28.362  32.228  1.00  0.00     0.074 A 
ATOM     67  C   UNL A   1      43.484  27.394  31.365  1.00  0.00     0.031 C 
ATOM     68  C   UNL A   1      43.248  28.649  33.489  1.00  0.00     0.037 A 
BRANCH  55  69
ATOM     69  C   UNL A   1      39.885  33.017  36.289  1.00  0.00     0.057 A 
ATOM     70  C   UNL A   1      40.571  34.226  36.474  1.00  0.00     0.134 A 
ATOM     71  C   UNL A   1      38.956  32.649  37.270  1.00  0.00     0.134 A 
ATOM     72  F   UNL A   1      41.483  34.633  35.578  1.00  0.00    -0.206 F 
ATOM     73  C   UNL A   1      40.365  35.018  37.603  1.00  0.00     0.040 A 
ATOM     74  C   UNL A   1      38.717  33.449  38.389  1.00  0.00     0.040 A 
ATOM     75  F   UNL A   1      38.258  31.509  37.156  1.00  0.00    -0.206 F 
ATOM     76  C   UNL A   1      39.429  34.634  38.561  1.00  0.00     0.006 A 
ENDBRANCH  55  69
BRANCH  56  77
ATOM     77  C   UNL A   1      41.069  27.683  27.925  1.00  0.00     0.057 A 
ATOM     78  C   UNL A   1      41.826  28.191  26.863  1.00  0.00     0.134 A 
ATOM     79  C   UNL A   1      40.497  26.415  27.759  1.00  0.00     0.134 A 
ATOM     80  F   UNL A   1      42.385  29.406  26.954  1.00  0.00    -0.206 F 
ATOM     81  C   UNL A   1      41.986  27.481  25.672  1.00  0.00     0.040 A 
ATOM     82  C   UNL A   1      40.674  25.681  26.585  1.00  0.00     0.040 A 
ATOM     83  F   UNL A   1      39.768  25.866  28.742  1.00  0.00    -0.206 F 
ATOM     84  C   UNL A   1      41.412  26.219  25.534  1.00  0.00     0.006 A 
ENDBRANCH  56  77
BRANCH  68  85
ATOM     85  C   UNL A   1      44.417  27.876  34.028  1.00  0.00     0.057 A 
ATOM     86  C   UNL A   1      45.729  28.359  33.949  1.00  0.00     0.134 A 
ATOM     87  C   UNL A   1      44.219  26.645  34.667  1.00  0.00     0.134 A 
ATOM     88  F   UNL A   1      45.990  29.525  33.340  1.00  0.00    -0.206 F 
ATOM     89  C   UNL A   1      46.806  27.631  34.461  1.00  0.00     0.040 A 
ATOM     90  C   UNL A   1      45.282  25.924  35.212  1.00  0.00     0.040 A 
ATOM     91  F   UNL A   1      42.987  26.128  34.787  1.00  0.00    -0.206 F 
ATOM     92  C   UNL A   1      46.582  26.413  35.102  1.00  0.00     0.006 A 
ENDBRANCH  68  85
ENDBRANCH  42  43
ENDBRANCH  34  37
ENDBRANCH  32  33
ENDBRANCH  31  32
ENDBRANCH  30  31
ENDBRANCH   3  30
TORSDOF 16
ENDMDL
MODEL 2
REMARK VINA RESULT:     -11.6      0.792      6.045
REMARK SMILES COc1ccc(/C=C2\SC(=O)N(CC(=O)N[C@H](C)C(=O)NCCCNC(=O)c3ccc(-c4c5nc(c(-c6c(F)cccc6F)c6ccc([nH]6)c(-c6c(F)cccc6F)c6nc(c(-c7c(F)cccc7F)c7ccc4[nH]7)C=C6)C=C5)cc3)C2=O)cc1OC
REMARK SMILES IDX 19 1 20 2 21 3 17 5 18 6 16 7 14 8 15 9 13 11 12 12 7 13
REMARK SMILES IDX 8 14 9 15 82 16 10 17 83 18 11 19 6 20 3 21 4 22 85 23 5 24
REMARK SMILES IDX 84 25 2 26 1 27 86 28 87 29 22 30 23 31 24 32 25 33 26 34
REMARK SMILES IDX 27 36 28 37 29 38 81 39 30 40 80 41 31 42 32 43 33 44 74 45
REMARK SMILES IDX 34 46 79 47 73 48 75 49 35 50 78 51 72 52 71 53 36 55 62 56
REMARK SMILES IDX 45 57 61 58 46 59 49 60 60 61 76 62 47 63 48 64 59 66 77 67
REMARK SMILES IDX 50 68 37 69 38 70 43 71 39 72 40 73 42 74 44 75 41 76 63 77
REMARK SMILES IDX 64 78 69 79 65 80 66 81 68 82 70 83 67 84 51 85 52 86 57 87
REMARK SMILES IDX 53 88 54 89 56 90 58 91 55 92
REMARK H PARENT 21 4 16 10 25 35 75 54 49 65
REMARK Flexibility Score: inf
ROOT
ATOM      1  C   UNL A   1      31.500  29.326  23.883  1.00  0.00     0.242 C 
ATOM      2  O   UNL A   1      32.207  29.097  22.899  1.00  0.00    -0.273 OA
ATOM      3  N   UNL A   1      32.048  30.039  24.905  1.00  0.00    -0.354 N 
ATOM      4  H   UNL A   1      32.928  30.430  24.703  1.00  0.00     0.163 HD
ENDROOT
BRANCH   1   5
ATOM      5  C   UNL A   1      30.054  28.815  23.945  1.00  0.00     0.168 C 
ATOM      6  C   UNL A   1      29.066  29.660  23.154  1.00  0.00     0.041 C 
BRANCH   5   7
ATOM      7  N   UNL A   1      30.017  27.404  23.567  1.00  0.00    -0.343 N 
ATOM      8  C   UNL A   1      30.279  26.283  24.287  1.00  0.00     0.240 C 
ATOM      9  O   UNL A   1      29.893  25.213  23.807  1.00  0.00    -0.273 OA
ATOM     10  H   UNL A   1      29.757  27.240  22.632  1.00  0.00     0.164 HD
BRANCH   8  11
ATOM     11  C   UNL A   1      30.885  26.342  25.685  1.00  0.00     0.229 C 
BRANCH  11  12
ATOM     12  N   UNL A   1      32.019  25.454  25.849  1.00  0.00    -0.259 N 
ATOM     13  C   UNL A   1      35.384  24.534  24.906  1.00  0.00     0.029 C 
ATOM     14  C   UNL A   1      34.166  24.583  25.470  1.00  0.00     0.083 C 
ATOM     15  S   UNL A   1      33.460  23.468  26.579  1.00  0.00    -0.022 SA
ATOM     16  C   UNL A   1      33.193  25.666  25.164  1.00  0.00     0.268 C 
ATOM     17  C   UNL A   1      31.932  24.313  26.598  1.00  0.00     0.294 C 
ATOM     18  O   UNL A   1      33.418  26.590  24.396  1.00  0.00    -0.268 OA
ATOM     19  O   UNL A   1      30.960  23.921  27.223  1.00  0.00    -0.261 OA
BRANCH  13  20
ATOM     20  C   UNL A   1      36.353  23.442  25.075  1.00  0.00    -0.020 A 
ATOM     21  C   UNL A   1      38.123  21.297  25.492  1.00  0.00     0.160 A 
ATOM     22  C   UNL A   1      38.548  22.622  25.681  1.00  0.00     0.051 A 
ATOM     23  C   UNL A   1      36.818  21.037  25.068  1.00  0.00     0.161 A 
ATOM     24  C   UNL A   1      37.668  23.692  25.468  1.00  0.00     0.012 A 
ATOM     25  C   UNL A   1      35.963  22.119  24.834  1.00  0.00     0.058 A 
BRANCH  21  26
ATOM     26  O   UNL A   1      38.975  20.298  25.876  1.00  0.00    -0.493 OA
ATOM     27  C   UNL A   1      40.200  20.806  26.400  1.00  0.00     0.278 C 
ENDBRANCH  21  26
BRANCH  23  28
ATOM     28  O   UNL A   1      36.186  19.842  24.876  1.00  0.00    -0.493 OA
ATOM     29  C   UNL A   1      34.772  19.799  24.907  1.00  0.00     0.278 C 
ENDBRANCH  23  28
ENDBRANCH  13  20
ENDBRANCH  11  12
ENDBRANCH   8  11
ENDBRANCH   5   7
ENDBRANCH   1   5
BRANCH   3  30
ATOM     30  C   UNL A   1      31.557  30.322  26.241  1.00  0.00     0.117 C 
BRANCH  30  31
ATOM     31  C   UNL A   1      31.419  31.818  26.481  1.00  0.00     0.042 C 
BRANCH  31  32
ATOM     32  C   UNL A   1      32.626  32.438  27.171  1.00  0.00     0.118 C 
BRANCH  32  33
ATOM     33  N   UNL A   1      32.423  33.843  27.491  1.00  0.00    -0.352 N 
ATOM     34  C   UNL A   1      33.031  34.628  28.439  1.00  0.00     0.251 C 
ATOM     35  H   UNL A   1      31.745  34.303  26.943  1.00  0.00     0.163 HD
ATOM     36  O   UNL A   1      32.572  35.736  28.697  1.00  0.00    -0.269 OA
BRANCH  34  37
ATOM     37  C   UNL A   1      34.223  34.134  29.159  1.00  0.00     0.039 A 
ATOM     38  C   UNL A   1      34.044  33.338  30.293  1.00  0.00     0.014 A 
ATOM     39  C   UNL A   1      35.511  34.463  28.730  1.00  0.00     0.014 A 
ATOM     40  C   UNL A   1      35.158  32.820  30.955  1.00  0.00     0.010 A 
ATOM     41  C   UNL A   1      36.615  33.867  29.330  1.00  0.00     0.010 A 
ATOM     42  C   UNL A   1      36.451  33.048  30.456  1.00  0.00    -0.014 A 
BRANCH  42  43
ATOM     43  C   UNL A   1      37.643  32.445  31.104  1.00  0.00     0.031 A 
ATOM     44  C   UNL A   1      38.338  31.271  30.469  1.00  0.00     0.074 A 
ATOM     45  C   UNL A   1      38.066  32.921  32.291  1.00  0.00     0.049 A 
ATOM     46  N   UNL A   1      39.357  30.579  30.908  1.00  0.00    -0.248 NA
ATOM     47  C   UNL A   1      37.799  30.795  29.185  1.00  0.00     0.031 C 
ATOM     48  C   UNL A   1      37.449  34.024  33.032  1.00  0.00     0.029 A 
ATOM     49  N   UNL A   1      39.112  32.531  33.089  1.00  0.00    -0.354 N 
ATOM     50  C   UNL A   1      39.575  29.584  29.963  1.00  0.00     0.074 A 
ATOM     51  C   UNL A   1      38.542  29.722  28.960  1.00  0.00     0.031 C 
ATOM     52  C   UNL A   1      38.146  34.243  34.157  1.00  0.00     0.029 A 
ATOM     53  C   UNL A   1      39.230  33.270  34.242  1.00  0.00     0.049 A 
ATOM     54  H   UNL A   1      39.722  31.794  32.857  1.00  0.00     0.167 HD
ATOM     55  C   UNL A   1      40.560  28.656  29.918  1.00  0.00     0.037 A 
ATOM     56  C   UNL A   1      40.107  33.167  35.259  1.00  0.00     0.037 A 
ATOM     57  C   UNL A   1      41.595  28.532  30.912  1.00  0.00     0.049 A 
ATOM     58  C   UNL A   1      41.176  32.111  35.199  1.00  0.00     0.074 A 
ATOM     59  C   UNL A   1      42.668  27.659  30.934  1.00  0.00     0.029 A 
ATOM     60  N   UNL A   1      41.681  29.299  32.064  1.00  0.00    -0.354 N 
ATOM     61  N   UNL A   1      41.411  31.223  34.264  1.00  0.00    -0.248 NA
ATOM     62  C   UNL A   1      42.108  32.049  36.334  1.00  0.00     0.031 C 
ATOM     63  C   UNL A   1      43.370  27.859  32.126  1.00  0.00     0.029 A 
ATOM     64  C   UNL A   1      42.773  28.901  32.817  1.00  0.00     0.049 A 
ATOM     65  H   UNL A   1      41.057  30.021  32.310  1.00  0.00     0.167 HD
ATOM     66  C   UNL A   1      42.534  30.519  34.681  1.00  0.00     0.074 A 
ATOM     67  C   UNL A   1      42.941  31.095  35.946  1.00  0.00     0.031 C 
ATOM     68  C   UNL A   1      43.171  29.489  34.072  1.00  0.00     0.037 A 
BRANCH  55  69
ATOM     69  C   UNL A   1      40.565  27.704  28.757  1.00  0.00     0.057 A 
ATOM     70  C   UNL A   1      39.769  26.550  28.740  1.00  0.00     0.134 A 
ATOM     71  C   UNL A   1      41.349  27.961  27.625  1.00  0.00     0.134 A 
ATOM     72  F   UNL A   1      39.002  26.239  29.796  1.00  0.00    -0.206 F 
ATOM     73  C   UNL A   1      39.775  25.673  27.655  1.00  0.00     0.040 A 
ATOM     74  C   UNL A   1      41.339  27.107  26.520  1.00  0.00     0.040 A 
ATOM     75  F   UNL A   1      42.130  29.049  27.568  1.00  0.00    -0.206 F 
ATOM     76  C   UNL A   1      40.557  25.955  26.536  1.00  0.00     0.006 A 
ENDBRANCH  55  69
BRANCH  56  77
ATOM     77  C   UNL A   1      40.025  34.100  36.412  1.00  0.00     0.057 A 
ATOM     78  C   UNL A   1      40.743  35.302  36.422  1.00  0.00     0.134 A 
ATOM     79  C   UNL A   1      39.241  33.810  37.536  1.00  0.00     0.134 A 
ATOM     80  F   UNL A   1      41.525  35.629  35.383  1.00  0.00    -0.206 F 
ATOM     81  C   UNL A   1      40.707  36.168  37.516  1.00  0.00     0.040 A 
ATOM     82  C   UNL A   1      39.172  34.681  38.624  1.00  0.00     0.040 A 
ATOM     83  F   UNL A   1      38.520  32.679  37.586  1.00  0.00    -0.206 F 
ATOM     84  C   UNL A   1      39.914  35.859  38.620  1.00  0.00     0.006 A 
ENDBRANCH  56  77
BRANCH  68  85
ATOM     85  C   UNL A   1      44.401  28.946  34.742  1.00  0.00     0.057 A 
ATOM     86  C   UNL A   1      44.343  27.898  35.669  1.00  0.00     0.134 A 
ATOM     87  C   UNL A   1      45.666  29.461  34.426  1.00  0.00     0.134 A 
ATOM     88  F   UNL A   1      43.163  27.369  36.025  1.00  0.00    -0.206 F 
ATOM     89  C   UNL A   1      45.497  27.400  36.279  1.00  0.00     0.040 A 
ATOM     90  C   UNL A   1      46.828  28.950  35.004  1.00  0.00     0.040 A 
ATOM     91  F   UNL A   1      45.795  30.458  33.539  1.00  0.00    -0.206 F 
ATOM     92  C   UNL A   1      46.744  27.921  35.941  1.00  0.00     0.006 A 
ENDBRANCH  68  85
ENDBRANCH  42  43
ENDBRANCH  34  37
ENDBRANCH  32  33
ENDBRANCH  31  32
ENDBRANCH  30  31
ENDBRANCH   3  30
TORSDOF 16
ENDMDL
MODEL 3
REMARK VINA RESULT:     -11.5      4.279      8.181
REMARK SMILES COc1ccc(/C=C2\SC(=O)N(CC(=O)N[C@H](C)C(=O)NCCCNC(=O)c3ccc(-c4c5nc(c(-c6c(F)cccc6F)c6ccc([nH]6)c(-c6c(F)cccc6F)c6nc(c(-c7c(F)cccc7F)c7ccc4[nH]7)C=C6)C=C5)cc3)C2=O)cc1OC
REMARK SMILES IDX 19 1 20 2 21 3 17 5 18 6 16 7 14 8 15 9 13 11 12 12 7 13
REMARK SMILES IDX 8 14 9 15 82 16 10 17 83 18 11 19 6 20 3 21 4 22 85 23 5 24
REMARK SMILES IDX 84 25 2 26 1 27 86 28 87 29 22 30 23 31 24 32 25 33 26 34
REMARK SMILES IDX 27 36 28 37 29 38 81 39 30 40 80 41 31 42 32 43 33 44 74 45
REMARK SMILES IDX 34 46 79 47 73 48 75 49 35 50 78 51 72 52 71 53 36 55 62 56
REMARK SMILES IDX 45 57 61 58 46 59 49 60 60 61 76 62 47 63 48 64 59 66 77 67
REMARK SMILES IDX 50 68 37 69 38 70 43 71 39 72 40 73 42 74 44 75 41 76 63 77
REMARK SMILES IDX 64 78 69 79 65 80 66 81 68 82 70 83 67 84 51 85 52 86 57 87
REMARK SMILES IDX 53 88 54 89 56 90 58 91 55 92
REMARK H PARENT 21 4 16 10 25 35 75 54 49 65
REMARK Flexibility Score: inf
ROOT
ATOM      1  C   UNL A   1      34.108  34.032  32.177  1.00  0.00     0.242 C 
ATOM      2  O   UNL A   1      33.737  33.171  32.977  1.00  0.00    -0.273 OA
ATOM      3  N   UNL A   1      33.794  33.856  30.864  1.00  0.00    -0.354 N 
ATOM      4  H   UNL A   1      33.170  33.115  30.690  1.00  0.00     0.163 HD
ENDROOT
BRANCH   1   5
ATOM      5  C   UNL A   1      34.904  35.254  32.656  1.00  0.00     0.168 C 
ATOM      6  C   UNL A   1      34.063  36.513  32.820  1.00  0.00     0.041 C 
BRANCH   5   7
ATOM      7  N   UNL A   1      35.646  34.912  33.867  1.00  0.00    -0.343 N 
ATOM      8  C   UNL A   1      36.863  34.332  34.030  1.00  0.00     0.240 C 
ATOM      9  O   UNL A   1      37.374  34.421  35.150  1.00  0.00    -0.273 OA
ATOM     10  H   UNL A   1      35.186  35.143  34.706  1.00  0.00     0.164 HD
BRANCH   8  11
ATOM     11  C   UNL A   1      37.634  33.727  32.862  1.00  0.00     0.229 C 
BRANCH  11  12
ATOM     12  N   UNL A   1      38.256  32.459  33.189  1.00  0.00    -0.259 N 
ATOM     13  C   UNL A   1      41.210  30.637  34.196  1.00  0.00     0.029 C 
ATOM     14  C   UNL A   1      39.968  30.980  33.817  1.00  0.00     0.083 C 
ATOM     15  S   UNL A   1      38.635  29.943  33.470  1.00  0.00    -0.022 SA
ATOM     16  C   UNL A   1      39.566  32.397  33.604  1.00  0.00     0.268 C 
ATOM     17  C   UNL A   1      37.608  31.271  32.992  1.00  0.00     0.294 C 
ATOM     18  O   UNL A   1      40.314  33.350  33.762  1.00  0.00    -0.268 OA
ATOM     19  O   UNL A   1      36.473  31.119  32.570  1.00  0.00    -0.261 OA
BRANCH  13  20
ATOM     20  C   UNL A   1      41.709  29.261  34.319  1.00  0.00    -0.020 A 
ATOM     21  C   UNL A   1      42.748  26.669  34.654  1.00  0.00     0.160 A 
ATOM     22  C   UNL A   1      42.819  27.312  33.408  1.00  0.00     0.051 A 
ATOM     23  C   UNL A   1      42.133  27.306  35.734  1.00  0.00     0.161 A 
ATOM     24  C   UNL A   1      42.297  28.602  33.239  1.00  0.00     0.012 A 
ATOM     25  C   UNL A   1      41.594  28.581  35.538  1.00  0.00     0.058 A 
BRANCH  21  26
ATOM     26  O   UNL A   1      43.421  25.486  34.796  1.00  0.00    -0.493 OA
ATOM     27  C   UNL A   1      44.835  25.661  34.730  1.00  0.00     0.278 C 
ENDBRANCH  21  26
BRANCH  23  28
ATOM     28  O   UNL A   1      42.003  26.895  37.030  1.00  0.00    -0.493 OA
ATOM     29  C   UNL A   1      41.011  25.938  37.351  1.00  0.00     0.278 C 
ENDBRANCH  23  28
ENDBRANCH  13  20
ENDBRANCH  11  12
ENDBRANCH   8  11
ENDBRANCH   5   7
ENDBRANCH   1   5
BRANCH   3  30
ATOM     30  C   UNL A   1      34.220  34.575  29.677  1.00  0.00     0.117 C 
BRANCH  30  31
ATOM     31  C   UNL A   1      33.869  33.814  28.407  1.00  0.00     0.042 C 
BRANCH  31  32
ATOM     32  C   UNL A   1      34.799  32.644  28.120  1.00  0.00     0.118 C 
BRANCH  32  33
ATOM     33  N   UNL A   1      34.092  31.374  28.052  1.00  0.00    -0.352 N 
ATOM     34  C   UNL A   1      34.584  30.093  28.018  1.00  0.00     0.251 C 
ATOM     35  H   UNL A   1      33.110  31.444  28.026  1.00  0.00     0.163 HD
ATOM     36  O   UNL A   1      33.833  29.161  27.747  1.00  0.00    -0.269 OA
BRANCH  34  37
ATOM     37  C   UNL A   1      36.013  29.838  28.290  1.00  0.00     0.039 A 
ATOM     38  C   UNL A   1      36.389  29.391  29.559  1.00  0.00     0.014 A 
ATOM     39  C   UNL A   1      36.982  30.050  27.307  1.00  0.00     0.014 A 
ATOM     40  C   UNL A   1      37.727  29.096  29.819  1.00  0.00     0.010 A 
ATOM     41  C   UNL A   1      38.298  29.662  27.536  1.00  0.00     0.010 A 
ATOM     42  C   UNL A   1      38.687  29.191  28.798  1.00  0.00    -0.014 A 
BRANCH  42  43
ATOM     43  C   UNL A   1      40.103  28.811  29.034  1.00  0.00     0.031 A 
ATOM     44  C   UNL A   1      41.053  29.789  29.669  1.00  0.00     0.074 A 
ATOM     45  C   UNL A   1      40.544  27.606  28.625  1.00  0.00     0.049 A 
ATOM     46  N   UNL A   1      42.333  29.660  29.908  1.00  0.00    -0.248 NA
ATOM     47  C   UNL A   1      40.499  31.094  30.063  1.00  0.00     0.031 C 
ATOM     48  C   UNL A   1      39.733  26.587  27.955  1.00  0.00     0.029 A 
ATOM     49  N   UNL A   1      41.789  27.035  28.709  1.00  0.00    -0.354 N 
ATOM     50  C   UNL A   1      42.736  30.865  30.469  1.00  0.00     0.074 A 
ATOM     51  C   UNL A   1      41.581  31.736  30.476  1.00  0.00     0.031 C 
ATOM     52  C   UNL A   1      40.491  25.507  27.717  1.00  0.00     0.029 A 
ATOM     53  C   UNL A   1      41.851  25.769  28.176  1.00  0.00     0.049 A 
ATOM     54  H   UNL A   1      42.564  27.487  29.114  1.00  0.00     0.167 HD
ATOM     55  C   UNL A   1      43.951  31.209  30.960  1.00  0.00     0.037 A 
ATOM     56  C   UNL A   1      42.890  24.921  28.061  1.00  0.00     0.037 A 
ATOM     57  C   UNL A   1      45.095  30.334  30.964  1.00  0.00     0.049 A 
ATOM     58  C   UNL A   1      44.235  25.335  28.589  1.00  0.00     0.074 A 
ATOM     59  C   UNL A   1      46.356  30.567  31.482  1.00  0.00     0.029 A 
ATOM     60  N   UNL A   1      45.117  29.060  30.417  1.00  0.00    -0.354 N 
ATOM     61  N   UNL A   1      44.585  26.451  29.180  1.00  0.00    -0.248 NA
ATOM     62  C   UNL A   1      45.331  24.367  28.440  1.00  0.00     0.031 C 
ATOM     63  C   UNL A   1      47.158  29.457  31.198  1.00  0.00     0.029 A 
ATOM     64  C   UNL A   1      46.379  28.506  30.560  1.00  0.00     0.049 A 
ATOM     65  H   UNL A   1      44.349  28.615  29.989  1.00  0.00     0.167 HD
ATOM     66  C   UNL A   1      45.929  26.308  29.503  1.00  0.00     0.074 A 
ATOM     67  C   UNL A   1      46.326  24.990  29.054  1.00  0.00     0.031 C 
ATOM     68  C   UNL A   1      46.758  27.188  30.115  1.00  0.00     0.037 A 
BRANCH  55  69
ATOM     69  C   UNL A   1      44.104  32.589  31.533  1.00  0.00     0.057 A 
ATOM     70  C   UNL A   1      44.121  32.820  32.916  1.00  0.00     0.134 A 
ATOM     71  C   UNL A   1      44.271  33.697  30.694  1.00  0.00     0.134 A 
ATOM     72  F   UNL A   1      43.955  31.804  33.776  1.00  0.00    -0.206 F 
ATOM     73  C   UNL A   1      44.267  34.105  33.440  1.00  0.00     0.040 A 
ATOM     74  C   UNL A   1      44.450  34.983  31.207  1.00  0.00     0.040 A 
ATOM     75  F   UNL A   1      44.271  33.550  29.360  1.00  0.00    -0.206 F 
ATOM     76  C   UNL A   1      44.441  35.191  32.584  1.00  0.00     0.006 A 
ENDBRANCH  55  69
BRANCH  56  77
ATOM     77  C   UNL A   1      42.698  23.586  27.436  1.00  0.00     0.057 A 
ATOM     78  C   UNL A   1      42.817  23.412  26.052  1.00  0.00     0.134 A 
ATOM     79  C   UNL A   1      42.378  22.458  28.201  1.00  0.00     0.134 A 
ATOM     80  F   UNL A   1      43.105  24.457  25.263  1.00  0.00    -0.206 F 
ATOM     81  C   UNL A   1      42.599  22.172  25.449  1.00  0.00     0.040 A 
ATOM     82  C   UNL A   1      42.188  21.206  27.615  1.00  0.00     0.040 A 
ATOM     83  F   UNL A   1      42.260  22.554  29.534  1.00  0.00    -0.206 F 
ATOM     84  C   UNL A   1      42.288  21.063  26.233  1.00  0.00     0.006 A 
ENDBRANCH  56  77
BRANCH  68  85
ATOM     85  C   UNL A   1      48.168  26.738  30.376  1.00  0.00     0.057 A 
ATOM     86  C   UNL A   1      48.517  26.010  31.521  1.00  0.00     0.134 A 
ATOM     87  C   UNL A   1      49.182  27.009  29.449  1.00  0.00     0.134 A 
ATOM     88  F   UNL A   1      47.596  25.727  32.454  1.00  0.00    -0.206 F 
ATOM     89  C   UNL A   1      49.830  25.593  31.746  1.00  0.00     0.040 A 
ATOM     90  C   UNL A   1      50.491  26.569  29.647  1.00  0.00     0.040 A 
ATOM     91  F   UNL A   1      48.915  27.693  28.326  1.00  0.00    -0.206 F 
ATOM     92  C   UNL A   1      50.820  25.865  30.804  1.00  0.00     0.006 A 
ENDBRANCH  68  85
ENDBRANCH  42  43
ENDBRANCH  34  37
ENDBRANCH  32  33
ENDBRANCH  31  32
ENDBRANCH  30  31
ENDBRANCH   3  30
TORSDOF 16
ENDMDL
