MODEL 1
REMARK VINA RESULT:     -12.7      0.000      0.000
REMARK SMILES CCc1ccccc1C[N@@H+]1CC2(CCN(C(=O)C3CC3)CC2)C[C@H]1C(=O)NCCCNC(=O)c1ccc(-c2c3nc(c(-c4c(F)cccc4F)c4ccc([nH]4)c(-c4c(F)cccc4F)c4nc(c(-c5c(F)cccc5F)c5ccc2[nH]5)C=C4)C=C3)cc1
REMARK SMILES IDX 28 1 27 2 25 3 26 4 24 6 10 7 11 8 12 10 23 11 13 12 22 13
REMARK SMILES IDX 14 14 21 15 15 16 16 17 17 18 9 19 8 20 3 21 4 22 5 23 7 24
REMARK SMILES IDX 6 25 2 26 1 27 18 28 19 29 20 30 29 31 30 32 31 33 32 34
REMARK SMILES IDX 33 36 34 37 35 38 87 39 36 40 86 41 37 42 38 43 39 44 80 45
REMARK SMILES IDX 40 46 85 47 79 48 81 49 41 50 84 51 78 52 77 53 42 55 68 56
REMARK SMILES IDX 51 57 67 58 52 59 55 60 66 61 82 62 53 63 54 64 65 66 83 67
REMARK SMILES IDX 56 68 43 69 44 70 49 71 45 72 46 73 48 74 50 75 47 76 69 77
REMARK SMILES IDX 70 78 75 79 71 80 72 81 74 82 76 83 73 84 57 85 58 86 63 87
REMARK SMILES IDX 59 88 60 89 62 90 64 91 61 92
REMARK H PARENT 27 5 10 9 31 35 81 54 55 65
REMARK Flexibility Score: inf
ROOT
ATOM      1  C   UNL A   1      31.739  30.179  25.963  1.00  0.00     0.118 C 
ENDROOT
BRANCH   1   2
ATOM      2  N   UNL A   1      32.949  30.004  25.215  1.00  0.00    -0.351 N 
ATOM      3  C   UNL A   1      33.323  28.951  24.430  1.00  0.00     0.278 C 
ATOM      4  O   UNL A   1      34.346  29.124  23.754  1.00  0.00    -0.268 OA
ATOM      5  H   UNL A   1      33.597  30.743  25.275  1.00  0.00     0.163 HD
BRANCH   3   6
ATOM      6  C   UNL A   1      32.564  27.582  24.354  1.00  0.00     0.275 C 
ATOM      7  N   UNL A   1      32.744  26.948  23.041  1.00  0.00    -0.320 N 
ATOM      8  C   UNL A   1      33.525  25.724  23.220  1.00  0.00     0.270 C 
ATOM      9  H   UNL A   1      33.291  27.560  22.435  1.00  0.00     0.349 HD
ATOM     10  C   UNL A   1      33.463  25.290  24.712  1.00  0.00     0.029 C 
ATOM     11  C   UNL A   1      32.841  26.516  25.421  1.00  0.00     0.088 C 
ATOM     12  C   UNL A   1      34.802  24.884  25.386  1.00  0.00     0.034 C 
ATOM     13  C   UNL A   1      32.629  24.001  24.881  1.00  0.00     0.034 C 
ATOM     14  C   UNL A   1      35.494  23.755  24.645  1.00  0.00     0.120 C 
ATOM     15  C   UNL A   1      33.272  22.810  24.146  1.00  0.00     0.120 C 
ATOM     16  N   UNL A   1      34.651  22.573  24.595  1.00  0.00    -0.342 N 
ATOM     17  C   UNL A   1      35.048  21.246  24.770  1.00  0.00     0.225 C 
ATOM     18  O   UNL A   1      34.282  20.324  24.485  1.00  0.00    -0.275 OA
BRANCH   7  19
ATOM     19  C   UNL A   1      31.512  26.857  22.217  1.00  0.00     0.299 C 
BRANCH  19  20
ATOM     20  C   UNL A   1      30.298  27.662  22.676  1.00  0.00     0.009 A 
ATOM     21  C   UNL A   1      29.200  27.102  23.375  1.00  0.00    -0.039 A 
ATOM     22  C   UNL A   1      28.001  27.841  23.437  1.00  0.00     0.004 A 
ATOM     23  C   UNL A   1      27.934  29.156  22.981  1.00  0.00     0.000 A 
ATOM     24  C   UNL A   1      30.250  29.035  22.352  1.00  0.00     0.010 A 
ATOM     25  C   UNL A   1      29.078  29.778  22.503  1.00  0.00     0.001 A 
BRANCH  21  26
ATOM     26  C   UNL A   1      29.341  25.796  24.140  1.00  0.00     0.032 C 
ATOM     27  C   UNL A   1      29.523  25.901  25.654  1.00  0.00     0.009 C 
ENDBRANCH  21  26
ENDBRANCH  19  20
ENDBRANCH   7  19
BRANCH  17  28
ATOM     28  C   UNL A   1      36.360  20.822  25.353  1.00  0.00     0.079 C 
ATOM     29  C   UNL A   1      37.305  19.738  24.922  1.00  0.00     0.014 C 
ATOM     30  C   UNL A   1      37.676  21.185  24.712  1.00  0.00     0.014 C 
ENDBRANCH  17  28
ENDBRANCH   3   6
ENDBRANCH   1   2
BRANCH   1  31
ATOM     31  C   UNL A   1      31.468  31.583  26.467  1.00  0.00     0.042 C 
BRANCH  31  32
ATOM     32  C   UNL A   1      32.705  32.250  27.033  1.00  0.00     0.118 C 
BRANCH  32  33
ATOM     33  N   UNL A   1      32.446  33.600  27.537  1.00  0.00    -0.352 N 
ATOM     34  C   UNL A   1      33.143  34.361  28.451  1.00  0.00     0.251 C 
ATOM     35  H   UNL A   1      31.645  34.033  27.163  1.00  0.00     0.163 HD
ATOM     36  O   UNL A   1      32.673  35.418  28.842  1.00  0.00    -0.269 OA
BRANCH  34  37
ATOM     37  C   UNL A   1      34.436  33.877  28.985  1.00  0.00     0.039 A 
ATOM     38  C   UNL A   1      34.443  33.077  30.131  1.00  0.00     0.014 A 
ATOM     39  C   UNL A   1      35.636  34.189  28.347  1.00  0.00     0.014 A 
ATOM     40  C   UNL A   1      35.643  32.521  30.579  1.00  0.00     0.010 A 
ATOM     41  C   UNL A   1      36.802  33.533  28.714  1.00  0.00     0.010 A 
ATOM     42  C   UNL A   1      36.824  32.704  29.842  1.00  0.00    -0.014 A 
BRANCH  42  43
ATOM     43  C   UNL A   1      38.099  32.058  30.233  1.00  0.00     0.031 A 
ATOM     44  C   UNL A   1      39.050  32.769  31.157  1.00  0.00     0.074 A 
ATOM     45  C   UNL A   1      38.445  30.878  29.681  1.00  0.00     0.049 A 
ATOM     46  N   UNL A   1      40.248  32.417  31.545  1.00  0.00    -0.248 NA
ATOM     47  C   UNL A   1      38.612  34.075  31.678  1.00  0.00     0.031 C 
ATOM     48  C   UNL A   1      37.642  30.128  28.714  1.00  0.00     0.029 A 
ATOM     49  N   UNL A   1      39.569  30.110  29.845  1.00  0.00    -0.354 N 
ATOM     50  C   UNL A   1      40.713  33.465  32.329  1.00  0.00     0.074 A 
ATOM     51  C   UNL A   1      39.700  34.497  32.301  1.00  0.00     0.031 C 
ATOM     52  C   UNL A   1      38.285  28.995  28.393  1.00  0.00     0.029 A 
ATOM     53  C   UNL A   1      39.562  28.958  29.097  1.00  0.00     0.049 A 
ATOM     54  H   UNL A   1      40.311  30.361  30.443  1.00  0.00     0.167 HD
ATOM     55  C   UNL A   1      41.867  33.550  33.031  1.00  0.00     0.037 A 
ATOM     56  C   UNL A   1      40.486  27.986  28.986  1.00  0.00     0.037 A 
ATOM     57  C   UNL A   1      42.854  32.506  33.075  1.00  0.00     0.049 A 
ATOM     58  C   UNL A   1      41.750  28.086  29.792  1.00  0.00     0.074 A 
ATOM     59  C   UNL A   1      44.018  32.448  33.821  1.00  0.00     0.029 A 
ATOM     60  N   UNL A   1      42.796  31.334  32.333  1.00  0.00    -0.354 N 
ATOM     61  N   UNL A   1      42.138  29.041  30.602  1.00  0.00    -0.248 NA
ATOM     62  C   UNL A   1      42.700  26.972  29.675  1.00  0.00     0.031 C 
ATOM     63  C   UNL A   1      44.690  31.268  33.487  1.00  0.00     0.029 A 
ATOM     64  C   UNL A   1      43.918  30.562  32.578  1.00  0.00     0.049 A 
ATOM     65  H   UNL A   1      42.064  31.090  31.721  1.00  0.00     0.167 HD
ATOM     66  C   UNL A   1      43.367  28.635  31.109  1.00  0.00     0.074 A 
ATOM     67  C   UNL A   1      43.649  27.339  30.526  1.00  0.00     0.031 C 
ATOM     68  C   UNL A   1      44.184  29.276  31.981  1.00  0.00     0.037 A 
BRANCH  55  69
ATOM     69  C   UNL A   1      42.116  34.820  33.796  1.00  0.00     0.057 A 
ATOM     70  C   UNL A   1      42.772  35.921  33.224  1.00  0.00     0.134 A 
ATOM     71  C   UNL A   1      41.703  34.943  35.129  1.00  0.00     0.134 A 
ATOM     72  F   UNL A   1      43.207  35.868  31.956  1.00  0.00    -0.206 F 
ATOM     73  C   UNL A   1      43.046  37.075  33.960  1.00  0.00     0.040 A 
ATOM     74  C   UNL A   1      41.941  36.105  35.865  1.00  0.00     0.040 A 
ATOM     75  F   UNL A   1      41.065  33.933  35.741  1.00  0.00    -0.206 F 
ATOM     76  C   UNL A   1      42.626  37.170  35.284  1.00  0.00     0.006 A 
ENDBRANCH  55  69
BRANCH  56  77
ATOM     77  C   UNL A   1      40.223  26.823  28.102  1.00  0.00     0.057 A 
ATOM     78  C   UNL A   1      40.807  26.733  26.833  1.00  0.00     0.134 A 
ATOM     79  C   UNL A   1      39.418  25.756  28.517  1.00  0.00     0.134 A 
ATOM     80  F   UNL A   1      41.578  27.729  26.373  1.00  0.00    -0.206 F 
ATOM     81  C   UNL A   1      40.593  25.630  26.005  1.00  0.00     0.040 A 
ATOM     82  C   UNL A   1      39.214  24.635  27.710  1.00  0.00     0.040 A 
ATOM     83  F   UNL A   1      38.840  25.775  29.728  1.00  0.00    -0.206 F 
ATOM     84  C   UNL A   1      39.800  24.572  26.448  1.00  0.00     0.006 A 
ENDBRANCH  56  77
BRANCH  68  85
ATOM     85  C   UNL A   1      45.452  28.575  32.373  1.00  0.00     0.057 A 
ATOM     86  C   UNL A   1      45.502  27.681  33.450  1.00  0.00     0.134 A 
ATOM     87  C   UNL A   1      46.628  28.765  31.635  1.00  0.00     0.134 A 
ATOM     88  F   UNL A   1      44.414  27.464  34.204  1.00  0.00    -0.206 F 
ATOM     89  C   UNL A   1      46.682  27.018  33.792  1.00  0.00     0.040 A 
ATOM     90  C   UNL A   1      47.805  28.085  31.949  1.00  0.00     0.040 A 
ATOM     91  F   UNL A   1      46.646  29.600  30.585  1.00  0.00    -0.206 F 
ATOM     92  C   UNL A   1      47.836  27.214  33.035  1.00  0.00     0.006 A 
ENDBRANCH  68  85
ENDBRANCH  42  43
ENDBRANCH  34  37
ENDBRANCH  32  33
ENDBRANCH  31  32
ENDBRANCH   1  31
TORSDOF 14
ENDMDL
MODEL 2
REMARK VINA RESULT:     -12.7      2.873      8.939
REMARK SMILES CCc1ccccc1C[N@@H+]1CC2(CCN(C(=O)C3CC3)CC2)C[C@H]1C(=O)NCCCNC(=O)c1ccc(-c2c3nc(c(-c4c(F)cccc4F)c4ccc([nH]4)c(-c4c(F)cccc4F)c4nc(c(-c5c(F)cccc5F)c5ccc2[nH]5)C=C4)C=C3)cc1
REMARK SMILES IDX 28 1 27 2 25 3 26 4 24 6 10 7 11 8 12 10 23 11 13 12 22 13
REMARK SMILES IDX 14 14 21 15 15 16 16 17 17 18 9 19 8 20 3 21 4 22 5 23 7 24
REMARK SMILES IDX 6 25 2 26 1 27 18 28 19 29 20 30 29 31 30 32 31 33 32 34
REMARK SMILES IDX 33 36 34 37 35 38 87 39 36 40 86 41 37 42 38 43 39 44 80 45
REMARK SMILES IDX 40 46 85 47 79 48 81 49 41 50 84 51 78 52 77 53 42 55 68 56
REMARK SMILES IDX 51 57 67 58 52 59 55 60 66 61 82 62 53 63 54 64 65 66 83 67
REMARK SMILES IDX 56 68 43 69 44 70 49 71 45 72 46 73 48 74 50 75 47 76 69 77
REMARK SMILES IDX 70 78 75 79 71 80 72 81 74 82 76 83 73 84 57 85 58 86 63 87
REMARK SMILES IDX 59 88 60 89 62 90 64 91 61 92
REMARK H PARENT 27 5 10 9 31 35 81 54 55 65
REMARK Flexibility Score: inf
ROOT
ATOM      1  C   UNL A   1      36.396  20.948  24.998  1.00  0.00     0.118 C 
ENDROOT
BRANCH   1   2
ATOM      2  N   UNL A   1      36.038  21.519  26.263  1.00  0.00    -0.351 N 
ATOM      3  C   UNL A   1      34.951  22.286  26.576  1.00  0.00     0.278 C 
ATOM      4  O   UNL A   1      34.785  22.509  27.783  1.00  0.00    -0.268 OA
ATOM      5  H   UNL A   1      36.657  21.333  27.005  1.00  0.00     0.163 HD
BRANCH   3   6
ATOM      6  C   UNL A   1      33.954  22.889  25.529  1.00  0.00     0.275 C 
ATOM      7  N   UNL A   1      32.605  23.021  26.096  1.00  0.00    -0.320 N 
ATOM      8  C   UNL A   1      32.283  24.444  26.201  1.00  0.00     0.270 C 
ATOM      9  H   UNL A   1      32.593  22.646  27.045  1.00  0.00     0.349 HD
ATOM     10  C   UNL A   1      33.225  25.252  25.265  1.00  0.00     0.029 C 
ATOM     11  C   UNL A   1      34.300  24.220  24.850  1.00  0.00     0.088 C 
ATOM     12  C   UNL A   1      33.886  26.527  25.857  1.00  0.00     0.034 C 
ATOM     13  C   UNL A   1      32.447  25.837  24.066  1.00  0.00     0.034 C 
ATOM     14  C   UNL A   1      32.857  27.514  26.379  1.00  0.00     0.120 C 
ATOM     15  C   UNL A   1      31.377  26.847  24.522  1.00  0.00     0.120 C 
ATOM     16  N   UNL A   1      31.960  27.937  25.317  1.00  0.00    -0.342 N 
ATOM     17  C   UNL A   1      31.480  29.227  25.081  1.00  0.00     0.225 C 
ATOM     18  O   UNL A   1      30.556  29.413  24.289  1.00  0.00    -0.275 OA
BRANCH   7  19
ATOM     19  C   UNL A   1      31.582  22.133  25.489  1.00  0.00     0.299 C 
BRANCH  19  20
ATOM     20  C   UNL A   1      32.076  21.017  24.570  1.00  0.00     0.009 A 
ATOM     21  C   UNL A   1      32.044  21.089  23.155  1.00  0.00    -0.039 A 
ATOM     22  C   UNL A   1      32.189  19.894  22.423  1.00  0.00     0.004 A 
ATOM     23  C   UNL A   1      32.528  18.695  23.048  1.00  0.00     0.000 A 
ATOM     24  C   UNL A   1      32.556  19.830  25.165  1.00  0.00     0.010 A 
ATOM     25  C   UNL A   1      32.781  18.677  24.411  1.00  0.00     0.001 A 
BRANCH  21  26
ATOM     26  C   UNL A   1      31.977  22.428  22.441  1.00  0.00     0.032 C 
ATOM     27  C   UNL A   1      33.273  22.941  21.815  1.00  0.00     0.009 C 
ENDBRANCH  21  26
ENDBRANCH  19  20
ENDBRANCH   7  19
BRANCH  17  28
ATOM     28  C   UNL A   1      32.051  30.469  25.692  1.00  0.00     0.079 C 
ATOM     29  C   UNL A   1      31.365  31.613  26.379  1.00  0.00     0.014 C 
ATOM     30  C   UNL A   1      32.189  30.639  27.183  1.00  0.00     0.014 C 
ENDBRANCH  17  28
ENDBRANCH   3   6
ENDBRANCH   1   2
BRANCH   1  31
ATOM     31  C   UNL A   1      37.522  19.933  25.024  1.00  0.00     0.042 C 
BRANCH  31  32
ATOM     32  C   UNL A   1      38.760  20.451  25.728  1.00  0.00     0.118 C 
BRANCH  32  33
ATOM     33  N   UNL A   1      39.842  19.467  25.778  1.00  0.00    -0.352 N 
ATOM     34  C   UNL A   1      41.173  19.618  26.101  1.00  0.00     0.251 C 
ATOM     35  H   UNL A   1      39.575  18.549  25.543  1.00  0.00     0.163 HD
ATOM     36  O   UNL A   1      41.946  18.686  25.942  1.00  0.00    -0.269 OA
BRANCH  34  37
ATOM     37  C   UNL A   1      41.670  20.921  26.600  1.00  0.00     0.039 A 
ATOM     38  C   UNL A   1      42.169  21.855  25.688  1.00  0.00     0.014 A 
ATOM     39  C   UNL A   1      41.624  21.232  27.959  1.00  0.00     0.014 A 
ATOM     40  C   UNL A   1      42.534  23.128  26.132  1.00  0.00     0.010 A 
ATOM     41  C   UNL A   1      41.861  22.533  28.377  1.00  0.00     0.010 A 
ATOM     42  C   UNL A   1      42.334  23.492  27.473  1.00  0.00    -0.014 A 
BRANCH  42  43
ATOM     43  C   UNL A   1      42.623  24.860  27.964  1.00  0.00     0.031 A 
ATOM     44  C   UNL A   1      44.023  25.230  28.376  1.00  0.00     0.074 A 
ATOM     45  C   UNL A   1      41.613  25.736  28.131  1.00  0.00     0.049 A 
ATOM     46  N   UNL A   1      44.463  26.338  28.913  1.00  0.00    -0.248 NA
ATOM     47  C   UNL A   1      45.058  24.198  28.201  1.00  0.00     0.031 C 
ATOM     48  C   UNL A   1      40.203  25.469  27.841  1.00  0.00     0.029 A 
ATOM     49  N   UNL A   1      41.616  27.024  28.601  1.00  0.00    -0.354 N 
ATOM     50  C   UNL A   1      45.812  26.124  29.164  1.00  0.00     0.074 A 
ATOM     51  C   UNL A   1      46.102  24.758  28.788  1.00  0.00     0.031 C 
ATOM     52  C   UNL A   1      39.483  26.568  28.111  1.00  0.00     0.029 A 
ATOM     53  C   UNL A   1      40.370  27.601  28.632  1.00  0.00     0.049 A 
ATOM     54  H   UNL A   1      42.435  27.492  28.888  1.00  0.00     0.167 HD
ATOM     55  C   UNL A   1      46.734  26.995  29.638  1.00  0.00     0.037 A 
ATOM     56  C   UNL A   1      39.986  28.824  29.042  1.00  0.00     0.037 A 
ATOM     57  C   UNL A   1      46.441  28.360  29.980  1.00  0.00     0.049 A 
ATOM     58  C   UNL A   1      41.027  29.785  29.543  1.00  0.00     0.074 A 
ATOM     59  C   UNL A   1      47.312  29.355  30.387  1.00  0.00     0.029 A 
ATOM     60  N   UNL A   1      45.171  28.922  29.963  1.00  0.00    -0.354 N 
ATOM     61  N   UNL A   1      42.317  29.601  29.689  1.00  0.00    -0.248 NA
ATOM     62  C   UNL A   1      40.561  31.124  29.927  1.00  0.00     0.031 C 
ATOM     63  C   UNL A   1      46.562  30.502  30.669  1.00  0.00     0.029 A 
ATOM     64  C   UNL A   1      45.231  30.241  30.383  1.00  0.00     0.049 A 
ATOM     65  H   UNL A   1      44.350  28.452  29.693  1.00  0.00     0.167 HD
ATOM     66  C   UNL A   1      42.823  30.807  30.162  1.00  0.00     0.074 A 
ATOM     67  C   UNL A   1      41.699  31.718  30.261  1.00  0.00     0.031 C 
ATOM     68  C   UNL A   1      44.100  31.130  30.482  1.00  0.00     0.037 A 
BRANCH  55  69
ATOM     69  C   UNL A   1      48.137  26.485  29.817  1.00  0.00     0.057 A 
ATOM     70  C   UNL A   1      48.577  25.918  31.022  1.00  0.00     0.134 A 
ATOM     71  C   UNL A   1      49.065  26.569  28.771  1.00  0.00     0.134 A 
ATOM     72  F   UNL A   1      47.746  25.818  32.070  1.00  0.00    -0.206 F 
ATOM     73  C   UNL A   1      49.898  25.497  31.195  1.00  0.00     0.040 A 
ATOM     74  C   UNL A   1      50.378  26.119  28.921  1.00  0.00     0.040 A 
ATOM     75  F   UNL A   1      48.713  27.094  27.587  1.00  0.00    -0.206 F 
ATOM     76  C   UNL A   1      50.801  25.594  30.139  1.00  0.00     0.006 A 
ENDBRANCH  55  69
BRANCH  56  77
ATOM     77  C   UNL A   1      38.555  29.209  28.960  1.00  0.00     0.057 A 
ATOM     78  C   UNL A   1      37.730  29.174  30.090  1.00  0.00     0.134 A 
ATOM     79  C   UNL A   1      37.986  29.659  27.762  1.00  0.00     0.134 A 
ATOM     80  F   UNL A   1      38.213  28.741  31.264  1.00  0.00    -0.206 F 
ATOM     81  C   UNL A   1      36.391  29.564  30.032  1.00  0.00     0.040 A 
ATOM     82  C   UNL A   1      36.655  30.074  27.694  1.00  0.00     0.040 A 
ATOM     83  F   UNL A   1      38.728  29.728  26.645  1.00  0.00    -0.206 F 
ATOM     84  C   UNL A   1      35.853  30.024  28.831  1.00  0.00     0.006 A 
ENDBRANCH  56  77
BRANCH  68  85
ATOM     85  C   UNL A   1      44.356  32.533  30.948  1.00  0.00     0.057 A 
ATOM     86  C   UNL A   1      44.617  33.576  30.050  1.00  0.00     0.134 A 
ATOM     87  C   UNL A   1      44.295  32.852  32.310  1.00  0.00     0.134 A 
ATOM     88  F   UNL A   1      44.701  33.335  28.733  1.00  0.00    -0.206 F 
ATOM     89  C   UNL A   1      44.833  34.882  30.494  1.00  0.00     0.040 A 
ATOM     90  C   UNL A   1      44.479  34.159  32.763  1.00  0.00     0.040 A 
ATOM     91  F   UNL A   1      44.039  31.902  33.223  1.00  0.00    -0.206 F 
ATOM     92  C   UNL A   1      44.755  35.177  31.854  1.00  0.00     0.006 A 
ENDBRANCH  68  85
ENDBRANCH  42  43
ENDBRANCH  34  37
ENDBRANCH  32  33
ENDBRANCH  31  32
ENDBRANCH   1  31
TORSDOF 14
ENDMDL
MODEL 3
REMARK VINA RESULT:     -12.6      1.524      6.003
REMARK SMILES CCc1ccccc1C[N@@H+]1CC2(CCN(C(=O)C3CC3)CC2)C[C@H]1C(=O)NCCCNC(=O)c1ccc(-c2c3nc(c(-c4c(F)cccc4F)c4ccc([nH]4)c(-c4c(F)cccc4F)c4nc(c(-c5c(F)cccc5F)c5ccc2[nH]5)C=C4)C=C3)cc1
REMARK SMILES IDX 28 1 27 2 25 3 26 4 24 6 10 7 11 8 12 10 23 11 13 12 22 13
REMARK SMILES IDX 14 14 21 15 15 16 16 17 17 18 9 19 8 20 3 21 4 22 5 23 7 24
REMARK SMILES IDX 6 25 2 26 1 27 18 28 19 29 20 30 29 31 30 32 31 33 32 34
REMARK SMILES IDX 33 36 34 37 35 38 87 39 36 40 86 41 37 42 38 43 39 44 80 45
REMARK SMILES IDX 40 46 85 47 79 48 81 49 41 50 84 51 78 52 77 53 42 55 68 56
REMARK SMILES IDX 51 57 67 58 52 59 55 60 66 61 82 62 53 63 54 64 65 66 83 67
REMARK SMILES IDX 56 68 43 69 44 70 49 71 45 72 46 73 48 74 50 75 47 76 69 77
REMARK SMILES IDX 70 78 75 79 71 80 72 81 74 82 76 83 73 84 57 85 58 86 63 87
REMARK SMILES IDX 59 88 60 89 62 90 64 91 61 92
REMARK H PARENT 27 5 10 9 31 35 81 54 55 65
REMARK Flexibility Score: inf
ROOT
ATOM      1  C   UNL A   1      31.947  30.153  26.068  1.00  0.00     0.118 C 
ENDROOT
BRANCH   1   2
ATOM      2  N   UNL A   1      33.035  29.981  25.151  1.00  0.00    -0.351 N 
ATOM      3  C   UNL A   1      33.284  28.935  24.308  1.00  0.00     0.278 C 
ATOM      4  O   UNL A   1      34.200  29.111  23.494  1.00  0.00    -0.268 OA
ATOM      5  H   UNL A   1      33.691  30.715  25.126  1.00  0.00     0.163 HD
BRANCH   3   6
ATOM      6  C   UNL A   1      32.511  27.572  24.327  1.00  0.00     0.275 C 
ATOM      7  N   UNL A   1      32.604  26.893  23.027  1.00  0.00    -0.320 N 
ATOM      8  C   UNL A   1      33.385  25.668  23.200  1.00  0.00     0.270 C 
ATOM      9  H   UNL A   1      33.117  27.479  22.368  1.00  0.00     0.349 HD
ATOM     10  C   UNL A   1      33.412  25.285  24.706  1.00  0.00     0.029 C 
ATOM     11  C   UNL A   1      32.845  26.540  25.410  1.00  0.00     0.088 C 
ATOM     12  C   UNL A   1      34.787  24.889  25.310  1.00  0.00     0.034 C 
ATOM     13  C   UNL A   1      32.580  24.011  24.970  1.00  0.00     0.034 C 
ATOM     14  C   UNL A   1      35.423  23.729  24.566  1.00  0.00     0.120 C 
ATOM     15  C   UNL A   1      33.167  22.790  24.239  1.00  0.00     0.120 C 
ATOM     16  N   UNL A   1      34.569  22.554  24.609  1.00  0.00    -0.342 N 
ATOM     17  C   UNL A   1      34.966  21.229  24.804  1.00  0.00     0.225 C 
ATOM     18  O   UNL A   1      34.177  20.306  24.599  1.00  0.00    -0.275 OA
BRANCH   7  19
ATOM     19  C   UNL A   1      31.322  26.787  22.284  1.00  0.00     0.299 C 
BRANCH  19  20
ATOM     20  C   UNL A   1      30.229  27.798  22.621  1.00  0.00     0.009 A 
ATOM     21  C   UNL A   1      28.989  27.451  23.213  1.00  0.00    -0.039 A 
ATOM     22  C   UNL A   1      27.937  28.387  23.155  1.00  0.00     0.004 A 
ATOM     23  C   UNL A   1      28.142  29.684  22.689  1.00  0.00     0.000 A 
ATOM     24  C   UNL A   1      30.451  29.152  22.288  1.00  0.00     0.010 A 
ATOM     25  C   UNL A   1      29.417  30.089  22.321  1.00  0.00     0.001 A 
BRANCH  21  26
ATOM     26  C   UNL A   1      28.829  26.157  23.993  1.00  0.00     0.032 C 
ATOM     27  C   UNL A   1      29.504  26.091  25.363  1.00  0.00     0.009 C 
ENDBRANCH  21  26
ENDBRANCH  19  20
ENDBRANCH   7  19
BRANCH  17  28
ATOM     28  C   UNL A   1      36.308  20.813  25.319  1.00  0.00     0.079 C 
ATOM     29  C   UNL A   1      37.203  19.688  24.887  1.00  0.00     0.014 C 
ATOM     30  C   UNL A   1      37.582  21.112  24.570  1.00  0.00     0.014 C 
ENDBRANCH  17  28
ENDBRANCH   3   6
ENDBRANCH   1   2
BRANCH   1  31
ATOM     31  C   UNL A   1      31.652  31.581  26.486  1.00  0.00     0.042 C 
BRANCH  31  32
ATOM     32  C   UNL A   1      32.828  32.243  27.176  1.00  0.00     0.118 C 
BRANCH  32  33
ATOM     33  N   UNL A   1      32.572  33.641  27.525  1.00  0.00    -0.352 N 
ATOM     34  C   UNL A   1      33.180  34.455  28.456  1.00  0.00     0.251 C 
ATOM     35  H   UNL A   1      31.849  34.068  27.011  1.00  0.00     0.163 HD
ATOM     36  O   UNL A   1      32.716  35.560  28.690  1.00  0.00    -0.269 OA
BRANCH  34  37
ATOM     37  C   UNL A   1      34.367  33.972  29.198  1.00  0.00     0.039 A 
ATOM     38  C   UNL A   1      34.187  33.126  30.296  1.00  0.00     0.014 A 
ATOM     39  C   UNL A   1      35.655  34.332  28.801  1.00  0.00     0.014 A 
ATOM     40  C   UNL A   1      35.301  32.575  30.933  1.00  0.00     0.010 A 
ATOM     41  C   UNL A   1      36.751  33.683  29.348  1.00  0.00     0.010 A 
ATOM     42  C   UNL A   1      36.590  32.809  30.430  1.00  0.00    -0.014 A 
BRANCH  42  43
ATOM     43  C   UNL A   1      37.790  32.170  31.022  1.00  0.00     0.031 A 
ATOM     44  C   UNL A   1      38.463  31.031  30.307  1.00  0.00     0.074 A 
ATOM     45  C   UNL A   1      38.212  32.549  32.244  1.00  0.00     0.049 A 
ATOM     46  N   UNL A   1      39.463  30.283  30.696  1.00  0.00    -0.248 NA
ATOM     47  C   UNL A   1      37.909  30.652  28.996  1.00  0.00     0.031 C 
ATOM     48  C   UNL A   1      37.595  33.589  33.069  1.00  0.00     0.029 A 
ATOM     49  N   UNL A   1      39.253  32.091  33.010  1.00  0.00    -0.354 N 
ATOM     50  C   UNL A   1      39.636  29.334  29.696  1.00  0.00     0.074 A 
ATOM     51  C   UNL A   1      38.593  29.555  28.719  1.00  0.00     0.031 C 
ATOM     52  C   UNL A   1      38.286  33.710  34.213  1.00  0.00     0.029 A 
ATOM     53  C   UNL A   1      39.366  32.730  34.221  1.00  0.00     0.049 A 
ATOM     54  H   UNL A   1      39.862  31.374  32.720  1.00  0.00     0.167 HD
ATOM     55  C   UNL A   1      40.593  28.383  29.587  1.00  0.00     0.037 A 
ATOM     56  C   UNL A   1      40.239  32.542  35.228  1.00  0.00     0.037 A 
ATOM     57  C   UNL A   1      41.643  28.193  30.551  1.00  0.00     0.049 A 
ATOM     58  C   UNL A   1      41.309  31.497  35.078  1.00  0.00     0.074 A 
ATOM     59  C   UNL A   1      42.714  27.319  30.499  1.00  0.00     0.029 A 
ATOM     60  N   UNL A   1      41.748  28.885  31.749  1.00  0.00    -0.354 N 
ATOM     61  N   UNL A   1      41.518  30.667  34.085  1.00  0.00    -0.248 NA
ATOM     62  C   UNL A   1      42.268  31.369  36.184  1.00  0.00     0.031 C 
ATOM     63  C   UNL A   1      43.435  27.444  31.691  1.00  0.00     0.029 A 
ATOM     64  C   UNL A   1      42.848  28.436  32.461  1.00  0.00     0.049 A 
ATOM     65  H   UNL A   1      41.130  29.591  32.049  1.00  0.00     0.167 HD
ATOM     66  C   UNL A   1      42.645  29.932  34.434  1.00  0.00     0.074 A 
ATOM     67  C   UNL A   1      43.082  30.429  35.724  1.00  0.00     0.031 C 
ATOM     68  C   UNL A   1      43.262  28.939  33.747  1.00  0.00     0.037 A 
BRANCH  55  69
ATOM     69  C   UNL A   1      40.534  27.480  28.387  1.00  0.00     0.057 A 
ATOM     70  C   UNL A   1      39.793  26.289  28.385  1.00  0.00     0.134 A 
ATOM     71  C   UNL A   1      41.234  27.801  27.217  1.00  0.00     0.134 A 
ATOM     72  F   UNL A   1      39.109  25.912  29.475  1.00  0.00    -0.206 F 
ATOM     73  C   UNL A   1      39.789  25.430  27.283  1.00  0.00     0.040 A 
ATOM     74  C   UNL A   1      41.209  26.968  26.097  1.00  0.00     0.040 A 
ATOM     75  F   UNL A   1      41.960  28.928  27.144  1.00  0.00    -0.206 F 
ATOM     76  C   UNL A   1      40.496  25.773  26.133  1.00  0.00     0.006 A 
ENDBRANCH  55  69
BRANCH  56  77
ATOM     77  C   UNL A   1      40.149  33.387  36.445  1.00  0.00     0.057 A 
ATOM     78  C   UNL A   1      40.909  34.555  36.571  1.00  0.00     0.134 A 
ATOM     79  C   UNL A   1      39.274  33.072  37.491  1.00  0.00     0.134 A 
ATOM     80  F   UNL A   1      41.775  34.904  35.608  1.00  0.00    -0.206 F 
ATOM     81  C   UNL A   1      40.810  35.375  37.697  1.00  0.00     0.040 A 
ATOM     82  C   UNL A   1      39.146  33.894  38.612  1.00  0.00     0.040 A 
ATOM     83  F   UNL A   1      38.508  31.972  37.425  1.00  0.00    -0.206 F 
ATOM     84  C   UNL A   1      39.919  35.049  38.718  1.00  0.00     0.006 A 
ENDBRANCH  56  77
BRANCH  68  85
ATOM     85  C   UNL A   1      44.490  28.338  34.368  1.00  0.00     0.057 A 
ATOM     86  C   UNL A   1      44.428  27.197  35.178  1.00  0.00     0.134 A 
ATOM     87  C   UNL A   1      45.755  28.882  34.113  1.00  0.00     0.134 A 
ATOM     88  F   UNL A   1      43.246  26.634  35.471  1.00  0.00    -0.206 F 
ATOM     89  C   UNL A   1      45.579  26.634  35.732  1.00  0.00     0.040 A 
ATOM     90  C   UNL A   1      46.915  28.311  34.637  1.00  0.00     0.040 A 
ATOM     91  F   UNL A   1      45.886  29.969  33.336  1.00  0.00    -0.206 F 
ATOM     92  C   UNL A   1      46.828  27.187  35.454  1.00  0.00     0.006 A 
ENDBRANCH  68  85
ENDBRANCH  42  43
ENDBRANCH  34  37
ENDBRANCH  32  33
ENDBRANCH  31  32
ENDBRANCH   1  31
TORSDOF 14
ENDMDL
