MODEL 1
REMARK VINA RESULT:     -11.6      0.000      0.000
REMARK SMILES C[C@H]1[C@@H](C(=O)NCCCNC(=O)c2ccc(-c3c4nc(c(-c5c(F)cccc5F)c5ccc([nH]5)c(-c5c(F)cccc5F)c5nc(c(-c6c(F)cccc6F)c6ccc3[nH]6)C=C5)C=C4)cc2)CC[N@@H+]1Cc1cc(F)c(F)c(F)c1
REMARK SMILES IDX 8 1 7 2 6 3 4 4 5 5 3 7 1 8 2 9 69 10 67 11 68 12 70 14
REMARK SMILES IDX 71 15 72 16 79 17 73 18 77 19 74 20 75 21 78 22 76 23 9 24
REMARK SMILES IDX 10 25 11 26 12 28 13 29 14 30 66 31 15 32 65 33 16 34 17 35
REMARK SMILES IDX 18 36 59 37 19 38 64 39 58 40 60 41 20 42 63 43 57 44 56 45
REMARK SMILES IDX 21 47 47 48 30 49 46 50 31 51 34 52 45 53 61 54 32 55 33 56
REMARK SMILES IDX 44 58 62 59 35 60 22 61 23 62 28 63 24 64 25 65 27 66 29 67
REMARK SMILES IDX 26 68 48 69 49 70 54 71 50 72 51 73 53 74 55 75 52 76 36 77
REMARK SMILES IDX 37 78 42 79 38 80 39 81 41 82 43 83 40 84
REMARK H PARENT 6 6 69 13 10 27 60 46 34 57
REMARK Flexibility Score: inf
ROOT
ATOM      1  C   UNL A   1      38.185  19.510  24.997  1.00  0.00     0.042 C 
ENDROOT
BRANCH   1   2
ATOM      2  C   UNL A   1      37.247  20.659  24.617  1.00  0.00     0.117 C 
BRANCH   2   3
ATOM      3  N   UNL A   1      35.907  20.366  25.085  1.00  0.00    -0.356 N 
ATOM      4  C   UNL A   1      34.790  21.141  25.113  1.00  0.00     0.229 C 
ATOM      5  O   UNL A   1      33.932  20.815  25.938  1.00  0.00    -0.275 OA
ATOM      6  H   UNL A   1      35.786  19.457  25.442  1.00  0.00     0.163 HD
BRANCH   4   7
ATOM      7  C   UNL A   1      34.556  22.235  24.068  1.00  0.00     0.142 C 
ATOM      8  C   UNL A   1      35.859  24.053  25.477  1.00  0.00     0.076 C 
ATOM      9  C   UNL A   1      34.896  23.715  24.357  1.00  0.00     0.193 C 
ATOM     10  N   UNL A   1      33.630  24.404  24.659  1.00  0.00    -0.328 N 
ATOM     11  C   UNL A   1      33.047  22.308  23.773  1.00  0.00     0.081 C 
ATOM     12  C   UNL A   1      32.569  23.407  24.702  1.00  0.00     0.263 C 
ATOM     13  H   UNL A   1      33.698  24.826  25.586  1.00  0.00     0.348 HD
BRANCH  10  14
ATOM     14  C   UNL A   1      33.364  25.629  23.903  1.00  0.00     0.299 C 
BRANCH  14  15
ATOM     15  C   UNL A   1      32.942  26.849  24.697  1.00  0.00     0.012 A 
ATOM     16  C   UNL A   1      31.911  27.685  24.237  1.00  0.00     0.052 A 
ATOM     17  C   UNL A   1      33.572  27.171  25.910  1.00  0.00     0.052 A 
ATOM     18  C   UNL A   1      31.508  28.787  24.992  1.00  0.00     0.162 A 
ATOM     19  C   UNL A   1      33.145  28.265  26.660  1.00  0.00     0.162 A 
ATOM     20  F   UNL A   1      30.520  29.567  24.533  1.00  0.00    -0.204 F 
ATOM     21  C   UNL A   1      32.114  29.073  26.207  1.00  0.00     0.194 A 
ATOM     22  F   UNL A   1      33.737  28.519  27.834  1.00  0.00    -0.204 F 
ATOM     23  F   UNL A   1      31.707  30.122  26.936  1.00  0.00    -0.200 F 
ENDBRANCH  14  15
ENDBRANCH  10  14
ENDBRANCH   4   7
ENDBRANCH   2   3
ENDBRANCH   1   2
BRANCH   1  24
ATOM     24  C   UNL A   1      39.179  19.855  26.099  1.00  0.00     0.118 C 
BRANCH  24  25
ATOM     25  N   UNL A   1      40.405  19.091  25.982  1.00  0.00    -0.352 N 
ATOM     26  C   UNL A   1      41.709  19.513  26.022  1.00  0.00     0.251 C 
ATOM     27  H   UNL A   1      40.283  18.123  25.855  1.00  0.00     0.163 HD
ATOM     28  O   UNL A   1      42.595  18.734  25.658  1.00  0.00    -0.269 OA
BRANCH  26  29
ATOM     29  C   UNL A   1      42.080  20.875  26.477  1.00  0.00     0.039 A 
ATOM     30  C   UNL A   1      42.183  21.112  27.852  1.00  0.00     0.014 A 
ATOM     31  C   UNL A   1      42.251  21.939  25.586  1.00  0.00     0.014 A 
ATOM     32  C   UNL A   1      42.480  22.393  28.327  1.00  0.00     0.010 A 
ATOM     33  C   UNL A   1      42.635  23.198  26.056  1.00  0.00     0.010 A 
ATOM     34  C   UNL A   1      42.725  23.446  27.432  1.00  0.00    -0.014 A 
BRANCH  34  35
ATOM     35  C   UNL A   1      43.025  24.816  27.928  1.00  0.00     0.031 A 
ATOM     36  C   UNL A   1      44.451  25.256  28.135  1.00  0.00     0.074 A 
ATOM     37  C   UNL A   1      42.017  25.663  28.220  1.00  0.00     0.049 A 
ATOM     38  N   UNL A   1      44.910  26.400  28.580  1.00  0.00    -0.248 NA
ATOM     39  C   UNL A   1      45.501  24.273  27.824  1.00  0.00     0.031 C 
ATOM     40  C   UNL A   1      40.592  25.349  28.115  1.00  0.00     0.029 A 
ATOM     41  N   UNL A   1      42.041  26.960  28.667  1.00  0.00    -0.354 N 
ATOM     42  C   UNL A   1      46.293  26.265  28.620  1.00  0.00     0.074 A 
ATOM     43  C   UNL A   1      46.596  24.913  28.205  1.00  0.00     0.031 C 
ATOM     44  C   UNL A   1      39.878  26.432  28.462  1.00  0.00     0.029 A 
ATOM     45  C   UNL A   1      40.793  27.506  28.839  1.00  0.00     0.049 A 
ATOM     46  H   UNL A   1      42.873  27.454  28.847  1.00  0.00     0.167 HD
ATOM     47  C   UNL A   1      47.230  27.189  28.945  1.00  0.00     0.037 A 
ATOM     48  C   UNL A   1      40.424  28.733  29.252  1.00  0.00     0.037 A 
ATOM     49  C   UNL A   1      46.935  28.545  29.324  1.00  0.00     0.049 A 
ATOM     50  C   UNL A   1      41.480  29.750  29.581  1.00  0.00     0.074 A 
ATOM     51  C   UNL A   1      47.816  29.571  29.618  1.00  0.00     0.029 A 
ATOM     52  N   UNL A   1      45.657  29.066  29.459  1.00  0.00    -0.354 N 
ATOM     53  N   UNL A   1      42.784  29.625  29.554  1.00  0.00    -0.248 NA
ATOM     54  C   UNL A   1      41.012  31.084  29.984  1.00  0.00     0.031 C 
ATOM     55  C   UNL A   1      47.072  30.705  29.960  1.00  0.00     0.029 A 
ATOM     56  C   UNL A   1      45.726  30.394  29.843  1.00  0.00     0.049 A 
ATOM     57  H   UNL A   1      44.823  28.564  29.305  1.00  0.00     0.167 HD
ATOM     58  C   UNL A   1      43.294  30.865  29.920  1.00  0.00     0.074 A 
ATOM     59  C   UNL A   1      42.157  31.734  30.143  1.00  0.00     0.031 C 
ATOM     60  C   UNL A   1      44.586  31.246  30.062  1.00  0.00     0.037 A 
BRANCH  47  61
ATOM     61  C   UNL A   1      48.667  26.760  28.890  1.00  0.00     0.057 A 
ATOM     62  C   UNL A   1      49.309  26.188  29.996  1.00  0.00     0.134 A 
ATOM     63  C   UNL A   1      49.413  26.898  27.713  1.00  0.00     0.134 A 
ATOM     64  F   UNL A   1      48.656  26.041  31.159  1.00  0.00    -0.206 F 
ATOM     65  C   UNL A   1      50.648  25.797  29.944  1.00  0.00     0.040 A 
ATOM     66  C   UNL A   1      50.746  26.486  27.639  1.00  0.00     0.040 A 
ATOM     67  F   UNL A   1      48.858  27.431  26.612  1.00  0.00    -0.206 F 
ATOM     68  C   UNL A   1      51.368  25.941  28.760  1.00  0.00     0.006 A 
ENDBRANCH  47  61
BRANCH  48  69
ATOM     69  C   UNL A   1      38.984  29.078  29.348  1.00  0.00     0.057 A 
ATOM     70  C   UNL A   1      38.274  29.533  28.231  1.00  0.00     0.134 A 
ATOM     71  C   UNL A   1      38.284  28.959  30.554  1.00  0.00     0.134 A 
ATOM     72  F   UNL A   1      38.897  29.685  27.053  1.00  0.00    -0.206 F 
ATOM     73  C   UNL A   1      36.923  29.871  28.311  1.00  0.00     0.040 A 
ATOM     74  C   UNL A   1      36.927  29.273  30.644  1.00  0.00     0.040 A 
ATOM     75  F   UNL A   1      38.907  28.522  31.658  1.00  0.00    -0.206 F 
ATOM     76  C   UNL A   1      36.244  29.736  29.521  1.00  0.00     0.006 A 
ENDBRANCH  48  69
BRANCH  60  77
ATOM     77  C   UNL A   1      44.837  32.671  30.458  1.00  0.00     0.057 A 
ATOM     78  C   UNL A   1      44.971  33.688  29.504  1.00  0.00     0.134 A 
ATOM     79  C   UNL A   1      44.920  33.034  31.808  1.00  0.00     0.134 A 
ATOM     80  F   UNL A   1      44.914  33.403  28.194  1.00  0.00    -0.206 F 
ATOM     81  C   UNL A   1      45.202  35.012  29.878  1.00  0.00     0.040 A 
ATOM     82  C   UNL A   1      45.127  34.358  32.196  1.00  0.00     0.040 A 
ATOM     83  F   UNL A   1      44.792  32.108  32.771  1.00  0.00    -0.206 F 
ATOM     84  C   UNL A   1      45.276  35.351  31.229  1.00  0.00     0.006 A 
ENDBRANCH  60  77
ENDBRANCH  34  35
ENDBRANCH  26  29
ENDBRANCH  24  25
ENDBRANCH   1  24
TORSDOF 12
ENDMDL
MODEL 2
REMARK VINA RESULT:     -11.6      0.325      1.884
REMARK SMILES C[C@H]1[C@@H](C(=O)NCCCNC(=O)c2ccc(-c3c4nc(c(-c5c(F)cccc5F)c5ccc([nH]5)c(-c5c(F)cccc5F)c5nc(c(-c6c(F)cccc6F)c6ccc3[nH]6)C=C5)C=C4)cc2)CC[N@@H+]1Cc1cc(F)c(F)c(F)c1
REMARK SMILES IDX 8 1 7 2 6 3 4 4 5 5 3 7 1 8 2 9 69 10 67 11 68 12 70 14
REMARK SMILES IDX 71 15 72 16 79 17 73 18 77 19 74 20 75 21 78 22 76 23 9 24
REMARK SMILES IDX 10 25 11 26 12 28 13 29 14 30 66 31 15 32 65 33 16 34 17 35
REMARK SMILES IDX 18 36 59 37 19 38 64 39 58 40 60 41 20 42 63 43 57 44 56 45
REMARK SMILES IDX 21 47 47 48 30 49 46 50 31 51 34 52 45 53 61 54 32 55 33 56
REMARK SMILES IDX 44 58 62 59 35 60 22 61 23 62 28 63 24 64 25 65 27 66 29 67
REMARK SMILES IDX 26 68 48 69 49 70 54 71 50 72 51 73 53 74 55 75 52 76 36 77
REMARK SMILES IDX 37 78 42 79 38 80 39 81 41 82 43 83 40 84
REMARK H PARENT 6 6 69 13 10 27 60 46 34 57
REMARK Flexibility Score: inf
ROOT
ATOM      1  C   UNL A   1      38.238  19.573  25.017  1.00  0.00     0.042 C 
ENDROOT
BRANCH   1   2
ATOM      2  C   UNL A   1      37.310  20.746  24.688  1.00  0.00     0.117 C 
BRANCH   2   3
ATOM      3  N   UNL A   1      35.941  20.381  24.991  1.00  0.00    -0.356 N 
ATOM      4  C   UNL A   1      34.797  21.114  24.941  1.00  0.00     0.229 C 
ATOM      5  O   UNL A   1      33.870  20.710  25.648  1.00  0.00    -0.275 OA
ATOM      6  H   UNL A   1      35.818  19.448  25.280  1.00  0.00     0.163 HD
BRANCH   4   7
ATOM      7  C   UNL A   1      34.632  22.262  23.941  1.00  0.00     0.142 C 
ATOM      8  C   UNL A   1      35.755  24.021  25.562  1.00  0.00     0.076 C 
ATOM      9  C   UNL A   1      34.908  23.728  24.341  1.00  0.00     0.193 C 
ATOM     10  N   UNL A   1      33.602  24.374  24.563  1.00  0.00    -0.328 N 
ATOM     11  C   UNL A   1      33.155  22.321  23.511  1.00  0.00     0.081 C 
ATOM     12  C   UNL A   1      32.567  23.356  24.452  1.00  0.00     0.263 C 
ATOM     13  H   UNL A   1      33.575  24.744  25.513  1.00  0.00     0.348 HD
BRANCH  10  14
ATOM     14  C   UNL A   1      33.376  25.635  23.854  1.00  0.00     0.299 C 
BRANCH  14  15
ATOM     15  C   UNL A   1      32.885  26.808  24.677  1.00  0.00     0.012 A 
ATOM     16  C   UNL A   1      33.457  27.100  25.927  1.00  0.00     0.052 A 
ATOM     17  C   UNL A   1      31.848  27.632  24.209  1.00  0.00     0.052 A 
ATOM     18  C   UNL A   1      33.020  28.203  26.661  1.00  0.00     0.162 A 
ATOM     19  C   UNL A   1      31.437  28.740  24.947  1.00  0.00     0.162 A 
ATOM     20  F   UNL A   1      33.584  28.462  27.849  1.00  0.00    -0.204 F 
ATOM     21  C   UNL A   1      32.020  29.030  26.170  1.00  0.00     0.194 A 
ATOM     22  F   UNL A   1      30.476  29.531  24.451  1.00  0.00    -0.204 F 
ATOM     23  F   UNL A   1      31.620  30.100  26.872  1.00  0.00    -0.200 F 
ENDBRANCH  14  15
ENDBRANCH  10  14
ENDBRANCH   4   7
ENDBRANCH   2   3
ENDBRANCH   1   2
BRANCH   1  24
ATOM     24  C   UNL A   1      39.238  19.861  26.129  1.00  0.00     0.118 C 
BRANCH  24  25
ATOM     25  N   UNL A   1      40.481  19.142  25.940  1.00  0.00    -0.352 N 
ATOM     26  C   UNL A   1      41.773  19.601  25.957  1.00  0.00     0.251 C 
ATOM     27  H   UNL A   1      40.385  18.176  25.775  1.00  0.00     0.163 HD
ATOM     28  O   UNL A   1      42.670  18.867  25.532  1.00  0.00    -0.269 OA
BRANCH  26  29
ATOM     29  C   UNL A   1      42.118  20.954  26.459  1.00  0.00     0.039 A 
ATOM     30  C   UNL A   1      42.151  21.161  27.843  1.00  0.00     0.014 A 
ATOM     31  C   UNL A   1      42.332  22.037  25.602  1.00  0.00     0.014 A 
ATOM     32  C   UNL A   1      42.422  22.432  28.359  1.00  0.00     0.010 A 
ATOM     33  C   UNL A   1      42.689  23.286  26.117  1.00  0.00     0.010 A 
ATOM     34  C   UNL A   1      42.710  23.505  27.500  1.00  0.00    -0.014 A 
BRANCH  34  35
ATOM     35  C   UNL A   1      42.982  24.864  28.040  1.00  0.00     0.031 A 
ATOM     36  C   UNL A   1      44.392  25.290  28.355  1.00  0.00     0.074 A 
ATOM     37  C   UNL A   1      41.961  25.713  28.274  1.00  0.00     0.049 A 
ATOM     38  N   UNL A   1      44.825  26.423  28.852  1.00  0.00    -0.248 NA
ATOM     39  C   UNL A   1      45.455  24.304  28.104  1.00  0.00     0.031 C 
ATOM     40  C   UNL A   1      40.545  25.411  28.063  1.00  0.00     0.029 A 
ATOM     41  N   UNL A   1      41.960  27.002  28.744  1.00  0.00    -0.354 N 
ATOM     42  C   UNL A   1      46.200  26.277  28.988  1.00  0.00     0.074 A 
ATOM     43  C   UNL A   1      46.524  24.930  28.572  1.00  0.00     0.031 C 
ATOM     44  C   UNL A   1      39.814  26.493  28.377  1.00  0.00     0.029 A 
ATOM     45  C   UNL A   1      40.706  27.554  28.837  1.00  0.00     0.049 A 
ATOM     46  H   UNL A   1      42.780  27.487  28.991  1.00  0.00     0.167 HD
ATOM     47  C   UNL A   1      47.117  27.189  29.394  1.00  0.00     0.037 A 
ATOM     48  C   UNL A   1      40.316  28.777  29.243  1.00  0.00     0.037 A 
ATOM     49  C   UNL A   1      46.804  28.541  29.775  1.00  0.00     0.049 A 
ATOM     50  C   UNL A   1      41.352  29.781  29.663  1.00  0.00     0.074 A 
ATOM     51  C   UNL A   1      47.668  29.555  30.149  1.00  0.00     0.029 A 
ATOM     52  N   UNL A   1      45.523  29.068  29.828  1.00  0.00    -0.354 N 
ATOM     53  N   UNL A   1      42.654  29.646  29.728  1.00  0.00    -0.248 NA
ATOM     54  C   UNL A   1      40.865  31.111  30.055  1.00  0.00     0.031 C 
ATOM     55  C   UNL A   1      46.908  30.689  30.456  1.00  0.00     0.029 A 
ATOM     56  C   UNL A   1      45.572  30.390  30.238  1.00  0.00     0.049 A 
ATOM     57  H   UNL A   1      44.699  28.576  29.607  1.00  0.00     0.167 HD
ATOM     58  C   UNL A   1      43.144  30.876  30.151  1.00  0.00     0.074 A 
ATOM     59  C   UNL A   1      41.999  31.750  30.307  1.00  0.00     0.031 C 
ATOM     60  C   UNL A   1      44.425  31.246  30.390  1.00  0.00     0.037 A 
BRANCH  47  61
ATOM     61  C   UNL A   1      48.552  26.751  29.435  1.00  0.00     0.057 A 
ATOM     62  C   UNL A   1      49.411  26.936  28.343  1.00  0.00     0.134 A 
ATOM     63  C   UNL A   1      49.089  26.157  30.583  1.00  0.00     0.134 A 
ATOM     64  F   UNL A   1      48.956  27.486  27.207  1.00  0.00    -0.206 F 
ATOM     65  C   UNL A   1      50.743  26.521  28.381  1.00  0.00     0.040 A 
ATOM     66  C   UNL A   1      50.428  25.761  30.644  1.00  0.00     0.040 A 
ATOM     67  F   UNL A   1      48.325  25.956  31.668  1.00  0.00    -0.206 F 
ATOM     68  C   UNL A   1      51.256  25.936  29.537  1.00  0.00     0.006 A 
ENDBRANCH  47  61
BRANCH  48  69
ATOM     69  C   UNL A   1      38.875  29.131  29.242  1.00  0.00     0.057 A 
ATOM     70  C   UNL A   1      38.105  29.024  30.406  1.00  0.00     0.134 A 
ATOM     71  C   UNL A   1      38.236  29.587  28.085  1.00  0.00     0.134 A 
ATOM     72  F   UNL A   1      38.658  28.574  31.542  1.00  0.00    -0.206 F 
ATOM     73  C   UNL A   1      36.747  29.344  30.416  1.00  0.00     0.040 A 
ATOM     74  C   UNL A   1      36.883  29.931  28.084  1.00  0.00     0.040 A 
ATOM     75  F   UNL A   1      38.922  29.718  26.940  1.00  0.00    -0.206 F 
ATOM     76  C   UNL A   1      36.133  29.805  29.253  1.00  0.00     0.006 A 
ENDBRANCH  48  69
BRANCH  60  77
ATOM     77  C   UNL A   1      44.655  32.662  30.827  1.00  0.00     0.057 A 
ATOM     78  C   UNL A   1      44.700  33.017  32.182  1.00  0.00     0.134 A 
ATOM     79  C   UNL A   1      44.859  33.677  29.884  1.00  0.00     0.134 A 
ATOM     80  F   UNL A   1      44.498  32.093  33.134  1.00  0.00    -0.206 F 
ATOM     81  C   UNL A   1      44.915  34.336  32.582  1.00  0.00     0.040 A 
ATOM     82  C   UNL A   1      45.099  34.996  30.272  1.00  0.00     0.040 A 
ATOM     83  F   UNL A   1      44.836  33.402  28.572  1.00  0.00    -0.206 F 
ATOM     84  C   UNL A   1      45.121  35.329  31.626  1.00  0.00     0.006 A 
ENDBRANCH  60  77
ENDBRANCH  34  35
ENDBRANCH  26  29
ENDBRANCH  24  25
ENDBRANCH   1  24
TORSDOF 12
ENDMDL
MODEL 3
REMARK VINA RESULT:     -11.6      3.798      8.448
REMARK SMILES C[C@H]1[C@@H](C(=O)NCCCNC(=O)c2ccc(-c3c4nc(c(-c5c(F)cccc5F)c5ccc([nH]5)c(-c5c(F)cccc5F)c5nc(c(-c6c(F)cccc6F)c6ccc3[nH]6)C=C5)C=C4)cc2)CC[N@@H+]1Cc1cc(F)c(F)c(F)c1
REMARK SMILES IDX 8 1 7 2 6 3 4 4 5 5 3 7 1 8 2 9 69 10 67 11 68 12 70 14
REMARK SMILES IDX 71 15 72 16 79 17 73 18 77 19 74 20 75 21 78 22 76 23 9 24
REMARK SMILES IDX 10 25 11 26 12 28 13 29 14 30 66 31 15 32 65 33 16 34 17 35
REMARK SMILES IDX 18 36 59 37 19 38 64 39 58 40 60 41 20 42 63 43 57 44 56 45
REMARK SMILES IDX 21 47 47 48 30 49 46 50 31 51 34 52 45 53 61 54 32 55 33 56
REMARK SMILES IDX 44 58 62 59 35 60 22 61 23 62 28 63 24 64 25 65 27 66 29 67
REMARK SMILES IDX 26 68 48 69 49 70 54 71 50 72 51 73 53 74 55 75 52 76 36 77
REMARK SMILES IDX 37 78 42 79 38 80 39 81 41 82 43 83 40 84
REMARK H PARENT 6 6 69 13 10 27 60 46 34 57
REMARK Flexibility Score: inf
ROOT
ATOM      1  C   UNL A   1      32.904  28.468  27.222  1.00  0.00     0.042 C 
ENDROOT
BRANCH   1   2
ATOM      2  C   UNL A   1      31.789  27.913  26.331  1.00  0.00     0.117 C 
BRANCH   2   3
ATOM      3  N   UNL A   1      31.395  26.602  26.806  1.00  0.00    -0.356 N 
ATOM      4  C   UNL A   1      31.858  25.366  26.479  1.00  0.00     0.229 C 
ATOM      5  O   UNL A   1      31.081  24.431  26.685  1.00  0.00    -0.275 OA
ATOM      6  H   UNL A   1      30.673  26.607  27.475  1.00  0.00     0.163 HD
BRANCH   4   7
ATOM      7  C   UNL A   1      33.311  25.151  26.046  1.00  0.00     0.142 C 
ATOM      8  C   UNL A   1      32.817  25.860  23.548  1.00  0.00     0.076 C 
ATOM      9  C   UNL A   1      33.724  25.187  24.557  1.00  0.00     0.193 C 
ATOM     10  N   UNL A   1      33.892  23.791  24.116  1.00  0.00    -0.328 N 
ATOM     11  C   UNL A   1      33.734  23.731  26.460  1.00  0.00     0.081 C 
ATOM     12  C   UNL A   1      33.476  22.917  25.205  1.00  0.00     0.263 C 
ATOM     13  H   UNL A   1      33.271  23.619  23.325  1.00  0.00     0.348 HD
BRANCH  10  14
ATOM     14  C   UNL A   1      35.155  23.471  23.449  1.00  0.00     0.299 C 
BRANCH  14  15
ATOM     15  C   UNL A   1      36.272  22.926  24.316  1.00  0.00     0.012 A 
ATOM     16  C   UNL A   1      36.597  21.559  24.296  1.00  0.00     0.052 A 
ATOM     17  C   UNL A   1      37.008  23.775  25.158  1.00  0.00     0.052 A 
ATOM     18  C   UNL A   1      37.649  21.075  25.073  1.00  0.00     0.162 A 
ATOM     19  C   UNL A   1      38.068  23.277  25.913  1.00  0.00     0.162 A 
ATOM     20  F   UNL A   1      37.941  19.767  25.034  1.00  0.00    -0.204 F 
ATOM     21  C   UNL A   1      38.393  21.931  25.873  1.00  0.00     0.194 A 
ATOM     22  F   UNL A   1      38.779  24.122  26.672  1.00  0.00    -0.204 F 
ATOM     23  F   UNL A   1      39.415  21.460  26.600  1.00  0.00    -0.200 F 
ENDBRANCH  14  15
ENDBRANCH  10  14
ENDBRANCH   4   7
ENDBRANCH   2   3
ENDBRANCH   1   2
BRANCH   1  24
ATOM     24  C   UNL A   1      33.888  29.377  26.497  1.00  0.00     0.118 C 
BRANCH  24  25
ATOM     25  N   UNL A   1      33.784  30.752  26.942  1.00  0.00    -0.352 N 
ATOM     26  C   UNL A   1      34.513  31.426  27.887  1.00  0.00     0.251 C 
ATOM     27  H   UNL A   1      33.084  31.284  26.498  1.00  0.00     0.163 HD
ATOM     28  O   UNL A   1      34.101  32.520  28.286  1.00  0.00    -0.269 OA
BRANCH  26  29
ATOM     29  C   UNL A   1      35.770  30.875  28.450  1.00  0.00     0.039 A 
ATOM     30  C   UNL A   1      36.982  31.459  28.067  1.00  0.00     0.014 A 
ATOM     31  C   UNL A   1      35.787  29.750  29.280  1.00  0.00     0.014 A 
ATOM     32  C   UNL A   1      38.194  30.939  28.532  1.00  0.00     0.010 A 
ATOM     33  C   UNL A   1      36.991  29.286  29.816  1.00  0.00     0.010 A 
ATOM     34  C   UNL A   1      38.209  29.856  29.426  1.00  0.00    -0.014 A 
BRANCH  34  35
ATOM     35  C   UNL A   1      39.494  29.286  29.912  1.00  0.00     0.031 A 
ATOM     36  C   UNL A   1      40.130  29.808  31.174  1.00  0.00     0.074 A 
ATOM     37  C   UNL A   1      40.109  28.313  29.209  1.00  0.00     0.049 A 
ATOM     38  N   UNL A   1      41.255  29.454  31.744  1.00  0.00    -0.248 NA
ATOM     39  C   UNL A   1      39.420  30.889  31.876  1.00  0.00     0.031 C 
ATOM     40  C   UNL A   1      39.631  27.752  27.945  1.00  0.00     0.029 A 
ATOM     41  N   UNL A   1      41.272  27.628  29.459  1.00  0.00    -0.354 N 
ATOM     42  C   UNL A   1      41.395  30.278  32.854  1.00  0.00     0.074 A 
ATOM     43  C   UNL A   1      40.268  31.185  32.850  1.00  0.00     0.031 C 
ATOM     44  C   UNL A   1      40.478  26.791  27.544  1.00  0.00     0.029 A 
ATOM     45  C   UNL A   1      41.571  26.687  28.506  1.00  0.00     0.049 A 
ATOM     46  H   UNL A   1      41.837  27.795  30.247  1.00  0.00     0.167 HD
ATOM     47  C   UNL A   1      42.357  30.266  33.809  1.00  0.00     0.037 A 
ATOM     48  C   UNL A   1      42.608  25.833  28.416  1.00  0.00     0.037 A 
ATOM     49  C   UNL A   1      43.460  29.342  33.837  1.00  0.00     0.049 A 
ATOM     50  C   UNL A   1      43.649  25.817  29.500  1.00  0.00     0.074 A 
ATOM     51  C   UNL A   1      44.455  29.214  34.791  1.00  0.00     0.029 A 
ATOM     52  N   UNL A   1      43.712  28.385  32.866  1.00  0.00    -0.354 N 
ATOM     53  N   UNL A   1      43.733  26.563  30.574  1.00  0.00    -0.248 NA
ATOM     54  C   UNL A   1      44.732  24.833  29.364  1.00  0.00     0.031 C 
ATOM     55  C   UNL A   1      45.326  28.199  34.382  1.00  0.00     0.029 A 
ATOM     56  C   UNL A   1      44.852  27.670  33.192  1.00  0.00     0.049 A 
ATOM     57  H   UNL A   1      43.161  28.236  32.063  1.00  0.00     0.167 HD
ATOM     58  C   UNL A   1      44.866  26.128  31.252  1.00  0.00     0.074 A 
ATOM     59  C   UNL A   1      45.424  25.040  30.476  1.00  0.00     0.031 C 
ATOM     60  C   UNL A   1      45.396  26.591  32.410  1.00  0.00     0.037 A 
BRANCH  47  61
ATOM     61  C   UNL A   1      42.247  31.279  34.910  1.00  0.00     0.057 A 
ATOM     62  C   UNL A   1      42.847  32.542  34.814  1.00  0.00     0.134 A 
ATOM     63  C   UNL A   1      41.514  31.001  36.071  1.00  0.00     0.134 A 
ATOM     64  F   UNL A   1      43.575  32.867  33.735  1.00  0.00    -0.206 F 
ATOM     65  C   UNL A   1      42.749  33.479  35.843  1.00  0.00     0.040 A 
ATOM     66  C   UNL A   1      41.385  31.940  37.097  1.00  0.00     0.040 A 
ATOM     67  F   UNL A   1      40.907  29.814  36.226  1.00  0.00    -0.206 F 
ATOM     68  C   UNL A   1      42.011  33.181  36.987  1.00  0.00     0.006 A 
ENDBRANCH  47  61
BRANCH  48  69
ATOM     69  C   UNL A   1      42.697  24.897  27.268  1.00  0.00     0.057 A 
ATOM     70  C   UNL A   1      43.421  25.232  26.118  1.00  0.00     0.134 A 
ATOM     71  C   UNL A   1      42.068  23.648  27.293  1.00  0.00     0.134 A 
ATOM     72  F   UNL A   1      44.030  26.423  26.027  1.00  0.00    -0.206 F 
ATOM     73  C   UNL A   1      43.504  24.365  25.027  1.00  0.00     0.040 A 
ATOM     74  C   UNL A   1      42.159  22.762  26.219  1.00  0.00     0.040 A 
ATOM     75  F   UNL A   1      41.366  23.266  28.371  1.00  0.00    -0.206 F 
ATOM     76  C   UNL A   1      42.875  23.122  25.079  1.00  0.00     0.006 A 
ENDBRANCH  48  69
BRANCH  60  77
ATOM     77  C   UNL A   1      46.632  25.907  32.915  1.00  0.00     0.057 A 
ATOM     78  C   UNL A   1      46.564  24.818  33.793  1.00  0.00     0.134 A 
ATOM     79  C   UNL A   1      47.902  26.326  32.498  1.00  0.00     0.134 A 
ATOM     80  F   UNL A   1      45.378  24.378  34.240  1.00  0.00    -0.206 F 
ATOM     81  C   UNL A   1      47.717  24.186  34.259  1.00  0.00     0.040 A 
ATOM     82  C   UNL A   1      49.061  25.686  32.937  1.00  0.00     0.040 A 
ATOM     83  F   UNL A   1      48.034  27.358  31.651  1.00  0.00    -0.206 F 
ATOM     84  C   UNL A   1      48.971  24.616  33.826  1.00  0.00     0.006 A 
ENDBRANCH  60  77
ENDBRANCH  34  35
ENDBRANCH  26  29
ENDBRANCH  24  25
ENDBRANCH   1  24
TORSDOF 12
ENDMDL
