MODEL 1
REMARK VINA RESULT:     -10.0      0.000      0.000
REMARK SMILES CCCc1noc(C2C[NH+](CC(=O)NCCCNC(=O)c3ccc(-c4c5nc(c(-c6c(F)cccc6F)c6ccc([nH]6)c(-c6c(F)cccc6F)c6nc(c(-c7c(F)cccc7F)c7ccc4[nH]7)C=C6)C=C5)cc3)C2)n1
REMARK SMILES IDX 15 1 14 2 12 3 13 4 11 6 10 7 8 8 9 9 75 10 7 12 4 13 5 14
REMARK SMILES IDX 76 15 6 16 3 17 2 18 1 19 16 20 17 21 18 22 19 23 20 25
REMARK SMILES IDX 21 26 22 27 74 28 23 29 73 30 24 31 25 32 26 33 67 34 27 35
REMARK SMILES IDX 72 36 66 37 68 38 28 39 71 40 65 41 64 42 29 44 55 45 38 46
REMARK SMILES IDX 54 47 39 48 42 49 53 50 69 51 40 52 41 53 52 55 70 56 43 57
REMARK SMILES IDX 30 58 31 59 36 60 32 61 33 62 35 63 37 64 34 65 56 66 57 67
REMARK SMILES IDX 62 68 58 69 59 70 61 71 63 72 60 73 44 74 45 75 50 76 46 77
REMARK SMILES IDX 47 78 49 79 51 80 48 81
REMARK H PARENT 14 5 10 11 18 24 68 43 42 54
REMARK Flexibility Score: inf
ROOT
ATOM      1  C   UNL A   1      34.407  35.349  28.392  1.00  0.00     0.118 C 
ENDROOT
BRANCH   1   2
ATOM      2  N   UNL A   1      33.613  36.285  29.172  1.00  0.00    -0.351 N 
ATOM      3  C   UNL A   1      33.282  36.326  30.496  1.00  0.00     0.275 C 
ATOM      4  O   UNL A   1      32.580  37.274  30.859  1.00  0.00    -0.269 OA
ATOM      5  H   UNL A   1      33.246  37.031  28.646  1.00  0.00     0.163 HD
BRANCH   3   6
ATOM      6  C   UNL A   1      33.723  35.241  31.484  1.00  0.00     0.363 C 
BRANCH   6   7
ATOM      7  N   UNL A   1      35.043  35.391  32.154  1.00  0.00    -0.325 N 
ATOM      8  C   UNL A   1      35.388  33.631  33.302  1.00  0.00     0.188 C 
ATOM      9  C   UNL A   1      35.069  35.115  33.614  1.00  0.00     0.282 C 
ATOM     10  C   UNL A   1      35.919  34.219  31.967  1.00  0.00     0.282 C 
ATOM     11  H   UNL A   1      35.280  36.320  31.805  1.00  0.00     0.348 HD
BRANCH   8  12
ATOM     12  C   UNL A   1      36.411  32.941  34.166  1.00  0.00     0.241 A 
ATOM     13  C   UNL A   1      37.838  31.631  34.962  1.00  0.00     0.171 A 
ATOM     14  N   UNL A   1      37.463  32.349  36.026  1.00  0.00    -0.062 NA
ATOM     15  N   UNL A   1      37.203  31.962  33.790  1.00  0.00    -0.196 NA
ATOM     16  O   UNL A   1      36.516  33.223  35.502  1.00  0.00    -0.339 OA
BRANCH  13  17
ATOM     17  C   UNL A   1      38.841  30.542  35.066  1.00  0.00     0.081 C 
BRANCH  17  18
ATOM     18  C   UNL A   1      40.051  30.713  34.148  1.00  0.00     0.005 C 
ATOM     19  C   UNL A   1      40.469  29.419  33.461  1.00  0.00     0.004 C 
ENDBRANCH  17  18
ENDBRANCH  13  17
ENDBRANCH   8  12
ENDBRANCH   6   7
ENDBRANCH   3   6
ENDBRANCH   1   2
BRANCH   1  20
ATOM     20  C   UNL A   1      33.759  33.968  28.236  1.00  0.00     0.042 C 
BRANCH  20  21
ATOM     21  C   UNL A   1      34.707  32.774  28.304  1.00  0.00     0.118 C 
BRANCH  21  22
ATOM     22  N   UNL A   1      34.017  31.511  28.132  1.00  0.00    -0.352 N 
ATOM     23  C   UNL A   1      34.506  30.229  28.043  1.00  0.00     0.251 C 
ATOM     24  H   UNL A   1      33.038  31.583  28.069  1.00  0.00     0.163 HD
ATOM     25  O   UNL A   1      33.744  29.335  27.683  1.00  0.00    -0.269 OA
BRANCH  23  26
ATOM     26  C   UNL A   1      35.922  29.893  28.351  1.00  0.00     0.039 A 
ATOM     27  C   UNL A   1      36.871  30.059  27.336  1.00  0.00     0.014 A 
ATOM     28  C   UNL A   1      36.318  29.332  29.569  1.00  0.00     0.014 A 
ATOM     29  C   UNL A   1      38.208  29.702  27.550  1.00  0.00     0.010 A 
ATOM     30  C   UNL A   1      37.665  29.031  29.804  1.00  0.00     0.010 A 
ATOM     31  C   UNL A   1      38.623  29.198  28.792  1.00  0.00    -0.014 A 
BRANCH  31  32
ATOM     32  C   UNL A   1      40.049  28.839  29.023  1.00  0.00     0.031 A 
ATOM     33  C   UNL A   1      40.979  29.788  29.731  1.00  0.00     0.074 A 
ATOM     34  C   UNL A   1      40.521  27.657  28.582  1.00  0.00     0.049 A 
ATOM     35  N   UNL A   1      42.247  29.636  30.028  1.00  0.00    -0.248 NA
ATOM     36  C   UNL A   1      40.419  31.083  30.144  1.00  0.00     0.031 C 
ATOM     37  C   UNL A   1      39.745  26.658  27.846  1.00  0.00     0.029 A 
ATOM     38  N   UNL A   1      41.769  27.095  28.691  1.00  0.00    -0.354 N 
ATOM     39  C   UNL A   1      42.637  30.816  30.649  1.00  0.00     0.074 A 
ATOM     40  C   UNL A   1      41.483  31.689  30.654  1.00  0.00     0.031 C 
ATOM     41  C   UNL A   1      40.527  25.597  27.589  1.00  0.00     0.029 A 
ATOM     42  C   UNL A   1      41.863  25.848  28.124  1.00  0.00     0.049 A 
ATOM     43  H   UNL A   1      42.526  27.543  29.134  1.00  0.00     0.167 HD
ATOM     44  C   UNL A   1      43.840  31.139  31.184  1.00  0.00     0.037 A 
ATOM     45  C   UNL A   1      42.903  24.996  28.047  1.00  0.00     0.037 A 
ATOM     46  C   UNL A   1      44.987  30.268  31.211  1.00  0.00     0.049 A 
ATOM     47  C   UNL A   1      44.220  25.369  28.665  1.00  0.00     0.074 A 
ATOM     48  C   UNL A   1      46.226  30.490  31.788  1.00  0.00     0.029 A 
ATOM     49  N   UNL A   1      45.036  29.009  30.636  1.00  0.00    -0.354 N 
ATOM     50  N   UNL A   1      44.553  26.464  29.304  1.00  0.00    -0.248 NA
ATOM     51  C   UNL A   1      45.305  24.381  28.558  1.00  0.00     0.031 C 
ATOM     52  C   UNL A   1      47.035  29.376  31.538  1.00  0.00     0.029 A 
ATOM     53  C   UNL A   1      46.288  28.448  30.831  1.00  0.00     0.049 A 
ATOM     54  H   UNL A   1      44.291  28.576  30.159  1.00  0.00     0.167 HD
ATOM     55  C   UNL A   1      45.876  26.291  29.689  1.00  0.00     0.074 A 
ATOM     56  C   UNL A   1      46.282  24.980  29.227  1.00  0.00     0.031 C 
ATOM     57  C   UNL A   1      46.683  27.146  30.363  1.00  0.00     0.037 A 
BRANCH  44  58
ATOM     58  C   UNL A   1      43.978  32.501  31.795  1.00  0.00     0.057 A 
ATOM     59  C   UNL A   1      43.688  32.734  33.146  1.00  0.00     0.134 A 
ATOM     60  C   UNL A   1      44.443  33.583  31.037  1.00  0.00     0.134 A 
ATOM     61  F   UNL A   1      43.231  31.741  33.922  1.00  0.00    -0.206 F 
ATOM     62  C   UNL A   1      43.835  33.999  33.716  1.00  0.00     0.040 A 
ATOM     63  C   UNL A   1      44.613  34.849  31.600  1.00  0.00     0.040 A 
ATOM     64  F   UNL A   1      44.745  33.426  29.739  1.00  0.00    -0.206 F 
ATOM     65  C   UNL A   1      44.304  35.060  32.943  1.00  0.00     0.006 A 
ENDBRANCH  44  58
BRANCH  45  66
ATOM     66  C   UNL A   1      42.734  23.684  27.379  1.00  0.00     0.057 A 
ATOM     67  C   UNL A   1      42.944  23.544  26.003  1.00  0.00     0.134 A 
ATOM     68  C   UNL A   1      42.355  22.544  28.097  1.00  0.00     0.134 A 
ATOM     69  F   UNL A   1      43.288  24.608  25.262  1.00  0.00    -0.206 F 
ATOM     70  C   UNL A   1      42.771  22.318  25.360  1.00  0.00     0.040 A 
ATOM     71  C   UNL A   1      42.197  21.308  27.470  1.00  0.00     0.040 A 
ATOM     72  F   UNL A   1      42.143  22.616  29.419  1.00  0.00    -0.206 F 
ATOM     73  C   UNL A   1      42.401  21.194  26.096  1.00  0.00     0.006 A 
ENDBRANCH  45  66
BRANCH  57  74
ATOM     74  C   UNL A   1      48.078  26.680  30.651  1.00  0.00     0.057 A 
ATOM     75  C   UNL A   1      48.386  25.958  31.812  1.00  0.00     0.134 A 
ATOM     76  C   UNL A   1      49.120  26.941  29.754  1.00  0.00     0.134 A 
ATOM     77  F   UNL A   1      47.434  25.690  32.717  1.00  0.00    -0.206 F 
ATOM     78  C   UNL A   1      49.687  25.531  32.079  1.00  0.00     0.040 A 
ATOM     79  C   UNL A   1      50.422  26.503  30.001  1.00  0.00     0.040 A 
ATOM     80  F   UNL A   1      48.890  27.624  28.623  1.00  0.00    -0.206 F 
ATOM     81  C   UNL A   1      50.710  25.801  31.170  1.00  0.00     0.006 A 
ENDBRANCH  57  74
ENDBRANCH  31  32
ENDBRANCH  23  26
ENDBRANCH  21  22
ENDBRANCH  20  21
ENDBRANCH   1  20
TORSDOF 14
ENDMDL
MODEL 2
REMARK VINA RESULT:      -9.9      7.015     10.631
REMARK SMILES CCCc1noc(C2C[NH+](CC(=O)NCCCNC(=O)c3ccc(-c4c5nc(c(-c6c(F)cccc6F)c6ccc([nH]6)c(-c6c(F)cccc6F)c6nc(c(-c7c(F)cccc7F)c7ccc4[nH]7)C=C6)C=C5)cc3)C2)n1
REMARK SMILES IDX 15 1 14 2 12 3 13 4 11 6 10 7 8 8 9 9 75 10 7 12 4 13 5 14
REMARK SMILES IDX 76 15 6 16 3 17 2 18 1 19 16 20 17 21 18 22 19 23 20 25
REMARK SMILES IDX 21 26 22 27 74 28 23 29 73 30 24 31 25 32 26 33 67 34 27 35
REMARK SMILES IDX 72 36 66 37 68 38 28 39 71 40 65 41 64 42 29 44 55 45 38 46
REMARK SMILES IDX 54 47 39 48 42 49 53 50 69 51 40 52 41 53 52 55 70 56 43 57
REMARK SMILES IDX 30 58 31 59 36 60 32 61 33 62 35 63 37 64 34 65 56 66 57 67
REMARK SMILES IDX 62 68 58 69 59 70 61 71 63 72 60 73 44 74 45 75 50 76 46 77
REMARK SMILES IDX 47 78 49 79 51 80 48 81
REMARK H PARENT 14 5 10 11 18 24 68 43 42 54
REMARK Flexibility Score: inf
ROOT
ATOM      1  C   UNL A   1      43.323  40.582  27.686  1.00  0.00     0.118 C 
ENDROOT
BRANCH   1   2
ATOM      2  N   UNL A   1      41.934  40.807  27.318  1.00  0.00    -0.351 N 
ATOM      3  C   UNL A   1      41.336  41.093  26.124  1.00  0.00     0.275 C 
ATOM      4  O   UNL A   1      40.109  41.227  26.140  1.00  0.00    -0.269 OA
ATOM      5  H   UNL A   1      41.306  40.740  28.073  1.00  0.00     0.163 HD
BRANCH   3   6
ATOM      6  C   UNL A   1      42.137  41.274  24.830  1.00  0.00     0.363 C 
BRANCH   6   7
ATOM      7  N   UNL A   1      42.157  42.620  24.196  1.00  0.00    -0.325 N 
ATOM      8  C   UNL A   1      42.284  42.339  22.089  1.00  0.00     0.188 C 
ATOM      9  C   UNL A   1      43.234  42.855  23.199  1.00  0.00     0.282 C 
ATOM     10  C   UNL A   1      41.180  42.753  23.099  1.00  0.00     0.282 C 
ATOM     11  H   UNL A   1      42.116  43.184  25.046  1.00  0.00     0.348 HD
BRANCH   8  12
ATOM     12  C   UNL A   1      42.280  43.077  20.776  1.00  0.00     0.241 A 
ATOM     13  C   UNL A   1      41.744  44.028  18.989  1.00  0.00     0.171 A 
ATOM     14  N   UNL A   1      43.056  43.819  18.836  1.00  0.00    -0.062 NA
ATOM     15  N   UNL A   1      41.222  43.575  20.176  1.00  0.00    -0.196 NA
ATOM     16  O   UNL A   1      43.418  43.189  20.022  1.00  0.00    -0.339 OA
BRANCH  13  17
ATOM     17  C   UNL A   1      40.925  44.672  17.931  1.00  0.00     0.081 C 
BRANCH  17  18
ATOM     18  C   UNL A   1      41.698  45.006  16.656  1.00  0.00     0.005 C 
ATOM     19  C   UNL A   1      41.991  46.494  16.507  1.00  0.00     0.004 C 
ENDBRANCH  17  18
ENDBRANCH  13  17
ENDBRANCH   8  12
ENDBRANCH   6   7
ENDBRANCH   3   6
ENDBRANCH   1   2
BRANCH   1  20
ATOM     20  C   UNL A   1      43.511  40.092  29.126  1.00  0.00     0.042 C 
BRANCH  20  21
ATOM     21  C   UNL A   1      43.993  38.652  29.284  1.00  0.00     0.118 C 
BRANCH  21  22
ATOM     22  N   UNL A   1      45.429  38.530  29.120  1.00  0.00    -0.352 N 
ATOM     23  C   UNL A   1      46.229  37.415  29.048  1.00  0.00     0.251 C 
ATOM     24  H   UNL A   1      45.909  39.386  29.049  1.00  0.00     0.163 HD
ATOM     25  O   UNL A   1      47.446  37.561  29.123  1.00  0.00    -0.269 OA
BRANCH  23  26
ATOM     26  C   UNL A   1      45.673  36.044  28.897  1.00  0.00     0.039 A 
ATOM     27  C   UNL A   1      45.923  35.118  29.917  1.00  0.00     0.014 A 
ATOM     28  C   UNL A   1      45.002  35.622  27.745  1.00  0.00     0.014 A 
ATOM     29  C   UNL A   1      45.477  33.796  29.801  1.00  0.00     0.010 A 
ATOM     30  C   UNL A   1      44.504  34.316  27.654  1.00  0.00     0.010 A 
ATOM     31  C   UNL A   1      44.748  33.385  28.674  1.00  0.00    -0.014 A 
BRANCH  31  32
ATOM     32  C   UNL A   1      44.256  31.985  28.563  1.00  0.00     0.031 A 
ATOM     33  C   UNL A   1      42.930  31.582  29.154  1.00  0.00     0.074 A 
ATOM     34  C   UNL A   1      45.010  31.058  27.941  1.00  0.00     0.049 A 
ATOM     35  N   UNL A   1      42.341  30.411  29.142  1.00  0.00    -0.248 NA
ATOM     36  C   UNL A   1      42.176  32.625  29.864  1.00  0.00     0.031 C 
ATOM     37  C   UNL A   1      46.332  31.295  27.360  1.00  0.00     0.029 A 
ATOM     38  N   UNL A   1      44.771  29.728  27.693  1.00  0.00    -0.354 N 
ATOM     39  C   UNL A   1      41.157  30.574  29.850  1.00  0.00     0.074 A 
ATOM     40  C   UNL A   1      41.128  31.946  30.310  1.00  0.00     0.031 C 
ATOM     41  C   UNL A   1      46.777  30.158  26.802  1.00  0.00     0.029 A 
ATOM     42  C   UNL A   1      45.783  29.106  27.005  1.00  0.00     0.049 A 
ATOM     43  H   UNL A   1      43.952  29.265  27.981  1.00  0.00     0.167 HD
ATOM     44  C   UNL A   1      40.173  29.671  30.084  1.00  0.00     0.037 A 
ATOM     45  C   UNL A   1      45.899  27.835  26.577  1.00  0.00     0.037 A 
ATOM     46  C   UNL A   1      40.177  28.312  29.606  1.00  0.00     0.049 A 
ATOM     47  C   UNL A   1      44.786  26.858  26.829  1.00  0.00     0.074 A 
ATOM     48  C   UNL A   1      39.192  27.347  29.742  1.00  0.00     0.029 A 
ATOM     49  N   UNL A   1      41.216  27.725  28.903  1.00  0.00    -0.354 N 
ATOM     50  N   UNL A   1      43.645  27.046  27.446  1.00  0.00    -0.248 NA
ATOM     51  C   UNL A   1      44.974  25.492  26.316  1.00  0.00     0.031 C 
ATOM     52  C   UNL A   1      39.648  26.166  29.144  1.00  0.00     0.029 A 
ATOM     53  C   UNL A   1      40.903  26.407  28.610  1.00  0.00     0.049 A 
ATOM     54  H   UNL A   1      42.052  28.177  28.647  1.00  0.00     0.167 HD
ATOM     55  C   UNL A   1      42.975  25.831  27.382  1.00  0.00     0.074 A 
ATOM     56  C   UNL A   1      43.827  24.917  26.652  1.00  0.00     0.031 C 
ATOM     57  C   UNL A   1      41.760  25.504  27.887  1.00  0.00     0.037 A 
BRANCH  44  58
ATOM     58  C   UNL A   1      38.996  30.128  30.892  1.00  0.00     0.057 A 
ATOM     59  C   UNL A   1      37.902  30.771  30.298  1.00  0.00     0.134 A 
ATOM     60  C   UNL A   1      38.937  29.890  32.270  1.00  0.00     0.134 A 
ATOM     61  F   UNL A   1      37.901  31.035  28.983  1.00  0.00    -0.206 F 
ATOM     62  C   UNL A   1      36.800  31.179  31.051  1.00  0.00     0.040 A 
ATOM     63  C   UNL A   1      37.832  30.276  33.031  1.00  0.00     0.040 A 
ATOM     64  F   UNL A   1      39.950  29.273  32.899  1.00  0.00    -0.206 F 
ATOM     65  C   UNL A   1      36.760  30.926  32.421  1.00  0.00     0.006 A 
ENDBRANCH  44  58
BRANCH  45  66
ATOM     66  C   UNL A   1      47.110  27.415  25.832  1.00  0.00     0.057 A 
ATOM     67  C   UNL A   1      48.217  26.883  26.502  1.00  0.00     0.134 A 
ATOM     68  C   UNL A   1      47.190  27.538  24.441  1.00  0.00     0.134 A 
ATOM     69  F   UNL A   1      48.204  26.762  27.838  1.00  0.00    -0.206 F 
ATOM     70  C   UNL A   1      49.370  26.500  25.816  1.00  0.00     0.040 A 
ATOM     71  C   UNL A   1      48.329  27.141  23.740  1.00  0.00     0.040 A 
ATOM     72  F   UNL A   1      46.158  28.037  23.745  1.00  0.00    -0.206 F 
ATOM     73  C   UNL A   1      49.425  26.624  24.428  1.00  0.00     0.006 A 
ENDBRANCH  45  66
BRANCH  57  74
ATOM     74  C   UNL A   1      41.281  24.104  27.653  1.00  0.00     0.057 A 
ATOM     75  C   UNL A   1      41.805  23.019  28.368  1.00  0.00     0.134 A 
ATOM     76  C   UNL A   1      40.275  23.838  26.716  1.00  0.00     0.134 A 
ATOM     77  F   UNL A   1      42.781  23.208  29.268  1.00  0.00    -0.206 F 
ATOM     78  C   UNL A   1      41.360  21.716  28.143  1.00  0.00     0.040 A 
ATOM     79  C   UNL A   1      39.809  22.542  26.495  1.00  0.00     0.040 A 
ATOM     80  F   UNL A   1      39.730  24.834  26.001  1.00  0.00    -0.206 F 
ATOM     81  C   UNL A   1      40.356  21.475  27.206  1.00  0.00     0.006 A 
ENDBRANCH  57  74
ENDBRANCH  31  32
ENDBRANCH  23  26
ENDBRANCH  21  22
ENDBRANCH  20  21
ENDBRANCH   1  20
TORSDOF 14
ENDMDL
MODEL 3
REMARK VINA RESULT:      -9.8      0.552      6.390
REMARK SMILES CCCc1noc(C2C[NH+](CC(=O)NCCCNC(=O)c3ccc(-c4c5nc(c(-c6c(F)cccc6F)c6ccc([nH]6)c(-c6c(F)cccc6F)c6nc(c(-c7c(F)cccc7F)c7ccc4[nH]7)C=C6)C=C5)cc3)C2)n1
REMARK SMILES IDX 15 1 14 2 12 3 13 4 11 6 10 7 8 8 9 9 75 10 7 12 4 13 5 14
REMARK SMILES IDX 76 15 6 16 3 17 2 18 1 19 16 20 17 21 18 22 19 23 20 25
REMARK SMILES IDX 21 26 22 27 74 28 23 29 73 30 24 31 25 32 26 33 67 34 27 35
REMARK SMILES IDX 72 36 66 37 68 38 28 39 71 40 65 41 64 42 29 44 55 45 38 46
REMARK SMILES IDX 54 47 39 48 42 49 53 50 69 51 40 52 41 53 52 55 70 56 43 57
REMARK SMILES IDX 30 58 31 59 36 60 32 61 33 62 35 63 37 64 34 65 56 66 57 67
REMARK SMILES IDX 62 68 58 69 59 70 61 71 63 72 60 73 44 74 45 75 50 76 46 77
REMARK SMILES IDX 47 78 49 79 51 80 48 81
REMARK H PARENT 14 5 10 11 18 24 68 43 42 54
REMARK Flexibility Score: inf
ROOT
ATOM      1  C   UNL A   1      34.659  35.202  28.614  1.00  0.00     0.118 C 
ENDROOT
BRANCH   1   2
ATOM      2  N   UNL A   1      33.780  36.109  29.336  1.00  0.00    -0.351 N 
ATOM      3  C   UNL A   1      33.282  36.085  30.607  1.00  0.00     0.275 C 
ATOM      4  O   UNL A   1      32.547  37.024  30.928  1.00  0.00    -0.269 OA
ATOM      5  H   UNL A   1      33.490  36.888  28.808  1.00  0.00     0.163 HD
BRANCH   3   6
ATOM      6  C   UNL A   1      33.582  34.943  31.583  1.00  0.00     0.363 C 
BRANCH   6   7
ATOM      7  N   UNL A   1      34.838  35.005  32.377  1.00  0.00    -0.325 N 
ATOM      8  C   UNL A   1      35.493  33.005  32.706  1.00  0.00     0.188 C 
ATOM      9  C   UNL A   1      34.892  34.134  33.581  1.00  0.00     0.282 C 
ATOM     10  C   UNL A   1      35.924  34.190  31.800  1.00  0.00     0.282 C 
ATOM     11  H   UNL A   1      34.899  36.019  32.477  1.00  0.00     0.348 HD
BRANCH   8  12
ATOM     12  C   UNL A   1      36.615  32.190  33.294  1.00  0.00     0.241 A 
ATOM     13  C   UNL A   1      38.090  30.754  33.677  1.00  0.00     0.171 A 
ATOM     14  N   UNL A   1      37.943  31.357  34.862  1.00  0.00    -0.062 NA
ATOM     15  N   UNL A   1      37.278  31.236  32.680  1.00  0.00    -0.196 NA
ATOM     16  O   UNL A   1      36.965  32.313  34.612  1.00  0.00    -0.339 OA
BRANCH  13  17
ATOM     17  C   UNL A   1      39.040  29.629  33.483  1.00  0.00     0.081 C 
BRANCH  17  18
ATOM     18  C   UNL A   1      40.442  29.890  34.031  1.00  0.00     0.005 C 
ATOM     19  C   UNL A   1      41.448  28.815  33.639  1.00  0.00     0.004 C 
ENDBRANCH  17  18
ENDBRANCH  13  17
ENDBRANCH   8  12
ENDBRANCH   6   7
ENDBRANCH   3   6
ENDBRANCH   1   2
BRANCH   1  20
ATOM     20  C   UNL A   1      34.001  33.868  28.242  1.00  0.00     0.042 C 
BRANCH  20  21
ATOM     21  C   UNL A   1      34.662  32.616  28.813  1.00  0.00     0.118 C 
BRANCH  21  22
ATOM     22  N   UNL A   1      34.002  31.399  28.384  1.00  0.00    -0.352 N 
ATOM     23  C   UNL A   1      34.522  30.181  28.019  1.00  0.00     0.251 C 
ATOM     24  H   UNL A   1      33.020  31.455  28.348  1.00  0.00     0.163 HD
ATOM     25  O   UNL A   1      33.778  29.362  27.485  1.00  0.00    -0.269 OA
BRANCH  23  26
ATOM     26  C   UNL A   1      35.951  29.827  28.235  1.00  0.00     0.039 A 
ATOM     27  C   UNL A   1      36.322  29.338  29.493  1.00  0.00     0.014 A 
ATOM     28  C   UNL A   1      36.940  30.053  27.273  1.00  0.00     0.014 A 
ATOM     29  C   UNL A   1      37.662  29.046  29.773  1.00  0.00     0.010 A 
ATOM     30  C   UNL A   1      38.271  29.705  27.533  1.00  0.00     0.010 A 
ATOM     31  C   UNL A   1      38.650  29.212  28.790  1.00  0.00    -0.014 A 
BRANCH  31  32
ATOM     32  C   UNL A   1      40.071  28.880  29.084  1.00  0.00     0.031 A 
ATOM     33  C   UNL A   1      40.665  27.568  28.642  1.00  0.00     0.074 A 
ATOM     34  C   UNL A   1      40.834  29.755  29.766  1.00  0.00     0.049 A 
ATOM     35  N   UNL A   1      41.886  27.119  28.802  1.00  0.00    -0.248 NA
ATOM     36  C   UNL A   1      39.769  26.635  27.946  1.00  0.00     0.031 C 
ATOM     37  C   UNL A   1      40.381  31.043  30.291  1.00  0.00     0.029 A 
ATOM     38  N   UNL A   1      42.156  29.692  30.135  1.00  0.00    -0.354 N 
ATOM     39  C   UNL A   1      41.900  25.848  28.239  1.00  0.00     0.074 A 
ATOM     40  C   UNL A   1      40.558  25.584  27.766  1.00  0.00     0.031 C 
ATOM     41  C   UNL A   1      41.411  31.660  30.892  1.00  0.00     0.029 A 
ATOM     42  C   UNL A   1      42.592  30.803  30.814  1.00  0.00     0.049 A 
ATOM     43  H   UNL A   1      42.737  28.924  29.930  1.00  0.00     0.167 HD
ATOM     44  C   UNL A   1      42.938  24.986  28.110  1.00  0.00     0.037 A 
ATOM     45  C   UNL A   1      43.805  31.104  31.315  1.00  0.00     0.037 A 
ATOM     46  C   UNL A   1      44.284  25.250  28.549  1.00  0.00     0.049 A 
ATOM     47  C   UNL A   1      44.945  30.141  31.140  1.00  0.00     0.074 A 
ATOM     48  C   UNL A   1      45.411  24.458  28.401  1.00  0.00     0.029 A 
ATOM     49  N   UNL A   1      44.685  26.391  29.223  1.00  0.00    -0.354 N 
ATOM     50  N   UNL A   1      44.955  28.971  30.549  1.00  0.00    -0.248 NA
ATOM     51  C   UNL A   1      46.245  30.546  31.696  1.00  0.00     0.031 C 
ATOM     52  C   UNL A   1      46.489  25.109  29.011  1.00  0.00     0.029 A 
ATOM     53  C   UNL A   1      46.038  26.319  29.512  1.00  0.00     0.049 A 
ATOM     54  H   UNL A   1      44.096  27.144  29.462  1.00  0.00     0.167 HD
ATOM     55  C   UNL A   1      46.261  28.508  30.647  1.00  0.00     0.074 A 
ATOM     56  C   UNL A   1      47.019  29.530  31.339  1.00  0.00     0.031 C 
ATOM     57  C   UNL A   1      46.783  27.338  30.205  1.00  0.00     0.037 A 
BRANCH  44  58
ATOM     58  C   UNL A   1      42.659  23.666  27.455  1.00  0.00     0.057 A 
ATOM     59  C   UNL A   1      42.275  22.543  28.199  1.00  0.00     0.134 A 
ATOM     60  C   UNL A   1      42.734  23.526  26.064  1.00  0.00     0.134 A 
ATOM     61  F   UNL A   1      42.192  22.610  29.536  1.00  0.00    -0.206 F 
ATOM     62  C   UNL A   1      41.998  21.321  27.585  1.00  0.00     0.040 A 
ATOM     63  C   UNL A   1      42.440  22.315  25.436  1.00  0.00     0.040 A 
ATOM     64  F   UNL A   1      43.089  24.566  25.293  1.00  0.00    -0.206 F 
ATOM     65  C   UNL A   1      42.075  21.206  26.198  1.00  0.00     0.006 A 
ENDBRANCH  44  58
BRANCH  45  66
ATOM     66  C   UNL A   1      44.017  32.397  32.007  1.00  0.00     0.057 A 
ATOM     67  C   UNL A   1      44.446  33.527  31.303  1.00  0.00     0.134 A 
ATOM     68  C   UNL A   1      43.800  32.532  33.383  1.00  0.00     0.134 A 
ATOM     69  F   UNL A   1      44.691  33.450  29.987  1.00  0.00    -0.206 F 
ATOM     70  C   UNL A   1      44.667  34.746  31.946  1.00  0.00     0.040 A 
ATOM     71  C   UNL A   1      43.998  33.750  34.034  1.00  0.00     0.040 A 
ATOM     72  F   UNL A   1      43.384  31.485  34.109  1.00  0.00    -0.206 F 
ATOM     73  C   UNL A   1      44.437  34.860  33.316  1.00  0.00     0.006 A 
ENDBRANCH  45  66
BRANCH  57  74
ATOM     74  C   UNL A   1      48.244  27.111  30.445  1.00  0.00     0.057 A 
ATOM     75  C   UNL A   1      49.217  27.605  29.566  1.00  0.00     0.134 A 
ATOM     76  C   UNL A   1      48.684  26.408  31.573  1.00  0.00     0.134 A 
ATOM     77  F   UNL A   1      48.858  28.273  28.460  1.00  0.00    -0.206 F 
ATOM     78  C   UNL A   1      50.577  27.386  29.790  1.00  0.00     0.040 A 
ATOM     79  C   UNL A   1      50.042  26.200  31.817  1.00  0.00     0.040 A 
ATOM     80  F   UNL A   1      47.803  25.914  32.454  1.00  0.00    -0.206 F 
ATOM     81  C   UNL A   1      50.993  26.685  30.921  1.00  0.00     0.006 A 
ENDBRANCH  57  74
ENDBRANCH  31  32
ENDBRANCH  23  26
ENDBRANCH  21  22
ENDBRANCH  20  21
ENDBRANCH   1  20
TORSDOF 14
ENDMDL
