MODEL 1
REMARK VINA RESULT:     -13.6      0.000      0.000
REMARK SMILES O=C(Cc1c(C(=O)c2cc3c(cn2)CCCC3)[nH]c2cc(Cl)ccc12)NCCCNC(=O)c1ccc(-c2c3nc(c(-c4c(F)cccc4F)c4ccc([nH]4)c(-c4c(F)cccc4F)c4nc(c(-c5c(F)cccc5F)c5ccc2[nH]5)C=C4)C=C3)cc1
REMARK SMILES IDX 27 1 26 2 1 3 2 4 3 6 4 7 5 8 25 9 18 10 19 11 24 12 20 14
REMARK SMILES IDX 23 15 21 16 22 17 6 18 7 19 8 20 9 21 13 22 10 23 12 24
REMARK SMILES IDX 11 25 17 26 14 27 16 28 15 29 28 30 29 31 30 32 31 33 32 35
REMARK SMILES IDX 33 36 34 37 86 38 35 39 85 40 36 41 37 42 38 43 79 44 39 45
REMARK SMILES IDX 84 46 78 47 80 48 40 49 83 50 77 51 76 52 41 54 67 55 50 56
REMARK SMILES IDX 66 57 51 58 54 59 65 60 81 61 52 62 53 63 64 65 82 66 55 67
REMARK SMILES IDX 42 68 43 69 48 70 44 71 45 72 47 73 49 74 46 75 68 76 69 77
REMARK SMILES IDX 74 78 70 79 71 80 73 81 75 82 72 83 56 84 57 85 62 86 58 87
REMARK SMILES IDX 59 88 61 89 63 90 60 91
REMARK H PARENT 26 5 18 13 30 34 80 53 54 64
REMARK Flexibility Score: inf
ROOT
ATOM      1  C   UNL A   1      31.690  27.794  26.877  1.00  0.00     0.117 C 
ENDROOT
BRANCH   1   2
ATOM      2  N   UNL A   1      32.798  26.953  26.477  1.00  0.00    -0.356 N 
ATOM      3  O   UNL A   1      31.623  25.007  26.764  1.00  0.00    -0.275 OA
ATOM      4  C   UNL A   1      32.626  25.585  26.352  1.00  0.00     0.224 C 
ATOM      5  H   UNL A   1      33.678  27.354  26.294  1.00  0.00     0.163 HD
BRANCH   4   6
ATOM      6  C   UNL A   1      33.739  24.888  25.577  1.00  0.00     0.138 C 
BRANCH   6   7
ATOM      7  C   UNL A   1      33.150  24.151  24.405  1.00  0.00    -0.002 A 
ATOM      8  C   UNL A   1      32.730  24.689  23.187  1.00  0.00     0.093 A 
ATOM      9  C   UNL A   1      32.940  22.730  24.344  1.00  0.00     0.004 A 
ATOM     10  N   UNL A   1      32.465  23.615  22.363  1.00  0.00    -0.351 N 
ATOM     11  C   UNL A   1      32.530  22.428  23.049  1.00  0.00     0.048 A 
ATOM     12  C   UNL A   1      33.092  21.668  25.262  1.00  0.00     0.012 A 
ATOM     13  H   UNL A   1      32.254  23.690  21.404  1.00  0.00     0.167 HD
ATOM     14  C   UNL A   1      32.283  21.119  22.614  1.00  0.00     0.047 A 
ATOM     15  C   UNL A   1      32.842  20.353  24.853  1.00  0.00     0.021 A 
ATOM     16  C   UNL A   1      32.447  20.090  23.546  1.00  0.00     0.043 A 
ATOM     17  Cl  UNL A   1      32.153  18.464  23.061  1.00  0.00    -0.084 Cl
BRANCH   8  18
ATOM     18  C   UNL A   1      32.631  26.093  22.786  1.00  0.00     0.227 C 
ATOM     19  O   UNL A   1      33.588  26.766  22.411  1.00  0.00    -0.285 OA
BRANCH  18  20
ATOM     20  C   UNL A   1      31.311  26.778  22.910  1.00  0.00     0.113 A 
ATOM     21  C   UNL A   1      31.139  28.051  22.376  1.00  0.00     0.036 A 
ATOM     22  N   UNL A   1      30.338  26.093  23.554  1.00  0.00    -0.252 NA
ATOM     23  C   UNL A   1      29.891  28.668  22.510  1.00  0.00    -0.041 A 
ATOM     24  C   UNL A   1      29.138  26.701  23.655  1.00  0.00     0.115 A 
ATOM     25  C   UNL A   1      28.865  27.980  23.172  1.00  0.00    -0.026 A 
ATOM     26  C   UNL A   1      29.693  30.072  21.994  1.00  0.00     0.036 C 
ATOM     27  C   UNL A   1      27.478  28.549  23.300  1.00  0.00     0.037 C 
ATOM     28  C   UNL A   1      28.221  30.453  21.844  1.00  0.00     0.005 C 
ATOM     29  C   UNL A   1      27.434  30.061  23.090  1.00  0.00     0.005 C 
ENDBRANCH  18  20
ENDBRANCH   8  18
ENDBRANCH   6   7
ENDBRANCH   4   6
ENDBRANCH   1   2
BRANCH   1  30
ATOM     30  C   UNL A   1      31.455  28.966  25.936  1.00  0.00     0.042 C 
BRANCH  30  31
ATOM     31  C   UNL A   1      32.605  29.962  25.850  1.00  0.00     0.118 C 
BRANCH  31  32
ATOM     32  N   UNL A   1      32.315  31.272  26.414  1.00  0.00    -0.352 N 
ATOM     33  C   UNL A   1      33.105  32.034  27.251  1.00  0.00     0.251 C 
ATOM     34  H   UNL A   1      31.445  31.664  26.168  1.00  0.00     0.163 HD
ATOM     35  O   UNL A   1      32.706  33.102  27.696  1.00  0.00    -0.269 OA
BRANCH  33  36
ATOM     36  C   UNL A   1      34.428  31.508  27.654  1.00  0.00     0.039 A 
ATOM     37  C   UNL A   1      34.600  30.148  27.918  1.00  0.00     0.014 A 
ATOM     38  C   UNL A   1      35.472  32.411  27.874  1.00  0.00     0.014 A 
ATOM     39  C   UNL A   1      35.748  29.718  28.579  1.00  0.00     0.010 A 
ATOM     40  C   UNL A   1      36.651  31.964  28.477  1.00  0.00     0.010 A 
ATOM     41  C   UNL A   1      36.768  30.629  28.898  1.00  0.00    -0.014 A 
BRANCH  41  42
ATOM     42  C   UNL A   1      37.909  30.195  29.746  1.00  0.00     0.031 A 
ATOM     43  C   UNL A   1      38.974  29.293  29.177  1.00  0.00     0.074 A 
ATOM     44  C   UNL A   1      38.025  30.650  31.007  1.00  0.00     0.049 A 
ATOM     45  N   UNL A   1      40.029  28.783  29.764  1.00  0.00    -0.248 NA
ATOM     46  C   UNL A   1      38.837  28.911  27.762  1.00  0.00     0.031 C 
ATOM     47  C   UNL A   1      37.083  31.553  31.669  1.00  0.00     0.029 A 
ATOM     48  N   UNL A   1      38.995  30.428  31.951  1.00  0.00    -0.354 N 
ATOM     49  C   UNL A   1      40.662  28.005  28.804  1.00  0.00     0.074 A 
ATOM     50  C   UNL A   1      39.867  28.093  27.598  1.00  0.00     0.031 C 
ATOM     51  C   UNL A   1      37.539  31.835  32.899  1.00  0.00     0.029 A 
ATOM     52  C   UNL A   1      38.776  31.093  33.130  1.00  0.00     0.049 A 
ATOM     53  H   UNL A   1      39.773  29.844  31.796  1.00  0.00     0.167 HD
ATOM     54  C   UNL A   1      41.807  27.288  28.910  1.00  0.00     0.037 A 
ATOM     55  C   UNL A   1      39.484  31.096  34.275  1.00  0.00     0.037 A 
ATOM     56  C   UNL A   1      42.622  27.222  30.094  1.00  0.00     0.049 A 
ATOM     57  C   UNL A   1      40.728  30.263  34.380  1.00  0.00     0.074 A 
ATOM     58  C   UNL A   1      43.807  26.534  30.289  1.00  0.00     0.029 A 
ATOM     59  N   UNL A   1      42.340  27.877  31.281  1.00  0.00    -0.354 N 
ATOM     60  N   UNL A   1      41.302  29.518  33.468  1.00  0.00    -0.248 NA
ATOM     61  C   UNL A   1      41.415  30.261  35.679  1.00  0.00     0.031 C 
ATOM     62  C   UNL A   1      44.231  26.754  31.605  1.00  0.00     0.029 A 
ATOM     63  C   UNL A   1      43.322  27.602  32.217  1.00  0.00     0.049 A 
ATOM     64  H   UNL A   1      41.557  28.454  31.436  1.00  0.00     0.167 HD
ATOM     65  C   UNL A   1      42.423  28.970  34.077  1.00  0.00     0.074 A 
ATOM     66  C   UNL A   1      42.455  29.478  35.432  1.00  0.00     0.031 C 
ATOM     67  C   UNL A   1      43.342  28.120  33.560  1.00  0.00     0.037 A 
BRANCH  54  68
ATOM     68  C   UNL A   1      42.242  26.502  27.710  1.00  0.00     0.057 A 
ATOM     69  C   UNL A   1      43.042  27.093  26.723  1.00  0.00     0.134 A 
ATOM     70  C   UNL A   1      41.845  25.174  27.514  1.00  0.00     0.134 A 
ATOM     71  F   UNL A   1      43.453  28.364  26.850  1.00  0.00    -0.206 F 
ATOM     72  C   UNL A   1      43.429  26.390  25.581  1.00  0.00     0.040 A 
ATOM     73  C   UNL A   1      42.240  24.455  26.385  1.00  0.00     0.040 A 
ATOM     74  F   UNL A   1      41.091  24.549  28.431  1.00  0.00    -0.206 F 
ATOM     75  C   UNL A   1      43.030  25.065  25.411  1.00  0.00     0.006 A 
ENDBRANCH  54  68
BRANCH  55  76
ATOM     76  C   UNL A   1      39.023  31.912  35.422  1.00  0.00     0.057 A 
ATOM     77  C   UNL A   1      38.219  31.364  36.429  1.00  0.00     0.134 A 
ATOM     78  C   UNL A   1      39.380  33.260  35.537  1.00  0.00     0.134 A 
ATOM     79  F   UNL A   1      37.845  30.078  36.372  1.00  0.00    -0.206 F 
ATOM     80  C   UNL A   1      37.777  32.132  37.506  1.00  0.00     0.040 A 
ATOM     81  C   UNL A   1      38.960  34.035  36.618  1.00  0.00     0.040 A 
ATOM     82  F   UNL A   1      40.165  33.831  34.612  1.00  0.00    -0.206 F 
ATOM     83  C   UNL A   1      38.151  33.471  37.604  1.00  0.00     0.006 A 
ENDBRANCH  55  76
BRANCH  67  84
ATOM     84  C   UNL A   1      44.468  27.707  34.456  1.00  0.00     0.057 A 
ATOM     85  C   UNL A   1      45.649  28.457  34.510  1.00  0.00     0.134 A 
ATOM     86  C   UNL A   1      44.391  26.553  35.245  1.00  0.00     0.134 A 
ATOM     87  F   UNL A   1      45.783  29.571  33.774  1.00  0.00    -0.206 F 
ATOM     88  C   UNL A   1      46.719  28.070  35.318  1.00  0.00     0.040 A 
ATOM     89  C   UNL A   1      45.448  26.167  36.070  1.00  0.00     0.040 A 
ATOM     90  F   UNL A   1      43.279  25.803  35.246  1.00  0.00    -0.206 F 
ATOM     91  C   UNL A   1      46.618  26.924  36.104  1.00  0.00     0.006 A 
ENDBRANCH  67  84
ENDBRANCH  41  42
ENDBRANCH  33  36
ENDBRANCH  31  32
ENDBRANCH  30  31
ENDBRANCH   1  30
TORSDOF 13
ENDMDL
MODEL 2
REMARK VINA RESULT:     -13.4      3.234      6.647
REMARK SMILES O=C(Cc1c(C(=O)c2cc3c(cn2)CCCC3)[nH]c2cc(Cl)ccc12)NCCCNC(=O)c1ccc(-c2c3nc(c(-c4c(F)cccc4F)c4ccc([nH]4)c(-c4c(F)cccc4F)c4nc(c(-c5c(F)cccc5F)c5ccc2[nH]5)C=C4)C=C3)cc1
REMARK SMILES IDX 27 1 26 2 1 3 2 4 3 6 4 7 5 8 25 9 18 10 19 11 24 12 20 14
REMARK SMILES IDX 23 15 21 16 22 17 6 18 7 19 8 20 9 21 13 22 10 23 12 24
REMARK SMILES IDX 11 25 17 26 14 27 16 28 15 29 28 30 29 31 30 32 31 33 32 35
REMARK SMILES IDX 33 36 34 37 86 38 35 39 85 40 36 41 37 42 38 43 79 44 39 45
REMARK SMILES IDX 84 46 78 47 80 48 40 49 83 50 77 51 76 52 41 54 67 55 50 56
REMARK SMILES IDX 66 57 51 58 54 59 65 60 81 61 52 62 53 63 64 65 82 66 55 67
REMARK SMILES IDX 42 68 43 69 48 70 44 71 45 72 47 73 49 74 46 75 68 76 69 77
REMARK SMILES IDX 74 78 70 79 71 80 73 81 75 82 72 83 56 84 57 85 62 86 58 87
REMARK SMILES IDX 59 88 61 89 63 90 60 91
REMARK H PARENT 26 5 18 13 30 34 80 53 54 64
REMARK Flexibility Score: inf
ROOT
ATOM      1  C   UNL A   1      31.802  27.469  26.643  1.00  0.00     0.117 C 
ENDROOT
BRANCH   1   2
ATOM      2  N   UNL A   1      32.927  26.714  26.133  1.00  0.00    -0.356 N 
ATOM      3  O   UNL A   1      32.058  24.694  26.776  1.00  0.00    -0.275 OA
ATOM      4  C   UNL A   1      32.905  25.331  26.154  1.00  0.00     0.224 C 
ATOM      5  H   UNL A   1      33.710  27.186  25.770  1.00  0.00     0.163 HD
BRANCH   4   6
ATOM      6  C   UNL A   1      33.957  24.680  25.262  1.00  0.00     0.138 C 
BRANCH   6   7
ATOM      7  C   UNL A   1      33.279  23.969  24.122  1.00  0.00    -0.002 A 
ATOM      8  C   UNL A   1      32.776  24.533  22.948  1.00  0.00     0.093 A 
ATOM      9  C   UNL A   1      33.056  22.550  24.050  1.00  0.00     0.004 A 
ATOM     10  N   UNL A   1      32.445  23.476  22.125  1.00  0.00    -0.351 N 
ATOM     11  C   UNL A   1      32.552  22.276  22.782  1.00  0.00     0.048 A 
ATOM     12  C   UNL A   1      33.268  21.470  24.934  1.00  0.00     0.012 A 
ATOM     13  H   UNL A   1      32.165  23.571  21.186  1.00  0.00     0.167 HD
ATOM     14  C   UNL A   1      32.266  20.977  22.342  1.00  0.00     0.047 A 
ATOM     15  C   UNL A   1      32.981  20.164  24.519  1.00  0.00     0.021 A 
ATOM     16  C   UNL A   1      32.491  19.929  23.239  1.00  0.00     0.043 A 
ATOM     17  Cl  UNL A   1      32.152  18.314  22.745  1.00  0.00    -0.084 Cl
BRANCH   8  18
ATOM     18  C   UNL A   1      32.656  25.945  22.582  1.00  0.00     0.227 C 
ATOM     19  O   UNL A   1      33.594  26.625  22.172  1.00  0.00    -0.285 OA
BRANCH  18  20
ATOM     20  C   UNL A   1      31.346  26.626  22.791  1.00  0.00     0.113 A 
ATOM     21  C   UNL A   1      31.141  27.904  22.278  1.00  0.00     0.036 A 
ATOM     22  N   UNL A   1      30.414  25.935  23.486  1.00  0.00    -0.252 NA
ATOM     23  C   UNL A   1      29.903  28.518  22.490  1.00  0.00    -0.041 A 
ATOM     24  C   UNL A   1      29.221  26.540  23.663  1.00  0.00     0.115 A 
ATOM     25  C   UNL A   1      28.919  27.822  23.207  1.00  0.00    -0.026 A 
ATOM     26  C   UNL A   1      29.673  29.925  21.999  1.00  0.00     0.036 C 
ATOM     27  C   UNL A   1      27.541  28.388  23.423  1.00  0.00     0.037 C 
ATOM     28  C   UNL A   1      28.194  30.304  21.940  1.00  0.00     0.005 C 
ATOM     29  C   UNL A   1      27.483  29.902  23.227  1.00  0.00     0.005 C 
ENDBRANCH  18  20
ENDBRANCH   8  18
ENDBRANCH   6   7
ENDBRANCH   4   6
ENDBRANCH   1   2
BRANCH   1  30
ATOM     30  C   UNL A   1      32.108  28.946  26.840  1.00  0.00     0.042 C 
BRANCH  30  31
ATOM     31  C   UNL A   1      33.537  29.254  27.271  1.00  0.00     0.118 C 
BRANCH  31  32
ATOM     32  N   UNL A   1      33.694  30.504  28.000  1.00  0.00    -0.352 N 
ATOM     33  C   UNL A   1      34.823  30.989  28.629  1.00  0.00     0.251 C 
ATOM     34  H   UNL A   1      32.893  31.074  28.054  1.00  0.00     0.163 HD
ATOM     35  O   UNL A   1      34.794  32.038  29.256  1.00  0.00    -0.269 OA
BRANCH  33  36
ATOM     36  C   UNL A   1      36.065  30.184  28.581  1.00  0.00     0.039 A 
ATOM     37  C   UNL A   1      36.478  29.451  29.695  1.00  0.00     0.014 A 
ATOM     38  C   UNL A   1      36.873  30.262  27.443  1.00  0.00     0.014 A 
ATOM     39  C   UNL A   1      37.778  28.953  29.744  1.00  0.00     0.010 A 
ATOM     40  C   UNL A   1      38.154  29.703  27.470  1.00  0.00     0.010 A 
ATOM     41  C   UNL A   1      38.640  29.107  28.646  1.00  0.00    -0.014 A 
BRANCH  41  42
ATOM     42  C   UNL A   1      40.070  28.723  28.769  1.00  0.00     0.031 A 
ATOM     43  C   UNL A   1      41.060  29.679  29.385  1.00  0.00     0.074 A 
ATOM     44  C   UNL A   1      40.477  27.500  28.384  1.00  0.00     0.049 A 
ATOM     45  N   UNL A   1      42.352  29.540  29.555  1.00  0.00    -0.248 NA
ATOM     46  C   UNL A   1      40.530  30.962  29.874  1.00  0.00     0.031 C 
ATOM     47  C   UNL A   1      39.618  26.468  27.803  1.00  0.00     0.029 A 
ATOM     48  N   UNL A   1      41.716  26.913  28.438  1.00  0.00    -0.354 N 
ATOM     49  C   UNL A   1      42.789  30.720  30.143  1.00  0.00     0.074 A 
ATOM     50  C   UNL A   1      41.630  31.575  30.286  1.00  0.00     0.031 C 
ATOM     51  C   UNL A   1      40.348  25.362  27.588  1.00  0.00     0.029 A 
ATOM     52  C   UNL A   1      41.734  25.625  27.966  1.00  0.00     0.049 A 
ATOM     53  H   UNL A   1      42.515  27.373  28.783  1.00  0.00     0.167 HD
ATOM     54  C   UNL A   1      44.040  31.061  30.536  1.00  0.00     0.037 A 
ATOM     55  C   UNL A   1      42.754  24.757  27.838  1.00  0.00     0.037 A 
ATOM     56  C   UNL A   1      45.192  30.205  30.428  1.00  0.00     0.049 A 
ATOM     57  C   UNL A   1      44.138  25.173  28.245  1.00  0.00     0.074 A 
ATOM     58  C   UNL A   1      46.496  30.460  30.816  1.00  0.00     0.029 A 
ATOM     59  N   UNL A   1      45.173  28.924  29.902  1.00  0.00    -0.354 N 
ATOM     60  N   UNL A   1      44.537  26.299  28.782  1.00  0.00    -0.248 NA
ATOM     61  C   UNL A   1      45.215  24.199  28.017  1.00  0.00     0.031 C 
ATOM     62  C   UNL A   1      47.274  29.339  30.501  1.00  0.00     0.029 A 
ATOM     63  C   UNL A   1      46.444  28.377  29.944  1.00  0.00     0.049 A 
ATOM     64  H   UNL A   1      44.374  28.468  29.551  1.00  0.00     0.167 HD
ATOM     65  C   UNL A   1      45.906  26.166  28.967  1.00  0.00     0.074 A 
ATOM     66  C   UNL A   1      46.267  24.844  28.498  1.00  0.00     0.031 C 
ATOM     67  C   UNL A   1      46.786  27.060  29.478  1.00  0.00     0.037 A 
BRANCH  54  68
ATOM     68  C   UNL A   1      44.232  32.431  31.113  1.00  0.00     0.057 A 
ATOM     69  C   UNL A   1      44.103  32.649  32.490  1.00  0.00     0.134 A 
ATOM     70  C   UNL A   1      44.513  33.539  30.304  1.00  0.00     0.134 A 
ATOM     71  F   UNL A   1      43.830  31.629  33.319  1.00  0.00    -0.206 F 
ATOM     72  C   UNL A   1      44.242  33.923  33.043  1.00  0.00     0.040 A 
ATOM     73  C   UNL A   1      44.673  34.815  30.847  1.00  0.00     0.040 A 
ATOM     74  F   UNL A   1      44.664  33.392  28.979  1.00  0.00    -0.206 F 
ATOM     75  C   UNL A   1      44.532  35.011  32.221  1.00  0.00     0.006 A 
ENDBRANCH  54  68
BRANCH  55  76
ATOM     76  C   UNL A   1      42.504  23.405  27.286  1.00  0.00     0.057 A 
ATOM     77  C   UNL A   1      42.656  23.135  25.921  1.00  0.00     0.134 A 
ATOM     78  C   UNL A   1      42.109  22.350  28.116  1.00  0.00     0.134 A 
ATOM     79  F   UNL A   1      43.032  24.107  25.077  1.00  0.00    -0.206 F 
ATOM     80  C   UNL A   1      42.413  21.866  25.397  1.00  0.00     0.040 A 
ATOM     81  C   UNL A   1      41.881  21.071  27.609  1.00  0.00     0.040 A 
ATOM     82  F   UNL A   1      41.967  22.546  29.435  1.00  0.00    -0.206 F 
ATOM     83  C   UNL A   1      42.027  20.828  26.244  1.00  0.00     0.006 A 
ENDBRANCH  55  76
BRANCH  67  84
ATOM     84  C   UNL A   1      48.216  26.627  29.576  1.00  0.00     0.057 A 
ATOM     85  C   UNL A   1      49.107  26.865  28.522  1.00  0.00     0.134 A 
ATOM     86  C   UNL A   1      48.703  25.952  30.701  1.00  0.00     0.134 A 
ATOM     87  F   UNL A   1      48.699  27.503  27.415  1.00  0.00    -0.206 F 
ATOM     88  C   UNL A   1      50.436  26.443  28.585  1.00  0.00     0.040 A 
ATOM     89  C   UNL A   1      50.034  25.541  30.782  1.00  0.00     0.040 A 
ATOM     90  F   UNL A   1      47.899  25.710  31.748  1.00  0.00    -0.206 F 
ATOM     91  C   UNL A   1      50.903  25.782  29.720  1.00  0.00     0.006 A 
ENDBRANCH  67  84
ENDBRANCH  41  42
ENDBRANCH  33  36
ENDBRANCH  31  32
ENDBRANCH  30  31
ENDBRANCH   1  30
TORSDOF 13
ENDMDL
MODEL 3
REMARK VINA RESULT:     -13.4      0.259      5.972
REMARK SMILES O=C(Cc1c(C(=O)c2cc3c(cn2)CCCC3)[nH]c2cc(Cl)ccc12)NCCCNC(=O)c1ccc(-c2c3nc(c(-c4c(F)cccc4F)c4ccc([nH]4)c(-c4c(F)cccc4F)c4nc(c(-c5c(F)cccc5F)c5ccc2[nH]5)C=C4)C=C3)cc1
REMARK SMILES IDX 27 1 26 2 1 3 2 4 3 6 4 7 5 8 25 9 18 10 19 11 24 12 20 14
REMARK SMILES IDX 23 15 21 16 22 17 6 18 7 19 8 20 9 21 13 22 10 23 12 24
REMARK SMILES IDX 11 25 17 26 14 27 16 28 15 29 28 30 29 31 30 32 31 33 32 35
REMARK SMILES IDX 33 36 34 37 86 38 35 39 85 40 36 41 37 42 38 43 79 44 39 45
REMARK SMILES IDX 84 46 78 47 80 48 40 49 83 50 77 51 76 52 41 54 67 55 50 56
REMARK SMILES IDX 66 57 51 58 54 59 65 60 81 61 52 62 53 63 64 65 82 66 55 67
REMARK SMILES IDX 42 68 43 69 48 70 44 71 45 72 47 73 49 74 46 75 68 76 69 77
REMARK SMILES IDX 74 78 70 79 71 80 73 81 75 82 72 83 56 84 57 85 62 86 58 87
REMARK SMILES IDX 59 88 61 89 63 90 60 91
REMARK H PARENT 26 5 18 13 30 34 80 53 54 64
REMARK Flexibility Score: inf
ROOT
ATOM      1  C   UNL A   1      31.808  27.856  26.940  1.00  0.00     0.117 C 
ENDROOT
BRANCH   1   2
ATOM      2  N   UNL A   1      32.876  26.958  26.555  1.00  0.00    -0.356 N 
ATOM      3  O   UNL A   1      31.535  25.100  26.597  1.00  0.00    -0.275 OA
ATOM      4  C   UNL A   1      32.608  25.623  26.307  1.00  0.00     0.224 C 
ATOM      5  H   UNL A   1      33.795  27.297  26.469  1.00  0.00     0.163 HD
BRANCH   4   6
ATOM      6  C   UNL A   1      33.722  24.896  25.560  1.00  0.00     0.138 C 
BRANCH   6   7
ATOM      7  C   UNL A   1      33.138  24.151  24.391  1.00  0.00    -0.002 A 
ATOM      8  C   UNL A   1      32.725  24.681  23.167  1.00  0.00     0.093 A 
ATOM      9  C   UNL A   1      32.929  22.729  24.338  1.00  0.00     0.004 A 
ATOM     10  N   UNL A   1      32.464  23.601  22.348  1.00  0.00    -0.351 N 
ATOM     11  C   UNL A   1      32.527  22.418  23.043  1.00  0.00     0.048 A 
ATOM     12  C   UNL A   1      33.078  21.673  25.263  1.00  0.00     0.012 A 
ATOM     13  H   UNL A   1      32.258  23.670  21.388  1.00  0.00     0.167 HD
ATOM     14  C   UNL A   1      32.282  21.106  22.615  1.00  0.00     0.047 A 
ATOM     15  C   UNL A   1      32.830  20.355  24.862  1.00  0.00     0.021 A 
ATOM     16  C   UNL A   1      32.443  20.083  23.554  1.00  0.00     0.043 A 
ATOM     17  Cl  UNL A   1      32.152  18.454  23.078  1.00  0.00    -0.084 Cl
BRANCH   8  18
ATOM     18  C   UNL A   1      32.626  26.082  22.756  1.00  0.00     0.227 C 
ATOM     19  O   UNL A   1      33.584  26.749  22.372  1.00  0.00    -0.285 OA
BRANCH  18  20
ATOM     20  C   UNL A   1      31.309  26.770  22.883  1.00  0.00     0.113 A 
ATOM     21  C   UNL A   1      31.147  28.053  22.368  1.00  0.00     0.036 A 
ATOM     22  N   UNL A   1      30.328  26.080  23.508  1.00  0.00    -0.252 NA
ATOM     23  C   UNL A   1      29.901  28.674  22.503  1.00  0.00    -0.041 A 
ATOM     24  C   UNL A   1      29.130  26.692  23.610  1.00  0.00     0.115 A 
ATOM     25  C   UNL A   1      28.867  27.979  23.147  1.00  0.00    -0.026 A 
ATOM     26  C   UNL A   1      29.713  30.087  22.009  1.00  0.00     0.036 C 
ATOM     27  C   UNL A   1      27.482  28.553  23.274  1.00  0.00     0.037 C 
ATOM     28  C   UNL A   1      28.244  30.477  21.855  1.00  0.00     0.005 C 
ATOM     29  C   UNL A   1      27.446  30.069  23.089  1.00  0.00     0.005 C 
ENDBRANCH  18  20
ENDBRANCH   8  18
ENDBRANCH   6   7
ENDBRANCH   4   6
ENDBRANCH   1   2
BRANCH   1  30
ATOM     30  C   UNL A   1      31.578  28.981  25.943  1.00  0.00     0.042 C 
BRANCH  30  31
ATOM     31  C   UNL A   1      32.705  30.004  25.856  1.00  0.00     0.118 C 
BRANCH  31  32
ATOM     32  N   UNL A   1      32.424  31.271  26.515  1.00  0.00    -0.352 N 
ATOM     33  C   UNL A   1      33.231  31.977  27.385  1.00  0.00     0.251 C 
ATOM     34  H   UNL A   1      31.549  31.674  26.316  1.00  0.00     0.163 HD
ATOM     35  O   UNL A   1      32.840  33.010  27.910  1.00  0.00    -0.269 OA
BRANCH  33  36
ATOM     36  C   UNL A   1      34.565  31.430  27.721  1.00  0.00     0.039 A 
ATOM     37  C   UNL A   1      34.724  30.071  27.999  1.00  0.00     0.014 A 
ATOM     38  C   UNL A   1      35.637  32.315  27.865  1.00  0.00     0.014 A 
ATOM     39  C   UNL A   1      35.899  29.628  28.600  1.00  0.00     0.010 A 
ATOM     40  C   UNL A   1      36.839  31.853  28.409  1.00  0.00     0.010 A 
ATOM     41  C   UNL A   1      36.954  30.523  28.845  1.00  0.00    -0.014 A 
BRANCH  41  42
ATOM     42  C   UNL A   1      38.132  30.080  29.635  1.00  0.00     0.031 A 
ATOM     43  C   UNL A   1      38.306  30.545  31.059  1.00  0.00     0.074 A 
ATOM     44  C   UNL A   1      39.017  29.218  29.103  1.00  0.00     0.049 A 
ATOM     45  N   UNL A   1      39.278  30.293  31.900  1.00  0.00    -0.248 NA
ATOM     46  C   UNL A   1      37.250  31.410  31.611  1.00  0.00     0.031 C 
ATOM     47  C   UNL A   1      38.949  28.665  27.750  1.00  0.00     0.029 A 
ATOM     48  N   UNL A   1      40.139  28.643  29.644  1.00  0.00    -0.354 N 
ATOM     49  C   UNL A   1      38.965  30.984  33.064  1.00  0.00     0.074 A 
ATOM     50  C   UNL A   1      37.722  31.682  32.819  1.00  0.00     0.031 C 
ATOM     51  C   UNL A   1      39.965  27.804  27.579  1.00  0.00     0.029 A 
ATOM     52  C   UNL A   1      40.782  27.785  28.789  1.00  0.00     0.049 A 
ATOM     53  H   UNL A   1      40.453  28.831  30.558  1.00  0.00     0.167 HD
ATOM     54  C   UNL A   1      39.645  31.028  34.235  1.00  0.00     0.037 A 
ATOM     55  C   UNL A   1      41.911  27.072  28.954  1.00  0.00     0.037 A 
ATOM     56  C   UNL A   1      40.864  30.310  34.499  1.00  0.00     0.049 A 
ATOM     57  C   UNL A   1      42.667  27.168  30.248  1.00  0.00     0.074 A 
ATOM     58  C   UNL A   1      41.615  30.282  35.663  1.00  0.00     0.029 A 
ATOM     59  N   UNL A   1      41.505  29.486  33.589  1.00  0.00    -0.354 N 
ATOM     60  N   UNL A   1      42.367  27.841  31.331  1.00  0.00    -0.248 NA
ATOM     61  C   UNL A   1      43.926  26.414  30.336  1.00  0.00     0.031 C 
ATOM     62  C   UNL A   1      42.726  29.457  35.447  1.00  0.00     0.029 A 
ATOM     63  C   UNL A   1      42.648  28.952  34.159  1.00  0.00     0.049 A 
ATOM     64  H   UNL A   1      41.193  29.306  32.673  1.00  0.00     0.167 HD
ATOM     65  C   UNL A   1      43.390  27.582  32.233  1.00  0.00     0.074 A 
ATOM     66  C   UNL A   1      44.313  26.681  31.575  1.00  0.00     0.031 C 
ATOM     67  C   UNL A   1      43.552  28.053  33.493  1.00  0.00     0.037 A 
BRANCH  54  68
ATOM     68  C   UNL A   1      39.088  31.896  35.323  1.00  0.00     0.057 A 
ATOM     69  C   UNL A   1      39.394  33.261  35.372  1.00  0.00     0.134 A 
ATOM     70  C   UNL A   1      38.278  31.376  36.340  1.00  0.00     0.134 A 
ATOM     71  F   UNL A   1      40.169  33.820  34.429  1.00  0.00    -0.206 F 
ATOM     72  C   UNL A   1      38.916  34.079  36.397  1.00  0.00     0.040 A 
ATOM     73  C   UNL A   1      37.779  32.187  37.360  1.00  0.00     0.040 A 
ATOM     74  F   UNL A   1      37.938  30.078  36.340  1.00  0.00    -0.206 F 
ATOM     75  C   UNL A   1      38.103  33.543  37.393  1.00  0.00     0.006 A 
ENDBRANCH  54  68
BRANCH  55  76
ATOM     76  C   UNL A   1      42.404  26.208  27.856  1.00  0.00     0.057 A 
ATOM     77  C   UNL A   1      42.047  24.856  27.776  1.00  0.00     0.134 A 
ATOM     78  C   UNL A   1      43.242  26.718  26.859  1.00  0.00     0.134 A 
ATOM     79  F   UNL A   1      41.246  24.312  28.703  1.00  0.00    -0.206 F 
ATOM     80  C   UNL A   1      42.516  24.039  26.749  1.00  0.00     0.040 A 
ATOM     81  C   UNL A   1      43.704  25.917  25.815  1.00  0.00     0.040 A 
ATOM     82  F   UNL A   1      43.600  28.010  26.875  1.00  0.00    -0.206 F 
ATOM     83  C   UNL A   1      43.345  24.570  25.762  1.00  0.00     0.006 A 
ENDBRANCH  55  76
BRANCH  67  84
ATOM     84  C   UNL A   1      44.758  27.581  34.245  1.00  0.00     0.057 A 
ATOM     85  C   UNL A   1      44.705  26.417  35.021  1.00  0.00     0.134 A 
ATOM     86  C   UNL A   1      45.962  28.296  34.223  1.00  0.00     0.134 A 
ATOM     87  F   UNL A   1      43.578  25.692  35.086  1.00  0.00    -0.206 F 
ATOM     88  C   UNL A   1      45.811  25.980  35.751  1.00  0.00     0.040 A 
ATOM     89  C   UNL A   1      47.079  27.858  34.935  1.00  0.00     0.040 A 
ATOM     90  F   UNL A   1      46.076  29.411  33.486  1.00  0.00    -0.206 F 
ATOM     91  C   UNL A   1      47.003  26.700  35.706  1.00  0.00     0.006 A 
ENDBRANCH  67  84
ENDBRANCH  41  42
ENDBRANCH  33  36
ENDBRANCH  31  32
ENDBRANCH  30  31
ENDBRANCH   1  30
TORSDOF 13
ENDMDL
