MODEL 1
REMARK VINA RESULT:     -11.8      0.000      0.000
REMARK SMILES C[C@@H](Sc1nc2ccccc2c(=O)n1N)C(=O)NCCCNC(=O)c1ccc(-c2c3nc(c(-c4c(F)cccc4F)c4ccc([nH]4)c(-c4c(F)cccc4F)c4nc(c(-c5c(F)cccc5F)c5ccc2[nH]5)C=C4)C=C3)cc1
REMARK SMILES IDX 19 1 18 2 16 3 17 4 2 6 1 7 3 8 4 9 5 10 14 11 6 12 12 13
REMARK SMILES IDX 7 14 11 15 13 16 8 17 10 18 9 19 15 20 20 23 21 24 22 25
REMARK SMILES IDX 23 26 24 28 25 29 26 30 78 31 27 32 77 33 28 34 29 35 30 36
REMARK SMILES IDX 71 37 31 38 76 39 70 40 72 41 32 42 75 43 69 44 68 45 33 47
REMARK SMILES IDX 59 48 42 49 58 50 43 51 46 52 57 53 73 54 44 55 45 56 56 58
REMARK SMILES IDX 74 59 47 60 34 61 35 62 40 63 36 64 37 65 39 66 41 67 38 68
REMARK SMILES IDX 60 69 61 70 66 71 62 72 63 73 65 74 67 75 64 76 48 77 49 78
REMARK SMILES IDX 54 79 50 80 51 81 53 82 55 83 52 84
REMARK H PARENT 18 5 15 21 15 22 22 27 72 46 46 57
REMARK Flexibility Score: inf
ROOT
ATOM      1  C   UNL A   1      36.541  20.514  25.031  1.00  0.00     0.117 C 
ENDROOT
BRANCH   1   2
ATOM      2  N   UNL A   1      35.390  19.633  24.923  1.00  0.00    -0.355 N 
ATOM      3  C   UNL A   1      34.057  19.915  24.863  1.00  0.00     0.233 C 
ATOM      4  O   UNL A   1      33.284  18.957  24.765  1.00  0.00    -0.274 OA
ATOM      5  H   UNL A   1      35.609  18.674  24.887  1.00  0.00     0.163 HD
BRANCH   3   6
ATOM      6  C   UNL A   1      33.523  21.348  24.920  1.00  0.00     0.141 C 
ATOM      7  C   UNL A   1      32.436  21.597  23.880  1.00  0.00     0.030 C 
BRANCH   6   8
ATOM      8  S   UNL A   1      33.106  21.734  26.659  1.00  0.00    -0.073 SA
BRANCH   8   9
ATOM      9  C   UNL A   1      32.583  23.393  26.541  1.00  0.00     0.191 A 
ATOM     10  N   UNL A   1      33.485  24.278  26.259  1.00  0.00    -0.222 NA
ATOM     11  N   UNL A   1      31.228  23.672  26.668  1.00  0.00    -0.202 N 
ATOM     12  C   UNL A   1      33.063  25.597  26.036  1.00  0.00     0.079 A 
ATOM     13  C   UNL A   1      30.724  24.952  26.443  1.00  0.00     0.280 A 
ATOM     14  C   UNL A   1      34.018  26.557  25.689  1.00  0.00     0.029 A 
ATOM     15  C   UNL A   1      31.723  25.981  26.099  1.00  0.00     0.068 A 
ATOM     16  O   UNL A   1      29.527  25.228  26.494  1.00  0.00    -0.267 OA
ATOM     17  C   UNL A   1      33.635  27.871  25.403  1.00  0.00     0.002 A 
ATOM     18  C   UNL A   1      31.329  27.294  25.817  1.00  0.00     0.016 A 
ATOM     19  C   UNL A   1      32.290  28.239  25.465  1.00  0.00     0.001 A 
BRANCH  11  20
ATOM     20  N   UNL A   1      30.278  22.656  27.017  1.00  0.00    -0.334 N 
ATOM     21  H   UNL A   1      29.848  22.122  26.310  1.00  0.00     0.178 HD
ATOM     22  H   UNL A   1      30.058  22.493  27.962  1.00  0.00     0.178 HD
ENDBRANCH  11  20
ENDBRANCH   8   9
ENDBRANCH   6   8
ENDBRANCH   3   6
ENDBRANCH   1   2
BRANCH   1  23
ATOM     23  C   UNL A   1      37.845  19.756  24.837  1.00  0.00     0.042 C 
BRANCH  23  24
ATOM     24  C   UNL A   1      38.972  20.249  25.735  1.00  0.00     0.118 C 
BRANCH  24  25
ATOM     25  N   UNL A   1      40.088  19.314  25.799  1.00  0.00    -0.352 N 
ATOM     26  C   UNL A   1      41.409  19.538  26.090  1.00  0.00     0.251 C 
ATOM     27  H   UNL A   1      39.857  18.377  25.603  1.00  0.00     0.163 HD
ATOM     28  O   UNL A   1      42.238  18.648  25.902  1.00  0.00    -0.269 OA
BRANCH  26  29
ATOM     29  C   UNL A   1      41.844  20.851  26.608  1.00  0.00     0.039 A 
ATOM     30  C   UNL A   1      42.302  21.815  25.707  1.00  0.00     0.014 A 
ATOM     31  C   UNL A   1      41.807  21.130  27.976  1.00  0.00     0.014 A 
ATOM     32  C   UNL A   1      42.653  23.084  26.173  1.00  0.00     0.010 A 
ATOM     33  C   UNL A   1      42.070  22.419  28.426  1.00  0.00     0.010 A 
ATOM     34  C   UNL A   1      42.499  23.409  27.530  1.00  0.00    -0.014 A 
BRANCH  34  35
ATOM     35  C   UNL A   1      42.777  24.777  28.034  1.00  0.00     0.031 A 
ATOM     36  C   UNL A   1      44.169  25.161  28.452  1.00  0.00     0.074 A 
ATOM     37  C   UNL A   1      41.761  25.649  28.184  1.00  0.00     0.049 A 
ATOM     38  N   UNL A   1      44.593  26.277  28.990  1.00  0.00    -0.248 NA
ATOM     39  C   UNL A   1      45.220  24.147  28.268  1.00  0.00     0.031 C 
ATOM     40  C   UNL A   1      40.358  25.379  27.861  1.00  0.00     0.029 A 
ATOM     41  N   UNL A   1      41.750  26.937  28.657  1.00  0.00    -0.354 N 
ATOM     42  C   UNL A   1      45.950  26.092  29.222  1.00  0.00     0.074 A 
ATOM     43  C   UNL A   1      46.268  24.740  28.820  1.00  0.00     0.031 C 
ATOM     44  C   UNL A   1      39.628  26.475  28.122  1.00  0.00     0.029 A 
ATOM     45  C   UNL A   1      40.500  27.509  28.671  1.00  0.00     0.049 A 
ATOM     46  H   UNL A   1      42.561  27.408  28.959  1.00  0.00     0.167 HD
ATOM     47  C   UNL A   1      46.854  26.978  29.704  1.00  0.00     0.037 A 
ATOM     48  C   UNL A   1      40.101  28.724  29.088  1.00  0.00     0.037 A 
ATOM     49  C   UNL A   1      46.537  28.330  30.082  1.00  0.00     0.049 A 
ATOM     50  C   UNL A   1      41.123  29.686  29.629  1.00  0.00     0.074 A 
ATOM     51  C   UNL A   1      47.392  29.323  30.526  1.00  0.00     0.029 A 
ATOM     52  N   UNL A   1      45.263  28.878  30.063  1.00  0.00    -0.354 N 
ATOM     53  N   UNL A   1      42.414  29.522  29.779  1.00  0.00    -0.248 NA
ATOM     54  C   UNL A   1      40.632  31.005  30.053  1.00  0.00     0.031 C 
ATOM     55  C   UNL A   1      46.628  30.456  30.824  1.00  0.00     0.029 A 
ATOM     56  C   UNL A   1      45.306  30.188  30.510  1.00  0.00     0.049 A 
ATOM     57  H   UNL A   1      44.448  28.405  29.775  1.00  0.00     0.167 HD
ATOM     58  C   UNL A   1      42.895  30.724  30.282  1.00  0.00     0.074 A 
ATOM     59  C   UNL A   1      41.757  31.612  30.400  1.00  0.00     0.031 C 
ATOM     60  C   UNL A   1      44.165  31.063  30.613  1.00  0.00     0.037 A 
BRANCH  47  61
ATOM     61  C   UNL A   1      48.274  26.511  29.847  1.00  0.00     0.057 A 
ATOM     62  C   UNL A   1      49.229  26.730  28.845  1.00  0.00     0.134 A 
ATOM     63  C   UNL A   1      48.701  25.866  31.015  1.00  0.00     0.134 A 
ATOM     64  F   UNL A   1      48.885  27.332  27.697  1.00  0.00    -0.206 F 
ATOM     65  C   UNL A   1      50.550  26.300  28.988  1.00  0.00     0.040 A 
ATOM     66  C   UNL A   1      50.026  25.458  31.182  1.00  0.00     0.040 A 
ATOM     67  F   UNL A   1      47.841  25.630  32.017  1.00  0.00    -0.206 F 
ATOM     68  C   UNL A   1      50.954  25.668  30.163  1.00  0.00     0.006 A 
ENDBRANCH  47  61
BRANCH  48  69
ATOM     69  C   UNL A   1      38.670  29.111  28.991  1.00  0.00     0.057 A 
ATOM     70  C   UNL A   1      38.126  29.567  27.785  1.00  0.00     0.134 A 
ATOM     71  C   UNL A   1      37.816  29.045  30.098  1.00  0.00     0.134 A 
ATOM     72  F   UNL A   1      38.898  29.670  26.693  1.00  0.00    -0.206 F 
ATOM     73  C   UNL A   1      36.791  29.961  27.687  1.00  0.00     0.040 A 
ATOM     74  C   UNL A   1      36.472  29.410  30.008  1.00  0.00     0.040 A 
ATOM     75  F   UNL A   1      38.273  28.608  31.281  1.00  0.00    -0.206 F 
ATOM     76  C   UNL A   1      35.958  29.879  28.801  1.00  0.00     0.006 A 
ENDBRANCH  48  69
BRANCH  60  77
ATOM     77  C   UNL A   1      44.401  32.465  31.092  1.00  0.00     0.057 A 
ATOM     78  C   UNL A   1      44.376  32.801  32.451  1.00  0.00     0.134 A 
ATOM     79  C   UNL A   1      44.700  33.486  30.179  1.00  0.00     0.134 A 
ATOM     80  F   UNL A   1      44.083  31.873  33.375  1.00  0.00    -0.206 F 
ATOM     81  C   UNL A   1      44.617  34.105  32.884  1.00  0.00     0.040 A 
ATOM     82  C   UNL A   1      44.972  34.787  30.603  1.00  0.00     0.040 A 
ATOM     83  F   UNL A   1      44.750  33.231  28.863  1.00  0.00    -0.206 F 
ATOM     84  C   UNL A   1      44.924  35.101  31.959  1.00  0.00     0.006 A 
ENDBRANCH  60  77
ENDBRANCH  34  35
ENDBRANCH  26  29
ENDBRANCH  24  25
ENDBRANCH  23  24
ENDBRANCH   1  23
TORSDOF 13
ENDMDL
MODEL 2
REMARK VINA RESULT:     -11.8      0.093      1.326
REMARK SMILES C[C@@H](Sc1nc2ccccc2c(=O)n1N)C(=O)NCCCNC(=O)c1ccc(-c2c3nc(c(-c4c(F)cccc4F)c4ccc([nH]4)c(-c4c(F)cccc4F)c4nc(c(-c5c(F)cccc5F)c5ccc2[nH]5)C=C4)C=C3)cc1
REMARK SMILES IDX 19 1 18 2 16 3 17 4 2 6 1 7 3 8 4 9 5 10 14 11 6 12 12 13
REMARK SMILES IDX 7 14 11 15 13 16 8 17 10 18 9 19 15 20 20 23 21 24 22 25
REMARK SMILES IDX 23 26 24 28 25 29 26 30 78 31 27 32 77 33 28 34 29 35 30 36
REMARK SMILES IDX 71 37 31 38 76 39 70 40 72 41 32 42 75 43 69 44 68 45 33 47
REMARK SMILES IDX 59 48 42 49 58 50 43 51 46 52 57 53 73 54 44 55 45 56 56 58
REMARK SMILES IDX 74 59 47 60 34 61 35 62 40 63 36 64 37 65 39 66 41 67 38 68
REMARK SMILES IDX 60 69 61 70 66 71 62 72 63 73 65 74 67 75 64 76 48 77 49 78
REMARK SMILES IDX 54 79 50 80 51 81 53 82 55 83 52 84
REMARK H PARENT 18 5 15 21 15 22 22 27 72 46 46 57
REMARK Flexibility Score: inf
ROOT
ATOM      1  C   UNL A   1      36.511  20.466  25.117  1.00  0.00     0.117 C 
ENDROOT
BRANCH   1   2
ATOM      2  N   UNL A   1      35.340  19.625  24.932  1.00  0.00    -0.355 N 
ATOM      3  C   UNL A   1      34.020  19.950  24.824  1.00  0.00     0.233 C 
ATOM      4  O   UNL A   1      33.224  19.020  24.663  1.00  0.00    -0.274 OA
ATOM      5  H   UNL A   1      35.532  18.661  24.875  1.00  0.00     0.163 HD
BRANCH   3   6
ATOM      6  C   UNL A   1      33.528  21.397  24.904  1.00  0.00     0.141 C 
ATOM      7  C   UNL A   1      32.385  21.667  23.930  1.00  0.00     0.030 C 
BRANCH   6   8
ATOM      8  S   UNL A   1      33.228  21.803  26.662  1.00  0.00    -0.073 SA
BRANCH   8   9
ATOM      9  C   UNL A   1      32.643  23.441  26.555  1.00  0.00     0.191 A 
ATOM     10  N   UNL A   1      33.509  24.360  26.270  1.00  0.00    -0.222 NA
ATOM     11  N   UNL A   1      31.279  23.669  26.695  1.00  0.00    -0.202 N 
ATOM     12  C   UNL A   1      33.037  25.663  26.056  1.00  0.00     0.079 A 
ATOM     13  C   UNL A   1      30.727  24.932  26.480  1.00  0.00     0.280 A 
ATOM     14  C   UNL A   1      33.953  26.659  25.705  1.00  0.00     0.029 A 
ATOM     15  C   UNL A   1      31.684  25.997  26.131  1.00  0.00     0.068 A 
ATOM     16  O   UNL A   1      29.521  25.163  26.542  1.00  0.00    -0.267 OA
ATOM     17  C   UNL A   1      33.519  27.960  25.428  1.00  0.00     0.002 A 
ATOM     18  C   UNL A   1      31.240  27.296  25.858  1.00  0.00     0.016 A 
ATOM     19  C   UNL A   1      32.163  28.277  25.503  1.00  0.00     0.001 A 
BRANCH  11  20
ATOM     20  N   UNL A   1      30.371  22.618  27.048  1.00  0.00    -0.334 N 
ATOM     21  H   UNL A   1      29.400  22.776  27.015  1.00  0.00     0.178 HD
ATOM     22  H   UNL A   1      30.719  21.739  27.322  1.00  0.00     0.178 HD
ENDBRANCH  11  20
ENDBRANCH   8   9
ENDBRANCH   6   8
ENDBRANCH   3   6
ENDBRANCH   1   2
BRANCH   1  23
ATOM     23  C   UNL A   1      37.800  19.684  24.908  1.00  0.00     0.042 C 
BRANCH  23  24
ATOM     24  C   UNL A   1      38.979  20.239  25.696  1.00  0.00     0.118 C 
BRANCH  24  25
ATOM     25  N   UNL A   1      40.093  19.302  25.768  1.00  0.00    -0.352 N 
ATOM     26  C   UNL A   1      41.412  19.525  26.073  1.00  0.00     0.251 C 
ATOM     27  H   UNL A   1      39.865  18.366  25.567  1.00  0.00     0.163 HD
ATOM     28  O   UNL A   1      42.242  18.636  25.891  1.00  0.00    -0.269 OA
BRANCH  26  29
ATOM     29  C   UNL A   1      41.842  20.836  26.600  1.00  0.00     0.039 A 
ATOM     30  C   UNL A   1      42.310  21.803  25.707  1.00  0.00     0.014 A 
ATOM     31  C   UNL A   1      41.789  21.112  27.969  1.00  0.00     0.014 A 
ATOM     32  C   UNL A   1      42.657  23.070  26.180  1.00  0.00     0.010 A 
ATOM     33  C   UNL A   1      42.048  22.399  28.425  1.00  0.00     0.010 A 
ATOM     34  C   UNL A   1      42.488  23.391  27.537  1.00  0.00    -0.014 A 
BRANCH  34  35
ATOM     35  C   UNL A   1      42.761  24.757  28.048  1.00  0.00     0.031 A 
ATOM     36  C   UNL A   1      44.149  25.140  28.483  1.00  0.00     0.074 A 
ATOM     37  C   UNL A   1      41.745  25.630  28.189  1.00  0.00     0.049 A 
ATOM     38  N   UNL A   1      44.568  26.254  29.028  1.00  0.00    -0.248 NA
ATOM     39  C   UNL A   1      45.201  24.125  28.308  1.00  0.00     0.031 C 
ATOM     40  C   UNL A   1      40.344  25.362  27.850  1.00  0.00     0.029 A 
ATOM     41  N   UNL A   1      41.729  26.917  28.666  1.00  0.00    -0.354 N 
ATOM     42  C   UNL A   1      45.922  26.067  29.275  1.00  0.00     0.074 A 
ATOM     43  C   UNL A   1      46.243  24.717  28.872  1.00  0.00     0.031 C 
ATOM     44  C   UNL A   1      39.613  26.457  28.107  1.00  0.00     0.029 A 
ATOM     45  C   UNL A   1      40.480  27.489  28.668  1.00  0.00     0.049 A 
ATOM     46  H   UNL A   1      42.536  27.386  28.979  1.00  0.00     0.167 HD
ATOM     47  C   UNL A   1      46.821  26.951  29.770  1.00  0.00     0.037 A 
ATOM     48  C   UNL A   1      40.076  28.704  29.085  1.00  0.00     0.037 A 
ATOM     49  C   UNL A   1      46.501  28.302  30.148  1.00  0.00     0.049 A 
ATOM     50  C   UNL A   1      41.092  29.663  29.640  1.00  0.00     0.074 A 
ATOM     51  C   UNL A   1      47.351  29.294  30.605  1.00  0.00     0.029 A 
ATOM     52  N   UNL A   1      45.227  28.851  30.117  1.00  0.00    -0.354 N 
ATOM     53  N   UNL A   1      42.382  29.497  29.803  1.00  0.00    -0.248 NA
ATOM     54  C   UNL A   1      40.597  30.981  30.062  1.00  0.00     0.031 C 
ATOM     55  C   UNL A   1      46.584  30.426  30.898  1.00  0.00     0.029 A 
ATOM     56  C   UNL A   1      45.266  30.159  30.568  1.00  0.00     0.049 A 
ATOM     57  H   UNL A   1      44.416  28.379  29.819  1.00  0.00     0.167 HD
ATOM     58  C   UNL A   1      42.858  30.698  30.315  1.00  0.00     0.074 A 
ATOM     59  C   UNL A   1      41.720  31.586  30.424  1.00  0.00     0.031 C 
ATOM     60  C   UNL A   1      44.125  31.035  30.661  1.00  0.00     0.037 A 
BRANCH  47  61
ATOM     61  C   UNL A   1      48.239  26.483  29.927  1.00  0.00     0.057 A 
ATOM     62  C   UNL A   1      48.690  25.873  31.105  1.00  0.00     0.134 A 
ATOM     63  C   UNL A   1      49.156  26.611  28.876  1.00  0.00     0.134 A 
ATOM     64  F   UNL A   1      47.867  25.729  32.155  1.00  0.00    -0.206 F 
ATOM     65  C   UNL A   1      50.009  25.433  31.242  1.00  0.00     0.040 A 
ATOM     66  C   UNL A   1      50.468  26.147  28.990  1.00  0.00     0.040 A 
ATOM     67  F   UNL A   1      48.790  27.179  27.718  1.00  0.00    -0.206 F 
ATOM     68  C   UNL A   1      50.900  25.563  30.179  1.00  0.00     0.006 A 
ENDBRANCH  47  61
BRANCH  48  69
ATOM     69  C   UNL A   1      38.647  29.092  28.973  1.00  0.00     0.057 A 
ATOM     70  C   UNL A   1      38.120  29.567  27.766  1.00  0.00     0.134 A 
ATOM     71  C   UNL A   1      37.777  29.006  30.066  1.00  0.00     0.134 A 
ATOM     72  F   UNL A   1      38.908  29.689  26.688  1.00  0.00    -0.206 F 
ATOM     73  C   UNL A   1      36.787  29.963  27.655  1.00  0.00     0.040 A 
ATOM     74  C   UNL A   1      36.434  29.373  29.962  1.00  0.00     0.040 A 
ATOM     75  F   UNL A   1      38.216  28.549  31.248  1.00  0.00    -0.206 F 
ATOM     76  C   UNL A   1      35.938  29.861  28.756  1.00  0.00     0.006 A 
ENDBRANCH  48  69
BRANCH  60  77
ATOM     77  C   UNL A   1      44.356  32.436  31.147  1.00  0.00     0.057 A 
ATOM     78  C   UNL A   1      44.630  33.492  30.269  1.00  0.00     0.134 A 
ATOM     79  C   UNL A   1      44.261  32.738  32.512  1.00  0.00     0.134 A 
ATOM     80  F   UNL A   1      44.747  33.267  28.951  1.00  0.00    -0.206 F 
ATOM     81  C   UNL A   1      44.823  34.794  30.733  1.00  0.00     0.040 A 
ATOM     82  C   UNL A   1      44.423  34.041  32.985  1.00  0.00     0.040 A 
ATOM     83  F   UNL A   1      43.992  31.775  33.406  1.00  0.00    -0.206 F 
ATOM     84  C   UNL A   1      44.712  35.072  32.094  1.00  0.00     0.006 A 
ENDBRANCH  60  77
ENDBRANCH  34  35
ENDBRANCH  26  29
ENDBRANCH  24  25
ENDBRANCH  23  24
ENDBRANCH   1  23
TORSDOF 13
ENDMDL
MODEL 3
REMARK VINA RESULT:     -11.7      1.641      6.350
REMARK SMILES C[C@@H](Sc1nc2ccccc2c(=O)n1N)C(=O)NCCCNC(=O)c1ccc(-c2c3nc(c(-c4c(F)cccc4F)c4ccc([nH]4)c(-c4c(F)cccc4F)c4nc(c(-c5c(F)cccc5F)c5ccc2[nH]5)C=C4)C=C3)cc1
REMARK SMILES IDX 19 1 18 2 16 3 17 4 2 6 1 7 3 8 4 9 5 10 14 11 6 12 12 13
REMARK SMILES IDX 7 14 11 15 13 16 8 17 10 18 9 19 15 20 20 23 21 24 22 25
REMARK SMILES IDX 23 26 24 28 25 29 26 30 78 31 27 32 77 33 28 34 29 35 30 36
REMARK SMILES IDX 71 37 31 38 76 39 70 40 72 41 32 42 75 43 69 44 68 45 33 47
REMARK SMILES IDX 59 48 42 49 58 50 43 51 46 52 57 53 73 54 44 55 45 56 56 58
REMARK SMILES IDX 74 59 47 60 34 61 35 62 40 63 36 64 37 65 39 66 41 67 38 68
REMARK SMILES IDX 60 69 61 70 66 71 62 72 63 73 65 74 67 75 64 76 48 77 49 78
REMARK SMILES IDX 54 79 50 80 51 81 53 82 55 83 52 84
REMARK H PARENT 18 5 15 21 15 22 22 27 72 46 46 57
REMARK Flexibility Score: inf
ROOT
ATOM      1  C   UNL A   1      36.602  20.522  25.166  1.00  0.00     0.117 C 
ENDROOT
BRANCH   1   2
ATOM      2  N   UNL A   1      35.449  19.652  25.001  1.00  0.00    -0.355 N 
ATOM      3  C   UNL A   1      34.124  19.946  24.874  1.00  0.00     0.233 C 
ATOM      4  O   UNL A   1      33.347  18.997  24.738  1.00  0.00    -0.274 OA
ATOM      5  H   UNL A   1      35.660  18.691  24.976  1.00  0.00     0.163 HD
BRANCH   3   6
ATOM      6  C   UNL A   1      33.602  21.385  24.904  1.00  0.00     0.141 C 
ATOM      7  C   UNL A   1      32.465  21.604  23.912  1.00  0.00     0.030 C 
BRANCH   6   8
ATOM      8  S   UNL A   1      33.276  21.839  26.646  1.00  0.00    -0.073 SA
BRANCH   8   9
ATOM      9  C   UNL A   1      32.668  23.464  26.484  1.00  0.00     0.191 A 
ATOM     10  N   UNL A   1      33.513  24.378  26.126  1.00  0.00    -0.222 NA
ATOM     11  N   UNL A   1      31.308  23.684  26.661  1.00  0.00    -0.202 N 
ATOM     12  C   UNL A   1      33.018  25.664  25.868  1.00  0.00     0.079 A 
ATOM     13  C   UNL A   1      30.733  24.929  26.407  1.00  0.00     0.280 A 
ATOM     14  C   UNL A   1      33.909  26.653  25.439  1.00  0.00     0.029 A 
ATOM     15  C   UNL A   1      31.664  25.987  25.976  1.00  0.00     0.068 A 
ATOM     16  O   UNL A   1      29.527  25.150  26.501  1.00  0.00    -0.267 OA
ATOM     17  C   UNL A   1      33.450  27.934  25.118  1.00  0.00     0.002 A 
ATOM     18  C   UNL A   1      31.195  27.267  25.659  1.00  0.00     0.016 A 
ATOM     19  C   UNL A   1      32.093  28.240  25.226  1.00  0.00     0.001 A 
BRANCH  11  20
ATOM     20  N   UNL A   1      30.425  22.641  27.094  1.00  0.00    -0.334 N 
ATOM     21  H   UNL A   1      29.674  22.363  26.521  1.00  0.00     0.178 HD
ATOM     22  H   UNL A   1      30.570  22.203  27.963  1.00  0.00     0.178 HD
ENDBRANCH  11  20
ENDBRANCH   8   9
ENDBRANCH   6   8
ENDBRANCH   3   6
ENDBRANCH   1   2
BRANCH   1  23
ATOM     23  C   UNL A   1      37.899  19.798  24.837  1.00  0.00     0.042 C 
BRANCH  23  24
ATOM     24  C   UNL A   1      39.059  20.194  25.740  1.00  0.00     0.118 C 
BRANCH  24  25
ATOM     25  N   UNL A   1      40.048  19.132  25.880  1.00  0.00    -0.352 N 
ATOM     26  C   UNL A   1      41.401  19.211  26.088  1.00  0.00     0.251 C 
ATOM     27  H   UNL A   1      39.689  18.218  25.814  1.00  0.00     0.163 HD
ATOM     28  O   UNL A   1      42.098  18.203  25.983  1.00  0.00    -0.269 OA
BRANCH  26  29
ATOM     29  C   UNL A   1      42.029  20.507  26.417  1.00  0.00     0.039 A 
ATOM     30  C   UNL A   1      42.463  21.331  25.377  1.00  0.00     0.014 A 
ATOM     31  C   UNL A   1      42.193  20.908  27.745  1.00  0.00     0.014 A 
ATOM     32  C   UNL A   1      42.997  22.589  25.668  1.00  0.00     0.010 A 
ATOM     33  C   UNL A   1      42.640  22.193  28.029  1.00  0.00     0.010 A 
ATOM     34  C   UNL A   1      43.050  23.046  26.994  1.00  0.00    -0.014 A 
BRANCH  34  35
ATOM     35  C   UNL A   1      43.526  24.413  27.322  1.00  0.00     0.031 A 
ATOM     36  C   UNL A   1      42.552  25.466  27.773  1.00  0.00     0.074 A 
ATOM     37  C   UNL A   1      44.824  24.726  27.144  1.00  0.00     0.049 A 
ATOM     38  N   UNL A   1      42.761  26.733  28.028  1.00  0.00    -0.248 NA
ATOM     39  C   UNL A   1      41.149  25.047  27.931  1.00  0.00     0.031 C 
ATOM     40  C   UNL A   1      45.859  23.806  26.665  1.00  0.00     0.029 A 
ATOM     41  N   UNL A   1      45.495  25.908  27.335  1.00  0.00    -0.354 N 
ATOM     42  C   UNL A   1      41.520  27.262  28.358  1.00  0.00     0.074 A 
ATOM     43  C   UNL A   1      40.555  26.195  28.218  1.00  0.00     0.031 C 
ATOM     44  C   UNL A   1      47.035  24.452  26.623  1.00  0.00     0.029 A 
ATOM     45  C   UNL A   1      46.832  25.839  27.029  1.00  0.00     0.049 A 
ATOM     46  H   UNL A   1      45.058  26.729  27.660  1.00  0.00     0.167 HD
ATOM     47  C   UNL A   1      41.217  28.518  28.765  1.00  0.00     0.037 A 
ATOM     48  C   UNL A   1      47.785  26.789  27.061  1.00  0.00     0.037 A 
ATOM     49  C   UNL A   1      42.186  29.570  28.925  1.00  0.00     0.049 A 
ATOM     50  C   UNL A   1      47.421  28.178  27.507  1.00  0.00     0.074 A 
ATOM     51  C   UNL A   1      41.989  30.859  29.387  1.00  0.00     0.029 A 
ATOM     52  N   UNL A   1      43.534  29.455  28.623  1.00  0.00    -0.354 N 
ATOM     53  N   UNL A   1      46.256  28.646  27.883  1.00  0.00    -0.248 NA
ATOM     54  C   UNL A   1      48.507  29.169  27.540  1.00  0.00     0.031 C 
ATOM     55  C   UNL A   1      43.209  31.540  29.318  1.00  0.00     0.029 A 
ATOM     56  C   UNL A   1      44.177  30.657  28.867  1.00  0.00     0.049 A 
ATOM     57  H   UNL A   1      43.971  28.640  28.284  1.00  0.00     0.167 HD
ATOM     58  C   UNL A   1      46.474  29.975  28.227  1.00  0.00     0.074 A 
ATOM     59  C   UNL A   1      47.884  30.232  28.027  1.00  0.00     0.031 C 
ATOM     60  C   UNL A   1      45.585  30.896  28.672  1.00  0.00     0.037 A 
BRANCH  47  61
ATOM     61  C   UNL A   1      39.778  28.820  29.069  1.00  0.00     0.057 A 
ATOM     62  C   UNL A   1      38.883  29.233  28.073  1.00  0.00     0.134 A 
ATOM     63  C   UNL A   1      39.272  28.661  30.365  1.00  0.00     0.134 A 
ATOM     64  F   UNL A   1      39.304  29.417  26.812  1.00  0.00    -0.206 F 
ATOM     65  C   UNL A   1      37.544  29.506  28.361  1.00  0.00     0.040 A 
ATOM     66  C   UNL A   1      37.928  28.901  30.659  1.00  0.00     0.040 A 
ATOM     67  F   UNL A   1      40.071  28.261  31.365  1.00  0.00    -0.206 F 
ATOM     68  C   UNL A   1      37.061  29.332  29.656  1.00  0.00     0.006 A 
ENDBRANCH  47  61
BRANCH  48  69
ATOM     69  C   UNL A   1      49.182  26.455  26.682  1.00  0.00     0.057 A 
ATOM     70  C   UNL A   1      49.648  26.672  25.380  1.00  0.00     0.134 A 
ATOM     71  C   UNL A   1      50.080  25.904  27.603  1.00  0.00     0.134 A 
ATOM     72  F   UNL A   1      48.830  27.181  24.447  1.00  0.00    -0.206 F 
ATOM     73  C   UNL A   1      50.948  26.335  25.002  1.00  0.00     0.040 A 
ATOM     74  C   UNL A   1      51.392  25.587  27.246  1.00  0.00     0.040 A 
ATOM     75  F   UNL A   1      49.699  25.679  28.869  1.00  0.00    -0.206 F 
ATOM     76  C   UNL A   1      51.826  25.795  25.939  1.00  0.00     0.006 A 
ENDBRANCH  48  69
BRANCH  60  77
ATOM     77  C   UNL A   1      46.118  32.256  29.017  1.00  0.00     0.057 A 
ATOM     78  C   UNL A   1      46.595  32.566  30.296  1.00  0.00     0.134 A 
ATOM     79  C   UNL A   1      46.192  33.257  28.039  1.00  0.00     0.134 A 
ATOM     80  F   UNL A   1      46.539  31.656  31.281  1.00  0.00    -0.206 F 
ATOM     81  C   UNL A   1      47.106  33.829  30.597  1.00  0.00     0.040 A 
ATOM     82  C   UNL A   1      46.729  34.514  28.320  1.00  0.00     0.040 A 
ATOM     83  F   UNL A   1      45.762  33.024  26.790  1.00  0.00    -0.206 F 
ATOM     84  C   UNL A   1      47.181  34.805  29.605  1.00  0.00     0.006 A 
ENDBRANCH  60  77
ENDBRANCH  34  35
ENDBRANCH  26  29
ENDBRANCH  24  25
ENDBRANCH  23  24
ENDBRANCH   1  23
TORSDOF 13
ENDMDL
