MODEL 1
REMARK VINA RESULT:     -11.4      0.000      0.000
REMARK SMILES CS(=O)(=O)CCSCc1cc(F)cc(/C=C/C(=O)NCCCNC(=O)c2ccc(-c3c4nc(c(-c5c(F)cccc5F)c5ccc([nH]5)c(-c5c(F)cccc5F)c5nc(c(-c6c(F)cccc6F)c6ccc3[nH]6)C=C5)C=C4)cc2)c1
REMARK SMILES IDX 17 1 18 2 19 3 16 5 15 6 14 7 9 8 10 9 80 10 11 11 12 12
REMARK SMILES IDX 13 13 8 14 7 15 6 16 5 17 2 18 1 19 3 20 4 21 20 22 21 23
REMARK SMILES IDX 22 24 23 25 24 26 25 28 26 29 27 30 79 31 28 32 78 33 29 34
REMARK SMILES IDX 30 35 31 36 72 37 32 38 77 39 71 40 73 41 33 42 76 43 70 44
REMARK SMILES IDX 69 45 34 47 60 48 43 49 59 50 44 51 47 52 58 53 74 54 45 55
REMARK SMILES IDX 46 56 57 58 75 59 48 60 35 61 36 62 41 63 37 64 38 65 40 66
REMARK SMILES IDX 42 67 39 68 61 69 62 70 67 71 63 72 64 73 66 74 68 75 65 76
REMARK SMILES IDX 49 77 50 78 55 79 51 80 52 81 54 82 56 83 53 84
REMARK H PARENT 19 4 23 27 73 46 47 57
REMARK Flexibility Score: inf
ROOT
ATOM      1  C   UNL A   1      37.530  23.650  25.814  1.00  0.00     0.244 C 
ATOM      2  O   UNL A   1      38.370  24.440  26.246  1.00  0.00    -0.270 OA
ATOM      3  N   UNL A   1      37.964  22.511  25.220  1.00  0.00    -0.352 N 
ATOM      4  H   UNL A   1      38.945  22.443  25.164  1.00  0.00     0.163 HD
ENDROOT
BRANCH   1   5
ATOM      5  C   UNL A   1      36.098  23.944  26.050  1.00  0.00     0.072 C 
ATOM      6  C   UNL A   1      35.212  24.468  25.190  1.00  0.00     0.014 C 
BRANCH   6   7
ATOM      7  C   UNL A   1      33.790  24.723  25.491  1.00  0.00    -0.022 A 
ATOM      8  C   UNL A   1      31.865  26.239  25.235  1.00  0.00    -0.035 A 
ATOM      9  C   UNL A   1      31.093  25.373  26.013  1.00  0.00     0.043 A 
ATOM     10  C   UNL A   1      33.217  25.910  25.006  1.00  0.00     0.013 A 
ATOM     11  C   UNL A   1      31.659  24.201  26.506  1.00  0.00     0.124 A 
ATOM     12  F   UNL A   1      30.908  23.373  27.245  1.00  0.00    -0.207 F 
ATOM     13  C   UNL A   1      32.990  23.870  26.255  1.00  0.00     0.047 A 
BRANCH   8  14
ATOM     14  C   UNL A   1      31.325  27.538  24.701  1.00  0.00     0.105 C 
BRANCH  14  15
ATOM     15  S   UNL A   1      30.295  27.449  23.203  1.00  0.00    -0.156 SA
BRANCH  15  16
ATOM     16  C   UNL A   1      30.269  29.186  22.626  1.00  0.00     0.086 C 
BRANCH  16  17
ATOM     17  C   UNL A   1      29.480  30.145  23.504  1.00  0.00     0.147 C 
BRANCH  17  18
ATOM     18  S   UNL A   1      27.879  30.605  22.871  1.00  0.00     0.148 S 
ATOM     19  C   UNL A   1      28.032  30.476  21.104  1.00  0.00     0.158 C 
ATOM     20  O   UNL A   1      27.678  32.011  23.175  1.00  0.00    -0.229 OA
ATOM     21  O   UNL A   1      26.903  29.628  23.304  1.00  0.00    -0.229 OA
ENDBRANCH  17  18
ENDBRANCH  16  17
ENDBRANCH  15  16
ENDBRANCH  14  15
ENDBRANCH   8  14
ENDBRANCH   6   7
ENDBRANCH   1   5
BRANCH   3  22
ATOM     22  C   UNL A   1      37.267  21.372  24.650  1.00  0.00     0.118 C 
BRANCH  22  23
ATOM     23  C   UNL A   1      37.981  20.067  25.001  1.00  0.00     0.042 C 
BRANCH  23  24
ATOM     24  C   UNL A   1      39.053  20.234  26.078  1.00  0.00     0.118 C 
BRANCH  24  25
ATOM     25  N   UNL A   1      40.062  19.182  26.022  1.00  0.00    -0.352 N 
ATOM     26  C   UNL A   1      41.431  19.272  26.040  1.00  0.00     0.251 C 
ATOM     27  H   UNL A   1      39.706  18.266  25.965  1.00  0.00     0.163 HD
ATOM     28  O   UNL A   1      42.116  18.292  25.764  1.00  0.00    -0.269 OA
BRANCH  26  29
ATOM     29  C   UNL A   1      42.085  20.552  26.378  1.00  0.00     0.039 A 
ATOM     30  C   UNL A   1      42.550  21.374  25.347  1.00  0.00     0.014 A 
ATOM     31  C   UNL A   1      42.252  20.934  27.711  1.00  0.00     0.014 A 
ATOM     32  C   UNL A   1      43.111  22.615  25.652  1.00  0.00     0.010 A 
ATOM     33  C   UNL A   1      42.740  22.201  28.010  1.00  0.00     0.010 A 
ATOM     34  C   UNL A   1      43.170  23.056  26.984  1.00  0.00    -0.014 A 
BRANCH  34  35
ATOM     35  C   UNL A   1      43.661  24.413  27.336  1.00  0.00     0.031 A 
ATOM     36  C   UNL A   1      42.692  25.470  27.782  1.00  0.00     0.074 A 
ATOM     37  C   UNL A   1      44.963  24.714  27.166  1.00  0.00     0.049 A 
ATOM     38  N   UNL A   1      42.902  26.742  28.001  1.00  0.00    -0.248 NA
ATOM     39  C   UNL A   1      41.295  25.049  27.980  1.00  0.00     0.031 C 
ATOM     40  C   UNL A   1      45.994  23.779  26.711  1.00  0.00     0.029 A 
ATOM     41  N   UNL A   1      45.641  25.895  27.339  1.00  0.00    -0.354 N 
ATOM     42  C   UNL A   1      41.667  27.274  28.350  1.00  0.00     0.074 A 
ATOM     43  C   UNL A   1      40.702  26.201  28.260  1.00  0.00     0.031 C 
ATOM     44  C   UNL A   1      47.174  24.416  26.662  1.00  0.00     0.029 A 
ATOM     45  C   UNL A   1      46.977  25.816  27.029  1.00  0.00     0.049 A 
ATOM     46  H   UNL A   1      45.209  26.722  27.655  1.00  0.00     0.167 HD
ATOM     47  C   UNL A   1      41.372  28.538  28.732  1.00  0.00     0.037 A 
ATOM     48  C   UNL A   1      47.933  26.765  27.023  1.00  0.00     0.037 A 
ATOM     49  C   UNL A   1      42.343  29.594  28.840  1.00  0.00     0.049 A 
ATOM     50  C   UNL A   1      47.572  28.171  27.413  1.00  0.00     0.074 A 
ATOM     51  C   UNL A   1      42.150  30.894  29.269  1.00  0.00     0.029 A 
ATOM     52  N   UNL A   1      43.686  29.471  28.517  1.00  0.00    -0.354 N 
ATOM     53  N   UNL A   1      46.410  28.649  27.787  1.00  0.00    -0.248 NA
ATOM     54  C   UNL A   1      48.649  29.172  27.380  1.00  0.00     0.031 C 
ATOM     55  C   UNL A   1      43.364  31.576  29.151  1.00  0.00     0.029 A 
ATOM     56  C   UNL A   1      44.328  30.683  28.710  1.00  0.00     0.049 A 
ATOM     57  H   UNL A   1      44.119  28.646  28.198  1.00  0.00     0.167 HD
ATOM     58  C   UNL A   1      46.621  29.995  28.061  1.00  0.00     0.074 A 
ATOM     59  C   UNL A   1      48.024  30.257  27.817  1.00  0.00     0.031 C 
ATOM     60  C   UNL A   1      45.729  30.927  28.477  1.00  0.00     0.037 A 
BRANCH  47  61
ATOM     61  C   UNL A   1      39.945  28.855  29.075  1.00  0.00     0.057 A 
ATOM     62  C   UNL A   1      39.481  28.734  30.390  1.00  0.00     0.134 A 
ATOM     63  C   UNL A   1      39.011  29.203  28.090  1.00  0.00     0.134 A 
ATOM     64  F   UNL A   1      40.319  28.397  31.382  1.00  0.00    -0.206 F 
ATOM     65  C   UNL A   1      38.136  28.931  30.711  1.00  0.00     0.040 A 
ATOM     66  C   UNL A   1      37.671  29.431  28.402  1.00  0.00     0.040 A 
ATOM     67  F   UNL A   1      39.393  29.345  26.811  1.00  0.00    -0.206 F 
ATOM     68  C   UNL A   1      37.228  29.283  29.715  1.00  0.00     0.006 A 
ENDBRANCH  47  61
BRANCH  48  69
ATOM     69  C   UNL A   1      49.326  26.404  26.654  1.00  0.00     0.057 A 
ATOM     70  C   UNL A   1      50.220  25.870  27.591  1.00  0.00     0.134 A 
ATOM     71  C   UNL A   1      49.804  26.616  25.357  1.00  0.00     0.134 A 
ATOM     72  F   UNL A   1      49.828  25.651  28.855  1.00  0.00    -0.206 F 
ATOM     73  C   UNL A   1      51.545  25.582  27.256  1.00  0.00     0.040 A 
ATOM     74  C   UNL A   1      51.119  26.307  25.001  1.00  0.00     0.040 A 
ATOM     75  F   UNL A   1      48.991  27.108  24.410  1.00  0.00    -0.206 F 
ATOM     76  C   UNL A   1      51.996  25.797  25.956  1.00  0.00     0.006 A 
ENDBRANCH  48  69
BRANCH  60  77
ATOM     77  C   UNL A   1      46.231  32.318  28.733  1.00  0.00     0.057 A 
ATOM     78  C   UNL A   1      46.688  32.685  30.006  1.00  0.00     0.134 A 
ATOM     79  C   UNL A   1      46.147  33.320  27.761  1.00  0.00     0.134 A 
ATOM     80  F   UNL A   1      46.781  31.772  30.986  1.00  0.00    -0.206 F 
ATOM     81  C   UNL A   1      47.015  34.005  30.310  1.00  0.00     0.040 A 
ATOM     82  C   UNL A   1      46.499  34.641  28.045  1.00  0.00     0.040 A 
ATOM     83  F   UNL A   1      45.726  33.032  26.520  1.00  0.00    -0.206 F 
ATOM     84  C   UNL A   1      46.920  34.988  29.328  1.00  0.00     0.006 A 
ENDBRANCH  60  77
ENDBRANCH  34  35
ENDBRANCH  26  29
ENDBRANCH  24  25
ENDBRANCH  23  24
ENDBRANCH  22  23
ENDBRANCH   3  22
TORSDOF 16
ENDMDL
MODEL 2
REMARK VINA RESULT:     -11.4      1.622      2.375
REMARK SMILES CS(=O)(=O)CCSCc1cc(F)cc(/C=C/C(=O)NCCCNC(=O)c2ccc(-c3c4nc(c(-c5c(F)cccc5F)c5ccc([nH]5)c(-c5c(F)cccc5F)c5nc(c(-c6c(F)cccc6F)c6ccc3[nH]6)C=C5)C=C4)cc2)c1
REMARK SMILES IDX 17 1 18 2 19 3 16 5 15 6 14 7 9 8 10 9 80 10 11 11 12 12
REMARK SMILES IDX 13 13 8 14 7 15 6 16 5 17 2 18 1 19 3 20 4 21 20 22 21 23
REMARK SMILES IDX 22 24 23 25 24 26 25 28 26 29 27 30 79 31 28 32 78 33 29 34
REMARK SMILES IDX 30 35 31 36 72 37 32 38 77 39 71 40 73 41 33 42 76 43 70 44
REMARK SMILES IDX 69 45 34 47 60 48 43 49 59 50 44 51 47 52 58 53 74 54 45 55
REMARK SMILES IDX 46 56 57 58 75 59 48 60 35 61 36 62 41 63 37 64 38 65 40 66
REMARK SMILES IDX 42 67 39 68 61 69 62 70 67 71 63 72 64 73 66 74 68 75 65 76
REMARK SMILES IDX 49 77 50 78 55 79 51 80 52 81 54 82 56 83 53 84
REMARK H PARENT 19 4 23 27 73 46 47 57
REMARK Flexibility Score: inf
ROOT
ATOM      1  C   UNL A   1      37.405  23.405  25.636  1.00  0.00     0.244 C 
ATOM      2  O   UNL A   1      38.182  24.258  26.067  1.00  0.00    -0.270 OA
ATOM      3  N   UNL A   1      37.926  22.266  25.117  1.00  0.00    -0.352 N 
ATOM      4  H   UNL A   1      38.910  22.249  25.107  1.00  0.00     0.163 HD
ENDROOT
BRANCH   1   5
ATOM      5  C   UNL A   1      35.950  23.630  25.795  1.00  0.00     0.072 C 
ATOM      6  C   UNL A   1      35.264  24.762  25.579  1.00  0.00     0.014 C 
BRANCH   6   7
ATOM      7  C   UNL A   1      33.806  24.913  25.746  1.00  0.00    -0.022 A 
ATOM      8  C   UNL A   1      31.850  26.400  25.574  1.00  0.00    -0.035 A 
ATOM      9  C   UNL A   1      31.037  25.370  26.050  1.00  0.00     0.043 A 
ATOM     10  C   UNL A   1      33.234  26.161  25.452  1.00  0.00     0.013 A 
ATOM     11  C   UNL A   1      31.600  24.134  26.354  1.00  0.00     0.124 A 
ATOM     12  F   UNL A   1      30.810  23.149  26.803  1.00  0.00    -0.207 F 
ATOM     13  C   UNL A   1      32.966  23.897  26.208  1.00  0.00     0.047 A 
BRANCH   8  14
ATOM     14  C   UNL A   1      31.311  27.770  25.259  1.00  0.00     0.105 C 
BRANCH  14  15
ATOM     15  S   UNL A   1      30.238  27.919  23.797  1.00  0.00    -0.156 SA
BRANCH  15  16
ATOM     16  C   UNL A   1      31.378  27.530  22.418  1.00  0.00     0.086 C 
BRANCH  16  17
ATOM     17  C   UNL A   1      31.389  26.073  21.983  1.00  0.00     0.147 C 
BRANCH  17  18
ATOM     18  S   UNL A   1      32.970  25.461  21.436  1.00  0.00     0.148 S 
ATOM     19  C   UNL A   1      33.137  23.868  22.211  1.00  0.00     0.158 C 
ATOM     20  O   UNL A   1      33.992  26.317  22.013  1.00  0.00    -0.229 OA
ATOM     21  O   UNL A   1      32.927  25.255  20.004  1.00  0.00    -0.229 OA
ENDBRANCH  17  18
ENDBRANCH  16  17
ENDBRANCH  15  16
ENDBRANCH  14  15
ENDBRANCH   8  14
ENDBRANCH   6   7
ENDBRANCH   1   5
BRANCH   3  22
ATOM     22  C   UNL A   1      37.318  21.066  24.572  1.00  0.00     0.118 C 
BRANCH  22  23
ATOM     23  C   UNL A   1      38.132  19.827  24.942  1.00  0.00     0.042 C 
BRANCH  23  24
ATOM     24  C   UNL A   1      39.227  20.109  25.971  1.00  0.00     0.118 C 
BRANCH  24  25
ATOM     25  N   UNL A   1      40.277  19.095  25.953  1.00  0.00    -0.352 N 
ATOM     26  C   UNL A   1      41.638  19.235  26.065  1.00  0.00     0.251 C 
ATOM     27  H   UNL A   1      39.960  18.170  25.845  1.00  0.00     0.163 HD
ATOM     28  O   UNL A   1      42.376  18.289  25.808  1.00  0.00    -0.269 OA
BRANCH  26  29
ATOM     29  C   UNL A   1      42.219  20.525  26.484  1.00  0.00     0.039 A 
ATOM     30  C   UNL A   1      42.791  21.360  25.520  1.00  0.00     0.014 A 
ATOM     31  C   UNL A   1      42.210  20.906  27.828  1.00  0.00     0.014 A 
ATOM     32  C   UNL A   1      43.285  22.611  25.894  1.00  0.00     0.010 A 
ATOM     33  C   UNL A   1      42.632  22.180  28.186  1.00  0.00     0.010 A 
ATOM     34  C   UNL A   1      43.169  23.048  27.223  1.00  0.00    -0.014 A 
BRANCH  34  35
ATOM     35  C   UNL A   1      43.585  24.413  27.636  1.00  0.00     0.031 A 
ATOM     36  C   UNL A   1      42.549  25.428  28.026  1.00  0.00     0.074 A 
ATOM     37  C   UNL A   1      44.885  24.761  27.569  1.00  0.00     0.049 A 
ATOM     38  N   UNL A   1      42.698  26.702  28.284  1.00  0.00    -0.248 NA
ATOM     39  C   UNL A   1      41.157  24.957  28.111  1.00  0.00     0.031 C 
ATOM     40  C   UNL A   1      45.979  23.870  27.177  1.00  0.00     0.029 A 
ATOM     41  N   UNL A   1      45.506  25.960  27.814  1.00  0.00    -0.354 N 
ATOM     42  C   UNL A   1      41.423  27.184  28.548  1.00  0.00     0.074 A 
ATOM     43  C   UNL A   1      40.505  26.082  28.367  1.00  0.00     0.031 C 
ATOM     44  C   UNL A   1      47.137  24.547  27.227  1.00  0.00     0.029 A 
ATOM     45  C   UNL A   1      46.864  25.932  27.604  1.00  0.00     0.049 A 
ATOM     46  H   UNL A   1      45.024  26.765  28.112  1.00  0.00     0.167 HD
ATOM     47  C   UNL A   1      41.057  28.430  28.930  1.00  0.00     0.037 A 
ATOM     48  C   UNL A   1      47.784  26.912  27.686  1.00  0.00     0.037 A 
ATOM     49  C   UNL A   1      41.980  29.516  29.130  1.00  0.00     0.049 A 
ATOM     50  C   UNL A   1      47.347  28.297  28.073  1.00  0.00     0.074 A 
ATOM     51  C   UNL A   1      41.711  30.800  29.566  1.00  0.00     0.029 A 
ATOM     52  N   UNL A   1      43.347  29.444  28.906  1.00  0.00    -0.354 N 
ATOM     53  N   UNL A   1      46.145  28.728  28.368  1.00  0.00    -0.248 NA
ATOM     54  C   UNL A   1      48.388  29.333  28.139  1.00  0.00     0.031 C 
ATOM     55  C   UNL A   1      42.906  31.523  29.552  1.00  0.00     0.029 A 
ATOM     56  C   UNL A   1      43.930  30.672  29.169  1.00  0.00     0.049 A 
ATOM     57  H   UNL A   1      43.830  28.640  28.606  1.00  0.00     0.167 HD
ATOM     58  C   UNL A   1      46.287  30.074  28.681  1.00  0.00     0.074 A 
ATOM     59  C   UNL A   1      47.695  30.388  28.548  1.00  0.00     0.031 C 
ATOM     60  C   UNL A   1      45.335  30.967  29.046  1.00  0.00     0.037 A 
BRANCH  47  61
ATOM     61  C   UNL A   1      39.598  28.693  29.170  1.00  0.00     0.057 A 
ATOM     62  C   UNL A   1      38.782  29.188  28.145  1.00  0.00     0.134 A 
ATOM     63  C   UNL A   1      39.019  28.532  30.436  1.00  0.00     0.134 A 
ATOM     64  F   UNL A   1      39.273  29.375  26.911  1.00  0.00    -0.206 F 
ATOM     65  C   UNL A   1      37.447  29.529  28.375  1.00  0.00     0.040 A 
ATOM     66  C   UNL A   1      37.679  28.841  30.671  1.00  0.00     0.040 A 
ATOM     67  F   UNL A   1      39.744  28.052  31.458  1.00  0.00    -0.206 F 
ATOM     68  C   UNL A   1      36.893  29.353  29.641  1.00  0.00     0.006 A 
ENDBRANCH  47  61
BRANCH  48  69
ATOM     69  C   UNL A   1      49.212  26.605  27.417  1.00  0.00     0.057 A 
ATOM     70  C   UNL A   1      49.763  26.731  26.135  1.00  0.00     0.134 A 
ATOM     71  C   UNL A   1      50.053  26.144  28.435  1.00  0.00     0.134 A 
ATOM     72  F   UNL A   1      49.010  27.158  25.111  1.00  0.00    -0.206 F 
ATOM     73  C   UNL A   1      51.092  26.390  25.873  1.00  0.00     0.040 A 
ATOM     74  C   UNL A   1      51.391  25.825  28.194  1.00  0.00     0.040 A 
ATOM     75  F   UNL A   1      49.589  26.018  29.688  1.00  0.00    -0.206 F 
ATOM     76  C   UNL A   1      51.911  25.939  26.906  1.00  0.00     0.006 A 
ENDBRANCH  48  69
BRANCH  60  77
ATOM     77  C   UNL A   1      45.768  32.369  29.363  1.00  0.00     0.057 A 
ATOM     78  C   UNL A   1      46.088  32.732  30.678  1.00  0.00     0.134 A 
ATOM     79  C   UNL A   1      45.749  33.381  28.398  1.00  0.00     0.134 A 
ATOM     80  F   UNL A   1      46.112  31.810  31.653  1.00  0.00    -0.206 F 
ATOM     81  C   UNL A   1      46.345  34.058  31.026  1.00  0.00     0.040 A 
ATOM     82  C   UNL A   1      46.033  34.708  28.729  1.00  0.00     0.040 A 
ATOM     83  F   UNL A   1      45.460  33.097  27.119  1.00  0.00    -0.206 F 
ATOM     84  C   UNL A   1      46.316  35.050  30.050  1.00  0.00     0.006 A 
ENDBRANCH  60  77
ENDBRANCH  34  35
ENDBRANCH  26  29
ENDBRANCH  24  25
ENDBRANCH  23  24
ENDBRANCH  22  23
ENDBRANCH   3  22
TORSDOF 16
ENDMDL
MODEL 3
REMARK VINA RESULT:     -11.2      5.968     11.104
REMARK SMILES CS(=O)(=O)CCSCc1cc(F)cc(/C=C/C(=O)NCCCNC(=O)c2ccc(-c3c4nc(c(-c5c(F)cccc5F)c5ccc([nH]5)c(-c5c(F)cccc5F)c5nc(c(-c6c(F)cccc6F)c6ccc3[nH]6)C=C5)C=C4)cc2)c1
REMARK SMILES IDX 17 1 18 2 19 3 16 5 15 6 14 7 9 8 10 9 80 10 11 11 12 12
REMARK SMILES IDX 13 13 8 14 7 15 6 16 5 17 2 18 1 19 3 20 4 21 20 22 21 23
REMARK SMILES IDX 22 24 23 25 24 26 25 28 26 29 27 30 79 31 28 32 78 33 29 34
REMARK SMILES IDX 30 35 31 36 72 37 32 38 77 39 71 40 73 41 33 42 76 43 70 44
REMARK SMILES IDX 69 45 34 47 60 48 43 49 59 50 44 51 47 52 58 53 74 54 45 55
REMARK SMILES IDX 46 56 57 58 75 59 48 60 35 61 36 62 41 63 37 64 38 65 40 66
REMARK SMILES IDX 42 67 39 68 61 69 62 70 67 71 63 72 64 73 66 74 68 75 65 76
REMARK SMILES IDX 49 77 50 78 55 79 51 80 52 81 54 82 56 83 53 84
REMARK H PARENT 19 4 23 27 73 46 47 57
REMARK Flexibility Score: inf
ROOT
ATOM      1  C   UNL A   1      33.882  29.052  26.902  1.00  0.00     0.244 C 
ATOM      2  O   UNL A   1      34.919  28.983  27.565  1.00  0.00    -0.270 OA
ATOM      3  N   UNL A   1      33.037  30.085  27.138  1.00  0.00    -0.352 N 
ATOM      4  H   UNL A   1      33.332  30.681  27.863  1.00  0.00     0.163 HD
ENDROOT
BRANCH   1   5
ATOM      5  C   UNL A   1      33.666  28.058  25.826  1.00  0.00     0.072 C 
ATOM      6  C   UNL A   1      34.007  26.760  25.823  1.00  0.00     0.014 C 
BRANCH   6   7
ATOM      7  C   UNL A   1      33.748  25.820  24.716  1.00  0.00    -0.022 A 
ATOM      8  C   UNL A   1      33.592  23.469  23.997  1.00  0.00    -0.035 A 
ATOM      9  C   UNL A   1      33.315  23.896  22.696  1.00  0.00     0.043 A 
ATOM     10  C   UNL A   1      33.829  24.444  24.987  1.00  0.00     0.013 A 
ATOM     11  C   UNL A   1      33.245  25.258  22.420  1.00  0.00     0.124 A 
ATOM     12  F   UNL A   1      32.971  25.657  21.170  1.00  0.00    -0.207 F 
ATOM     13  C   UNL A   1      33.457  26.217  23.409  1.00  0.00     0.047 A 
BRANCH   8  14
ATOM     14  C   UNL A   1      33.716  22.013  24.356  1.00  0.00     0.105 C 
BRANCH  14  15
ATOM     15  S   UNL A   1      32.495  20.876  23.628  1.00  0.00    -0.156 SA
BRANCH  15  16
ATOM     16  C   UNL A   1      32.749  19.340  24.590  1.00  0.00     0.086 C 
BRANCH  16  17
ATOM     17  C   UNL A   1      32.402  18.055  23.855  1.00  0.00     0.147 C 
BRANCH  17  18
ATOM     18  S   UNL A   1      33.715  16.852  23.778  1.00  0.00     0.148 S 
ATOM     19  C   UNL A   1      35.102  17.638  24.566  1.00  0.00     0.158 C 
ATOM     20  O   UNL A   1      34.068  16.680  22.380  1.00  0.00    -0.229 OA
ATOM     21  O   UNL A   1      33.347  15.701  24.574  1.00  0.00    -0.229 OA
ENDBRANCH  17  18
ENDBRANCH  16  17
ENDBRANCH  15  16
ENDBRANCH  14  15
ENDBRANCH   8  14
ENDBRANCH   6   7
ENDBRANCH   1   5
BRANCH   3  22
ATOM     22  C   UNL A   1      31.781  30.486  26.529  1.00  0.00     0.118 C 
BRANCH  22  23
ATOM     23  C   UNL A   1      31.557  31.989  26.684  1.00  0.00     0.042 C 
BRANCH  23  24
ATOM     24  C   UNL A   1      32.786  32.733  27.207  1.00  0.00     0.118 C 
BRANCH  24  25
ATOM     25  N   UNL A   1      32.481  34.109  27.583  1.00  0.00    -0.352 N 
ATOM     26  C   UNL A   1      32.996  34.881  28.596  1.00  0.00     0.251 C 
ATOM     27  H   UNL A   1      31.803  34.553  27.025  1.00  0.00     0.163 HD
ATOM     28  O   UNL A   1      32.458  35.943  28.893  1.00  0.00    -0.269 OA
BRANCH  26  29
ATOM     29  C   UNL A   1      34.189  34.429  29.338  1.00  0.00     0.039 A 
ATOM     30  C   UNL A   1      34.030  33.857  30.603  1.00  0.00     0.014 A 
ATOM     31  C   UNL A   1      35.466  34.584  28.791  1.00  0.00     0.014 A 
ATOM     32  C   UNL A   1      35.145  33.369  31.286  1.00  0.00     0.010 A 
ATOM     33  C   UNL A   1      36.564  34.029  29.437  1.00  0.00     0.010 A 
ATOM     34  C   UNL A   1      36.415  33.411  30.688  1.00  0.00    -0.014 A 
BRANCH  34  35
ATOM     35  C   UNL A   1      37.605  32.804  31.338  1.00  0.00     0.031 A 
ATOM     36  C   UNL A   1      38.264  31.601  30.725  1.00  0.00     0.074 A 
ATOM     37  C   UNL A   1      38.032  33.282  32.523  1.00  0.00     0.049 A 
ATOM     38  N   UNL A   1      39.220  30.850  31.206  1.00  0.00    -0.248 NA
ATOM     39  C   UNL A   1      37.762  31.167  29.411  1.00  0.00     0.031 C 
ATOM     40  C   UNL A   1      37.455  34.427  33.230  1.00  0.00     0.029 A 
ATOM     41  N   UNL A   1      39.039  32.856  33.352  1.00  0.00    -0.354 N 
ATOM     42  C   UNL A   1      39.426  29.852  30.263  1.00  0.00     0.074 A 
ATOM     43  C   UNL A   1      38.459  30.058  29.208  1.00  0.00     0.031 C 
ATOM     44  C   UNL A   1      38.129  34.624  34.373  1.00  0.00     0.029 A 
ATOM     45  C   UNL A   1      39.152  33.590  34.507  1.00  0.00     0.049 A 
ATOM     46  H   UNL A   1      39.626  32.094  33.138  1.00  0.00     0.167 HD
ATOM     47  C   UNL A   1      40.354  28.866  30.269  1.00  0.00     0.037 A 
ATOM     48  C   UNL A   1      39.971  33.439  35.566  1.00  0.00     0.037 A 
ATOM     49  C   UNL A   1      41.326  28.682  31.312  1.00  0.00     0.049 A 
ATOM     50  C   UNL A   1      40.967  32.312  35.566  1.00  0.00     0.074 A 
ATOM     51  C   UNL A   1      42.340  27.744  31.383  1.00  0.00     0.029 A 
ATOM     52  N   UNL A   1      41.406  29.449  32.466  1.00  0.00    -0.354 N 
ATOM     53  N   UNL A   1      41.183  31.404  34.646  1.00  0.00    -0.248 NA
ATOM     54  C   UNL A   1      41.832  32.185  36.749  1.00  0.00     0.031 C 
ATOM     55  C   UNL A   1      42.998  27.906  32.605  1.00  0.00     0.029 A 
ATOM     56  C   UNL A   1      42.436  28.985  33.267  1.00  0.00     0.049 A 
ATOM     57  H   UNL A   1      40.818  30.209  32.682  1.00  0.00     0.167 HD
ATOM     58  C   UNL A   1      42.223  30.617  35.123  1.00  0.00     0.074 A 
ATOM     59  C   UNL A   1      42.601  31.158  36.412  1.00  0.00     0.031 C 
ATOM     60  C   UNL A   1      42.811  29.543  34.542  1.00  0.00     0.037 A 
BRANCH  47  61
ATOM     61  C   UNL A   1      40.375  27.913  29.109  1.00  0.00     0.057 A 
ATOM     62  C   UNL A   1      41.147  28.185  27.973  1.00  0.00     0.134 A 
ATOM     63  C   UNL A   1      39.570  26.766  29.084  1.00  0.00     0.134 A 
ATOM     64  F   UNL A   1      41.934  29.270  27.926  1.00  0.00    -0.206 F 
ATOM     65  C   UNL A   1      41.105  27.360  26.847  1.00  0.00     0.040 A 
ATOM     66  C   UNL A   1      39.542  25.918  27.976  1.00  0.00     0.040 A 
ATOM     67  F   UNL A   1      38.814  26.442  30.144  1.00  0.00    -0.206 F 
ATOM     68  C   UNL A   1      40.302  26.222  26.848  1.00  0.00     0.006 A 
ENDBRANCH  47  61
BRANCH  48  69
ATOM     69  C   UNL A   1      39.895  34.396  36.698  1.00  0.00     0.057 A 
ATOM     70  C   UNL A   1      39.105  34.140  37.827  1.00  0.00     0.134 A 
ATOM     71  C   UNL A   1      40.588  35.611  36.661  1.00  0.00     0.134 A 
ATOM     72  F   UNL A   1      38.408  32.999  37.922  1.00  0.00    -0.206 F 
ATOM     73  C   UNL A   1      38.992  35.066  38.866  1.00  0.00     0.040 A 
ATOM     74  C   UNL A   1      40.505  36.535  37.705  1.00  0.00     0.040 A 
ATOM     75  F   UNL A   1      41.374  35.907  35.615  1.00  0.00    -0.206 F 
ATOM     76  C   UNL A   1      39.697  36.266  38.809  1.00  0.00     0.006 A 
ENDBRANCH  48  69
BRANCH  60  77
ATOM     77  C   UNL A   1      43.949  28.885  35.265  1.00  0.00     0.057 A 
ATOM     78  C   UNL A   1      43.702  27.906  36.237  1.00  0.00     0.134 A 
ATOM     79  C   UNL A   1      45.273  29.303  35.089  1.00  0.00     0.134 A 
ATOM     80  F   UNL A   1      42.453  27.471  36.464  1.00  0.00    -0.206 F 
ATOM     81  C   UNL A   1      44.727  27.390  37.029  1.00  0.00     0.040 A 
ATOM     82  C   UNL A   1      46.312  28.772  35.856  1.00  0.00     0.040 A 
ATOM     83  F   UNL A   1      45.577  30.229  34.167  1.00  0.00    -0.206 F 
ATOM     84  C   UNL A   1      46.037  27.824  36.840  1.00  0.00     0.006 A 
ENDBRANCH  60  77
ENDBRANCH  34  35
ENDBRANCH  26  29
ENDBRANCH  24  25
ENDBRANCH  23  24
ENDBRANCH  22  23
ENDBRANCH   3  22
TORSDOF 16
ENDMDL
