MODEL 1
REMARK VINA RESULT:     -12.1      0.000      0.000
REMARK SMILES C[C@]1(C(=O)NCCCNC(=O)c2ccc(-c3c4nc(c(-c5c(F)cccc5F)c5ccc([nH]5)c(-c5c(F)cccc5F)c5nc(c(-c6c(F)cccc6F)c6ccc3[nH]6)C=C5)C=C4)cc2)COC[C@H]1Nc1ccc2nnnn2n1
REMARK SMILES IDX 7 1 6 2 5 3 3 4 4 5 2 7 1 8 66 9 69 10 67 11 68 12 70 13
REMARK SMILES IDX 71 15 72 16 79 17 73 18 78 19 74 20 77 21 75 22 76 23 8 24
REMARK SMILES IDX 9 25 10 26 11 28 12 29 13 30 65 31 14 32 64 33 15 34 16 35
REMARK SMILES IDX 17 36 58 37 18 38 63 39 57 40 59 41 19 42 62 43 56 44 55 45
REMARK SMILES IDX 20 47 46 48 29 49 45 50 30 51 33 52 44 53 60 54 31 55 32 56
REMARK SMILES IDX 43 58 61 59 34 60 21 61 22 62 27 63 23 64 24 65 26 66 28 67
REMARK SMILES IDX 25 68 47 69 48 70 53 71 49 72 50 73 52 74 54 75 51 76 35 77
REMARK SMILES IDX 36 78 41 79 37 80 38 81 40 82 42 83 39 84
REMARK H PARENT 5 6 70 14 9 27 59 46 33 57
REMARK Flexibility Score: inf
ROOT
ATOM      1  C   UNL A   1      32.141  28.326  27.669  1.00  0.00     0.042 C 
ENDROOT
BRANCH   1   2
ATOM      2  C   UNL A   1      31.554  27.411  26.594  1.00  0.00     0.117 C 
BRANCH   2   3
ATOM      3  N   UNL A   1      31.425  26.044  27.063  1.00  0.00    -0.355 N 
ATOM      4  C   UNL A   1      31.509  24.832  26.464  1.00  0.00     0.230 C 
ATOM      5  O   UNL A   1      31.247  23.874  27.206  1.00  0.00    -0.274 OA
ATOM      6  H   UNL A   1      31.233  25.984  28.026  1.00  0.00     0.163 HD
BRANCH   4   7
ATOM      7  C   UNL A   1      32.028  24.582  25.038  1.00  0.00     0.092 C 
ATOM      8  C   UNL A   1      33.274  25.377  24.613  1.00  0.00     0.026 C 
ATOM      9  C   UNL A   1      32.282  23.071  24.934  1.00  0.00     0.179 C 
ATOM     10  C   UNL A   1      30.952  24.798  23.936  1.00  0.00     0.124 C 
ATOM     11  O   UNL A   1      31.871  22.661  23.625  1.00  0.00    -0.378 OA
ATOM     12  C   UNL A   1      30.708  23.434  23.316  1.00  0.00     0.186 C 
BRANCH  10  13
ATOM     13  N   UNL A   1      29.717  25.490  24.328  1.00  0.00    -0.362 N 
ATOM     14  H   UNL A   1      29.158  25.179  25.077  1.00  0.00     0.162 HD
BRANCH  13  15
ATOM     15  C   UNL A   1      29.392  26.591  23.587  1.00  0.00     0.149 A 
ATOM     16  C   UNL A   1      30.551  27.345  22.953  1.00  0.00     0.053 A 
ATOM     17  N   UNL A   1      28.159  27.010  23.594  1.00  0.00    -0.129 NA
ATOM     18  C   UNL A   1      30.429  28.670  23.150  1.00  0.00     0.057 A 
ATOM     19  N   UNL A   1      28.077  28.319  23.241  1.00  0.00    -0.108 N 
ATOM     20  C   UNL A   1      29.126  29.212  23.124  1.00  0.00     0.200 A 
ATOM     21  N   UNL A   1      26.927  29.006  23.270  1.00  0.00    -0.022 NA
ATOM     22  N   UNL A   1      28.643  30.432  23.113  1.00  0.00    -0.107 NA
ATOM     23  N   UNL A   1      27.275  30.285  23.181  1.00  0.00    -0.022 NA
ENDBRANCH  13  15
ENDBRANCH  10  13
ENDBRANCH   4   7
ENDBRANCH   2   3
ENDBRANCH   1   2
BRANCH   1  24
ATOM     24  C   UNL A   1      33.531  28.863  27.320  1.00  0.00     0.118 C 
BRANCH  24  25
ATOM     25  N   UNL A   1      33.670  30.279  27.642  1.00  0.00    -0.352 N 
ATOM     26  C   UNL A   1      34.672  30.957  28.289  1.00  0.00     0.251 C 
ATOM     27  H   UNL A   1      32.919  30.843  27.344  1.00  0.00     0.163 HD
ATOM     28  O   UNL A   1      34.468  32.098  28.691  1.00  0.00    -0.269 OA
BRANCH  26  29
ATOM     29  C   UNL A   1      35.990  30.325  28.512  1.00  0.00     0.039 A 
ATOM     30  C   UNL A   1      36.913  30.302  27.461  1.00  0.00     0.014 A 
ATOM     31  C   UNL A   1      36.304  29.724  29.733  1.00  0.00     0.014 A 
ATOM     32  C   UNL A   1      38.180  29.753  27.665  1.00  0.00     0.010 A 
ATOM     33  C   UNL A   1      37.589  29.239  29.956  1.00  0.00     0.010 A 
ATOM     34  C   UNL A   1      38.545  29.264  28.930  1.00  0.00    -0.014 A 
BRANCH  34  35
ATOM     35  C   UNL A   1      39.937  28.836  29.218  1.00  0.00     0.031 A 
ATOM     36  C   UNL A   1      40.913  29.778  29.862  1.00  0.00     0.074 A 
ATOM     37  C   UNL A   1      40.340  27.616  28.813  1.00  0.00     0.049 A 
ATOM     38  N   UNL A   1      42.189  29.608  30.102  1.00  0.00    -0.248 NA
ATOM     39  C   UNL A   1      40.395  31.093  30.270  1.00  0.00     0.031 C 
ATOM     40  C   UNL A   1      39.496  26.630  28.134  1.00  0.00     0.029 A 
ATOM     41  N   UNL A   1      41.564  27.002  28.894  1.00  0.00    -0.354 N 
ATOM     42  C   UNL A   1      42.628  30.793  30.679  1.00  0.00     0.074 A 
ATOM     43  C   UNL A   1      41.493  31.691  30.711  1.00  0.00     0.031 C 
ATOM     44  C   UNL A   1      40.222  25.532  27.874  1.00  0.00     0.029 A 
ATOM     45  C   UNL A   1      41.592  25.753  28.323  1.00  0.00     0.049 A 
ATOM     46  H   UNL A   1      42.348  27.418  29.322  1.00  0.00     0.167 HD
ATOM     47  C   UNL A   1      43.860  31.095  31.152  1.00  0.00     0.037 A 
ATOM     48  C   UNL A   1      42.611  24.890  28.158  1.00  0.00     0.037 A 
ATOM     49  C   UNL A   1      44.983  30.192  31.122  1.00  0.00     0.049 A 
ATOM     50  C   UNL A   1      43.976  25.265  28.660  1.00  0.00     0.074 A 
ATOM     51  C   UNL A   1      46.255  30.381  31.635  1.00  0.00     0.029 A 
ATOM     52  N   UNL A   1      44.973  28.935  30.536  1.00  0.00    -0.354 N 
ATOM     53  N   UNL A   1      44.359  26.358  29.276  1.00  0.00    -0.248 NA
ATOM     54  C   UNL A   1      45.053  24.288  28.445  1.00  0.00     0.031 C 
ATOM     55  C   UNL A   1      47.029  29.264  31.309  1.00  0.00     0.029 A 
ATOM     56  C   UNL A   1      46.225  28.352  30.643  1.00  0.00     0.049 A 
ATOM     57  H   UNL A   1      44.190  28.519  30.107  1.00  0.00     0.167 HD
ATOM     58  C   UNL A   1      45.713  26.193  29.536  1.00  0.00     0.074 A 
ATOM     59  C   UNL A   1      46.079  24.885  29.035  1.00  0.00     0.031 C 
ATOM     60  C   UNL A   1      46.577  27.051  30.133  1.00  0.00     0.037 A 
BRANCH  47  61
ATOM     61  C   UNL A   1      44.064  32.461  31.742  1.00  0.00     0.057 A 
ATOM     62  C   UNL A   1      43.867  32.715  33.105  1.00  0.00     0.134 A 
ATOM     63  C   UNL A   1      44.509  33.525  30.946  1.00  0.00     0.134 A 
ATOM     64  F   UNL A   1      43.434  31.743  33.922  1.00  0.00    -0.206 F 
ATOM     65  C   UNL A   1      44.083  33.982  33.653  1.00  0.00     0.040 A 
ATOM     66  C   UNL A   1      44.755  34.789  31.487  1.00  0.00     0.040 A 
ATOM     67  F   UNL A   1      44.726  33.352  29.634  1.00  0.00    -0.206 F 
ATOM     68  C   UNL A   1      44.536  35.021  32.843  1.00  0.00     0.006 A 
ENDBRANCH  47  61
BRANCH  48  69
ATOM     69  C   UNL A   1      42.380  23.586  27.485  1.00  0.00     0.057 A 
ATOM     70  C   UNL A   1      42.056  22.440  28.221  1.00  0.00     0.134 A 
ATOM     71  C   UNL A   1      42.483  23.451  26.095  1.00  0.00     0.134 A 
ATOM     72  F   UNL A   1      41.961  22.502  29.558  1.00  0.00    -0.206 F 
ATOM     73  C   UNL A   1      41.863  21.205  27.602  1.00  0.00     0.040 A 
ATOM     74  C   UNL A   1      42.265  22.227  25.461  1.00  0.00     0.040 A 
ATOM     75  F   UNL A   1      42.784  24.512  25.332  1.00  0.00    -0.206 F 
ATOM     76  C   UNL A   1      41.962  21.097  26.217  1.00  0.00     0.006 A 
ENDBRANCH  48  69
BRANCH  60  77
ATOM     77  C   UNL A   1      47.997  26.593  30.289  1.00  0.00     0.057 A 
ATOM     78  C   UNL A   1      48.424  25.890  31.423  1.00  0.00     0.134 A 
ATOM     79  C   UNL A   1      48.941  26.830  29.281  1.00  0.00     0.134 A 
ATOM     80  F   UNL A   1      47.574  25.643  32.431  1.00  0.00    -0.206 F 
ATOM     81  C   UNL A   1      49.745  25.459  31.559  1.00  0.00     0.040 A 
ATOM     82  C   UNL A   1      50.257  26.378  29.393  1.00  0.00     0.040 A 
ATOM     83  F   UNL A   1      48.596  27.491  28.166  1.00  0.00    -0.206 F 
ATOM     84  C   UNL A   1      50.664  25.697  30.537  1.00  0.00     0.006 A 
ENDBRANCH  60  77
ENDBRANCH  34  35
ENDBRANCH  26  29
ENDBRANCH  24  25
ENDBRANCH   1  24
TORSDOF 12
ENDMDL
MODEL 2
REMARK VINA RESULT:     -12.0      3.571      7.959
REMARK SMILES C[C@]1(C(=O)NCCCNC(=O)c2ccc(-c3c4nc(c(-c5c(F)cccc5F)c5ccc([nH]5)c(-c5c(F)cccc5F)c5nc(c(-c6c(F)cccc6F)c6ccc3[nH]6)C=C5)C=C4)cc2)COC[C@H]1Nc1ccc2nnnn2n1
REMARK SMILES IDX 7 1 6 2 5 3 3 4 4 5 2 7 1 8 66 9 69 10 67 11 68 12 70 13
REMARK SMILES IDX 71 15 72 16 79 17 73 18 78 19 74 20 77 21 75 22 76 23 8 24
REMARK SMILES IDX 9 25 10 26 11 28 12 29 13 30 65 31 14 32 64 33 15 34 16 35
REMARK SMILES IDX 17 36 58 37 18 38 63 39 57 40 59 41 19 42 62 43 56 44 55 45
REMARK SMILES IDX 20 47 46 48 29 49 45 50 30 51 33 52 44 53 60 54 31 55 32 56
REMARK SMILES IDX 43 58 61 59 34 60 21 61 22 62 27 63 23 64 24 65 26 66 28 67
REMARK SMILES IDX 25 68 47 69 48 70 53 71 49 72 50 73 52 74 54 75 51 76 35 77
REMARK SMILES IDX 36 78 41 79 37 80 38 81 40 82 42 83 39 84
REMARK H PARENT 5 6 70 14 9 27 59 46 33 57
REMARK Flexibility Score: inf
ROOT
ATOM      1  C   UNL A   1      37.765  19.967  24.755  1.00  0.00     0.042 C 
ENDROOT
BRANCH   1   2
ATOM      2  C   UNL A   1      36.443  20.699  24.988  1.00  0.00     0.117 C 
BRANCH   2   3
ATOM      3  N   UNL A   1      36.295  21.837  24.099  1.00  0.00    -0.355 N 
ATOM      4  C   UNL A   1      35.430  22.877  24.040  1.00  0.00     0.230 C 
ATOM      5  O   UNL A   1      35.583  23.615  23.055  1.00  0.00    -0.274 OA
ATOM      6  H   UNL A   1      36.970  21.857  23.384  1.00  0.00     0.163 HD
BRANCH   4   7
ATOM      7  C   UNL A   1      34.424  23.258  25.138  1.00  0.00     0.092 C 
ATOM      8  C   UNL A   1      34.642  22.617  26.519  1.00  0.00     0.026 C 
ATOM      9  C   UNL A   1      34.457  24.790  25.236  1.00  0.00     0.179 C 
ATOM     10  C   UNL A   1      32.941  22.999  24.745  1.00  0.00     0.124 C 
ATOM     11  O   UNL A   1      33.111  25.231  25.449  1.00  0.00    -0.378 OA
ATOM     12  C   UNL A   1      32.284  24.366  24.668  1.00  0.00     0.186 C 
BRANCH  10  13
ATOM     13  N   UNL A   1      32.696  22.167  23.559  1.00  0.00    -0.362 N 
ATOM     14  H   UNL A   1      32.749  22.529  22.645  1.00  0.00     0.162 HD
BRANCH  13  15
ATOM     15  C   UNL A   1      32.389  20.858  23.806  1.00  0.00     0.149 A 
ATOM     16  C   UNL A   1      32.228  20.466  25.267  1.00  0.00     0.053 A 
ATOM     17  N   UNL A   1      32.405  20.013  22.815  1.00  0.00    -0.129 NA
ATOM     18  C   UNL A   1      32.891  19.327  25.536  1.00  0.00     0.057 A 
ATOM     19  N   UNL A   1      32.562  18.737  23.253  1.00  0.00    -0.108 N 
ATOM     20  C   UNL A   1      32.915  18.337  24.529  1.00  0.00     0.200 A 
ATOM     21  N   UNL A   1      32.709  17.698  22.420  1.00  0.00    -0.022 NA
ATOM     22  N   UNL A   1      33.304  17.085  24.487  1.00  0.00    -0.107 NA
ATOM     23  N   UNL A   1      33.148  16.697  23.174  1.00  0.00    -0.022 NA
ENDBRANCH  13  15
ENDBRANCH  10  13
ENDBRANCH   4   7
ENDBRANCH   2   3
ENDBRANCH   1   2
BRANCH   1  24
ATOM     24  C   UNL A   1      38.847  20.322  25.777  1.00  0.00     0.118 C 
BRANCH  24  25
ATOM     25  N   UNL A   1      39.864  19.282  25.885  1.00  0.00    -0.352 N 
ATOM     26  C   UNL A   1      41.220  19.370  26.075  1.00  0.00     0.251 C 
ATOM     27  H   UNL A   1      39.519  18.362  25.811  1.00  0.00     0.163 HD
ATOM     28  O   UNL A   1      41.923  18.386  25.869  1.00  0.00    -0.269 OA
BRANCH  26  29
ATOM     29  C   UNL A   1      41.841  20.637  26.517  1.00  0.00     0.039 A 
ATOM     30  C   UNL A   1      42.324  21.525  25.551  1.00  0.00     0.014 A 
ATOM     31  C   UNL A   1      41.983  20.933  27.874  1.00  0.00     0.014 A 
ATOM     32  C   UNL A   1      42.870  22.747  25.946  1.00  0.00     0.010 A 
ATOM     33  C   UNL A   1      42.463  22.180  28.265  1.00  0.00     0.010 A 
ATOM     34  C   UNL A   1      42.896  23.105  27.304  1.00  0.00    -0.014 A 
BRANCH  34  35
ATOM     35  C   UNL A   1      43.310  24.465  27.734  1.00  0.00     0.031 A 
ATOM     36  C   UNL A   1      42.285  25.503  28.090  1.00  0.00     0.074 A 
ATOM     37  C   UNL A   1      44.619  24.782  27.716  1.00  0.00     0.049 A 
ATOM     38  N   UNL A   1      42.460  26.764  28.395  1.00  0.00    -0.248 NA
ATOM     39  C   UNL A   1      40.878  25.077  28.080  1.00  0.00     0.031 C 
ATOM     40  C   UNL A   1      45.705  23.873  27.342  1.00  0.00     0.029 A 
ATOM     41  N   UNL A   1      45.260  25.962  28.000  1.00  0.00    -0.354 N 
ATOM     42  C   UNL A   1      41.189  27.284  28.605  1.00  0.00     0.074 A 
ATOM     43  C   UNL A   1      40.249  26.214  28.347  1.00  0.00     0.031 C 
ATOM     44  C   UNL A   1      46.875  24.521  27.433  1.00  0.00     0.029 A 
ATOM     45  C   UNL A   1      46.621  25.904  27.825  1.00  0.00     0.049 A 
ATOM     46  H   UNL A   1      44.789  26.773  28.301  1.00  0.00     0.167 HD
ATOM     47  C   UNL A   1      40.842  28.534  28.993  1.00  0.00     0.037 A 
ATOM     48  C   UNL A   1      47.560  26.861  27.943  1.00  0.00     0.037 A 
ATOM     49  C   UNL A   1      41.785  29.592  29.253  1.00  0.00     0.049 A 
ATOM     50  C   UNL A   1      47.143  28.249  28.339  1.00  0.00     0.074 A 
ATOM     51  C   UNL A   1      41.536  30.875  29.713  1.00  0.00     0.029 A 
ATOM     52  N   UNL A   1      43.156  29.496  29.065  1.00  0.00    -0.354 N 
ATOM     53  N   UNL A   1      45.944  28.705  28.611  1.00  0.00    -0.248 NA
ATOM     54  C   UNL A   1      48.209  29.256  28.444  1.00  0.00     0.031 C 
ATOM     55  C   UNL A   1      42.749  31.569  29.748  1.00  0.00     0.029 A 
ATOM     56  C   UNL A   1      43.762  30.705  29.365  1.00  0.00     0.049 A 
ATOM     57  H   UNL A   1      43.628  28.685  28.763  1.00  0.00     0.167 HD
ATOM     58  C   UNL A   1      46.113  30.045  28.936  1.00  0.00     0.074 A 
ATOM     59  C   UNL A   1      47.533  30.320  28.852  1.00  0.00     0.031 C 
ATOM     60  C   UNL A   1      45.176  30.966  29.270  1.00  0.00     0.037 A 
BRANCH  47  61
ATOM     61  C   UNL A   1      39.379  28.832  29.156  1.00  0.00     0.057 A 
ATOM     62  C   UNL A   1      38.725  28.674  30.384  1.00  0.00     0.134 A 
ATOM     63  C   UNL A   1      38.625  29.328  28.084  1.00  0.00     0.134 A 
ATOM     64  F   UNL A   1      39.385  28.195  31.450  1.00  0.00    -0.206 F 
ATOM     65  C   UNL A   1      37.370  28.976  30.536  1.00  0.00     0.040 A 
ATOM     66  C   UNL A   1      37.277  29.660  28.231  1.00  0.00     0.040 A 
ATOM     67  F   UNL A   1      39.189  29.511  26.881  1.00  0.00    -0.206 F 
ATOM     68  C   UNL A   1      36.644  29.479  29.458  1.00  0.00     0.006 A 
ENDBRANCH  47  61
BRANCH  48  69
ATOM     69  C   UNL A   1      48.987  26.541  27.681  1.00  0.00     0.057 A 
ATOM     70  C   UNL A   1      49.546  26.720  26.410  1.00  0.00     0.134 A 
ATOM     71  C   UNL A   1      49.822  26.043  28.688  1.00  0.00     0.134 A 
ATOM     72  F   UNL A   1      48.790  27.176  25.399  1.00  0.00    -0.206 F 
ATOM     73  C   UNL A   1      50.877  26.398  26.145  1.00  0.00     0.040 A 
ATOM     74  C   UNL A   1      51.163  25.743  28.444  1.00  0.00     0.040 A 
ATOM     75  F   UNL A   1      49.350  25.855  29.929  1.00  0.00    -0.206 F 
ATOM     76  C   UNL A   1      51.692  25.913  27.166  1.00  0.00     0.006 A 
ENDBRANCH  48  69
BRANCH  60  77
ATOM     77  C   UNL A   1      45.660  32.352  29.584  1.00  0.00     0.057 A 
ATOM     78  C   UNL A   1      46.069  32.715  30.873  1.00  0.00     0.134 A 
ATOM     79  C   UNL A   1      45.747  33.324  28.579  1.00  0.00     0.134 A 
ATOM     80  F   UNL A   1      45.997  31.836  31.883  1.00  0.00    -0.206 F 
ATOM     81  C   UNL A   1      46.525  34.004  31.157  1.00  0.00     0.040 A 
ATOM     82  C   UNL A   1      46.229  34.606  28.844  1.00  0.00     0.040 A 
ATOM     83  F   UNL A   1      45.377  33.039  27.321  1.00  0.00    -0.206 F 
ATOM     84  C   UNL A   1      46.613  34.951  30.138  1.00  0.00     0.006 A 
ENDBRANCH  60  77
ENDBRANCH  34  35
ENDBRANCH  26  29
ENDBRANCH  24  25
ENDBRANCH   1  24
TORSDOF 12
ENDMDL
MODEL 3
REMARK VINA RESULT:     -11.9      3.612      7.482
REMARK SMILES C[C@]1(C(=O)NCCCNC(=O)c2ccc(-c3c4nc(c(-c5c(F)cccc5F)c5ccc([nH]5)c(-c5c(F)cccc5F)c5nc(c(-c6c(F)cccc6F)c6ccc3[nH]6)C=C5)C=C4)cc2)COC[C@H]1Nc1ccc2nnnn2n1
REMARK SMILES IDX 7 1 6 2 5 3 3 4 4 5 2 7 1 8 66 9 69 10 67 11 68 12 70 13
REMARK SMILES IDX 71 15 72 16 79 17 73 18 78 19 74 20 77 21 75 22 76 23 8 24
REMARK SMILES IDX 9 25 10 26 11 28 12 29 13 30 65 31 14 32 64 33 15 34 16 35
REMARK SMILES IDX 17 36 58 37 18 38 63 39 57 40 59 41 19 42 62 43 56 44 55 45
REMARK SMILES IDX 20 47 46 48 29 49 45 50 30 51 33 52 44 53 60 54 31 55 32 56
REMARK SMILES IDX 43 58 61 59 34 60 21 61 22 62 27 63 23 64 24 65 26 66 28 67
REMARK SMILES IDX 25 68 47 69 48 70 53 71 49 72 50 73 52 74 54 75 51 76 35 77
REMARK SMILES IDX 36 78 41 79 37 80 38 81 40 82 42 83 39 84
REMARK H PARENT 5 6 70 14 9 27 59 46 33 57
REMARK Flexibility Score: inf
ROOT
ATOM      1  C   UNL A   1      31.426  31.466  26.501  1.00  0.00     0.042 C 
ENDROOT
BRANCH   1   2
ATOM      2  C   UNL A   1      31.687  30.196  25.690  1.00  0.00     0.117 C 
BRANCH   2   3
ATOM      3  N   UNL A   1      31.578  29.004  26.510  1.00  0.00    -0.355 N 
ATOM      4  C   UNL A   1      31.896  27.701  26.321  1.00  0.00     0.230 C 
ATOM      5  O   UNL A   1      31.563  26.952  27.251  1.00  0.00    -0.274 OA
ATOM      6  H   UNL A   1      31.188  29.179  27.396  1.00  0.00     0.163 HD
BRANCH   4   7
ATOM      7  C   UNL A   1      32.731  27.152  25.152  1.00  0.00     0.092 C 
ATOM      8  C   UNL A   1      33.541  28.182  24.346  1.00  0.00     0.026 C 
ATOM      9  C   UNL A   1      33.653  26.080  25.751  1.00  0.00     0.179 C 
ATOM     10  C   UNL A   1      31.904  26.322  24.129  1.00  0.00     0.124 C 
ATOM     11  O   UNL A   1      33.728  25.007  24.805  1.00  0.00    -0.378 OA
ATOM     12  C   UNL A   1      32.423  24.898  24.228  1.00  0.00     0.186 C 
BRANCH  10  13
ATOM     13  N   UNL A   1      30.441  26.416  24.214  1.00  0.00    -0.362 N 
ATOM     14  H   UNL A   1      29.916  25.868  24.842  1.00  0.00     0.162 HD
BRANCH  13  15
ATOM     15  C   UNL A   1      29.853  27.311  23.364  1.00  0.00     0.149 A 
ATOM     16  C   UNL A   1      30.774  28.004  22.371  1.00  0.00     0.053 A 
ATOM     17  N   UNL A   1      28.603  27.626  23.552  1.00  0.00    -0.129 NA
ATOM     18  C   UNL A   1      30.537  29.328  22.338  1.00  0.00     0.057 A 
ATOM     19  N   UNL A   1      28.303  28.823  22.985  1.00  0.00    -0.108 N 
ATOM     20  C   UNL A   1      29.198  29.751  22.485  1.00  0.00     0.200 A 
ATOM     21  N   UNL A   1      27.106  29.410  23.126  1.00  0.00    -0.022 NA
ATOM     22  N   UNL A   1      28.581  30.901  22.347  1.00  0.00    -0.107 NA
ATOM     23  N   UNL A   1      27.278  30.666  22.728  1.00  0.00    -0.022 NA
ENDBRANCH  13  15
ENDBRANCH  10  13
ENDBRANCH   4   7
ENDBRANCH   2   3
ENDBRANCH   1   2
BRANCH   1  24
ATOM     24  C   UNL A   1      32.703  32.131  27.020  1.00  0.00     0.118 C 
BRANCH  24  25
ATOM     25  N   UNL A   1      32.497  33.537  27.349  1.00  0.00    -0.352 N 
ATOM     26  C   UNL A   1      33.038  34.315  28.341  1.00  0.00     0.251 C 
ATOM     27  H   UNL A   1      31.863  34.007  26.759  1.00  0.00     0.163 HD
ATOM     28  O   UNL A   1      32.528  35.398  28.605  1.00  0.00    -0.269 OA
BRANCH  26  29
ATOM     29  C   UNL A   1      34.223  33.857  29.098  1.00  0.00     0.039 A 
ATOM     30  C   UNL A   1      34.039  33.005  30.191  1.00  0.00     0.014 A 
ATOM     31  C   UNL A   1      35.506  34.294  28.760  1.00  0.00     0.014 A 
ATOM     32  C   UNL A   1      35.148  32.523  30.888  1.00  0.00     0.010 A 
ATOM     33  C   UNL A   1      36.614  33.760  29.412  1.00  0.00     0.010 A 
ATOM     34  C   UNL A   1      36.446  32.857  30.471  1.00  0.00    -0.014 A 
BRANCH  34  35
ATOM     35  C   UNL A   1      37.640  32.223  31.086  1.00  0.00     0.031 A 
ATOM     36  C   UNL A   1      38.365  31.110  30.385  1.00  0.00     0.074 A 
ATOM     37  C   UNL A   1      38.012  32.600  32.324  1.00  0.00     0.049 A 
ATOM     38  N   UNL A   1      39.365  30.380  30.811  1.00  0.00    -0.248 NA
ATOM     39  C   UNL A   1      37.893  30.755  29.038  1.00  0.00     0.031 C 
ATOM     40  C   UNL A   1      37.356  33.637  33.125  1.00  0.00     0.029 A 
ATOM     41  N   UNL A   1      39.020  32.145  33.136  1.00  0.00    -0.354 N 
ATOM     42  C   UNL A   1      39.635  29.476  29.793  1.00  0.00     0.074 A 
ATOM     43  C   UNL A   1      38.665  29.717  28.746  1.00  0.00     0.031 C 
ATOM     44  C   UNL A   1      37.985  33.748  34.304  1.00  0.00     0.029 A 
ATOM     45  C   UNL A   1      39.057  32.760  34.364  1.00  0.00     0.049 A 
ATOM     46  H   UNL A   1      39.656  31.444  32.865  1.00  0.00     0.167 HD
ATOM     47  C   UNL A   1      40.614  28.541  29.732  1.00  0.00     0.037 A 
ATOM     48  C   UNL A   1      39.850  32.540  35.429  1.00  0.00     0.037 A 
ATOM     49  C   UNL A   1      41.580  28.310  30.776  1.00  0.00     0.049 A 
ATOM     50  C   UNL A   1      40.904  31.472  35.347  1.00  0.00     0.074 A 
ATOM     51  C   UNL A   1      42.649  27.431  30.782  1.00  0.00     0.029 A 
ATOM     52  N   UNL A   1      41.586  28.954  32.005  1.00  0.00    -0.354 N 
ATOM     53  N   UNL A   1      41.199  30.677  34.347  1.00  0.00    -0.248 NA
ATOM     54  C   UNL A   1      41.734  31.269  36.543  1.00  0.00     0.031 C 
ATOM     55  C   UNL A   1      43.267  27.502  32.034  1.00  0.00     0.029 A 
ATOM     56  C   UNL A   1      42.618  28.466  32.790  1.00  0.00     0.049 A 
ATOM     57  H   UNL A   1      40.950  29.654  32.278  1.00  0.00     0.167 HD
ATOM     58  C   UNL A   1      42.259  29.894  34.785  1.00  0.00     0.074 A 
ATOM     59  C   UNL A   1      42.571  30.326  36.132  1.00  0.00     0.031 C 
ATOM     60  C   UNL A   1      42.912  28.901  34.131  1.00  0.00     0.037 A 
BRANCH  47  61
ATOM     61  C   UNL A   1      40.689  27.691  28.495  1.00  0.00     0.057 A 
ATOM     62  C   UNL A   1      39.995  26.479  28.387  1.00  0.00     0.134 A 
ATOM     63  C   UNL A   1      41.425  28.113  27.380  1.00  0.00     0.134 A 
ATOM     64  F   UNL A   1      39.278  26.012  29.421  1.00  0.00    -0.206 F 
ATOM     65  C   UNL A   1      40.048  25.706  27.226  1.00  0.00     0.040 A 
ATOM     66  C   UNL A   1      41.463  27.362  26.204  1.00  0.00     0.040 A 
ATOM     67  F   UNL A   1      42.107  29.267  27.411  1.00  0.00    -0.206 F 
ATOM     68  C   UNL A   1      40.778  26.152  26.126  1.00  0.00     0.006 A 
ENDBRANCH  47  61
BRANCH  48  69
ATOM     69  C   UNL A   1      39.677  33.345  36.665  1.00  0.00     0.057 A 
ATOM     70  C   UNL A   1      38.766  32.960  37.656  1.00  0.00     0.134 A 
ATOM     71  C   UNL A   1      40.409  34.518  36.883  1.00  0.00     0.134 A 
ATOM     72  F   UNL A   1      38.022  31.856  37.495  1.00  0.00    -0.206 F 
ATOM     73  C   UNL A   1      38.576  33.722  38.809  1.00  0.00     0.040 A 
ATOM     74  C   UNL A   1      40.249  35.275  38.045  1.00  0.00     0.040 A 
ATOM     75  F   UNL A   1      41.303  34.937  35.976  1.00  0.00    -0.206 F 
ATOM     76  C   UNL A   1      39.323  34.881  39.009  1.00  0.00     0.006 A 
ENDBRANCH  48  69
BRANCH  60  77
ATOM     77  C   UNL A   1      44.038  28.228  34.860  1.00  0.00     0.057 A 
ATOM     78  C   UNL A   1      43.844  27.045  35.584  1.00  0.00     0.134 A 
ATOM     79  C   UNL A   1      45.336  28.752  34.813  1.00  0.00     0.134 A 
ATOM     80  F   UNL A   1      42.623  26.499  35.682  1.00  0.00    -0.206 F 
ATOM     81  C   UNL A   1      44.897  26.419  36.254  1.00  0.00     0.040 A 
ATOM     82  C   UNL A   1      46.403  28.120  35.454  1.00  0.00     0.040 A 
ATOM     83  F   UNL A   1      45.592  29.879  34.131  1.00  0.00    -0.206 F 
ATOM     84  C   UNL A   1      46.183  26.954  36.183  1.00  0.00     0.006 A 
ENDBRANCH  60  77
ENDBRANCH  34  35
ENDBRANCH  26  29
ENDBRANCH  24  25
ENDBRANCH   1  24
TORSDOF 12
ENDMDL
