MODEL 1
REMARK VINA RESULT:     -12.9      0.000      0.000
REMARK SMILES COc1ccc2c(c1)c(CC(=O)NCCCNC(=O)c1ccc(-c3c4nc(c(-c5c(F)cccc5F)c5ccc([nH]5)c(-c5c(F)cccc5F)c5nc(c(-c6c(F)cccc6F)c6ccc3[nH]6)C=C5)C=C4)cc1)c(C(F)(F)F)n2C(=O)c1ccc(Cl)cc1
REMARK SMILES IDX 14 1 13 2 11 3 12 4 10 6 9 7 3 8 4 9 8 10 5 11 7 12 6 13
REMARK SMILES IDX 79 14 74 15 2 16 1 17 80 18 81 19 82 20 83 21 88 22 84 23
REMARK SMILES IDX 87 24 85 25 86 26 75 27 76 28 77 29 78 30 15 31 16 32 17 33
REMARK SMILES IDX 18 34 19 36 20 37 21 38 73 39 22 40 72 41 23 42 24 43 25 44
REMARK SMILES IDX 66 45 26 46 71 47 65 48 67 49 27 50 70 51 64 52 63 53 28 55
REMARK SMILES IDX 54 56 37 57 53 58 38 59 41 60 52 61 68 62 39 63 40 64 51 66
REMARK SMILES IDX 69 67 42 68 29 69 30 70 35 71 31 72 32 73 34 74 36 75 33 76
REMARK SMILES IDX 55 77 56 78 61 79 57 80 58 81 60 82 62 83 59 84 43 85 44 86
REMARK SMILES IDX 49 87 45 88 46 89 48 90 50 91 47 92
REMARK H PARENT 13 5 17 35 67 54 41 65
REMARK Flexibility Score: inf
ROOT
ATOM      1  C   UNL A   1      31.775  28.115  25.669  1.00  0.00     0.117 C 
ENDROOT
BRANCH   1   2
ATOM      2  N   UNL A   1      31.013  26.963  26.114  1.00  0.00    -0.356 N 
ATOM      3  C   UNL A   1      31.451  25.724  26.483  1.00  0.00     0.224 C 
ATOM      4  O   UNL A   1      30.616  24.901  26.866  1.00  0.00    -0.275 OA
ATOM      5  H   UNL A   1      30.038  27.093  26.155  1.00  0.00     0.163 HD
BRANCH   3   6
ATOM      6  C   UNL A   1      32.934  25.394  26.458  1.00  0.00     0.138 C 
BRANCH   6   7
ATOM      7  C   UNL A   1      33.274  24.221  25.581  1.00  0.00     0.000 A 
ATOM      8  C   UNL A   1      32.797  24.805  21.834  1.00  0.00     0.119 A 
ATOM      9  C   UNL A   1      33.093  23.508  21.445  1.00  0.00     0.048 A 
ATOM     10  C   UNL A   1      32.845  25.146  23.187  1.00  0.00     0.057 A 
ATOM     11  C   UNL A   1      33.446  22.539  22.391  1.00  0.00     0.031 A 
ATOM     12  C   UNL A   1      33.206  24.187  24.160  1.00  0.00     0.008 A 
ATOM     13  C   UNL A   1      33.549  22.895  23.750  1.00  0.00     0.057 A 
ATOM     14  N   UNL A   1      34.017  22.207  24.880  1.00  0.00    -0.271 N 
ATOM     15  C   UNL A   1      33.626  22.939  26.000  1.00  0.00     0.135 A 
BRANCH   8  16
ATOM     16  O   UNL A   1      32.469  25.829  20.989  1.00  0.00    -0.497 OA
ATOM     17  C   UNL A   1      32.463  25.516  19.601  1.00  0.00     0.278 C 
ENDBRANCH   8  16
BRANCH  14  18
ATOM     18  C   UNL A   1      34.802  21.022  24.884  1.00  0.00     0.262 C 
ATOM     19  O   UNL A   1      36.029  21.142  24.922  1.00  0.00    -0.268 OA
BRANCH  18  20
ATOM     20  C   UNL A   1      34.271  19.654  24.772  1.00  0.00     0.040 A 
ATOM     21  C   UNL A   1      32.896  19.422  24.899  1.00  0.00     0.015 A 
ATOM     22  C   UNL A   1      35.165  18.592  24.605  1.00  0.00     0.015 A 
ATOM     23  C   UNL A   1      32.425  18.108  24.944  1.00  0.00     0.021 A 
ATOM     24  C   UNL A   1      34.685  17.281  24.639  1.00  0.00     0.021 A 
ATOM     25  C   UNL A   1      33.323  17.044  24.829  1.00  0.00     0.041 A 
ATOM     26  Cl  UNL A   1      32.747  15.427  24.954  1.00  0.00    -0.084 Cl
ENDBRANCH  18  20
ENDBRANCH  14  18
BRANCH  15  27
ATOM     27  C   UNL A   1      33.646  22.395  27.390  1.00  0.00     0.432 C 
ATOM     28  F   UNL A   1      34.637  22.947  28.130  1.00  0.00    -0.165 F 
ATOM     29  F   UNL A   1      32.482  22.709  28.027  1.00  0.00    -0.165 F 
ATOM     30  F   UNL A   1      33.736  21.050  27.470  1.00  0.00    -0.165 F 
ENDBRANCH  15  27
ENDBRANCH   6   7
ENDBRANCH   3   6
ENDBRANCH   1   2
BRANCH   1  31
ATOM     31  C   UNL A   1      32.121  29.069  26.814  1.00  0.00     0.042 C 
BRANCH  31  32
ATOM     32  C   UNL A   1      33.274  30.020  26.495  1.00  0.00     0.118 C 
BRANCH  32  33
ATOM     33  N   UNL A   1      33.495  31.037  27.506  1.00  0.00    -0.352 N 
ATOM     34  C   UNL A   1      34.559  31.476  28.239  1.00  0.00     0.251 C 
ATOM     35  H   UNL A   1      32.671  31.533  27.716  1.00  0.00     0.163 HD
ATOM     36  O   UNL A   1      34.349  32.470  28.939  1.00  0.00    -0.269 OA
BRANCH  34  37
ATOM     37  C   UNL A   1      35.896  30.828  28.310  1.00  0.00     0.039 A 
ATOM     38  C   UNL A   1      36.170  29.484  28.056  1.00  0.00     0.014 A 
ATOM     39  C   UNL A   1      36.947  31.658  28.749  1.00  0.00     0.014 A 
ATOM     40  C   UNL A   1      37.430  28.963  28.344  1.00  0.00     0.010 A 
ATOM     41  C   UNL A   1      38.208  31.147  29.023  1.00  0.00     0.010 A 
ATOM     42  C   UNL A   1      38.430  29.784  28.877  1.00  0.00    -0.014 A 
BRANCH  42  43
ATOM     43  C   UNL A   1      39.728  29.189  29.177  1.00  0.00     0.031 A 
ATOM     44  C   UNL A   1      40.053  29.118  30.629  1.00  0.00     0.074 A 
ATOM     45  C   UNL A   1      40.538  28.650  28.241  1.00  0.00     0.049 A 
ATOM     46  N   UNL A   1      41.005  29.725  31.259  1.00  0.00    -0.248 NA
ATOM     47  C   UNL A   1      39.127  28.387  31.508  1.00  0.00     0.031 C 
ATOM     48  C   UNL A   1      40.253  28.406  26.826  1.00  0.00     0.029 A 
ATOM     49  N   UNL A   1      41.788  28.124  28.390  1.00  0.00    -0.354 N 
ATOM     50  C   UNL A   1      40.920  29.304  32.585  1.00  0.00     0.074 A 
ATOM     51  C   UNL A   1      39.666  28.608  32.707  1.00  0.00     0.031 C 
ATOM     52  C   UNL A   1      41.196  27.583  26.311  1.00  0.00     0.029 A 
ATOM     53  C   UNL A   1      42.222  27.354  27.316  1.00  0.00     0.049 A 
ATOM     54  H   UNL A   1      42.339  28.277  29.192  1.00  0.00     0.167 HD
ATOM     55  C   UNL A   1      41.997  29.372  33.417  1.00  0.00     0.037 A 
ATOM     56  C   UNL A   1      43.313  26.547  27.278  1.00  0.00     0.037 A 
ATOM     57  C   UNL A   1      42.987  30.291  32.915  1.00  0.00     0.049 A 
ATOM     58  C   UNL A   1      44.225  26.968  28.369  1.00  0.00     0.074 A 
ATOM     59  C   UNL A   1      43.010  31.641  32.621  1.00  0.00     0.029 A 
ATOM     60  N   UNL A   1      44.099  29.764  32.306  1.00  0.00    -0.354 N 
ATOM     61  N   UNL A   1      44.890  28.088  28.365  1.00  0.00    -0.248 NA
ATOM     62  C   UNL A   1      44.042  26.356  29.677  1.00  0.00     0.031 C 
ATOM     63  C   UNL A   1      43.830  31.750  31.458  1.00  0.00     0.029 A 
ATOM     64  C   UNL A   1      44.306  30.475  31.154  1.00  0.00     0.049 A 
ATOM     65  H   UNL A   1      44.646  29.015  32.637  1.00  0.00     0.167 HD
ATOM     66  C   UNL A   1      44.802  28.551  29.669  1.00  0.00     0.074 A 
ATOM     67  C   UNL A   1      44.346  27.402  30.450  1.00  0.00     0.031 C 
ATOM     68  C   UNL A   1      44.827  29.888  29.945  1.00  0.00     0.037 A 
BRANCH  55  69
ATOM     69  C   UNL A   1      42.338  28.323  34.453  1.00  0.00     0.057 A 
ATOM     70  C   UNL A   1      42.010  28.421  35.819  1.00  0.00     0.134 A 
ATOM     71  C   UNL A   1      42.696  27.031  34.019  1.00  0.00     0.134 A 
ATOM     72  F   UNL A   1      41.615  29.566  36.387  1.00  0.00    -0.206 F 
ATOM     73  C   UNL A   1      41.968  27.313  36.670  1.00  0.00     0.040 A 
ATOM     74  C   UNL A   1      42.612  25.909  34.851  1.00  0.00     0.040 A 
ATOM     75  F   UNL A   1      43.047  26.805  32.743  1.00  0.00    -0.206 F 
ATOM     76  C   UNL A   1      42.228  26.045  36.177  1.00  0.00     0.006 A 
ENDBRANCH  55  69
BRANCH  56  77
ATOM     77  C   UNL A   1      43.489  25.258  26.567  1.00  0.00     0.057 A 
ATOM     78  C   UNL A   1      44.328  25.156  25.444  1.00  0.00     0.134 A 
ATOM     79  C   UNL A   1      42.632  24.171  26.791  1.00  0.00     0.134 A 
ATOM     80  F   UNL A   1      45.131  26.168  25.085  1.00  0.00    -0.206 F 
ATOM     81  C   UNL A   1      44.308  24.050  24.589  1.00  0.00     0.040 A 
ATOM     82  C   UNL A   1      42.597  23.058  25.938  1.00  0.00     0.040 A 
ATOM     83  F   UNL A   1      41.759  24.190  27.809  1.00  0.00    -0.206 F 
ATOM     84  C   UNL A   1      43.430  23.001  24.826  1.00  0.00     0.006 A 
ENDBRANCH  56  77
BRANCH  68  85
ATOM     85  C   UNL A   1      45.205  30.821  28.828  1.00  0.00     0.057 A 
ATOM     86  C   UNL A   1      46.499  31.352  28.802  1.00  0.00     0.134 A 
ATOM     87  C   UNL A   1      44.311  31.286  27.850  1.00  0.00     0.134 A 
ATOM     88  F   UNL A   1      47.391  31.006  29.744  1.00  0.00    -0.206 F 
ATOM     89  C   UNL A   1      46.898  32.275  27.833  1.00  0.00     0.040 A 
ATOM     90  C   UNL A   1      44.708  32.180  26.852  1.00  0.00     0.040 A 
ATOM     91  F   UNL A   1      43.022  30.924  27.860  1.00  0.00    -0.206 F 
ATOM     92  C   UNL A   1      46.007  32.679  26.842  1.00  0.00     0.006 A 
ENDBRANCH  68  85
ENDBRANCH  42  43
ENDBRANCH  34  37
ENDBRANCH  32  33
ENDBRANCH  31  32
ENDBRANCH   1  31
TORSDOF 15
ENDMDL
MODEL 2
REMARK VINA RESULT:     -12.6      1.506      2.630
REMARK SMILES COc1ccc2c(c1)c(CC(=O)NCCCNC(=O)c1ccc(-c3c4nc(c(-c5c(F)cccc5F)c5ccc([nH]5)c(-c5c(F)cccc5F)c5nc(c(-c6c(F)cccc6F)c6ccc3[nH]6)C=C5)C=C4)cc1)c(C(F)(F)F)n2C(=O)c1ccc(Cl)cc1
REMARK SMILES IDX 14 1 13 2 11 3 12 4 10 6 9 7 3 8 4 9 8 10 5 11 7 12 6 13
REMARK SMILES IDX 79 14 74 15 2 16 1 17 80 18 81 19 82 20 83 21 88 22 84 23
REMARK SMILES IDX 87 24 85 25 86 26 75 27 76 28 77 29 78 30 15 31 16 32 17 33
REMARK SMILES IDX 18 34 19 36 20 37 21 38 73 39 22 40 72 41 23 42 24 43 25 44
REMARK SMILES IDX 66 45 26 46 71 47 65 48 67 49 27 50 70 51 64 52 63 53 28 55
REMARK SMILES IDX 54 56 37 57 53 58 38 59 41 60 52 61 68 62 39 63 40 64 51 66
REMARK SMILES IDX 69 67 42 68 29 69 30 70 35 71 31 72 32 73 34 74 36 75 33 76
REMARK SMILES IDX 55 77 56 78 61 79 57 80 58 81 60 82 62 83 59 84 43 85 44 86
REMARK SMILES IDX 49 87 45 88 46 89 48 90 50 91 47 92
REMARK H PARENT 13 5 17 35 67 54 41 65
REMARK Flexibility Score: inf
ROOT
ATOM      1  C   UNL A   1      31.415  28.301  26.201  1.00  0.00     0.117 C 
ENDROOT
BRANCH   1   2
ATOM      2  N   UNL A   1      31.300  26.958  26.738  1.00  0.00    -0.356 N 
ATOM      3  C   UNL A   1      32.091  25.868  26.522  1.00  0.00     0.224 C 
ATOM      4  O   UNL A   1      31.822  24.824  27.122  1.00  0.00    -0.275 OA
ATOM      5  H   UNL A   1      30.540  26.812  27.347  1.00  0.00     0.163 HD
BRANCH   3   6
ATOM      6  C   UNL A   1      33.294  25.962  25.598  1.00  0.00     0.138 C 
BRANCH   6   7
ATOM      7  C   UNL A   1      33.619  24.670  24.901  1.00  0.00     0.000 A 
ATOM      8  C   UNL A   1      37.127  23.305  25.567  1.00  0.00     0.119 A 
ATOM      9  C   UNL A   1      37.039  22.239  24.686  1.00  0.00     0.048 A 
ATOM     10  C   UNL A   1      36.036  24.163  25.721  1.00  0.00     0.057 A 
ATOM     11  C   UNL A   1      35.867  22.008  23.956  1.00  0.00     0.031 A 
ATOM     12  C   UNL A   1      34.841  23.947  25.001  1.00  0.00     0.008 A 
ATOM     13  C   UNL A   1      34.748  22.839  24.151  1.00  0.00     0.057 A 
ATOM     14  N   UNL A   1      33.421  22.770  23.697  1.00  0.00    -0.271 N 
ATOM     15  C   UNL A   1      32.827  24.001  23.970  1.00  0.00     0.135 A 
BRANCH   8  16
ATOM     16  O   UNL A   1      38.213  23.602  26.344  1.00  0.00    -0.497 OA
ATOM     17  C   UNL A   1      39.201  22.584  26.451  1.00  0.00     0.278 C 
ENDBRANCH   8  16
BRANCH  14  18
ATOM     18  C   UNL A   1      32.781  21.636  23.126  1.00  0.00     0.262 C 
ATOM     19  O   UNL A   1      32.252  21.768  22.020  1.00  0.00    -0.268 OA
BRANCH  18  20
ATOM     20  C   UNL A   1      32.633  20.328  23.782  1.00  0.00     0.040 A 
ATOM     21  C   UNL A   1      32.728  20.226  25.176  1.00  0.00     0.015 A 
ATOM     22  C   UNL A   1      32.464  19.188  22.989  1.00  0.00     0.015 A 
ATOM     23  C   UNL A   1      32.739  18.962  25.769  1.00  0.00     0.021 A 
ATOM     24  C   UNL A   1      32.464  17.928  23.592  1.00  0.00     0.021 A 
ATOM     25  C   UNL A   1      32.622  17.819  24.975  1.00  0.00     0.041 A 
ATOM     26  Cl  UNL A   1      32.705  16.263  25.704  1.00  0.00    -0.084 Cl
ENDBRANCH  18  20
ENDBRANCH  14  18
BRANCH  15  27
ATOM     27  C   UNL A   1      31.538  24.447  23.365  1.00  0.00     0.432 C 
ATOM     28  F   UNL A   1      31.599  24.466  22.011  1.00  0.00    -0.165 F 
ATOM     29  F   UNL A   1      30.547  23.566  23.684  1.00  0.00    -0.165 F 
ATOM     30  F   UNL A   1      31.093  25.646  23.799  1.00  0.00    -0.165 F 
ENDBRANCH  15  27
ENDBRANCH   6   7
ENDBRANCH   3   6
ENDBRANCH   1   2
BRANCH   1  31
ATOM     31  C   UNL A   1      31.849  29.322  27.255  1.00  0.00     0.042 C 
BRANCH  31  32
ATOM     32  C   UNL A   1      33.179  30.006  26.937  1.00  0.00     0.118 C 
BRANCH  32  33
ATOM     33  N   UNL A   1      33.494  31.115  27.818  1.00  0.00    -0.352 N 
ATOM     34  C   UNL A   1      34.621  31.605  28.411  1.00  0.00     0.251 C 
ATOM     35  H   UNL A   1      32.696  31.645  28.045  1.00  0.00     0.163 HD
ATOM     36  O   UNL A   1      34.481  32.669  29.022  1.00  0.00    -0.269 OA
BRANCH  34  37
ATOM     37  C   UNL A   1      35.953  30.944  28.435  1.00  0.00     0.039 A 
ATOM     38  C   UNL A   1      36.207  29.602  28.153  1.00  0.00     0.014 A 
ATOM     39  C   UNL A   1      37.025  31.756  28.858  1.00  0.00     0.014 A 
ATOM     40  C   UNL A   1      37.468  29.064  28.398  1.00  0.00     0.010 A 
ATOM     41  C   UNL A   1      38.287  31.228  29.090  1.00  0.00     0.010 A 
ATOM     42  C   UNL A   1      38.491  29.866  28.916  1.00  0.00    -0.014 A 
BRANCH  42  43
ATOM     43  C   UNL A   1      39.791  29.253  29.171  1.00  0.00     0.031 A 
ATOM     44  C   UNL A   1      40.151  29.149  30.612  1.00  0.00     0.074 A 
ATOM     45  C   UNL A   1      40.573  28.728  28.204  1.00  0.00     0.049 A 
ATOM     46  N   UNL A   1      41.124  29.734  31.231  1.00  0.00    -0.248 NA
ATOM     47  C   UNL A   1      39.241  28.408  31.499  1.00  0.00     0.031 C 
ATOM     48  C   UNL A   1      40.250  28.516  26.791  1.00  0.00     0.029 A 
ATOM     49  N   UNL A   1      41.821  28.188  28.310  1.00  0.00    -0.354 N 
ATOM     50  C   UNL A   1      41.068  29.286  32.549  1.00  0.00     0.074 A 
ATOM     51  C   UNL A   1      39.811  28.599  32.689  1.00  0.00     0.031 C 
ATOM     52  C   UNL A   1      41.173  27.697  26.236  1.00  0.00     0.029 A 
ATOM     53  C   UNL A   1      42.221  27.437  27.210  1.00  0.00     0.049 A 
ATOM     54  H   UNL A   1      42.392  28.319  29.101  1.00  0.00     0.167 HD
ATOM     55  C   UNL A   1      42.165  29.327  33.356  1.00  0.00     0.037 A 
ATOM     56  C   UNL A   1      43.303  26.622  27.128  1.00  0.00     0.037 A 
ATOM     57  C   UNL A   1      43.151  30.248  32.848  1.00  0.00     0.049 A 
ATOM     58  C   UNL A   1      44.246  27.011  28.204  1.00  0.00     0.074 A 
ATOM     59  C   UNL A   1      43.179  31.603  32.583  1.00  0.00     0.029 A 
ATOM     60  N   UNL A   1      44.243  29.724  32.201  1.00  0.00    -0.354 N 
ATOM     61  N   UNL A   1      44.921  28.125  28.208  1.00  0.00    -0.248 NA
ATOM     62  C   UNL A   1      44.089  26.373  29.503  1.00  0.00     0.031 C 
ATOM     63  C   UNL A   1      43.971  31.730  31.402  1.00  0.00     0.029 A 
ATOM     64  C   UNL A   1      44.427  30.458  31.060  1.00  0.00     0.049 A 
ATOM     65  H   UNL A   1      44.791  28.964  32.502  1.00  0.00     0.167 HD
ATOM     66  C   UNL A   1      44.869  28.561  29.523  1.00  0.00     0.074 A 
ATOM     67  C   UNL A   1      44.422  27.401  30.290  1.00  0.00     0.031 C 
ATOM     68  C   UNL A   1      44.914  29.893  29.826  1.00  0.00     0.037 A 
BRANCH  55  69
ATOM     69  C   UNL A   1      42.523  28.253  34.360  1.00  0.00     0.057 A 
ATOM     70  C   UNL A   1      42.248  28.334  35.740  1.00  0.00     0.134 A 
ATOM     71  C   UNL A   1      42.837  26.962  33.892  1.00  0.00     0.134 A 
ATOM     72  F   UNL A   1      41.899  29.477  36.341  1.00  0.00    -0.206 F 
ATOM     73  C   UNL A   1      42.215  27.212  36.573  1.00  0.00     0.040 A 
ATOM     74  C   UNL A   1      42.760  25.827  34.707  1.00  0.00     0.040 A 
ATOM     75  F   UNL A   1      43.134  26.750  32.600  1.00  0.00    -0.206 F 
ATOM     76  C   UNL A   1      42.428  25.948  36.050  1.00  0.00     0.006 A 
ENDBRANCH  55  69
BRANCH  56  77
ATOM     77  C   UNL A   1      43.450  25.347  26.386  1.00  0.00     0.057 A 
ATOM     78  C   UNL A   1      42.828  24.168  26.834  1.00  0.00     0.134 A 
ATOM     79  C   UNL A   1      44.422  25.185  25.388  1.00  0.00     0.134 A 
ATOM     80  F   UNL A   1      41.942  24.192  27.841  1.00  0.00    -0.206 F 
ATOM     81  C   UNL A   1      43.161  22.906  26.333  1.00  0.00     0.040 A 
ATOM     82  C   UNL A   1      44.770  23.924  24.881  1.00  0.00     0.040 A 
ATOM     83  F   UNL A   1      45.106  26.241  24.925  1.00  0.00    -0.206 F 
ATOM     84  C   UNL A   1      44.145  22.778  25.362  1.00  0.00     0.006 A 
ENDBRANCH  56  77
BRANCH  68  85
ATOM     85  C   UNL A   1      45.272  30.846  28.720  1.00  0.00     0.057 A 
ATOM     86  C   UNL A   1      44.251  31.345  27.904  1.00  0.00     0.134 A 
ATOM     87  C   UNL A   1      46.586  31.199  28.375  1.00  0.00     0.134 A 
ATOM     88  F   UNL A   1      42.973  30.998  28.129  1.00  0.00    -0.206 F 
ATOM     89  C   UNL A   1      44.517  32.181  26.818  1.00  0.00     0.040 A 
ATOM     90  C   UNL A   1      46.864  32.065  27.314  1.00  0.00     0.040 A 
ATOM     91  F   UNL A   1      47.636  30.682  29.025  1.00  0.00    -0.206 F 
ATOM     92  C   UNL A   1      45.826  32.559  26.530  1.00  0.00     0.006 A 
ENDBRANCH  68  85
ENDBRANCH  42  43
ENDBRANCH  34  37
ENDBRANCH  32  33
ENDBRANCH  31  32
ENDBRANCH   1  31
TORSDOF 15
ENDMDL
MODEL 3
REMARK VINA RESULT:     -12.6      2.573      7.103
REMARK SMILES COc1ccc2c(c1)c(CC(=O)NCCCNC(=O)c1ccc(-c3c4nc(c(-c5c(F)cccc5F)c5ccc([nH]5)c(-c5c(F)cccc5F)c5nc(c(-c6c(F)cccc6F)c6ccc3[nH]6)C=C5)C=C4)cc1)c(C(F)(F)F)n2C(=O)c1ccc(Cl)cc1
REMARK SMILES IDX 14 1 13 2 11 3 12 4 10 6 9 7 3 8 4 9 8 10 5 11 7 12 6 13
REMARK SMILES IDX 79 14 74 15 2 16 1 17 80 18 81 19 82 20 83 21 88 22 84 23
REMARK SMILES IDX 87 24 85 25 86 26 75 27 76 28 77 29 78 30 15 31 16 32 17 33
REMARK SMILES IDX 18 34 19 36 20 37 21 38 73 39 22 40 72 41 23 42 24 43 25 44
REMARK SMILES IDX 66 45 26 46 71 47 65 48 67 49 27 50 70 51 64 52 63 53 28 55
REMARK SMILES IDX 54 56 37 57 53 58 38 59 41 60 52 61 68 62 39 63 40 64 51 66
REMARK SMILES IDX 69 67 42 68 29 69 30 70 35 71 31 72 32 73 34 74 36 75 33 76
REMARK SMILES IDX 55 77 56 78 61 79 57 80 58 81 60 82 62 83 59 84 43 85 44 86
REMARK SMILES IDX 49 87 45 88 46 89 48 90 50 91 47 92
REMARK H PARENT 13 5 17 35 67 54 41 65
REMARK Flexibility Score: inf
ROOT
ATOM      1  C   UNL A   1      38.222  22.867  25.943  1.00  0.00     0.117 C 
ENDROOT
BRANCH   1   2
ATOM      2  N   UNL A   1      37.792  22.892  24.557  1.00  0.00    -0.356 N 
ATOM      3  C   UNL A   1      36.722  23.524  23.993  1.00  0.00     0.224 C 
ATOM      4  O   UNL A   1      36.570  23.436  22.772  1.00  0.00    -0.275 OA
ATOM      5  H   UNL A   1      38.354  22.379  23.933  1.00  0.00     0.163 HD
BRANCH   3   6
ATOM      6  C   UNL A   1      35.774  24.346  24.851  1.00  0.00     0.138 C 
BRANCH   6   7
ATOM      7  C   UNL A   1      34.358  23.839  24.837  1.00  0.00     0.000 A 
ATOM      8  C   UNL A   1      31.878  26.011  22.903  1.00  0.00     0.119 A 
ATOM      9  C   UNL A   1      30.750  25.278  23.237  1.00  0.00     0.048 A 
ATOM     10  C   UNL A   1      33.128  25.604  23.374  1.00  0.00     0.057 A 
ATOM     11  C   UNL A   1      30.851  24.131  24.034  1.00  0.00     0.031 A 
ATOM     12  C   UNL A   1      33.256  24.446  24.173  1.00  0.00     0.008 A 
ATOM     13  C   UNL A   1      32.117  23.689  24.463  1.00  0.00     0.057 A 
ATOM     14  N   UNL A   1      32.544  22.525  25.121  1.00  0.00    -0.271 N 
ATOM     15  C   UNL A   1      33.856  22.746  25.540  1.00  0.00     0.135 A 
BRANCH   8  16
ATOM     16  O   UNL A   1      31.890  27.126  22.112  1.00  0.00    -0.497 OA
ATOM     17  C   UNL A   1      30.963  28.148  22.459  1.00  0.00     0.278 C 
ENDBRANCH   8  16
BRANCH  14  18
ATOM     18  C   UNL A   1      31.805  21.320  25.275  1.00  0.00     0.262 C 
ATOM     19  O   UNL A   1      30.754  21.366  25.919  1.00  0.00    -0.268 OA
BRANCH  18  20
ATOM     20  C   UNL A   1      32.228  19.998  24.786  1.00  0.00     0.040 A 
ATOM     21  C   UNL A   1      32.611  19.004  25.695  1.00  0.00     0.015 A 
ATOM     22  C   UNL A   1      32.304  19.777  23.408  1.00  0.00     0.015 A 
ATOM     23  C   UNL A   1      33.155  17.810  25.214  1.00  0.00     0.021 A 
ATOM     24  C   UNL A   1      32.838  18.577  22.935  1.00  0.00     0.021 A 
ATOM     25  C   UNL A   1      33.279  17.608  23.838  1.00  0.00     0.041 A 
ATOM     26  Cl  UNL A   1      34.012  16.166  23.252  1.00  0.00    -0.084 Cl
ENDBRANCH  18  20
ENDBRANCH  14  18
BRANCH  15  27
ATOM     27  C   UNL A   1      34.556  21.891  26.542  1.00  0.00     0.432 C 
ATOM     28  F   UNL A   1      35.334  20.955  25.947  1.00  0.00    -0.165 F 
ATOM     29  F   UNL A   1      35.399  22.655  27.294  1.00  0.00    -0.165 F 
ATOM     30  F   UNL A   1      33.745  21.283  27.435  1.00  0.00    -0.165 F 
ENDBRANCH  15  27
ENDBRANCH   6   7
ENDBRANCH   3   6
ENDBRANCH   1   2
BRANCH   1  31
ATOM     31  C   UNL A   1      39.112  21.664  26.261  1.00  0.00     0.042 C 
BRANCH  31  32
ATOM     32  C   UNL A   1      40.470  22.043  26.853  1.00  0.00     0.118 C 
BRANCH  32  33
ATOM     33  N   UNL A   1      41.480  22.349  25.858  1.00  0.00    -0.352 N 
ATOM     34  C   UNL A   1      42.343  23.379  25.622  1.00  0.00     0.251 C 
ATOM     35  H   UNL A   1      41.562  21.635  25.184  1.00  0.00     0.163 HD
ATOM     36  O   UNL A   1      43.143  23.202  24.699  1.00  0.00    -0.269 OA
BRANCH  34  37
ATOM     37  C   UNL A   1      42.351  24.689  26.325  1.00  0.00     0.039 A 
ATOM     38  C   UNL A   1      43.133  25.020  27.432  1.00  0.00     0.014 A 
ATOM     39  C   UNL A   1      41.419  25.635  25.853  1.00  0.00     0.014 A 
ATOM     40  C   UNL A   1      42.907  26.213  28.114  1.00  0.00     0.010 A 
ATOM     41  C   UNL A   1      41.201  26.833  26.520  1.00  0.00     0.010 A 
ATOM     42  C   UNL A   1      41.905  27.093  27.688  1.00  0.00    -0.014 A 
BRANCH  42  43
ATOM     43  C   UNL A   1      41.696  28.323  28.444  1.00  0.00     0.031 A 
ATOM     44  C   UNL A   1      42.748  29.357  28.244  1.00  0.00     0.074 A 
ATOM     45  C   UNL A   1      40.597  28.564  29.191  1.00  0.00     0.049 A 
ATOM     46  N   UNL A   1      43.577  29.825  29.119  1.00  0.00    -0.248 NA
ATOM     47  C   UNL A   1      42.996  29.833  26.874  1.00  0.00     0.031 C 
ATOM     48  C   UNL A   1      39.368  27.772  29.279  1.00  0.00     0.029 A 
ATOM     49  N   UNL A   1      40.317  29.639  29.982  1.00  0.00    -0.354 N 
ATOM     50  C   UNL A   1      44.327  30.796  28.459  1.00  0.00     0.074 A 
ATOM     51  C   UNL A   1      44.032  30.651  27.058  1.00  0.00     0.031 C 
ATOM     52  C   UNL A   1      38.404  28.501  29.887  1.00  0.00     0.029 A 
ATOM     53  C   UNL A   1      38.981  29.752  30.352  1.00  0.00     0.049 A 
ATOM     54  H   UNL A   1      41.005  30.283  30.269  1.00  0.00     0.167 HD
ATOM     55  C   UNL A   1      44.961  31.787  29.147  1.00  0.00     0.037 A 
ATOM     56  C   UNL A   1      38.386  30.818  30.946  1.00  0.00     0.037 A 
ATOM     57  C   UNL A   1      45.120  31.438  30.536  1.00  0.00     0.049 A 
ATOM     58  C   UNL A   1      39.451  31.644  31.566  1.00  0.00     0.074 A 
ATOM     59  C   UNL A   1      45.758  30.423  31.223  1.00  0.00     0.029 A 
ATOM     60  N   UNL A   1      44.266  32.014  31.444  1.00  0.00    -0.354 N 
ATOM     61  N   UNL A   1      40.136  31.277  32.611  1.00  0.00    -0.248 NA
ATOM     62  C   UNL A   1      40.070  32.675  30.746  1.00  0.00     0.031 C 
ATOM     63  C   UNL A   1      44.900  30.128  32.325  1.00  0.00     0.029 A 
ATOM     64  C   UNL A   1      43.829  31.019  32.277  1.00  0.00     0.049 A 
ATOM     65  H   UNL A   1      44.015  32.965  31.487  1.00  0.00     0.167 HD
ATOM     66  C   UNL A   1      41.436  31.670  32.333  1.00  0.00     0.074 A 
ATOM     67  C   UNL A   1      41.319  32.603  31.214  1.00  0.00     0.031 C 
ATOM     68  C   UNL A   1      42.503  30.986  32.842  1.00  0.00     0.037 A 
BRANCH  55  69
ATOM     69  C   UNL A   1      45.067  33.219  28.670  1.00  0.00     0.057 A 
ATOM     70  C   UNL A   1      43.976  34.107  28.580  1.00  0.00     0.134 A 
ATOM     71  C   UNL A   1      46.336  33.830  28.627  1.00  0.00     0.134 A 
ATOM     72  F   UNL A   1      42.705  33.699  28.639  1.00  0.00    -0.206 F 
ATOM     73  C   UNL A   1      44.133  35.496  28.526  1.00  0.00     0.040 A 
ATOM     74  C   UNL A   1      46.502  35.219  28.622  1.00  0.00     0.040 A 
ATOM     75  F   UNL A   1      47.457  33.094  28.688  1.00  0.00    -0.206 F 
ATOM     76  C   UNL A   1      45.396  36.059  28.591  1.00  0.00     0.006 A 
ENDBRANCH  55  69
BRANCH  56  77
ATOM     77  C   UNL A   1      37.008  31.332  30.763  1.00  0.00     0.057 A 
ATOM     78  C   UNL A   1      36.591  31.878  29.536  1.00  0.00     0.134 A 
ATOM     79  C   UNL A   1      36.158  31.560  31.855  1.00  0.00     0.134 A 
ATOM     80  F   UNL A   1      37.362  31.792  28.443  1.00  0.00    -0.206 F 
ATOM     81  C   UNL A   1      35.411  32.617  29.404  1.00  0.00     0.040 A 
ATOM     82  C   UNL A   1      34.974  32.305  31.738  1.00  0.00     0.040 A 
ATOM     83  F   UNL A   1      36.487  31.122  33.079  1.00  0.00    -0.206 F 
ATOM     84  C   UNL A   1      34.604  32.844  30.511  1.00  0.00     0.006 A 
ENDBRANCH  56  77
BRANCH  68  85
ATOM     85  C   UNL A   1      42.227  29.959  33.905  1.00  0.00     0.057 A 
ATOM     86  C   UNL A   1      42.427  30.307  35.245  1.00  0.00     0.134 A 
ATOM     87  C   UNL A   1      41.876  28.625  33.644  1.00  0.00     0.134 A 
ATOM     88  F   UNL A   1      42.829  31.546  35.570  1.00  0.00    -0.206 F 
ATOM     89  C   UNL A   1      42.255  29.386  36.280  1.00  0.00     0.040 A 
ATOM     90  C   UNL A   1      41.664  27.703  34.672  1.00  0.00     0.040 A 
ATOM     91  F   UNL A   1      41.772  28.168  32.390  1.00  0.00    -0.206 F 
ATOM     92  C   UNL A   1      41.854  28.082  35.997  1.00  0.00     0.006 A 
ENDBRANCH  68  85
ENDBRANCH  42  43
ENDBRANCH  34  37
ENDBRANCH  32  33
ENDBRANCH  31  32
ENDBRANCH   1  31
TORSDOF 15
ENDMDL
