MODEL 1
REMARK VINA RESULT:      -9.0      0.000      0.000
REMARK SMILES NS(=O)(=O)c1ccc(C#Cc2cc(Cl)cc3c2O[C@H](C(F)(F)F)C(C(=O)NCCCNC(=O)c2ccc(-c4c5nc(c(-c6c(F)cccc6F)c6ccc([nH]6)c(-c6c(F)cccc6F)c6nc(c(-c7c(F)cccc7F)c7ccc4[nH]7)C=C6)C=C5)cc2)=C3)cc1
REMARK SMILES IDX 28 1 27 2 25 3 26 4 24 6 11 7 12 8 17 9 13 10 16 11 18 12
REMARK SMILES IDX 14 13 15 14 88 15 19 16 10 17 9 18 8 19 5 20 6 21 90 22 7 23
REMARK SMILES IDX 89 24 2 25 3 26 4 27 1 28 20 31 21 32 22 33 23 34 29 35
REMARK SMILES IDX 30 36 31 37 32 38 33 40 34 41 35 42 87 43 36 44 86 45 37 46
REMARK SMILES IDX 38 47 39 48 80 49 40 50 85 51 79 52 81 53 41 54 84 55 78 56
REMARK SMILES IDX 77 57 42 59 68 60 51 61 67 62 52 63 55 64 66 65 82 66 53 67
REMARK SMILES IDX 54 68 65 70 83 71 56 72 43 73 44 74 49 75 45 76 46 77 48 78
REMARK SMILES IDX 50 79 47 80 69 81 70 82 75 83 71 84 72 85 74 86 76 87 73 88
REMARK SMILES IDX 57 89 58 90 63 91 59 92 60 93 62 94 64 95 61 96
REMARK H PARENT 27 5 1 29 1 30 31 39 81 58 55 69
REMARK Flexibility Score: inf
ROOT
ATOM      1  C   UNL A   1      35.728  33.276  29.404  1.00  0.00     0.118 C 
ENDROOT
BRANCH   1   2
ATOM      2  N   UNL A   1      36.790  34.266  29.313  1.00  0.00    -0.352 N 
ATOM      3  C   UNL A   1      38.040  34.424  29.809  1.00  0.00     0.251 C 
ATOM      4  O   UNL A   1      38.630  35.447  29.450  1.00  0.00    -0.270 OA
ATOM      5  H   UNL A   1      36.531  35.023  28.739  1.00  0.00     0.163 HD
BRANCH   3   6
ATOM      6  C   UNL A   1      38.709  33.465  30.734  1.00  0.00     0.067 C 
ATOM      7  C   UNL A   1      40.389  30.547  33.248  1.00  0.00     0.069 A 
ATOM      8  C   UNL A   1      39.806  30.289  34.489  1.00  0.00     0.041 A 
ATOM      9  C   UNL A   1      39.802  31.490  32.394  1.00  0.00     0.143 A 
ATOM     10  C   UNL A   1      38.643  30.963  34.859  1.00  0.00     0.043 A 
ATOM     11  C   UNL A   1      38.630  32.162  32.762  1.00  0.00     0.020 A 
ATOM     12  O   UNL A   1      40.391  31.687  31.176  1.00  0.00    -0.474 OA
ATOM     13  Cl  UNL A   1      37.923  30.636  36.388  1.00  0.00    -0.084 Cl
ATOM     14  C   UNL A   1      38.050  31.894  34.003  1.00  0.00     0.032 A 
ATOM     15  C   UNL A   1      38.014  33.097  31.825  1.00  0.00     0.025 C 
ATOM     16  C   UNL A   1      40.093  32.935  30.511  1.00  0.00     0.314 C 
BRANCH   7  17
ATOM     17  C   UNL A   1      41.590  29.863  32.869  1.00  0.00    -0.058 C 
ATOM     18  C   UNL A   1      42.581  29.258  32.549  1.00  0.00    -0.062 C 
BRANCH  18  19
ATOM     19  C   UNL A   1      43.735  28.526  32.130  1.00  0.00     0.025 A 
ATOM     20  C   UNL A   1      45.990  27.049  31.411  1.00  0.00     0.082 A 
ATOM     21  C   UNL A   1      46.116  28.414  31.692  1.00  0.00     0.023 A 
ATOM     22  C   UNL A   1      44.740  26.426  31.454  1.00  0.00     0.023 A 
ATOM     23  C   UNL A   1      44.984  29.151  32.056  1.00  0.00     0.018 A 
ATOM     24  C   UNL A   1      43.614  27.168  31.817  1.00  0.00     0.018 A 
BRANCH  20  25
ATOM     25  S   UNL A   1      47.423  26.110  30.971  1.00  0.00     0.238 S 
ATOM     26  O   UNL A   1      47.137  25.327  29.791  1.00  0.00    -0.207 OA
ATOM     27  O   UNL A   1      47.999  25.534  32.164  1.00  0.00    -0.207 OA
BRANCH  25  28
ATOM     28  N   UNL A   1      48.483  27.315  30.477  1.00  0.00    -0.225 NA
ATOM     29  H   UNL A   1      48.864  27.078  29.561  1.00  0.00     0.137 HD
ATOM     30  H   UNL A   1      49.244  27.396  31.151  1.00  0.00     0.137 HD
ENDBRANCH  25  28
ENDBRANCH  20  25
ENDBRANCH  18  19
ENDBRANCH   7  17
BRANCH  16  31
ATOM     31  C   UNL A   1      41.183  33.975  30.847  1.00  0.00     0.429 C 
ATOM     32  F   UNL A   1      41.530  34.670  29.734  1.00  0.00    -0.167 F 
ATOM     33  F   UNL A   1      40.767  34.892  31.753  1.00  0.00    -0.167 F 
ATOM     34  F   UNL A   1      42.304  33.414  31.347  1.00  0.00    -0.167 F 
ENDBRANCH  16  31
ENDBRANCH   3   6
ENDBRANCH   1   2
BRANCH   1  35
ATOM     35  C   UNL A   1      35.647  32.415  28.158  1.00  0.00     0.042 C 
BRANCH  35  36
ATOM     36  C   UNL A   1      35.631  30.938  28.504  1.00  0.00     0.118 C 
BRANCH  36  37
ATOM     37  N   UNL A   1      35.648  30.710  29.951  1.00  0.00    -0.352 N 
ATOM     38  C   UNL A   1      36.488  29.955  30.733  1.00  0.00     0.251 C 
ATOM     39  H   UNL A   1      34.937  31.176  30.446  1.00  0.00     0.163 HD
ATOM     40  O   UNL A   1      36.182  29.703  31.893  1.00  0.00    -0.269 OA
BRANCH  38  41
ATOM     41  C   UNL A   1      37.746  29.437  30.164  1.00  0.00     0.039 A 
ATOM     42  C   UNL A   1      38.433  28.423  30.823  1.00  0.00     0.014 A 
ATOM     43  C   UNL A   1      38.257  29.977  28.982  1.00  0.00     0.014 A 
ATOM     44  C   UNL A   1      39.734  28.135  30.458  1.00  0.00     0.010 A 
ATOM     45  C   UNL A   1      39.507  29.559  28.518  1.00  0.00     0.010 A 
ATOM     46  C   UNL A   1      40.284  28.679  29.287  1.00  0.00    -0.014 A 
BRANCH  46  47
ATOM     47  C   UNL A   1      41.664  28.281  28.911  1.00  0.00     0.031 A 
ATOM     48  C   UNL A   1      41.970  26.889  28.429  1.00  0.00     0.074 A 
ATOM     49  C   UNL A   1      42.626  29.225  28.912  1.00  0.00     0.049 A 
ATOM     50  N   UNL A   1      43.103  26.404  27.984  1.00  0.00    -0.248 NA
ATOM     51  C   UNL A   1      40.872  25.911  28.455  1.00  0.00     0.031 C 
ATOM     52  C   UNL A   1      42.448  30.615  29.350  1.00  0.00     0.029 A 
ATOM     53  N   UNL A   1      43.929  29.181  28.490  1.00  0.00    -0.354 N 
ATOM     54  C   UNL A   1      42.856  25.069  27.687  1.00  0.00     0.074 A 
ATOM     55  C   UNL A   1      41.481  24.805  28.052  1.00  0.00     0.031 C 
ATOM     56  C   UNL A   1      43.566  31.307  29.092  1.00  0.00     0.029 A 
ATOM     57  C   UNL A   1      44.569  30.394  28.563  1.00  0.00     0.049 A 
ATOM     58  H   UNL A   1      44.363  28.359  28.165  1.00  0.00     0.167 HD
ATOM     59  C   UNL A   1      43.692  24.151  27.144  1.00  0.00     0.037 A 
ATOM     60  C   UNL A   1      45.834  30.732  28.260  1.00  0.00     0.037 A 
ATOM     61  C   UNL A   1      45.064  24.416  26.791  1.00  0.00     0.049 A 
ATOM     62  C   UNL A   1      46.759  29.669  27.743  1.00  0.00     0.074 A 
ATOM     63  C   UNL A   1      45.996  23.555  26.240  1.00  0.00     0.029 A 
ATOM     64  N   UNL A   1      45.704  25.635  26.966  1.00  0.00    -0.354 N 
ATOM     65  N   UNL A   1      46.504  28.416  27.451  1.00  0.00    -0.248 NA
ATOM     66  C   UNL A   1      48.152  30.071  27.517  1.00  0.00     0.031 C 
ATOM     67  C   UNL A   1      47.216  24.233  26.138  1.00  0.00     0.029 A 
ATOM     68  C   UNL A   1      47.026  25.540  26.557  1.00  0.00     0.049 A 
ATOM     69  H   UNL A   1      45.282  26.448  27.326  1.00  0.00     0.167 HD
ATOM     70  C   UNL A   1      47.699  27.888  26.982  1.00  0.00     0.074 A 
ATOM     71  C   UNL A   1      48.664  28.968  26.995  1.00  0.00     0.031 C 
ATOM     72  C   UNL A   1      47.978  26.622  26.581  1.00  0.00     0.037 A 
BRANCH  59  73
ATOM     73  C   UNL A   1      43.148  22.766  26.923  1.00  0.00     0.057 A 
ATOM     74  C   UNL A   1      42.834  22.317  25.634  1.00  0.00     0.134 A 
ATOM     75  C   UNL A   1      42.920  21.878  27.984  1.00  0.00     0.134 A 
ATOM     76  F   UNL A   1      43.016  23.116  24.571  1.00  0.00    -0.206 F 
ATOM     77  C   UNL A   1      42.319  21.040  25.407  1.00  0.00     0.040 A 
ATOM     78  C   UNL A   1      42.437  20.587  27.767  1.00  0.00     0.040 A 
ATOM     79  F   UNL A   1      43.209  22.236  29.245  1.00  0.00    -0.206 F 
ATOM     80  C   UNL A   1      42.129  20.166  26.475  1.00  0.00     0.006 A 
ENDBRANCH  59  73
BRANCH  60  81
ATOM     81  C   UNL A   1      46.315  32.124  28.461  1.00  0.00     0.057 A 
ATOM     82  C   UNL A   1      46.245  33.075  27.436  1.00  0.00     0.134 A 
ATOM     83  C   UNL A   1      46.802  32.550  29.703  1.00  0.00     0.134 A 
ATOM     84  F   UNL A   1      45.799  32.731  26.219  1.00  0.00    -0.206 F 
ATOM     85  C   UNL A   1      46.635  34.399  27.639  1.00  0.00     0.040 A 
ATOM     86  C   UNL A   1      47.158  33.879  29.930  1.00  0.00     0.040 A 
ATOM     87  F   UNL A   1      46.882  31.689  30.729  1.00  0.00    -0.206 F 
ATOM     88  C   UNL A   1      47.075  34.809  28.895  1.00  0.00     0.006 A 
ENDBRANCH  60  81
BRANCH  72  89
ATOM     89  C   UNL A   1      49.372  26.366  26.083  1.00  0.00     0.057 A 
ATOM     90  C   UNL A   1      50.309  25.716  26.897  1.00  0.00     0.134 A 
ATOM     91  C   UNL A   1      49.784  26.730  24.794  1.00  0.00     0.134 A 
ATOM     92  F   UNL A   1      49.989  25.350  28.148  1.00  0.00    -0.206 F 
ATOM     93  C   UNL A   1      51.595  25.424  26.443  1.00  0.00     0.040 A 
ATOM     94  C   UNL A   1      51.053  26.407  24.313  1.00  0.00     0.040 A 
ATOM     95  F   UNL A   1      48.933  27.344  23.956  1.00  0.00    -0.206 F 
ATOM     96  C   UNL A   1      51.964  25.753  25.141  1.00  0.00     0.006 A 
ENDBRANCH  72  89
ENDBRANCH  46  47
ENDBRANCH  38  41
ENDBRANCH  36  37
ENDBRANCH  35  36
ENDBRANCH   1  35
TORSDOF 15
ENDMDL
MODEL 2
REMARK VINA RESULT:      -9.0      3.970      8.466
REMARK SMILES NS(=O)(=O)c1ccc(C#Cc2cc(Cl)cc3c2O[C@H](C(F)(F)F)C(C(=O)NCCCNC(=O)c2ccc(-c4c5nc(c(-c6c(F)cccc6F)c6ccc([nH]6)c(-c6c(F)cccc6F)c6nc(c(-c7c(F)cccc7F)c7ccc4[nH]7)C=C6)C=C5)cc2)=C3)cc1
REMARK SMILES IDX 28 1 27 2 25 3 26 4 24 6 11 7 12 8 17 9 13 10 16 11 18 12
REMARK SMILES IDX 14 13 15 14 88 15 19 16 10 17 9 18 8 19 5 20 6 21 90 22 7 23
REMARK SMILES IDX 89 24 2 25 3 26 4 27 1 28 20 31 21 32 22 33 23 34 29 35
REMARK SMILES IDX 30 36 31 37 32 38 33 40 34 41 35 42 87 43 36 44 86 45 37 46
REMARK SMILES IDX 38 47 39 48 80 49 40 50 85 51 79 52 81 53 41 54 84 55 78 56
REMARK SMILES IDX 77 57 42 59 68 60 51 61 67 62 52 63 55 64 66 65 82 66 53 67
REMARK SMILES IDX 54 68 65 70 83 71 56 72 43 73 44 74 49 75 45 76 46 77 48 78
REMARK SMILES IDX 50 79 47 80 69 81 70 82 75 83 71 84 72 85 74 86 76 87 73 88
REMARK SMILES IDX 57 89 58 90 63 91 59 92 60 93 62 94 64 95 61 96
REMARK H PARENT 27 5 1 29 1 30 31 39 81 58 55 69
REMARK Flexibility Score: inf
ROOT
ATOM      1  C   UNL A   1      40.298  25.769  28.439  1.00  0.00     0.118 C 
ENDROOT
BRANCH   1   2
ATOM      2  N   UNL A   1      40.551  26.753  27.398  1.00  0.00    -0.352 N 
ATOM      3  C   UNL A   1      40.619  28.103  27.309  1.00  0.00     0.251 C 
ATOM      4  O   UNL A   1      40.889  28.549  26.190  1.00  0.00    -0.270 OA
ATOM      5  H   UNL A   1      40.714  26.325  26.527  1.00  0.00     0.163 HD
BRANCH   3   6
ATOM      6  C   UNL A   1      40.389  29.038  28.447  1.00  0.00     0.067 C 
ATOM      7  C   UNL A   1      39.911  31.885  31.500  1.00  0.00     0.069 A 
ATOM      8  C   UNL A   1      40.913  32.043  32.458  1.00  0.00     0.041 A 
ATOM      9  C   UNL A   1      40.092  30.966  30.459  1.00  0.00     0.143 A 
ATOM     10  C   UNL A   1      42.084  31.291  32.361  1.00  0.00     0.043 A 
ATOM     11  C   UNL A   1      41.271  30.217  30.358  1.00  0.00     0.020 A 
ATOM     12  O   UNL A   1      39.097  30.869  29.527  1.00  0.00    -0.474 OA
ATOM     13  Cl  UNL A   1      43.321  31.494  33.541  1.00  0.00    -0.084 Cl
ATOM     14  C   UNL A   1      42.271  30.383  31.317  1.00  0.00     0.032 A 
ATOM     15  C   UNL A   1      41.449  29.308  29.229  1.00  0.00     0.025 C 
ATOM     16  C   UNL A   1      39.054  29.648  28.754  1.00  0.00     0.314 C 
BRANCH   7  17
ATOM     17  C   UNL A   1      38.702  32.648  31.601  1.00  0.00    -0.058 C 
ATOM     18  C   UNL A   1      37.673  33.271  31.659  1.00  0.00    -0.062 C 
BRANCH  18  19
ATOM     19  C   UNL A   1      36.428  33.970  31.734  1.00  0.00     0.025 A 
ATOM     20  C   UNL A   1      34.040  35.408  31.811  1.00  0.00     0.082 A 
ATOM     21  C   UNL A   1      34.910  35.451  32.905  1.00  0.00     0.023 A 
ATOM     22  C   UNL A   1      34.339  34.624  30.694  1.00  0.00     0.023 A 
ATOM     23  C   UNL A   1      36.109  34.732  32.862  1.00  0.00     0.018 A 
ATOM     24  C   UNL A   1      35.537  33.908  30.657  1.00  0.00     0.018 A 
BRANCH  20  25
ATOM     25  S   UNL A   1      32.532  36.334  31.854  1.00  0.00     0.238 S 
ATOM     26  O   UNL A   1      31.936  36.336  30.538  1.00  0.00    -0.207 OA
ATOM     27  O   UNL A   1      32.739  37.544  32.614  1.00  0.00    -0.207 OA
BRANCH  25  28
ATOM     28  N   UNL A   1      31.554  35.350  32.800  1.00  0.00    -0.225 NA
ATOM     29  H   UNL A   1      30.610  35.337  32.414  1.00  0.00     0.137 HD
ATOM     30  H   UNL A   1      31.526  35.714  33.753  1.00  0.00     0.137 HD
ENDBRANCH  25  28
ENDBRANCH  20  25
ENDBRANCH  18  19
ENDBRANCH   7  17
BRANCH  16  31
ATOM     31  C   UNL A   1      38.089  28.645  29.420  1.00  0.00     0.429 C 
ATOM     32  F   UNL A   1      38.726  27.958  30.402  1.00  0.00    -0.167 F 
ATOM     33  F   UNL A   1      37.029  29.252  30.007  1.00  0.00    -0.167 F 
ATOM     34  F   UNL A   1      37.587  27.745  28.549  1.00  0.00    -0.167 F 
ENDBRANCH  16  31
ENDBRANCH   3   6
ENDBRANCH   1   2
BRANCH   1  35
ATOM     35  C   UNL A   1      39.793  24.457  27.869  1.00  0.00     0.042 C 
BRANCH  35  36
ATOM     36  C   UNL A   1      40.117  24.334  26.391  1.00  0.00     0.118 C 
BRANCH  36  37
ATOM     37  N   UNL A   1      41.021  23.216  26.117  1.00  0.00    -0.352 N 
ATOM     38  C   UNL A   1      42.369  23.194  25.848  1.00  0.00     0.251 C 
ATOM     39  H   UNL A   1      40.592  22.330  26.125  1.00  0.00     0.163 HD
ATOM     40  O   UNL A   1      42.888  22.175  25.405  1.00  0.00    -0.269 OA
BRANCH  38  41
ATOM     41  C   UNL A   1      43.179  24.405  26.077  1.00  0.00     0.039 A 
ATOM     42  C   UNL A   1      43.500  25.231  25.005  1.00  0.00     0.014 A 
ATOM     43  C   UNL A   1      43.640  24.708  27.360  1.00  0.00     0.014 A 
ATOM     44  C   UNL A   1      44.480  26.193  25.159  1.00  0.00     0.010 A 
ATOM     45  C   UNL A   1      44.503  25.792  27.542  1.00  0.00     0.010 A 
ATOM     46  C   UNL A   1      44.980  26.506  26.432  1.00  0.00    -0.014 A 
BRANCH  46  47
ATOM     47  C   UNL A   1      45.983  27.594  26.543  1.00  0.00     0.031 A 
ATOM     48  C   UNL A   1      47.453  27.319  26.383  1.00  0.00     0.074 A 
ATOM     49  C   UNL A   1      45.543  28.860  26.691  1.00  0.00     0.049 A 
ATOM     50  N   UNL A   1      48.452  28.167  26.369  1.00  0.00    -0.248 NA
ATOM     51  C   UNL A   1      47.862  25.914  26.225  1.00  0.00     0.031 C 
ATOM     52  C   UNL A   1      44.138  29.254  26.849  1.00  0.00     0.029 A 
ATOM     53  N   UNL A   1      46.217  30.052  26.684  1.00  0.00    -0.354 N 
ATOM     54  C   UNL A   1      49.600  27.401  26.210  1.00  0.00     0.074 A 
ATOM     55  C   UNL A   1      49.182  26.017  26.187  1.00  0.00     0.031 C 
ATOM     56  C   UNL A   1      44.049  30.591  26.835  1.00  0.00     0.029 A 
ATOM     57  C   UNL A   1      45.393  31.148  26.766  1.00  0.00     0.049 A 
ATOM     58  H   UNL A   1      47.198  30.118  26.626  1.00  0.00     0.167 HD
ATOM     59  C   UNL A   1      50.885  27.814  26.079  1.00  0.00     0.037 A 
ATOM     60  C   UNL A   1      45.685  32.459  26.804  1.00  0.00     0.037 A 
ATOM     61  C   UNL A   1      51.299  29.194  26.113  1.00  0.00     0.049 A 
ATOM     62  C   UNL A   1      47.126  32.876  26.745  1.00  0.00     0.074 A 
ATOM     63  C   UNL A   1      52.574  29.718  25.994  1.00  0.00     0.029 A 
ATOM     64  N   UNL A   1      50.442  30.272  26.289  1.00  0.00    -0.354 N 
ATOM     65  N   UNL A   1      48.198  32.140  26.577  1.00  0.00    -0.248 NA
ATOM     66  C   UNL A   1      47.394  34.312  26.885  1.00  0.00     0.031 C 
ATOM     67  C   UNL A   1      52.497  31.105  26.159  1.00  0.00     0.029 A 
ATOM     68  C   UNL A   1      51.165  31.455  26.308  1.00  0.00     0.049 A 
ATOM     69  H   UNL A   1      49.464  30.206  26.385  1.00  0.00     0.167 HD
ATOM     70  C   UNL A   1      49.266  33.027  26.565  1.00  0.00     0.074 A 
ATOM     71  C   UNL A   1      48.704  34.356  26.705  1.00  0.00     0.031 C 
ATOM     72  C   UNL A   1      50.593  32.770  26.454  1.00  0.00     0.037 A 
BRANCH  59  73
ATOM     73  C   UNL A   1      51.938  26.752  25.912  1.00  0.00     0.057 A 
ATOM     74  C   UNL A   1      52.255  26.252  24.642  1.00  0.00     0.134 A 
ATOM     75  C   UNL A   1      52.631  26.213  27.005  1.00  0.00     0.134 A 
ATOM     76  F   UNL A   1      51.625  26.714  23.551  1.00  0.00    -0.206 F 
ATOM     77  C   UNL A   1      53.221  25.260  24.465  1.00  0.00     0.040 A 
ATOM     78  C   UNL A   1      53.623  25.245  26.838  1.00  0.00     0.040 A 
ATOM     79  F   UNL A   1      52.388  26.653  28.249  1.00  0.00    -0.206 F 
ATOM     80  C   UNL A   1      53.917  24.762  25.564  1.00  0.00     0.006 A 
ENDBRANCH  59  73
BRANCH  60  81
ATOM     81  C   UNL A   1      44.606  33.472  26.933  1.00  0.00     0.057 A 
ATOM     82  C   UNL A   1      44.189  33.938  28.186  1.00  0.00     0.134 A 
ATOM     83  C   UNL A   1      44.006  34.042  25.803  1.00  0.00     0.134 A 
ATOM     84  F   UNL A   1      44.714  33.427  29.310  1.00  0.00    -0.206 F 
ATOM     85  C   UNL A   1      43.222  34.935  28.312  1.00  0.00     0.040 A 
ATOM     86  C   UNL A   1      43.067  35.066  25.913  1.00  0.00     0.040 A 
ATOM     87  F   UNL A   1      44.371  33.647  24.574  1.00  0.00    -0.206 F 
ATOM     88  C   UNL A   1      42.672  35.516  27.172  1.00  0.00     0.006 A 
ENDBRANCH  60  81
BRANCH  72  89
ATOM     89  C   UNL A   1      51.510  33.960  26.433  1.00  0.00     0.057 A 
ATOM     90  C   UNL A   1      52.067  34.448  27.623  1.00  0.00     0.134 A 
ATOM     91  C   UNL A   1      51.869  34.606  25.243  1.00  0.00     0.134 A 
ATOM     92  F   UNL A   1      51.758  33.887  28.802  1.00  0.00    -0.206 F 
ATOM     93  C   UNL A   1      52.958  35.521  27.627  1.00  0.00     0.040 A 
ATOM     94  C   UNL A   1      52.791  35.654  25.229  1.00  0.00     0.040 A 
ATOM     95  F   UNL A   1      51.383  34.182  24.065  1.00  0.00    -0.206 F 
ATOM     96  C   UNL A   1      53.336  36.115  26.425  1.00  0.00     0.006 A 
ENDBRANCH  72  89
ENDBRANCH  46  47
ENDBRANCH  38  41
ENDBRANCH  36  37
ENDBRANCH  35  36
ENDBRANCH   1  35
TORSDOF 15
ENDMDL
MODEL 3
REMARK VINA RESULT:      -9.0      5.516     10.619
REMARK SMILES NS(=O)(=O)c1ccc(C#Cc2cc(Cl)cc3c2O[C@H](C(F)(F)F)C(C(=O)NCCCNC(=O)c2ccc(-c4c5nc(c(-c6c(F)cccc6F)c6ccc([nH]6)c(-c6c(F)cccc6F)c6nc(c(-c7c(F)cccc7F)c7ccc4[nH]7)C=C6)C=C5)cc2)=C3)cc1
REMARK SMILES IDX 28 1 27 2 25 3 26 4 24 6 11 7 12 8 17 9 13 10 16 11 18 12
REMARK SMILES IDX 14 13 15 14 88 15 19 16 10 17 9 18 8 19 5 20 6 21 90 22 7 23
REMARK SMILES IDX 89 24 2 25 3 26 4 27 1 28 20 31 21 32 22 33 23 34 29 35
REMARK SMILES IDX 30 36 31 37 32 38 33 40 34 41 35 42 87 43 36 44 86 45 37 46
REMARK SMILES IDX 38 47 39 48 80 49 40 50 85 51 79 52 81 53 41 54 84 55 78 56
REMARK SMILES IDX 77 57 42 59 68 60 51 61 67 62 52 63 55 64 66 65 82 66 53 67
REMARK SMILES IDX 54 68 65 70 83 71 56 72 43 73 44 74 49 75 45 76 46 77 48 78
REMARK SMILES IDX 50 79 47 80 69 81 70 82 75 83 71 84 72 85 74 86 76 87 73 88
REMARK SMILES IDX 57 89 58 90 63 91 59 92 60 93 62 94 64 95 61 96
REMARK H PARENT 27 5 1 29 1 30 31 39 81 58 55 69
REMARK Flexibility Score: inf
ROOT
ATOM      1  C   UNL A   1      32.048  28.151  27.241  1.00  0.00     0.118 C 
ENDROOT
BRANCH   1   2
ATOM      2  N   UNL A   1      30.935  27.217  27.183  1.00  0.00    -0.352 N 
ATOM      3  C   UNL A   1      30.683  26.013  26.616  1.00  0.00     0.251 C 
ATOM      4  O   UNL A   1      29.565  25.541  26.842  1.00  0.00    -0.270 OA
ATOM      5  H   UNL A   1      30.157  27.547  27.689  1.00  0.00     0.163 HD
BRANCH   3   6
ATOM      6  C   UNL A   1      31.647  25.262  25.762  1.00  0.00     0.067 C 
ATOM      7  C   UNL A   1      34.504  23.422  23.291  1.00  0.00     0.069 A 
ATOM      8  C   UNL A   1      34.318  23.414  21.908  1.00  0.00     0.041 A 
ATOM      9  C   UNL A   1      33.573  24.073  24.109  1.00  0.00     0.143 A 
ATOM     10  C   UNL A   1      33.213  24.064  21.358  1.00  0.00     0.043 A 
ATOM     11  C   UNL A   1      32.467  24.731  23.556  1.00  0.00     0.020 A 
ATOM     12  O   UNL A   1      33.814  24.080  25.454  1.00  0.00    -0.474 OA
ATOM     13  Cl  UNL A   1      32.990  24.059  19.652  1.00  0.00    -0.084 Cl
ATOM     14  C   UNL A   1      32.289  24.724  22.171  1.00  0.00     0.032 A 
ATOM     15  C   UNL A   1      31.546  25.447  24.433  1.00  0.00     0.025 C 
ATOM     16  C   UNL A   1      32.676  24.321  26.312  1.00  0.00     0.314 C 
BRANCH   7  17
ATOM     17  C   UNL A   1      35.633  22.747  23.861  1.00  0.00    -0.058 C 
ATOM     18  C   UNL A   1      36.600  22.211  24.339  1.00  0.00    -0.062 C 
BRANCH  18  19
ATOM     19  C   UNL A   1      37.745  21.604  24.943  1.00  0.00     0.025 A 
ATOM     20  C   UNL A   1      40.042  20.471  26.047  1.00  0.00     0.082 A 
ATOM     21  C   UNL A   1      39.174  19.678  25.289  1.00  0.00     0.023 A 
ATOM     22  C   UNL A   1      39.752  21.817  26.286  1.00  0.00     0.023 A 
ATOM     23  C   UNL A   1      38.025  20.250  24.733  1.00  0.00     0.018 A 
ATOM     24  C   UNL A   1      38.603  22.381  25.729  1.00  0.00     0.018 A 
BRANCH  20  25
ATOM     25  S   UNL A   1      41.507  19.754  26.733  1.00  0.00     0.238 S 
ATOM     26  O   UNL A   1      42.524  20.774  26.856  1.00  0.00    -0.207 OA
ATOM     27  O   UNL A   1      41.757  18.482  26.098  1.00  0.00    -0.207 OA
BRANCH  25  28
ATOM     28  N   UNL A   1      41.016  19.405  28.300  1.00  0.00    -0.225 NA
ATOM     29  H   UNL A   1      41.735  18.851  28.766  1.00  0.00     0.137 HD
ATOM     30  H   UNL A   1      40.144  18.876  28.272  1.00  0.00     0.137 HD
ENDBRANCH  25  28
ENDBRANCH  20  25
ENDBRANCH  18  19
ENDBRANCH   7  17
BRANCH  16  31
ATOM     31  C   UNL A   1      32.064  22.975  26.754  1.00  0.00     0.429 C 
ATOM     32  F   UNL A   1      32.924  21.958  26.492  1.00  0.00    -0.167 F 
ATOM     33  F   UNL A   1      31.813  22.928  28.085  1.00  0.00    -0.167 F 
ATOM     34  F   UNL A   1      30.901  22.699  26.128  1.00  0.00    -0.167 F 
ENDBRANCH  16  31
ENDBRANCH   3   6
ENDBRANCH   1   2
BRANCH   1  35
ATOM     35  C   UNL A   1      31.579  29.593  27.224  1.00  0.00     0.042 C 
BRANCH  35  36
ATOM     36  C   UNL A   1      32.491  30.463  26.378  1.00  0.00     0.118 C 
BRANCH  36  37
ATOM     37  N   UNL A   1      32.360  31.883  26.707  1.00  0.00    -0.352 N 
ATOM     38  C   UNL A   1      33.125  32.694  27.510  1.00  0.00     0.251 C 
ATOM     39  H   UNL A   1      31.594  32.333  26.283  1.00  0.00     0.163 HD
ATOM     40  O   UNL A   1      32.703  33.796  27.847  1.00  0.00    -0.269 OA
BRANCH  38  41
ATOM     41  C   UNL A   1      34.443  32.226  27.978  1.00  0.00     0.039 A 
ATOM     42  C   UNL A   1      34.604  30.901  28.369  1.00  0.00     0.014 A 
ATOM     43  C   UNL A   1      35.519  33.115  28.047  1.00  0.00     0.014 A 
ATOM     44  C   UNL A   1      35.738  30.532  29.066  1.00  0.00     0.010 A 
ATOM     45  C   UNL A   1      36.729  32.687  28.601  1.00  0.00     0.010 A 
ATOM     46  C   UNL A   1      36.828  31.410  29.173  1.00  0.00    -0.014 A 
BRANCH  46  47
ATOM     47  C   UNL A   1      38.045  30.933  29.877  1.00  0.00     0.031 A 
ATOM     48  C   UNL A   1      38.302  31.286  31.317  1.00  0.00     0.074 A 
ATOM     49  C   UNL A   1      38.872  30.088  29.229  1.00  0.00     0.049 A 
ATOM     50  N   UNL A   1      39.271  30.886  32.102  1.00  0.00    -0.248 NA
ATOM     51  C   UNL A   1      37.358  32.213  31.961  1.00  0.00     0.031 C 
ATOM     52  C   UNL A   1      38.723  29.665  27.831  1.00  0.00     0.029 A 
ATOM     53  N   UNL A   1      39.970  29.396  29.664  1.00  0.00    -0.354 N 
ATOM     54  C   UNL A   1      39.059  31.515  33.322  1.00  0.00     0.074 A 
ATOM     55  C   UNL A   1      37.901  32.366  33.160  1.00  0.00     0.031 C 
ATOM     56  C   UNL A   1      39.635  28.724  27.554  1.00  0.00     0.029 A 
ATOM     57  C   UNL A   1      40.493  28.548  28.718  1.00  0.00     0.049 A 
ATOM     58  H   UNL A   1      40.349  29.495  30.568  1.00  0.00     0.167 HD
ATOM     59  C   UNL A   1      39.755  31.383  34.478  1.00  0.00     0.037 A 
ATOM     60  C   UNL A   1      41.561  27.734  28.771  1.00  0.00     0.037 A 
ATOM     61  C   UNL A   1      40.915  30.541  34.632  1.00  0.00     0.049 A 
ATOM     62  C   UNL A   1      42.361  27.679  30.039  1.00  0.00     0.074 A 
ATOM     63  C   UNL A   1      41.694  30.340  35.757  1.00  0.00     0.029 A 
ATOM     64  N   UNL A   1      41.469  29.766  33.622  1.00  0.00    -0.354 N 
ATOM     65  N   UNL A   1      42.137  28.267  31.190  1.00  0.00    -0.248 NA
ATOM     66  C   UNL A   1      43.569  26.847  30.011  1.00  0.00     0.031 C 
ATOM     67  C   UNL A   1      42.754  29.493  35.414  1.00  0.00     0.029 A 
ATOM     68  C   UNL A   1      42.595  29.107  34.093  1.00  0.00     0.049 A 
ATOM     69  H   UNL A   1      41.114  29.694  32.707  1.00  0.00     0.167 HD
ATOM     70  C   UNL A   1      43.161  27.853  32.030  1.00  0.00     0.074 A 
ATOM     71  C   UNL A   1      43.983  26.937  31.265  1.00  0.00     0.031 C 
ATOM     72  C   UNL A   1      43.406  28.202  33.318  1.00  0.00     0.037 A 
BRANCH  59  73
ATOM     73  C   UNL A   1      39.292  32.190  35.660  1.00  0.00     0.057 A 
ATOM     74  C   UNL A   1      38.385  31.652  36.583  1.00  0.00     0.134 A 
ATOM     75  C   UNL A   1      39.728  33.504  35.881  1.00  0.00     0.134 A 
ATOM     76  F   UNL A   1      37.916  30.404  36.429  1.00  0.00    -0.206 F 
ATOM     77  C   UNL A   1      37.934  32.386  37.681  1.00  0.00     0.040 A 
ATOM     78  C   UNL A   1      39.311  34.236  36.993  1.00  0.00     0.040 A 
ATOM     79  F   UNL A   1      40.606  34.079  35.044  1.00  0.00    -0.206 F 
ATOM     80  C   UNL A   1      38.406  33.679  37.894  1.00  0.00     0.006 A 
ENDBRANCH  59  73
BRANCH  60  81
ATOM     81  C   UNL A   1      41.958  26.928  27.587  1.00  0.00     0.057 A 
ATOM     82  C   UNL A   1      41.512  25.611  27.418  1.00  0.00     0.134 A 
ATOM     83  C   UNL A   1      42.746  27.476  26.568  1.00  0.00     0.134 A 
ATOM     84  F   UNL A   1      40.763  25.021  28.362  1.00  0.00    -0.206 F 
ATOM     85  C   UNL A   1      41.829  24.872  26.279  1.00  0.00     0.040 A 
ATOM     86  C   UNL A   1      43.037  26.762  25.406  1.00  0.00     0.040 A 
ATOM     87  F   UNL A   1      43.194  28.737  26.664  1.00  0.00    -0.206 F 
ATOM     88  C   UNL A   1      42.578  25.454  25.259  1.00  0.00     0.006 A 
ENDBRANCH  60  81
BRANCH  72  89
ATOM     89  C   UNL A   1      44.586  27.547  33.979  1.00  0.00     0.057 A 
ATOM     90  C   UNL A   1      44.447  26.304  34.610  1.00  0.00     0.134 A 
ATOM     91  C   UNL A   1      45.863  28.125  33.970  1.00  0.00     0.134 A 
ATOM     92  F   UNL A   1      43.251  25.698  34.668  1.00  0.00    -0.206 F 
ATOM     93  C   UNL A   1      45.536  25.653  35.190  1.00  0.00     0.040 A 
ATOM     94  C   UNL A   1      46.968  27.465  34.511  1.00  0.00     0.040 A 
ATOM     95  F   UNL A   1      46.070  29.309  33.373  1.00  0.00    -0.206 F 
ATOM     96  C   UNL A   1      46.804  26.225  35.125  1.00  0.00     0.006 A 
ENDBRANCH  72  89
ENDBRANCH  46  47
ENDBRANCH  38  41
ENDBRANCH  36  37
ENDBRANCH  35  36
ENDBRANCH   1  35
TORSDOF 15
ENDMDL
