MODEL 1
REMARK VINA RESULT:     -11.4      0.000      0.000
REMARK SMILES CCNC(=O)N1CC[C@H](Cc2cccc(C(=O)NCCCNC(=O)c3ccc(-c4c5nc(c(-c6c(F)cccc6F)c6ccc([nH]6)c(-c6c(F)cccc6F)c6nc(c(-c7c(F)cccc7F)c7ccc4[nH]7)C=C6)C=C5)cc3)c2)C1
REMARK SMILES IDX 19 1 18 2 16 3 17 4 15 6 11 7 12 8 79 9 13 10 14 11 10 12
REMARK SMILES IDX 9 13 6 14 7 15 80 16 8 17 4 18 3 19 5 21 2 22 1 23 20 24
REMARK SMILES IDX 21 25 22 26 23 27 24 29 25 30 26 31 78 32 27 33 77 34 28 35
REMARK SMILES IDX 29 36 30 37 71 38 31 39 76 40 70 41 72 42 32 43 75 44 69 45
REMARK SMILES IDX 68 46 33 48 59 49 42 50 58 51 43 52 46 53 57 54 73 55 44 56
REMARK SMILES IDX 45 57 56 59 74 60 47 61 34 62 35 63 40 64 36 65 37 66 39 67
REMARK SMILES IDX 41 68 38 69 60 70 61 71 66 72 62 73 63 74 65 75 67 76 64 77
REMARK SMILES IDX 48 78 49 79 54 80 50 81 51 82 53 83 55 84 52 85
REMARK H PARENT 18 5 3 20 22 28 72 47 46 58
REMARK Flexibility Score: inf
ROOT
ATOM      1  C   UNL A   1      31.709  30.480  26.863  1.00  0.00     0.118 C 
ENDROOT
BRANCH   1   2
ATOM      2  N   UNL A   1      33.083  30.197  27.232  1.00  0.00    -0.352 N 
ATOM      3  C   UNL A   1      34.009  29.265  26.840  1.00  0.00     0.251 C 
ATOM      4  O   UNL A   1      35.125  29.362  27.355  1.00  0.00    -0.269 OA
ATOM      5  H   UNL A   1      33.428  30.813  27.919  1.00  0.00     0.163 HD
BRANCH   3   6
ATOM      6  C   UNL A   1      33.775  28.189  25.828  1.00  0.00     0.040 A 
ATOM      7  C   UNL A   1      33.134  25.937  25.115  1.00  0.00    -0.047 A 
ATOM      8  C   UNL A   1      33.260  26.322  23.777  1.00  0.00     0.004 A 
ATOM      9  C   UNL A   1      33.467  26.860  26.121  1.00  0.00     0.017 A 
ATOM     10  C   UNL A   1      33.652  27.620  23.458  1.00  0.00     0.001 A 
ATOM     11  C   UNL A   1      33.882  28.550  24.475  1.00  0.00     0.014 A 
BRANCH   7  12
ATOM     12  C   UNL A   1      32.669  24.543  25.478  1.00  0.00     0.041 C 
BRANCH  12  13
ATOM     13  C   UNL A   1      33.654  23.768  26.371  1.00  0.00     0.015 C 
ATOM     14  N   UNL A   1      34.596  21.626  26.039  1.00  0.00    -0.325 N 
ATOM     15  C   UNL A   1      34.029  21.624  27.372  1.00  0.00     0.121 C 
ATOM     16  C   UNL A   1      34.684  22.982  25.543  1.00  0.00     0.125 C 
ATOM     17  C   UNL A   1      32.970  22.701  27.255  1.00  0.00     0.027 C 
BRANCH  14  18
ATOM     18  C   UNL A   1      35.176  20.595  25.373  1.00  0.00     0.317 C 
ATOM     19  N   UNL A   1      34.406  19.540  25.007  1.00  0.00    -0.338 N 
ATOM     20  H   UNL A   1      34.847  18.660  24.996  1.00  0.00     0.165 HD
ATOM     21  O   UNL A   1      36.358  20.608  25.035  1.00  0.00    -0.249 OA
BRANCH  19  22
ATOM     22  C   UNL A   1      33.002  19.562  24.627  1.00  0.00     0.114 C 
ATOM     23  C   UNL A   1      32.574  18.227  24.040  1.00  0.00     0.027 C 
ENDBRANCH  19  22
ENDBRANCH  14  18
ENDBRANCH  12  13
ENDBRANCH   7  12
ENDBRANCH   3   6
ENDBRANCH   1   2
BRANCH   1  24
ATOM     24  C   UNL A   1      31.427  31.983  26.870  1.00  0.00     0.042 C 
BRANCH  24  25
ATOM     25  C   UNL A   1      32.705  32.823  26.877  1.00  0.00     0.118 C 
BRANCH  25  26
ATOM     26  N   UNL A   1      32.508  34.099  27.558  1.00  0.00    -0.352 N 
ATOM     27  C   UNL A   1      33.054  34.590  28.716  1.00  0.00     0.251 C 
ATOM     28  H   UNL A   1      31.879  34.710  27.111  1.00  0.00     0.163 HD
ATOM     29  O   UNL A   1      32.549  35.572  29.252  1.00  0.00    -0.269 OA
BRANCH  27  30
ATOM     30  C   UNL A   1      34.245  33.956  29.317  1.00  0.00     0.039 A 
ATOM     31  C   UNL A   1      35.515  34.424  28.963  1.00  0.00     0.014 A 
ATOM     32  C   UNL A   1      34.118  32.862  30.176  1.00  0.00     0.014 A 
ATOM     33  C   UNL A   1      36.652  33.829  29.513  1.00  0.00     0.010 A 
ATOM     34  C   UNL A   1      35.245  32.325  30.786  1.00  0.00     0.010 A 
ATOM     35  C   UNL A   1      36.525  32.794  30.451  1.00  0.00    -0.014 A 
BRANCH  35  36
ATOM     36  C   UNL A   1      37.709  32.163  31.083  1.00  0.00     0.031 A 
ATOM     37  C   UNL A   1      38.439  31.057  30.371  1.00  0.00     0.074 A 
ATOM     38  C   UNL A   1      38.075  32.527  32.328  1.00  0.00     0.049 A 
ATOM     39  N   UNL A   1      39.412  30.295  30.800  1.00  0.00    -0.248 NA
ATOM     40  C   UNL A   1      37.990  30.744  29.004  1.00  0.00     0.031 C 
ATOM     41  C   UNL A   1      37.420  33.557  33.136  1.00  0.00     0.029 A 
ATOM     42  N   UNL A   1      39.079  32.058  33.137  1.00  0.00    -0.354 N 
ATOM     43  C   UNL A   1      39.673  29.400  29.769  1.00  0.00     0.074 A 
ATOM     44  C   UNL A   1      38.721  29.677  28.717  1.00  0.00     0.031 C 
ATOM     45  C   UNL A   1      38.051  33.656  34.318  1.00  0.00     0.029 A 
ATOM     46  C   UNL A   1      39.124  32.669  34.367  1.00  0.00     0.049 A 
ATOM     47  H   UNL A   1      39.706  31.352  32.862  1.00  0.00     0.167 HD
ATOM     48  C   UNL A   1      40.635  28.451  29.697  1.00  0.00     0.037 A 
ATOM     49  C   UNL A   1      39.934  32.447  35.420  1.00  0.00     0.037 A 
ATOM     50  C   UNL A   1      41.600  28.203  30.735  1.00  0.00     0.049 A 
ATOM     51  C   UNL A   1      40.993  31.386  35.314  1.00  0.00     0.074 A 
ATOM     52  C   UNL A   1      42.651  27.303  30.740  1.00  0.00     0.029 A 
ATOM     53  N   UNL A   1      41.632  28.864  31.955  1.00  0.00    -0.354 N 
ATOM     54  N   UNL A   1      41.265  30.585  34.313  1.00  0.00    -0.248 NA
ATOM     55  C   UNL A   1      41.862  31.200  36.485  1.00  0.00     0.031 C 
ATOM     56  C   UNL A   1      43.295  27.391  31.978  1.00  0.00     0.029 A 
ATOM     57  C   UNL A   1      42.676  28.380  32.726  1.00  0.00     0.049 A 
ATOM     58  H   UNL A   1      41.006  29.571  32.231  1.00  0.00     0.167 HD
ATOM     59  C   UNL A   1      42.356  29.824  34.718  1.00  0.00     0.074 A 
ATOM     60  C   UNL A   1      42.701  30.269  36.053  1.00  0.00     0.031 C 
ATOM     61  C   UNL A   1      43.012  28.848  34.046  1.00  0.00     0.037 A 
BRANCH  48  62
ATOM     62  C   UNL A   1      40.694  27.615  28.450  1.00  0.00     0.057 A 
ATOM     63  C   UNL A   1      41.462  27.994  27.342  1.00  0.00     0.134 A 
ATOM     64  C   UNL A   1      39.997  26.402  28.367  1.00  0.00     0.134 A 
ATOM     65  F   UNL A   1      42.145  29.150  27.350  1.00  0.00    -0.206 F 
ATOM     66  C   UNL A   1      41.513  27.214  26.186  1.00  0.00     0.040 A 
ATOM     67  C   UNL A   1      40.064  25.599  27.227  1.00  0.00     0.040 A 
ATOM     68  F   UNL A   1      39.247  25.975  29.393  1.00  0.00    -0.206 F 
ATOM     69  C   UNL A   1      40.818  26.008  26.128  1.00  0.00     0.006 A 
ENDBRANCH  48  62
BRANCH  49  70
ATOM     70  C   UNL A   1      39.792  33.260  36.653  1.00  0.00     0.057 A 
ATOM     71  C   UNL A   1      40.553  34.420  36.842  1.00  0.00     0.134 A 
ATOM     72  C   UNL A   1      38.907  32.898  37.675  1.00  0.00     0.134 A 
ATOM     73  F   UNL A   1      41.431  34.810  35.906  1.00  0.00    -0.206 F 
ATOM     74  C   UNL A   1      40.457  35.177  38.011  1.00  0.00     0.040 A 
ATOM     75  C   UNL A   1      38.782  33.659  38.839  1.00  0.00     0.040 A 
ATOM     76  F   UNL A   1      38.142  31.803  37.552  1.00  0.00    -0.206 F 
ATOM     77  C   UNL A   1      39.565  34.799  39.011  1.00  0.00     0.006 A 
ENDBRANCH  49  70
BRANCH  61  78
ATOM     78  C   UNL A   1      44.198  28.228  34.724  1.00  0.00     0.057 A 
ATOM     79  C   UNL A   1      44.086  27.069  35.503  1.00  0.00     0.134 A 
ATOM     80  C   UNL A   1      45.477  28.775  34.557  1.00  0.00     0.134 A 
ATOM     81  F   UNL A   1      42.887  26.504  35.711  1.00  0.00    -0.206 F 
ATOM     82  C   UNL A   1      45.201  26.490  36.109  1.00  0.00     0.040 A 
ATOM     83  C   UNL A   1      46.603  28.190  35.136  1.00  0.00     0.040 A 
ATOM     84  F   UNL A   1      45.654  29.879  33.815  1.00  0.00    -0.206 F 
ATOM     85  C   UNL A   1      46.465  27.047  35.920  1.00  0.00     0.006 A 
ENDBRANCH  61  78
ENDBRANCH  35  36
ENDBRANCH  27  30
ENDBRANCH  25  26
ENDBRANCH  24  25
ENDBRANCH   1  24
TORSDOF 14
ENDMDL
MODEL 2
REMARK VINA RESULT:     -11.4      4.424      9.824
REMARK SMILES CCNC(=O)N1CC[C@H](Cc2cccc(C(=O)NCCCNC(=O)c3ccc(-c4c5nc(c(-c6c(F)cccc6F)c6ccc([nH]6)c(-c6c(F)cccc6F)c6nc(c(-c7c(F)cccc7F)c7ccc4[nH]7)C=C6)C=C5)cc3)c2)C1
REMARK SMILES IDX 19 1 18 2 16 3 17 4 15 6 11 7 12 8 79 9 13 10 14 11 10 12
REMARK SMILES IDX 9 13 6 14 7 15 80 16 8 17 4 18 3 19 5 21 2 22 1 23 20 24
REMARK SMILES IDX 21 25 22 26 23 27 24 29 25 30 26 31 78 32 27 33 77 34 28 35
REMARK SMILES IDX 29 36 30 37 71 38 31 39 76 40 70 41 72 42 32 43 75 44 69 45
REMARK SMILES IDX 68 46 33 48 59 49 42 50 58 51 43 52 46 53 57 54 73 55 44 56
REMARK SMILES IDX 45 57 56 59 74 60 47 61 34 62 35 63 40 64 36 65 37 66 39 67
REMARK SMILES IDX 41 68 38 69 60 70 61 71 66 72 62 73 63 74 65 75 67 76 64 77
REMARK SMILES IDX 48 78 49 79 54 80 50 81 51 82 53 83 55 84 52 85
REMARK H PARENT 18 5 3 20 22 28 72 47 46 58
REMARK Flexibility Score: inf
ROOT
ATOM      1  C   UNL A   1      37.418  21.015  24.505  1.00  0.00     0.118 C 
ENDROOT
BRANCH   1   2
ATOM      2  N   UNL A   1      37.906  22.162  25.248  1.00  0.00    -0.352 N 
ATOM      3  C   UNL A   1      37.309  23.245  25.840  1.00  0.00     0.251 C 
ATOM      4  O   UNL A   1      38.062  24.016  26.439  1.00  0.00    -0.269 OA
ATOM      5  H   UNL A   1      38.886  22.163  25.348  1.00  0.00     0.163 HD
BRANCH   3   6
ATOM      6  C   UNL A   1      35.840  23.527  25.841  1.00  0.00     0.040 A 
ATOM      7  C   UNL A   1      33.794  24.553  24.976  1.00  0.00    -0.047 A 
ATOM      8  C   UNL A   1      33.039  23.846  25.916  1.00  0.00     0.004 A 
ATOM      9  C   UNL A   1      35.195  24.438  25.005  1.00  0.00     0.017 A 
ATOM     10  C   UNL A   1      33.670  22.996  26.821  1.00  0.00     0.001 A 
ATOM     11  C   UNL A   1      35.055  22.820  26.766  1.00  0.00     0.014 A 
BRANCH   7  12
ATOM     12  C   UNL A   1      33.120  25.449  23.959  1.00  0.00     0.041 C 
BRANCH  12  13
ATOM     13  C   UNL A   1      33.705  26.871  23.892  1.00  0.00     0.015 C 
ATOM     14  N   UNL A   1      32.636  28.940  24.297  1.00  0.00    -0.325 N 
ATOM     15  C   UNL A   1      33.287  29.058  23.008  1.00  0.00     0.121 C 
ATOM     16  C   UNL A   1      33.136  27.778  24.997  1.00  0.00     0.125 C 
ATOM     17  C   UNL A   1      33.373  27.608  22.576  1.00  0.00     0.027 C 
BRANCH  14  18
ATOM     18  C   UNL A   1      31.835  29.844  24.918  1.00  0.00     0.317 C 
ATOM     19  N   UNL A   1      30.674  30.206  24.317  1.00  0.00    -0.338 N 
ATOM     20  H   UNL A   1      30.373  31.131  24.469  1.00  0.00     0.165 HD
ATOM     21  O   UNL A   1      32.090  30.299  26.031  1.00  0.00    -0.249 OA
BRANCH  19  22
ATOM     22  C   UNL A   1      29.822  29.382  23.475  1.00  0.00     0.114 C 
ATOM     23  C   UNL A   1      29.904  29.819  22.021  1.00  0.00     0.027 C 
ENDBRANCH  19  22
ENDBRANCH  14  18
ENDBRANCH  12  13
ENDBRANCH   7  12
ENDBRANCH   3   6
ENDBRANCH   1   2
BRANCH   1  24
ATOM     24  C   UNL A   1      38.198  19.747  24.860  1.00  0.00     0.042 C 
BRANCH  24  25
ATOM     25  C   UNL A   1      39.134  19.945  26.054  1.00  0.00     0.118 C 
BRANCH  25  26
ATOM     26  N   UNL A   1      40.377  19.197  25.895  1.00  0.00    -0.352 N 
ATOM     27  C   UNL A   1      41.683  19.614  25.923  1.00  0.00     0.251 C 
ATOM     28  H   UNL A   1      40.258  18.232  25.742  1.00  0.00     0.163 HD
ATOM     29  O   UNL A   1      42.562  18.870  25.498  1.00  0.00    -0.269 OA
BRANCH  27  30
ATOM     30  C   UNL A   1      42.041  20.939  26.466  1.00  0.00     0.039 A 
ATOM     31  C   UNL A   1      42.128  21.105  27.852  1.00  0.00     0.014 A 
ATOM     32  C   UNL A   1      42.227  22.034  25.619  1.00  0.00     0.014 A 
ATOM     33  C   UNL A   1      42.454  22.355  28.383  1.00  0.00     0.010 A 
ATOM     34  C   UNL A   1      42.632  23.256  26.143  1.00  0.00     0.010 A 
ATOM     35  C   UNL A   1      42.738  23.432  27.531  1.00  0.00    -0.014 A 
BRANCH  35  36
ATOM     36  C   UNL A   1      43.123  24.764  28.059  1.00  0.00     0.031 A 
ATOM     37  C   UNL A   1      42.064  25.796  28.336  1.00  0.00     0.074 A 
ATOM     38  C   UNL A   1      44.426  25.071  28.208  1.00  0.00     0.049 A 
ATOM     39  N   UNL A   1      42.199  27.052  28.677  1.00  0.00    -0.248 NA
ATOM     40  C   UNL A   1      40.665  25.366  28.173  1.00  0.00     0.031 C 
ATOM     41  C   UNL A   1      45.546  24.170  27.932  1.00  0.00     0.029 A 
ATOM     42  N   UNL A   1      45.029  26.235  28.614  1.00  0.00    -0.354 N 
ATOM     43  C   UNL A   1      40.909  27.565  28.745  1.00  0.00     0.074 A 
ATOM     44  C   UNL A   1      40.009  26.502  28.356  1.00  0.00     0.031 C 
ATOM     45  C   UNL A   1      46.699  24.807  28.195  1.00  0.00     0.029 A 
ATOM     46  C   UNL A   1      46.402  26.172  28.615  1.00  0.00     0.049 A 
ATOM     47  H   UNL A   1      44.526  27.038  28.878  1.00  0.00     0.167 HD
ATOM     48  C   UNL A   1      40.510  28.802  29.122  1.00  0.00     0.037 A 
ATOM     49  C   UNL A   1      47.316  27.115  28.910  1.00  0.00     0.037 A 
ATOM     50  C   UNL A   1      41.410  29.845  29.539  1.00  0.00     0.049 A 
ATOM     51  C   UNL A   1      46.847  28.482  29.324  1.00  0.00     0.074 A 
ATOM     52  C   UNL A   1      41.106  31.116  29.994  1.00  0.00     0.029 A 
ATOM     53  N   UNL A   1      42.793  29.733  29.556  1.00  0.00    -0.354 N 
ATOM     54  N   UNL A   1      45.623  28.937  29.439  1.00  0.00    -0.248 NA
ATOM     55  C   UNL A   1      47.887  29.466  29.655  1.00  0.00     0.031 C 
ATOM     56  C   UNL A   1      42.307  31.787  30.248  1.00  0.00     0.029 A 
ATOM     57  C   UNL A   1      43.357  30.917  29.999  1.00  0.00     0.049 A 
ATOM     58  H   UNL A   1      43.297  28.930  29.293  1.00  0.00     0.167 HD
ATOM     59  C   UNL A   1      45.743  30.247  29.886  1.00  0.00     0.074 A 
ATOM     60  C   UNL A   1      47.161  30.509  30.032  1.00  0.00     0.031 C 
ATOM     61  C   UNL A   1      44.770  31.151  30.152  1.00  0.00     0.037 A 
BRANCH  48  62
ATOM     62  C   UNL A   1      39.036  29.091  29.106  1.00  0.00     0.057 A 
ATOM     63  C   UNL A   1      38.250  28.986  30.260  1.00  0.00     0.134 A 
ATOM     64  C   UNL A   1      38.401  29.509  27.929  1.00  0.00     0.134 A 
ATOM     65  F   UNL A   1      38.793  28.579  31.419  1.00  0.00    -0.206 F 
ATOM     66  C   UNL A   1      36.881  29.256  30.240  1.00  0.00     0.040 A 
ATOM     67  C   UNL A   1      37.038  29.810  27.903  1.00  0.00     0.040 A 
ATOM     68  F   UNL A   1      39.094  29.638  26.789  1.00  0.00    -0.206 F 
ATOM     69  C   UNL A   1      36.272  29.676  29.060  1.00  0.00     0.006 A 
ENDBRANCH  48  62
BRANCH  49  70
ATOM     70  C   UNL A   1      48.764  26.794  28.850  1.00  0.00     0.057 A 
ATOM     71  C   UNL A   1      49.507  27.037  27.689  1.00  0.00     0.134 A 
ATOM     72  C   UNL A   1      49.438  26.230  29.940  1.00  0.00     0.134 A 
ATOM     73  F   UNL A   1      48.914  27.561  26.606  1.00  0.00    -0.206 F 
ATOM     74  C   UNL A   1      50.862  26.710  27.605  1.00  0.00     0.040 A 
ATOM     75  C   UNL A   1      50.798  25.921  29.878  1.00  0.00     0.040 A 
ATOM     76  F   UNL A   1      48.785  25.981  31.085  1.00  0.00    -0.206 F 
ATOM     77  C   UNL A   1      51.511  26.154  28.704  1.00  0.00     0.006 A 
ENDBRANCH  49  70
BRANCH  61  78
ATOM     78  C   UNL A   1      45.201  32.490  30.674  1.00  0.00     0.057 A 
ATOM     79  C   UNL A   1      45.379  32.730  32.043  1.00  0.00     0.134 A 
ATOM     80  C   UNL A   1      45.485  33.538  29.790  1.00  0.00     0.134 A 
ATOM     81  F   UNL A   1      45.112  31.771  32.942  1.00  0.00    -0.206 F 
ATOM     82  C   UNL A   1      45.802  33.974  32.513  1.00  0.00     0.040 A 
ATOM     83  C   UNL A   1      45.935  34.777  30.246  1.00  0.00     0.040 A 
ATOM     84  F   UNL A   1      45.344  33.370  28.466  1.00  0.00    -0.206 F 
ATOM     85  C   UNL A   1      46.089  34.999  31.613  1.00  0.00     0.006 A 
ENDBRANCH  61  78
ENDBRANCH  35  36
ENDBRANCH  27  30
ENDBRANCH  25  26
ENDBRANCH  24  25
ENDBRANCH   1  24
TORSDOF 14
ENDMDL
MODEL 3
REMARK VINA RESULT:     -11.4      4.277      9.542
REMARK SMILES CCNC(=O)N1CC[C@H](Cc2cccc(C(=O)NCCCNC(=O)c3ccc(-c4c5nc(c(-c6c(F)cccc6F)c6ccc([nH]6)c(-c6c(F)cccc6F)c6nc(c(-c7c(F)cccc7F)c7ccc4[nH]7)C=C6)C=C5)cc3)c2)C1
REMARK SMILES IDX 19 1 18 2 16 3 17 4 15 6 11 7 12 8 79 9 13 10 14 11 10 12
REMARK SMILES IDX 9 13 6 14 7 15 80 16 8 17 4 18 3 19 5 21 2 22 1 23 20 24
REMARK SMILES IDX 21 25 22 26 23 27 24 29 25 30 26 31 78 32 27 33 77 34 28 35
REMARK SMILES IDX 29 36 30 37 71 38 31 39 76 40 70 41 72 42 32 43 75 44 69 45
REMARK SMILES IDX 68 46 33 48 59 49 42 50 58 51 43 52 46 53 57 54 73 55 44 56
REMARK SMILES IDX 45 57 56 59 74 60 47 61 34 62 35 63 40 64 36 65 37 66 39 67
REMARK SMILES IDX 41 68 38 69 60 70 61 71 66 72 62 73 63 74 65 75 67 76 64 77
REMARK SMILES IDX 48 78 49 79 54 80 50 81 51 82 53 83 55 84 52 85
REMARK H PARENT 18 5 3 20 22 28 72 47 46 58
REMARK Flexibility Score: inf
ROOT
ATOM      1  C   UNL A   1      35.850  20.514  24.978  1.00  0.00     0.118 C 
ENDROOT
BRANCH   1   2
ATOM      2  N   UNL A   1      34.725  19.652  25.286  1.00  0.00    -0.352 N 
ATOM      3  C   UNL A   1      33.363  19.803  25.246  1.00  0.00     0.251 C 
ATOM      4  O   UNL A   1      32.700  18.808  25.546  1.00  0.00    -0.269 OA
ATOM      5  H   UNL A   1      35.001  18.759  25.595  1.00  0.00     0.163 HD
BRANCH   3   6
ATOM      6  C   UNL A   1      32.645  21.049  24.836  1.00  0.00     0.040 A 
ATOM      7  C   UNL A   1      31.561  23.205  25.249  1.00  0.00    -0.047 A 
ATOM      8  C   UNL A   1      31.415  23.398  23.872  1.00  0.00     0.004 A 
ATOM      9  C   UNL A   1      32.108  21.994  25.710  1.00  0.00     0.017 A 
ATOM     10  C   UNL A   1      31.863  22.427  22.979  1.00  0.00     0.001 A 
ATOM     11  C   UNL A   1      32.494  21.276  23.458  1.00  0.00     0.014 A 
BRANCH   7  12
ATOM     12  C   UNL A   1      31.117  24.268  26.230  1.00  0.00     0.041 C 
BRANCH  12  13
ATOM     13  C   UNL A   1      32.012  25.519  26.244  1.00  0.00     0.015 C 
ATOM     14  N   UNL A   1      32.249  27.199  24.597  1.00  0.00    -0.325 N 
ATOM     15  C   UNL A   1      33.586  26.745  24.917  1.00  0.00     0.121 C 
ATOM     16  C   UNL A   1      31.317  26.731  25.600  1.00  0.00     0.125 C 
ATOM     17  C   UNL A   1      33.318  25.347  25.436  1.00  0.00     0.027 C 
BRANCH  14  18
ATOM     18  C   UNL A   1      31.871  28.099  23.654  1.00  0.00     0.317 C 
ATOM     19  N   UNL A   1      31.872  27.716  22.352  1.00  0.00    -0.338 N 
ATOM     20  H   UNL A   1      32.086  28.415  21.691  1.00  0.00     0.165 HD
ATOM     21  O   UNL A   1      31.469  29.225  23.937  1.00  0.00    -0.249 OA
BRANCH  19  22
ATOM     22  C   UNL A   1      31.592  26.392  21.821  1.00  0.00     0.114 C 
ATOM     23  C   UNL A   1      32.864  25.722  21.326  1.00  0.00     0.027 C 
ENDBRANCH  19  22
ENDBRANCH  14  18
ENDBRANCH  12  13
ENDBRANCH   7  12
ENDBRANCH   3   6
ENDBRANCH   1   2
BRANCH   1  24
ATOM     24  C   UNL A   1      37.135  19.706  24.784  1.00  0.00     0.042 C 
BRANCH  24  25
ATOM     25  C   UNL A   1      38.344  20.348  25.466  1.00  0.00     0.118 C 
BRANCH  25  26
ATOM     26  N   UNL A   1      39.429  19.390  25.656  1.00  0.00    -0.352 N 
ATOM     27  C   UNL A   1      40.744  19.581  25.995  1.00  0.00     0.251 C 
ATOM     28  H   UNL A   1      39.174  18.449  25.518  1.00  0.00     0.163 HD
ATOM     29  O   UNL A   1      41.546  18.666  25.836  1.00  0.00    -0.269 OA
BRANCH  27  30
ATOM     30  C   UNL A   1      41.199  20.869  26.556  1.00  0.00     0.039 A 
ATOM     31  C   UNL A   1      41.727  21.836  25.695  1.00  0.00     0.014 A 
ATOM     32  C   UNL A   1      41.169  21.101  27.933  1.00  0.00     0.014 A 
ATOM     33  C   UNL A   1      42.173  23.055  26.210  1.00  0.00     0.010 A 
ATOM     34  C   UNL A   1      41.535  22.344  28.435  1.00  0.00     0.010 A 
ATOM     35  C   UNL A   1      42.053  23.329  27.581  1.00  0.00    -0.014 A 
BRANCH  35  36
ATOM     36  C   UNL A   1      42.482  24.627  28.158  1.00  0.00     0.031 A 
ATOM     37  C   UNL A   1      41.471  25.719  28.382  1.00  0.00     0.074 A 
ATOM     38  C   UNL A   1      43.788  24.851  28.400  1.00  0.00     0.049 A 
ATOM     39  N   UNL A   1      41.658  26.958  28.754  1.00  0.00    -0.248 NA
ATOM     40  C   UNL A   1      40.063  25.378  28.118  1.00  0.00     0.031 C 
ATOM     41  C   UNL A   1      44.867  23.886  28.183  1.00  0.00     0.029 A 
ATOM     42  N   UNL A   1      44.432  25.969  28.865  1.00  0.00    -0.354 N 
ATOM     43  C   UNL A   1      40.400  27.550  28.745  1.00  0.00     0.074 A 
ATOM     44  C   UNL A   1      39.466  26.550  28.277  1.00  0.00     0.031 C 
ATOM     45  C   UNL A   1      46.036  24.447  28.534  1.00  0.00     0.029 A 
ATOM     46  C   UNL A   1      45.795  25.822  28.958  1.00  0.00     0.049 A 
ATOM     47  H   UNL A   1      43.961  26.798  29.110  1.00  0.00     0.167 HD
ATOM     48  C   UNL A   1      40.053  28.804  29.116  1.00  0.00     0.037 A 
ATOM     49  C   UNL A   1      46.742  26.702  29.331  1.00  0.00     0.037 A 
ATOM     50  C   UNL A   1      40.983  29.783  29.612  1.00  0.00     0.049 A 
ATOM     51  C   UNL A   1      46.330  28.090  29.737  1.00  0.00     0.074 A 
ATOM     52  C   UNL A   1      40.728  31.064  30.068  1.00  0.00     0.029 A 
ATOM     53  N   UNL A   1      42.353  29.585  29.719  1.00  0.00    -0.354 N 
ATOM     54  N   UNL A   1      45.131  28.618  29.777  1.00  0.00    -0.248 NA
ATOM     55  C   UNL A   1      47.403  29.003  30.155  1.00  0.00     0.031 C 
ATOM     56  C   UNL A   1      41.947  31.655  30.414  1.00  0.00     0.029 A 
ATOM     57  C   UNL A   1      42.957  30.726  30.220  1.00  0.00     0.049 A 
ATOM     58  H   UNL A   1      42.824  28.756  29.476  1.00  0.00     0.167 HD
ATOM     59  C   UNL A   1      45.300  29.912  30.255  1.00  0.00     0.074 A 
ATOM     60  C   UNL A   1      46.717  30.083  30.501  1.00  0.00     0.031 C 
ATOM     61  C   UNL A   1      44.367  30.870  30.472  1.00  0.00     0.037 A 
BRANCH  48  62
ATOM     62  C   UNL A   1      38.604  29.184  29.007  1.00  0.00     0.057 A 
ATOM     63  C   UNL A   1      37.738  29.123  30.107  1.00  0.00     0.134 A 
ATOM     64  C   UNL A   1      38.073  29.644  27.795  1.00  0.00     0.134 A 
ATOM     65  F   UNL A   1      38.178  28.680  31.295  1.00  0.00    -0.206 F 
ATOM     66  C   UNL A   1      36.393  29.477  30.000  1.00  0.00     0.040 A 
ATOM     67  C   UNL A   1      36.736  30.029  27.682  1.00  0.00     0.040 A 
ATOM     68  F   UNL A   1      38.846  29.734  26.702  1.00  0.00    -0.206 F 
ATOM     69  C   UNL A   1      35.889  29.939  28.786  1.00  0.00     0.006 A 
ENDBRANCH  48  62
BRANCH  49  70
ATOM     70  C   UNL A   1      48.168  26.293  29.362  1.00  0.00     0.057 A 
ATOM     71  C   UNL A   1      48.731  25.731  30.513  1.00  0.00     0.134 A 
ATOM     72  C   UNL A   1      49.006  26.463  28.252  1.00  0.00     0.134 A 
ATOM     73  F   UNL A   1      47.984  25.559  31.614  1.00  0.00    -0.206 F 
ATOM     74  C   UNL A   1      50.080  25.373  30.570  1.00  0.00     0.040 A 
ATOM     75  C   UNL A   1      50.350  26.085  28.286  1.00  0.00     0.040 A 
ATOM     76  F   UNL A   1      48.526  26.987  27.115  1.00  0.00    -0.206 F 
ATOM     77  C   UNL A   1      50.891  25.546  29.452  1.00  0.00     0.006 A 
ENDBRANCH  49  70
BRANCH  61  78
ATOM     78  C   UNL A   1      44.843  32.172  31.046  1.00  0.00     0.057 A 
ATOM     79  C   UNL A   1      45.211  33.252  30.232  1.00  0.00     0.134 A 
ATOM     80  C   UNL A   1      44.890  32.361  32.433  1.00  0.00     0.134 A 
ATOM     81  F   UNL A   1      45.200  33.130  28.896  1.00  0.00    -0.206 F 
ATOM     82  C   UNL A   1      45.631  34.464  30.780  1.00  0.00     0.040 A 
ATOM     83  C   UNL A   1      45.282  33.578  32.991  1.00  0.00     0.040 A 
ATOM     84  F   UNL A   1      44.541  31.370  33.268  1.00  0.00    -0.206 F 
ATOM     85  C   UNL A   1      45.660  34.632  32.163  1.00  0.00     0.006 A 
ENDBRANCH  61  78
ENDBRANCH  35  36
ENDBRANCH  27  30
ENDBRANCH  25  26
ENDBRANCH  24  25
ENDBRANCH   1  24
TORSDOF 14
ENDMDL
