MODEL 1
REMARK VINA RESULT:     -13.1      0.000      0.000
REMARK SMILES Cc1cc(C(=O)N[C@H](C(=O)NCCCNC(=O)c2ccc(-c3c4nc(c(-c5c(F)cccc5F)c5ccc([nH]5)c(-c5c(F)cccc5F)c5nc(c(-c6c(F)cccc6F)c6ccc3[nH]6)C=C5)C=C4)cc2)c2c(C)n[nH]c2C)c2ccc(C)c(C)c2n1
REMARK SMILES IDX 13 1 12 2 11 3 9 4 10 5 8 7 7 8 5 9 6 10 4 12 1 13 2 14 3 15
REMARK SMILES IDX 87 16 86 17 79 18 84 19 80 20 82 21 85 22 81 23 83 24 72 25
REMARK SMILES IDX 73 26 77 27 74 28 75 29 76 30 78 31 14 33 15 34 16 35 17 37
REMARK SMILES IDX 18 38 19 39 71 40 20 41 70 42 21 43 22 44 23 45 64 46 24 47
REMARK SMILES IDX 69 48 63 49 65 50 25 51 68 52 62 53 61 54 26 56 52 57 35 58
REMARK SMILES IDX 51 59 36 60 39 61 50 62 66 63 37 64 38 65 49 67 67 68 40 69
REMARK SMILES IDX 27 70 28 71 33 72 29 73 30 74 32 75 34 76 31 77 53 78 54 79
REMARK SMILES IDX 59 80 55 81 56 82 58 83 60 84 57 85 41 86 42 87 47 88 43 89
REMARK SMILES IDX 44 90 46 91 48 92 45 93
REMARK H PARENT 11 6 7 11 76 32 15 36 65 55 39 66
REMARK Flexibility Score: inf
ROOT
ATOM      1  C   UNL A   1      34.431  28.795  25.886  1.00  0.00     0.042 C 
ENDROOT
BRANCH   1   2
ATOM      2  C   UNL A   1      33.594  28.049  24.861  1.00  0.00     0.117 C 
BRANCH   2   3
ATOM      3  N   UNL A   1      32.308  27.636  25.389  1.00  0.00    -0.354 N 
ATOM      4  C   UNL A   1      31.658  26.448  25.322  1.00  0.00     0.247 C 
ATOM      5  O   UNL A   1      30.572  26.408  25.921  1.00  0.00    -0.272 OA
ATOM      6  H   UNL A   1      31.824  28.338  25.881  1.00  0.00     0.163 HD
BRANCH   4   7
ATOM      7  C   UNL A   1      32.093  25.234  24.471  1.00  0.00     0.206 C 
BRANCH   7   8
ATOM      8  N   UNL A   1      31.287  24.092  24.920  1.00  0.00    -0.336 N 
ATOM      9  C   UNL A   1      31.575  22.933  25.594  1.00  0.00     0.252 C 
ATOM     10  O   UNL A   1      30.637  22.331  26.115  1.00  0.00    -0.269 OA
ATOM     11  H   UNL A   1      30.335  24.176  24.685  1.00  0.00     0.165 HD
BRANCH   9  12
ATOM     12  C   UNL A   1      32.947  22.363  25.652  1.00  0.00     0.051 A 
ATOM     13  C   UNL A   1      36.435  23.607  26.253  1.00  0.00     0.067 C 
ATOM     14  C   UNL A   1      35.273  22.693  26.010  1.00  0.00     0.039 A 
ATOM     15  C   UNL A   1      33.980  23.140  26.168  1.00  0.00     0.038 A 
ATOM     16  N   UNL A   1      35.555  21.465  25.535  1.00  0.00    -0.253 NA
ATOM     17  C   UNL A   1      34.561  20.639  25.155  1.00  0.00     0.074 A 
ATOM     18  C   UNL A   1      33.215  21.056  25.156  1.00  0.00     0.013 A 
ATOM     19  C   UNL A   1      34.892  19.339  24.727  1.00  0.00    -0.022 A 
ATOM     20  C   UNL A   1      32.241  20.158  24.651  1.00  0.00     0.011 A 
ATOM     21  C   UNL A   1      33.906  18.456  24.236  1.00  0.00    -0.046 A 
ATOM     22  C   UNL A   1      36.348  18.932  24.795  1.00  0.00     0.047 C 
ATOM     23  C   UNL A   1      32.581  18.884  24.200  1.00  0.00     0.004 A 
ATOM     24  C   UNL A   1      34.233  17.063  23.773  1.00  0.00     0.044 C 
ENDBRANCH   9  12
ENDBRANCH   7   8
BRANCH   7  25
ATOM     25  C   UNL A   1      32.169  25.422  22.989  1.00  0.00     0.027 A 
ATOM     26  C   UNL A   1      33.001  24.646  22.117  1.00  0.00     0.065 A 
ATOM     27  C   UNL A   1      31.526  26.305  22.132  1.00  0.00     0.038 A 
ATOM     28  C   UNL A   1      33.992  23.596  22.478  1.00  0.00     0.069 C 
ATOM     29  N   UNL A   1      32.838  24.986  20.838  1.00  0.00    -0.180 NA
ATOM     30  N   UNL A   1      31.917  25.955  20.868  1.00  0.00    -0.282 N 
ATOM     31  C   UNL A   1      30.596  27.439  22.346  1.00  0.00     0.066 C 
ATOM     32  H   UNL A   1      31.552  26.377  20.056  1.00  0.00     0.190 HD
ENDBRANCH   7  25
ENDBRANCH   4   7
ENDBRANCH   2   3
ENDBRANCH   1   2
BRANCH   1  33
ATOM     33  C   UNL A   1      33.781  28.819  27.265  1.00  0.00     0.118 C 
BRANCH  33  34
ATOM     34  N   UNL A   1      33.767  30.136  27.884  1.00  0.00    -0.352 N 
ATOM     35  C   UNL A   1      34.746  30.824  28.565  1.00  0.00     0.251 C 
ATOM     36  H   UNL A   1      32.912  30.617  27.801  1.00  0.00     0.163 HD
ATOM     37  O   UNL A   1      34.483  31.890  29.101  1.00  0.00    -0.269 OA
BRANCH  35  38
ATOM     38  C   UNL A   1      36.102  30.246  28.698  1.00  0.00     0.039 A 
ATOM     39  C   UNL A   1      37.015  30.414  27.652  1.00  0.00     0.014 A 
ATOM     40  C   UNL A   1      36.477  29.541  29.838  1.00  0.00     0.014 A 
ATOM     41  C   UNL A   1      38.326  29.950  27.793  1.00  0.00     0.010 A 
ATOM     42  C   UNL A   1      37.807  29.190  30.029  1.00  0.00     0.010 A 
ATOM     43  C   UNL A   1      38.742  29.373  29.003  1.00  0.00    -0.014 A 
BRANCH  43  44
ATOM     44  C   UNL A   1      40.130  28.892  29.210  1.00  0.00     0.031 A 
ATOM     45  C   UNL A   1      41.150  29.819  29.816  1.00  0.00     0.074 A 
ATOM     46  C   UNL A   1      40.496  27.671  28.772  1.00  0.00     0.049 A 
ATOM     47  N   UNL A   1      42.440  29.660  29.950  1.00  0.00    -0.248 NA
ATOM     48  C   UNL A   1      40.654  31.122  30.293  1.00  0.00     0.031 C 
ATOM     49  C   UNL A   1      39.617  26.700  28.119  1.00  0.00     0.029 A 
ATOM     50  N   UNL A   1      41.719  27.048  28.795  1.00  0.00    -0.354 N 
ATOM     51  C   UNL A   1      42.911  30.849  30.492  1.00  0.00     0.074 A 
ATOM     52  C   UNL A   1      41.780  31.743  30.603  1.00  0.00     0.031 C 
ATOM     53  C   UNL A   1      40.323  25.596  27.822  1.00  0.00     0.029 A 
ATOM     54  C   UNL A   1      41.709  25.796  28.231  1.00  0.00     0.049 A 
ATOM     55  H   UNL A   1      42.525  27.460  29.180  1.00  0.00     0.167 HD
ATOM     56  C   UNL A   1      44.165  31.160  30.895  1.00  0.00     0.037 A 
ATOM     57  C   UNL A   1      42.712  24.915  28.058  1.00  0.00     0.037 A 
ATOM     58  C   UNL A   1      45.276  30.251  30.836  1.00  0.00     0.049 A 
ATOM     59  C   UNL A   1      44.093  25.276  28.533  1.00  0.00     0.074 A 
ATOM     60  C   UNL A   1      46.570  30.437  31.287  1.00  0.00     0.029 A 
ATOM     61  N   UNL A   1      45.216  28.974  30.299  1.00  0.00    -0.354 N 
ATOM     62  N   UNL A   1      44.510  26.379  29.104  1.00  0.00    -0.248 NA
ATOM     63  C   UNL A   1      45.142  24.265  28.340  1.00  0.00     0.031 C 
ATOM     64  C   UNL A   1      47.303  29.280  30.997  1.00  0.00     0.029 A 
ATOM     65  C   UNL A   1      46.454  28.364  30.395  1.00  0.00     0.049 A 
ATOM     66  H   UNL A   1      44.413  28.563  29.906  1.00  0.00     0.167 HD
ATOM     67  C   UNL A   1      45.860  26.184  29.367  1.00  0.00     0.074 A 
ATOM     68  C   UNL A   1      46.188  24.852  28.904  1.00  0.00     0.031 C 
ATOM     69  C   UNL A   1      46.750  27.031  29.938  1.00  0.00     0.037 A 
BRANCH  56  70
ATOM     70  C   UNL A   1      44.385  32.538  31.449  1.00  0.00     0.057 A 
ATOM     71  C   UNL A   1      44.780  33.591  30.615  1.00  0.00     0.134 A 
ATOM     72  C   UNL A   1      44.206  32.823  32.809  1.00  0.00     0.134 A 
ATOM     73  F   UNL A   1      44.972  33.387  29.302  1.00  0.00    -0.206 F 
ATOM     74  C   UNL A   1      44.978  34.880  31.112  1.00  0.00     0.040 A 
ATOM     75  C   UNL A   1      44.374  34.114  33.313  1.00  0.00     0.040 A 
ATOM     76  F   UNL A   1      43.812  31.862  33.658  1.00  0.00    -0.206 F 
ATOM     77  C   UNL A   1      44.766  35.145  32.464  1.00  0.00     0.006 A 
ENDBRANCH  56  70
BRANCH  57  78
ATOM     78  C   UNL A   1      42.455  23.593  27.432  1.00  0.00     0.057 A 
ATOM     79  C   UNL A   1      42.537  23.407  26.048  1.00  0.00     0.134 A 
ATOM     80  C   UNL A   1      42.155  22.473  28.217  1.00  0.00     0.134 A 
ATOM     81  F   UNL A   1      42.812  24.442  25.240  1.00  0.00    -0.206 F 
ATOM     82  C   UNL A   1      42.339  22.153  25.466  1.00  0.00     0.040 A 
ATOM     83  C   UNL A   1      41.977  21.210  27.652  1.00  0.00     0.040 A 
ATOM     84  F   UNL A   1      42.080  22.586  29.551  1.00  0.00    -0.206 F 
ATOM     85  C   UNL A   1      42.067  21.048  26.271  1.00  0.00     0.006 A 
ENDBRANCH  57  78
BRANCH  69  86
ATOM     86  C   UNL A   1      48.148  26.523  30.126  1.00  0.00     0.057 A 
ATOM     87  C   UNL A   1      49.109  26.695  29.122  1.00  0.00     0.134 A 
ATOM     88  C   UNL A   1      48.534  25.838  31.284  1.00  0.00     0.134 A 
ATOM     89  F   UNL A   1      48.798  27.337  27.985  1.00  0.00    -0.206 F 
ATOM     90  C   UNL A   1      50.405  26.201  29.262  1.00  0.00     0.040 A 
ATOM     91  C   UNL A   1      49.835  25.361  31.447  1.00  0.00     0.040 A 
ATOM     92  F   UNL A   1      47.663  25.655  32.288  1.00  0.00    -0.206 F 
ATOM     93  C   UNL A   1      50.773  25.538  30.431  1.00  0.00     0.006 A 
ENDBRANCH  69  86
ENDBRANCH  43  44
ENDBRANCH  35  38
ENDBRANCH  33  34
ENDBRANCH   1  33
TORSDOF 13
ENDMDL
MODEL 2
REMARK VINA RESULT:     -12.9      4.298      9.085
REMARK SMILES Cc1cc(C(=O)N[C@H](C(=O)NCCCNC(=O)c2ccc(-c3c4nc(c(-c5c(F)cccc5F)c5ccc([nH]5)c(-c5c(F)cccc5F)c5nc(c(-c6c(F)cccc6F)c6ccc3[nH]6)C=C5)C=C4)cc2)c2c(C)n[nH]c2C)c2ccc(C)c(C)c2n1
REMARK SMILES IDX 13 1 12 2 11 3 9 4 10 5 8 7 7 8 5 9 6 10 4 12 1 13 2 14 3 15
REMARK SMILES IDX 87 16 86 17 79 18 84 19 80 20 82 21 85 22 81 23 83 24 72 25
REMARK SMILES IDX 73 26 77 27 74 28 75 29 76 30 78 31 14 33 15 34 16 35 17 37
REMARK SMILES IDX 18 38 19 39 71 40 20 41 70 42 21 43 22 44 23 45 64 46 24 47
REMARK SMILES IDX 69 48 63 49 65 50 25 51 68 52 62 53 61 54 26 56 52 57 35 58
REMARK SMILES IDX 51 59 36 60 39 61 50 62 66 63 37 64 38 65 49 67 67 68 40 69
REMARK SMILES IDX 27 70 28 71 33 72 29 73 30 74 32 75 34 76 31 77 53 78 54 79
REMARK SMILES IDX 59 80 55 81 56 82 58 83 60 84 57 85 41 86 42 87 47 88 43 89
REMARK SMILES IDX 44 90 46 91 48 92 45 93
REMARK H PARENT 11 6 7 11 76 32 15 36 65 55 39 66
REMARK Flexibility Score: inf
ROOT
ATOM      1  C   UNL A   1      37.411  22.999  25.613  1.00  0.00     0.042 C 
ENDROOT
BRANCH   1   2
ATOM      2  C   UNL A   1      36.448  23.607  24.606  1.00  0.00     0.117 C 
BRANCH   2   3
ATOM      3  N   UNL A   1      35.361  22.708  24.265  1.00  0.00    -0.354 N 
ATOM      4  C   UNL A   1      34.043  22.945  24.053  1.00  0.00     0.247 C 
ATOM      5  O   UNL A   1      33.374  21.950  23.735  1.00  0.00    -0.272 OA
ATOM      6  H   UNL A   1      35.625  21.765  24.172  1.00  0.00     0.163 HD
BRANCH   4   7
ATOM      7  C   UNL A   1      33.321  24.288  24.304  1.00  0.00     0.206 C 
BRANCH   7   8
ATOM      8  N   UNL A   1      33.230  24.969  23.007  1.00  0.00    -0.336 N 
ATOM      9  C   UNL A   1      33.341  26.277  22.612  1.00  0.00     0.252 C 
ATOM     10  O   UNL A   1      33.548  26.494  21.419  1.00  0.00    -0.269 OA
ATOM     11  H   UNL A   1      33.051  24.353  22.261  1.00  0.00     0.165 HD
BRANCH   9  12
ATOM     12  C   UNL A   1      33.154  27.414  23.552  1.00  0.00     0.051 A 
ATOM     13  C   UNL A   1      34.672  28.627  26.761  1.00  0.00     0.067 C 
ATOM     14  C   UNL A   1      33.828  28.554  25.525  1.00  0.00     0.039 A 
ATOM     15  C   UNL A   1      34.118  27.650  24.527  1.00  0.00     0.038 A 
ATOM     16  N   UNL A   1      32.730  29.332  25.491  1.00  0.00    -0.253 NA
ATOM     17  C   UNL A   1      31.846  29.217  24.482  1.00  0.00     0.074 A 
ATOM     18  C   UNL A   1      31.989  28.230  23.486  1.00  0.00     0.013 A 
ATOM     19  C   UNL A   1      30.746  30.094  24.447  1.00  0.00    -0.022 A 
ATOM     20  C   UNL A   1      30.964  28.115  22.513  1.00  0.00     0.011 A 
ATOM     21  C   UNL A   1      29.740  29.969  23.464  1.00  0.00    -0.046 A 
ATOM     22  C   UNL A   1      30.672  31.164  25.515  1.00  0.00     0.047 C 
ATOM     23  C   UNL A   1      29.862  28.967  22.504  1.00  0.00     0.004 A 
ATOM     24  C   UNL A   1      28.554  30.892  23.404  1.00  0.00     0.044 C 
ENDBRANCH   9  12
ENDBRANCH   7   8
BRANCH   7  25
ATOM     25  C   UNL A   1      32.055  24.252  25.100  1.00  0.00     0.027 A 
ATOM     26  C   UNL A   1      31.969  23.821  26.464  1.00  0.00     0.065 A 
ATOM     27  C   UNL A   1      30.747  24.590  24.778  1.00  0.00     0.038 A 
ATOM     28  C   UNL A   1      33.044  23.255  27.324  1.00  0.00     0.069 C 
ATOM     29  N   UNL A   1      30.732  23.939  26.949  1.00  0.00    -0.180 NA
ATOM     30  N   UNL A   1      30.024  24.442  25.931  1.00  0.00    -0.282 N 
ATOM     31  C   UNL A   1      30.086  25.029  23.526  1.00  0.00     0.066 C 
ATOM     32  H   UNL A   1      29.073  24.685  26.004  1.00  0.00     0.190 HD
ENDBRANCH   7  25
ENDBRANCH   4   7
ENDBRANCH   2   3
ENDBRANCH   1   2
BRANCH   1  33
ATOM     33  C   UNL A   1      38.230  24.054  26.348  1.00  0.00     0.118 C 
BRANCH  33  34
ATOM     34  N   UNL A   1      39.635  24.073  25.969  1.00  0.00    -0.352 N 
ATOM     35  C   UNL A   1      40.675  24.869  26.394  1.00  0.00     0.251 C 
ATOM     36  H   UNL A   1      39.885  23.401  25.294  1.00  0.00     0.163 HD
ATOM     37  O   UNL A   1      41.769  24.783  25.858  1.00  0.00    -0.269 OA
BRANCH  35  38
ATOM     38  C   UNL A   1      40.453  25.871  27.459  1.00  0.00     0.039 A 
ATOM     39  C   UNL A   1      39.630  25.539  28.540  1.00  0.00     0.014 A 
ATOM     40  C   UNL A   1      41.045  27.130  27.401  1.00  0.00     0.014 A 
ATOM     41  C   UNL A   1      39.475  26.440  29.598  1.00  0.00     0.010 A 
ATOM     42  C   UNL A   1      40.991  27.973  28.503  1.00  0.00     0.010 A 
ATOM     43  C   UNL A   1      40.192  27.646  29.606  1.00  0.00    -0.014 A 
BRANCH  43  44
ATOM     44  C   UNL A   1      40.083  28.620  30.720  1.00  0.00     0.031 A 
ATOM     45  C   UNL A   1      39.074  29.735  30.629  1.00  0.00     0.074 A 
ATOM     46  C   UNL A   1      40.944  28.565  31.754  1.00  0.00     0.049 A 
ATOM     47  N   UNL A   1      38.911  30.771  31.409  1.00  0.00    -0.248 NA
ATOM     48  C   UNL A   1      38.156  29.700  29.478  1.00  0.00     0.031 C 
ATOM     49  C   UNL A   1      42.002  27.568  31.931  1.00  0.00     0.029 A 
ATOM     50  N   UNL A   1      41.074  29.383  32.848  1.00  0.00    -0.354 N 
ATOM     51  C   UNL A   1      37.900  31.524  30.825  1.00  0.00     0.074 A 
ATOM     52  C   UNL A   1      37.532  30.860  29.594  1.00  0.00     0.031 C 
ATOM     53  C   UNL A   1      42.659  27.822  33.075  1.00  0.00     0.029 A 
ATOM     54  C   UNL A   1      42.093  29.017  33.693  1.00  0.00     0.049 A 
ATOM     55  H   UNL A   1      40.491  30.160  33.011  1.00  0.00     0.167 HD
ATOM     56  C   UNL A   1      37.305  32.649  31.287  1.00  0.00     0.037 A 
ATOM     57  C   UNL A   1      42.523  29.588  34.833  1.00  0.00     0.037 A 
ATOM     58  C   UNL A   1      37.634  33.276  32.538  1.00  0.00     0.049 A 
ATOM     59  C   UNL A   1      41.833  30.827  35.336  1.00  0.00     0.074 A 
ATOM     60  C   UNL A   1      37.042  34.373  33.136  1.00  0.00     0.029 A 
ATOM     61  N   UNL A   1      38.643  32.848  33.387  1.00  0.00    -0.354 N 
ATOM     62  N   UNL A   1      40.834  31.490  34.807  1.00  0.00    -0.248 NA
ATOM     63  C   UNL A   1      42.329  31.393  36.598  1.00  0.00     0.031 C 
ATOM     64  C   UNL A   1      37.713  34.627  34.338  1.00  0.00     0.029 A 
ATOM     65  C   UNL A   1      38.700  33.667  34.501  1.00  0.00     0.049 A 
ATOM     66  H   UNL A   1      39.232  32.077  33.222  1.00  0.00     0.167 HD
ATOM     67  C   UNL A   1      40.562  32.532  35.685  1.00  0.00     0.074 A 
ATOM     68  C   UNL A   1      41.494  32.404  36.786  1.00  0.00     0.031 C 
ATOM     69  C   UNL A   1      39.628  33.509  35.590  1.00  0.00     0.037 A 
BRANCH  56  70
ATOM     70  C   UNL A   1      36.228  33.254  30.434  1.00  0.00     0.057 A 
ATOM     71  C   UNL A   1      34.877  33.079  30.755  1.00  0.00     0.134 A 
ATOM     72  C   UNL A   1      36.529  34.013  29.295  1.00  0.00     0.134 A 
ATOM     73  F   UNL A   1      34.518  32.360  31.831  1.00  0.00    -0.206 F 
ATOM     74  C   UNL A   1      33.864  33.644  29.979  1.00  0.00     0.040 A 
ATOM     75  C   UNL A   1      35.526  34.607  28.528  1.00  0.00     0.040 A 
ATOM     76  F   UNL A   1      37.804  34.234  28.944  1.00  0.00    -0.206 F 
ATOM     77  C   UNL A   1      34.188  34.419  28.867  1.00  0.00     0.006 A 
ENDBRANCH  56  70
BRANCH  57  78
ATOM     78  C   UNL A   1      43.647  28.992  35.598  1.00  0.00     0.057 A 
ATOM     79  C   UNL A   1      43.439  27.978  36.539  1.00  0.00     0.134 A 
ATOM     80  C   UNL A   1      44.966  29.403  35.374  1.00  0.00     0.134 A 
ATOM     81  F   UNL A   1      42.198  27.545  36.806  1.00  0.00    -0.206 F 
ATOM     82  C   UNL A   1      44.503  27.388  37.225  1.00  0.00     0.040 A 
ATOM     83  C   UNL A   1      46.041  28.807  36.034  1.00  0.00     0.040 A 
ATOM     84  F   UNL A   1      45.230  30.359  34.470  1.00  0.00    -0.206 F 
ATOM     85  C   UNL A   1      45.810  27.797  36.965  1.00  0.00     0.006 A 
ENDBRANCH  57  78
BRANCH  69  86
ATOM     86  C   UNL A   1      39.547  34.486  36.723  1.00  0.00     0.057 A 
ATOM     87  C   UNL A   1      40.201  35.722  36.646  1.00  0.00     0.134 A 
ATOM     88  C   UNL A   1      38.851  34.192  37.901  1.00  0.00     0.134 A 
ATOM     89  F   UNL A   1      40.891  36.059  35.545  1.00  0.00    -0.206 F 
ATOM     90  C   UNL A   1      40.166  36.632  37.702  1.00  0.00     0.040 A 
ATOM     91  C   UNL A   1      38.788  35.104  38.956  1.00  0.00     0.040 A 
ATOM     92  F   UNL A   1      38.192  33.030  38.031  1.00  0.00    -0.206 F 
ATOM     93  C   UNL A   1      39.452  36.326  38.859  1.00  0.00     0.006 A 
ENDBRANCH  69  86
ENDBRANCH  43  44
ENDBRANCH  35  38
ENDBRANCH  33  34
ENDBRANCH   1  33
TORSDOF 13
ENDMDL
MODEL 3
REMARK VINA RESULT:     -12.8      1.890      2.305
REMARK SMILES Cc1cc(C(=O)N[C@H](C(=O)NCCCNC(=O)c2ccc(-c3c4nc(c(-c5c(F)cccc5F)c5ccc([nH]5)c(-c5c(F)cccc5F)c5nc(c(-c6c(F)cccc6F)c6ccc3[nH]6)C=C5)C=C4)cc2)c2c(C)n[nH]c2C)c2ccc(C)c(C)c2n1
REMARK SMILES IDX 13 1 12 2 11 3 9 4 10 5 8 7 7 8 5 9 6 10 4 12 1 13 2 14 3 15
REMARK SMILES IDX 87 16 86 17 79 18 84 19 80 20 82 21 85 22 81 23 83 24 72 25
REMARK SMILES IDX 73 26 77 27 74 28 75 29 76 30 78 31 14 33 15 34 16 35 17 37
REMARK SMILES IDX 18 38 19 39 71 40 20 41 70 42 21 43 22 44 23 45 64 46 24 47
REMARK SMILES IDX 69 48 63 49 65 50 25 51 68 52 62 53 61 54 26 56 52 57 35 58
REMARK SMILES IDX 51 59 36 60 39 61 50 62 66 63 37 64 38 65 49 67 67 68 40 69
REMARK SMILES IDX 27 70 28 71 33 72 29 73 30 74 32 75 34 76 31 77 53 78 54 79
REMARK SMILES IDX 59 80 55 81 56 82 58 83 60 84 57 85 41 86 42 87 47 88 43 89
REMARK SMILES IDX 44 90 46 91 48 92 45 93
REMARK H PARENT 11 6 7 11 76 32 15 36 65 55 39 66
REMARK Flexibility Score: inf
ROOT
ATOM      1  C   UNL A   1      33.671  28.113  26.890  1.00  0.00     0.042 C 
ENDROOT
BRANCH   1   2
ATOM      2  C   UNL A   1      32.203  27.965  27.257  1.00  0.00     0.117 C 
BRANCH   2   3
ATOM      3  N   UNL A   1      31.343  27.908  26.090  1.00  0.00    -0.354 N 
ATOM      4  C   UNL A   1      31.189  26.949  25.143  1.00  0.00     0.247 C 
ATOM      5  O   UNL A   1      30.329  27.192  24.284  1.00  0.00    -0.272 OA
ATOM      6  H   UNL A   1      30.774  28.701  25.963  1.00  0.00     0.163 HD
BRANCH   4   7
ATOM      7  C   UNL A   1      32.070  25.689  24.991  1.00  0.00     0.206 C 
BRANCH   7   8
ATOM      8  N   UNL A   1      31.467  24.646  25.829  1.00  0.00    -0.336 N 
ATOM      9  C   UNL A   1      31.976  23.605  26.562  1.00  0.00     0.252 C 
ATOM     10  O   UNL A   1      31.251  23.109  27.423  1.00  0.00    -0.269 OA
ATOM     11  H   UNL A   1      30.486  24.707  25.874  1.00  0.00     0.165 HD
BRANCH   9  12
ATOM     12  C   UNL A   1      33.323  23.030  26.305  1.00  0.00     0.051 A 
ATOM     13  C   UNL A   1      36.865  24.252  26.131  1.00  0.00     0.067 C 
ATOM     14  C   UNL A   1      35.672  23.346  26.140  1.00  0.00     0.039 A 
ATOM     15  C   UNL A   1      34.450  23.795  26.588  1.00  0.00     0.038 A 
ATOM     16  N   UNL A   1      35.832  22.125  25.595  1.00  0.00    -0.253 NA
ATOM     17  C   UNL A   1      34.774  21.309  25.434  1.00  0.00     0.074 A 
ATOM     18  C   UNL A   1      33.464  21.730  25.741  1.00  0.00     0.013 A 
ATOM     19  C   UNL A   1      34.992  20.016  24.923  1.00  0.00    -0.022 A 
ATOM     20  C   UNL A   1      32.396  20.844  25.452  1.00  0.00     0.011 A 
ATOM     21  C   UNL A   1      33.915  19.144  24.650  1.00  0.00    -0.046 A 
ATOM     22  C   UNL A   1      36.424  19.602  24.658  1.00  0.00     0.047 C 
ATOM     23  C   UNL A   1      32.619  19.577  24.917  1.00  0.00     0.004 A 
ATOM     24  C   UNL A   1      34.121  17.758  24.105  1.00  0.00     0.044 C 
ENDBRANCH   9  12
ENDBRANCH   7   8
BRANCH   7  25
ATOM     25  C   UNL A   1      32.434  25.266  23.603  1.00  0.00     0.027 A 
ATOM     26  C   UNL A   1      33.308  26.000  22.737  1.00  0.00     0.065 A 
ATOM     27  C   UNL A   1      32.068  24.162  22.843  1.00  0.00     0.038 A 
ATOM     28  C   UNL A   1      33.946  27.324  22.974  1.00  0.00     0.069 C 
ATOM     29  N   UNL A   1      33.505  25.373  21.576  1.00  0.00    -0.180 NA
ATOM     30  N   UNL A   1      32.783  24.252  21.680  1.00  0.00    -0.282 N 
ATOM     31  C   UNL A   1      31.130  23.036  23.067  1.00  0.00     0.066 C 
ATOM     32  H   UNL A   1      32.768  23.554  20.985  1.00  0.00     0.190 HD
ENDBRANCH   7  25
ENDBRANCH   4   7
ENDBRANCH   2   3
ENDBRANCH   1   2
BRANCH   1  33
ATOM     33  C   UNL A   1      33.950  29.387  26.100  1.00  0.00     0.118 C 
BRANCH  33  34
ATOM     34  N   UNL A   1      33.782  30.606  26.877  1.00  0.00    -0.352 N 
ATOM     35  C   UNL A   1      34.527  31.129  27.910  1.00  0.00     0.251 C 
ATOM     36  H   UNL A   1      33.002  31.150  26.619  1.00  0.00     0.163 HD
ATOM     37  O   UNL A   1      34.140  32.127  28.498  1.00  0.00    -0.269 OA
BRANCH  35  38
ATOM     38  C   UNL A   1      35.766  30.449  28.348  1.00  0.00     0.039 A 
ATOM     39  C   UNL A   1      36.938  30.636  27.608  1.00  0.00     0.014 A 
ATOM     40  C   UNL A   1      35.781  29.631  29.475  1.00  0.00     0.014 A 
ATOM     41  C   UNL A   1      38.137  30.071  28.052  1.00  0.00     0.010 A 
ATOM     42  C   UNL A   1      36.990  29.174  29.982  1.00  0.00     0.010 A 
ATOM     43  C   UNL A   1      38.178  29.373  29.268  1.00  0.00    -0.014 A 
BRANCH  43  44
ATOM     44  C   UNL A   1      39.433  28.781  29.796  1.00  0.00     0.031 A 
ATOM     45  C   UNL A   1      40.092  29.401  30.999  1.00  0.00     0.074 A 
ATOM     46  C   UNL A   1      40.025  27.760  29.146  1.00  0.00     0.049 A 
ATOM     47  N   UNL A   1      41.257  29.141  31.532  1.00  0.00    -0.248 NA
ATOM     48  C   UNL A   1      39.360  30.493  31.662  1.00  0.00     0.031 C 
ATOM     49  C   UNL A   1      39.516  27.107  27.939  1.00  0.00     0.029 A 
ATOM     50  N   UNL A   1      41.202  27.104  29.406  1.00  0.00    -0.354 N 
ATOM     51  C   UNL A   1      41.409  30.057  32.566  1.00  0.00     0.074 A 
ATOM     52  C   UNL A   1      40.248  30.918  32.545  1.00  0.00     0.031 C 
ATOM     53  C   UNL A   1      40.365  26.131  27.574  1.00  0.00     0.029 A 
ATOM     54  C   UNL A   1      41.493  26.114  28.500  1.00  0.00     0.049 A 
ATOM     55  H   UNL A   1      41.783  27.323  30.170  1.00  0.00     0.167 HD
ATOM     56  C   UNL A   1      42.407  30.152  33.475  1.00  0.00     0.037 A 
ATOM     57  C   UNL A   1      42.555  25.291  28.424  1.00  0.00     0.037 A 
ATOM     58  C   UNL A   1      43.533  29.260  33.529  1.00  0.00     0.049 A 
ATOM     59  C   UNL A   1      43.642  25.404  29.457  1.00  0.00     0.074 A 
ATOM     60  C   UNL A   1      44.560  29.220  34.453  1.00  0.00     0.029 A 
ATOM     61  N   UNL A   1      43.768  28.241  32.619  1.00  0.00    -0.354 N 
ATOM     62  N   UNL A   1      43.740  26.231  30.469  1.00  0.00    -0.248 NA
ATOM     63  C   UNL A   1      44.766  24.463  29.339  1.00  0.00     0.031 C 
ATOM     64  C   UNL A   1      45.435  28.191  34.086  1.00  0.00     0.029 A 
ATOM     65  C   UNL A   1      44.933  27.572  32.953  1.00  0.00     0.049 A 
ATOM     66  H   UNL A   1      43.193  28.025  31.850  1.00  0.00     0.167 HD
ATOM     67  C   UNL A   1      44.917  25.892  31.125  1.00  0.00     0.074 A 
ATOM     68  C   UNL A   1      45.491  24.776  30.403  1.00  0.00     0.031 C 
ATOM     69  C   UNL A   1      45.475  26.454  32.225  1.00  0.00     0.037 A 
BRANCH  56  70
ATOM     70  C   UNL A   1      42.307  31.254  34.490  1.00  0.00     0.057 A 
ATOM     71  C   UNL A   1      42.890  32.504  34.251  1.00  0.00     0.134 A 
ATOM     72  C   UNL A   1      41.632  31.077  35.705  1.00  0.00     0.134 A 
ATOM     73  F   UNL A   1      43.553  32.741  33.108  1.00  0.00    -0.206 F 
ATOM     74  C   UNL A   1      42.796  33.541  35.179  1.00  0.00     0.040 A 
ATOM     75  C   UNL A   1      41.508  32.115  36.629  1.00  0.00     0.040 A 
ATOM     76  F   UNL A   1      41.037  29.908  35.988  1.00  0.00    -0.206 F 
ATOM     77  C   UNL A   1      42.095  33.351  36.369  1.00  0.00     0.006 A 
ENDBRANCH  56  70
BRANCH  57  78
ATOM     78  C   UNL A   1      42.643  24.269  27.351  1.00  0.00     0.057 A 
ATOM     79  C   UNL A   1      43.230  24.551  26.113  1.00  0.00     0.134 A 
ATOM     80  C   UNL A   1      42.170  22.968  27.559  1.00  0.00     0.134 A 
ATOM     81  F   UNL A   1      43.694  25.781  25.847  1.00  0.00    -0.206 F 
ATOM     82  C   UNL A   1      43.350  23.574  25.122  1.00  0.00     0.040 A 
ATOM     83  C   UNL A   1      42.305  21.975  26.587  1.00  0.00     0.040 A 
ATOM     84  F   UNL A   1      41.614  22.632  28.732  1.00  0.00    -0.206 F 
ATOM     85  C   UNL A   1      42.896  22.279  25.362  1.00  0.00     0.006 A 
ENDBRANCH  57  78
BRANCH  69  86
ATOM     86  C   UNL A   1      46.748  25.844  32.729  1.00  0.00     0.057 A 
ATOM     87  C   UNL A   1      47.984  26.238  32.203  1.00  0.00     0.134 A 
ATOM     88  C   UNL A   1      46.747  24.846  33.711  1.00  0.00     0.134 A 
ATOM     89  F   UNL A   1      48.049  27.184  31.254  1.00  0.00    -0.206 F 
ATOM     90  C   UNL A   1      49.177  25.659  32.635  1.00  0.00     0.040 A 
ATOM     91  C   UNL A   1      47.935  24.276  34.169  1.00  0.00     0.040 A 
ATOM     92  F   UNL A   1      45.595  24.436  34.265  1.00  0.00    -0.206 F 
ATOM     93  C   UNL A   1      49.155  24.680  33.625  1.00  0.00     0.006 A 
ENDBRANCH  69  86
ENDBRANCH  43  44
ENDBRANCH  35  38
ENDBRANCH  33  34
ENDBRANCH   1  33
TORSDOF 13
ENDMDL
