MODEL 1
REMARK VINA RESULT:     -11.7      0.000      0.000
REMARK SMILES C[C@@H](C(=O)NCCCNC(=O)c1ccc(-c2c3nc(c(-c4c(F)cccc4F)c4ccc([nH]4)c(-c4c(F)cccc4F)c4nc(c(-c5c(F)cccc5F)c5ccc2[nH]5)C=C4)C=C3)cc1)c1ccc(C[C@H]2CCC[C@@H]2O)cc1F
REMARK SMILES IDX 6 1 5 2 3 3 4 4 2 6 1 7 66 8 67 9 78 10 68 11 77 12 79 13
REMARK SMILES IDX 69 14 70 15 71 16 72 17 75 18 73 19 74 20 76 21 7 23 8 24
REMARK SMILES IDX 9 25 10 26 11 28 12 29 13 30 65 31 14 32 64 33 15 34 16 35
REMARK SMILES IDX 17 36 58 37 18 38 63 39 57 40 59 41 19 42 62 43 56 44 55 45
REMARK SMILES IDX 20 47 46 48 29 49 45 50 30 51 33 52 44 53 60 54 31 55 32 56
REMARK SMILES IDX 43 58 61 59 34 60 21 61 22 62 27 63 23 64 24 65 26 66 28 67
REMARK SMILES IDX 25 68 47 69 48 70 53 71 49 72 50 73 52 74 54 75 51 76 35 77
REMARK SMILES IDX 36 78 41 79 37 80 38 81 40 82 42 83 39 84
REMARK H PARENT 5 5 76 22 9 27 59 46 33 57
REMARK Flexibility Score: inf
ROOT
ATOM      1  C   UNL A   1      31.911  27.479  26.364  1.00  0.00     0.117 C 
ENDROOT
BRANCH   1   2
ATOM      2  N   UNL A   1      31.447  26.191  26.849  1.00  0.00    -0.356 N 
ATOM      3  C   UNL A   1      31.069  25.097  26.120  1.00  0.00     0.227 C 
ATOM      4  O   UNL A   1      30.197  24.378  26.608  1.00  0.00    -0.274 OA
ATOM      5  H   UNL A   1      31.400  26.093  27.828  1.00  0.00     0.163 HD
BRANCH   3   6
ATOM      6  C   UNL A   1      31.673  24.887  24.727  1.00  0.00     0.108 C 
ATOM      7  C   UNL A   1      30.481  24.851  23.753  1.00  0.00     0.023 C 
BRANCH   6   8
ATOM      8  C   UNL A   1      32.553  23.652  24.543  1.00  0.00    -0.000 A 
ATOM      9  C   UNL A   1      32.028  22.535  23.866  1.00  0.00     0.008 A 
ATOM     10  C   UNL A   1      33.870  23.543  24.999  1.00  0.00     0.127 A 
ATOM     11  C   UNL A   1      32.710  21.318  23.830  1.00  0.00     0.004 A 
ATOM     12  C   UNL A   1      34.537  22.317  25.010  1.00  0.00     0.043 A 
ATOM     13  F   UNL A   1      34.545  24.613  25.436  1.00  0.00    -0.207 F 
ATOM     14  C   UNL A   1      33.928  21.170  24.493  1.00  0.00    -0.045 A 
BRANCH  14  15
ATOM     15  C   UNL A   1      34.555  19.811  24.682  1.00  0.00     0.041 C 
BRANCH  15  16
ATOM     16  C   UNL A   1      33.605  18.607  24.502  1.00  0.00     0.022 C 
ATOM     17  C   UNL A   1      33.995  17.600  23.405  1.00  0.00     0.007 C 
ATOM     18  C   UNL A   1      33.364  17.740  25.744  1.00  0.00     0.117 C 
ATOM     19  C   UNL A   1      33.597  16.217  23.931  1.00  0.00     0.003 C 
ATOM     20  C   UNL A   1      32.745  16.479  25.163  1.00  0.00     0.032 C 
BRANCH  18  21
ATOM     21  O   UNL A   1      32.478  18.354  26.661  1.00  0.00    -0.393 OA
ATOM     22  H   UNL A   1      32.957  19.024  27.174  1.00  0.00     0.210 HD
ENDBRANCH  18  21
ENDBRANCH  15  16
ENDBRANCH  14  15
ENDBRANCH   6   8
ENDBRANCH   3   6
ENDBRANCH   1   2
BRANCH   1  23
ATOM     23  C   UNL A   1      33.407  27.659  26.634  1.00  0.00     0.042 C 
BRANCH  23  24
ATOM     24  C   UNL A   1      34.052  28.800  25.855  1.00  0.00     0.118 C 
BRANCH  24  25
ATOM     25  N   UNL A   1      33.749  30.102  26.424  1.00  0.00    -0.352 N 
ATOM     26  C   UNL A   1      34.366  30.777  27.445  1.00  0.00     0.251 C 
ATOM     27  H   UNL A   1      32.986  30.571  26.014  1.00  0.00     0.163 HD
ATOM     28  O   UNL A   1      33.837  31.787  27.910  1.00  0.00    -0.269 OA
BRANCH  26  29
ATOM     29  C   UNL A   1      35.647  30.296  28.008  1.00  0.00     0.039 A 
ATOM     30  C   UNL A   1      35.631  29.640  29.242  1.00  0.00     0.014 A 
ATOM     31  C   UNL A   1      36.861  30.520  27.352  1.00  0.00     0.014 A 
ATOM     32  C   UNL A   1      36.824  29.169  29.794  1.00  0.00     0.010 A 
ATOM     33  C   UNL A   1      38.040  29.985  27.869  1.00  0.00     0.010 A 
ATOM     34  C   UNL A   1      38.035  29.312  29.100  1.00  0.00    -0.014 A 
BRANCH  34  35
ATOM     35  C   UNL A   1      39.303  28.774  29.654  1.00  0.00     0.031 A 
ATOM     36  C   UNL A   1      39.920  29.391  30.880  1.00  0.00     0.074 A 
ATOM     37  C   UNL A   1      39.927  27.759  29.025  1.00  0.00     0.049 A 
ATOM     38  N   UNL A   1      41.043  29.088  31.482  1.00  0.00    -0.248 NA
ATOM     39  C   UNL A   1      39.191  30.510  31.496  1.00  0.00     0.031 C 
ATOM     40  C   UNL A   1      39.455  27.103  27.805  1.00  0.00     0.029 A 
ATOM     41  N   UNL A   1      41.098  27.107  29.322  1.00  0.00    -0.354 N 
ATOM     42  C   UNL A   1      41.162  29.988  32.534  1.00  0.00     0.074 A 
ATOM     43  C   UNL A   1      40.024  30.878  32.459  1.00  0.00     0.031 C 
ATOM     44  C   UNL A   1      40.314  26.126  27.472  1.00  0.00     0.029 A 
ATOM     45  C   UNL A   1      41.414  26.110  28.431  1.00  0.00     0.049 A 
ATOM     46  H   UNL A   1      41.658  27.333  30.098  1.00  0.00     0.167 HD
ATOM     47  C   UNL A   1      42.120  30.053  33.489  1.00  0.00     0.037 A 
ATOM     48  C   UNL A   1      42.472  25.279  28.391  1.00  0.00     0.037 A 
ATOM     49  C   UNL A   1      43.239  29.151  33.578  1.00  0.00     0.049 A 
ATOM     50  C   UNL A   1      43.525  25.375  29.459  1.00  0.00     0.074 A 
ATOM     51  C   UNL A   1      44.229  29.098  34.544  1.00  0.00     0.029 A 
ATOM     52  N   UNL A   1      43.518  28.147  32.663  1.00  0.00    -0.354 N 
ATOM     53  N   UNL A   1      43.587  26.186  30.488  1.00  0.00    -0.248 NA
ATOM     54  C   UNL A   1      44.651  24.437  29.365  1.00  0.00     0.031 C 
ATOM     55  C   UNL A   1      45.130  28.087  34.190  1.00  0.00     0.029 A 
ATOM     56  C   UNL A   1      44.676  27.482  33.030  1.00  0.00     0.049 A 
ATOM     57  H   UNL A   1      42.973  27.938  31.871  1.00  0.00     0.167 HD
ATOM     58  C   UNL A   1      44.741  25.835  31.178  1.00  0.00     0.074 A 
ATOM     59  C   UNL A   1      45.340  24.730  30.458  1.00  0.00     0.031 C 
ATOM     60  C   UNL A   1      45.257  26.379  32.308  1.00  0.00     0.037 A 
BRANCH  47  61
ATOM     61  C   UNL A   1      41.998  31.140  34.519  1.00  0.00     0.057 A 
ATOM     62  C   UNL A   1      42.611  32.389  34.350  1.00  0.00     0.134 A 
ATOM     63  C   UNL A   1      41.236  30.947  35.677  1.00  0.00     0.134 A 
ATOM     64  F   UNL A   1      43.365  32.637  33.268  1.00  0.00    -0.206 F 
ATOM     65  C   UNL A   1      42.493  33.396  35.310  1.00  0.00     0.040 A 
ATOM     66  C   UNL A   1      41.088  31.955  36.631  1.00  0.00     0.040 A 
ATOM     67  F   UNL A   1      40.617  29.777  35.899  1.00  0.00    -0.206 F 
ATOM     68  C   UNL A   1      41.723  33.182  36.452  1.00  0.00     0.006 A 
ENDBRANCH  47  61
BRANCH  48  69
ATOM     69  C   UNL A   1      42.577  24.262  27.315  1.00  0.00     0.057 A 
ATOM     70  C   UNL A   1      42.107  22.957  27.509  1.00  0.00     0.134 A 
ATOM     71  C   UNL A   1      43.156  24.562  26.077  1.00  0.00     0.134 A 
ATOM     72  F   UNL A   1      41.560  22.606  28.682  1.00  0.00    -0.206 F 
ATOM     73  C   UNL A   1      42.224  21.983  26.518  1.00  0.00     0.040 A 
ATOM     74  C   UNL A   1      43.258  23.604  25.066  1.00  0.00     0.040 A 
ATOM     75  F   UNL A   1      43.619  25.796  25.825  1.00  0.00    -0.206 F 
ATOM     76  C   UNL A   1      42.799  22.306  25.289  1.00  0.00     0.006 A 
ENDBRANCH  48  69
BRANCH  60  77
ATOM     77  C   UNL A   1      46.510  25.762  32.854  1.00  0.00     0.057 A 
ATOM     78  C   UNL A   1      47.783  26.217  32.486  1.00  0.00     0.134 A 
ATOM     79  C   UNL A   1      46.441  24.719  33.787  1.00  0.00     0.134 A 
ATOM     80  F   UNL A   1      47.917  27.204  31.587  1.00  0.00    -0.206 F 
ATOM     81  C   UNL A   1      48.942  25.641  33.007  1.00  0.00     0.040 A 
ATOM     82  C   UNL A   1      47.593  24.152  34.335  1.00  0.00     0.040 A 
ATOM     83  F   UNL A   1      45.254  24.241  34.189  1.00  0.00    -0.206 F 
ATOM     84  C   UNL A   1      48.849  24.609  33.939  1.00  0.00     0.006 A 
ENDBRANCH  60  77
ENDBRANCH  34  35
ENDBRANCH  26  29
ENDBRANCH  24  25
ENDBRANCH  23  24
ENDBRANCH   1  23
TORSDOF 14
ENDMDL
MODEL 2
REMARK VINA RESULT:     -11.6      3.135      8.348
REMARK SMILES C[C@@H](C(=O)NCCCNC(=O)c1ccc(-c2c3nc(c(-c4c(F)cccc4F)c4ccc([nH]4)c(-c4c(F)cccc4F)c4nc(c(-c5c(F)cccc5F)c5ccc2[nH]5)C=C4)C=C3)cc1)c1ccc(C[C@H]2CCC[C@@H]2O)cc1F
REMARK SMILES IDX 6 1 5 2 3 3 4 4 2 6 1 7 66 8 67 9 78 10 68 11 77 12 79 13
REMARK SMILES IDX 69 14 70 15 71 16 72 17 75 18 73 19 74 20 76 21 7 23 8 24
REMARK SMILES IDX 9 25 10 26 11 28 12 29 13 30 65 31 14 32 64 33 15 34 16 35
REMARK SMILES IDX 17 36 58 37 18 38 63 39 57 40 59 41 19 42 62 43 56 44 55 45
REMARK SMILES IDX 20 47 46 48 29 49 45 50 30 51 33 52 44 53 60 54 31 55 32 56
REMARK SMILES IDX 43 58 61 59 34 60 21 61 22 62 27 63 23 64 24 65 26 66 28 67
REMARK SMILES IDX 25 68 47 69 48 70 53 71 49 72 50 73 52 74 54 75 51 76 35 77
REMARK SMILES IDX 36 78 41 79 37 80 38 81 40 82 42 83 39 84
REMARK H PARENT 5 5 76 22 9 27 59 46 33 57
REMARK Flexibility Score: inf
ROOT
ATOM      1  C   UNL A   1      36.130  19.899  25.002  1.00  0.00     0.117 C 
ENDROOT
BRANCH   1   2
ATOM      2  N   UNL A   1      35.975  21.106  25.794  1.00  0.00    -0.356 N 
ATOM      3  C   UNL A   1      35.786  22.388  25.355  1.00  0.00     0.227 C 
ATOM      4  O   UNL A   1      36.252  23.289  26.053  1.00  0.00    -0.274 OA
ATOM      5  H   UNL A   1      36.009  20.986  26.771  1.00  0.00     0.163 HD
BRANCH   3   6
ATOM      6  C   UNL A   1      35.101  22.618  24.003  1.00  0.00     0.108 C 
ATOM      7  C   UNL A   1      36.207  23.103  23.049  1.00  0.00     0.023 C 
BRANCH   6   8
ATOM      8  C   UNL A   1      33.920  23.588  23.992  1.00  0.00    -0.000 A 
ATOM      9  C   UNL A   1      34.028  24.786  23.262  1.00  0.00     0.008 A 
ATOM     10  C   UNL A   1      32.712  23.371  24.660  1.00  0.00     0.127 A 
ATOM     11  C   UNL A   1      33.065  25.791  23.363  1.00  0.00     0.004 A 
ATOM     12  C   UNL A   1      31.768  24.390  24.807  1.00  0.00     0.043 A 
ATOM     13  F   UNL A   1      32.410  22.176  25.181  1.00  0.00    -0.207 F 
ATOM     14  C   UNL A   1      31.975  25.641  24.220  1.00  0.00    -0.045 A 
BRANCH  14  15
ATOM     15  C   UNL A   1      31.066  26.802  24.538  1.00  0.00     0.041 C 
BRANCH  15  16
ATOM     16  C   UNL A   1      31.640  27.852  25.515  1.00  0.00     0.022 C 
ATOM     17  C   UNL A   1      32.747  27.355  26.462  1.00  0.00     0.007 C 
ATOM     18  C   UNL A   1      32.224  29.121  24.883  1.00  0.00     0.117 C 
ATOM     19  C   UNL A   1      33.725  28.523  26.628  1.00  0.00     0.003 C 
ATOM     20  C   UNL A   1      33.028  29.729  26.021  1.00  0.00     0.032 C 
BRANCH  18  21
ATOM     21  O   UNL A   1      31.216  30.015  24.449  1.00  0.00    -0.393 OA
ATOM     22  H   UNL A   1      31.625  30.759  23.980  1.00  0.00     0.210 HD
ENDBRANCH  18  21
ENDBRANCH  15  16
ENDBRANCH  14  15
ENDBRANCH   6   8
ENDBRANCH   3   6
ENDBRANCH   1   2
BRANCH   1  23
ATOM     23  C   UNL A   1      37.590  19.700  24.587  1.00  0.00     0.042 C 
BRANCH  23  24
ATOM     24  C   UNL A   1      38.607  20.161  25.627  1.00  0.00     0.118 C 
BRANCH  24  25
ATOM     25  N   UNL A   1      39.744  19.262  25.727  1.00  0.00    -0.352 N 
ATOM     26  C   UNL A   1      41.044  19.530  26.068  1.00  0.00     0.251 C 
ATOM     27  H   UNL A   1      39.552  18.318  25.519  1.00  0.00     0.163 HD
ATOM     28  O   UNL A   1      41.903  18.662  25.906  1.00  0.00    -0.269 OA
BRANCH  26  29
ATOM     29  C   UNL A   1      41.430  20.851  26.608  1.00  0.00     0.039 A 
ATOM     30  C   UNL A   1      41.900  21.825  25.722  1.00  0.00     0.014 A 
ATOM     31  C   UNL A   1      41.373  21.125  27.978  1.00  0.00     0.014 A 
ATOM     32  C   UNL A   1      42.265  23.084  26.202  1.00  0.00     0.010 A 
ATOM     33  C   UNL A   1      41.669  22.404  28.445  1.00  0.00     0.010 A 
ATOM     34  C   UNL A   1      42.127  23.394  27.563  1.00  0.00    -0.014 A 
BRANCH  34  35
ATOM     35  C   UNL A   1      42.467  24.745  28.079  1.00  0.00     0.031 A 
ATOM     36  C   UNL A   1      43.886  25.083  28.447  1.00  0.00     0.074 A 
ATOM     37  C   UNL A   1      41.489  25.653  28.264  1.00  0.00     0.049 A 
ATOM     38  N   UNL A   1      44.368  26.190  28.954  1.00  0.00    -0.248 NA
ATOM     39  C   UNL A   1      44.893  24.031  28.238  1.00  0.00     0.031 C 
ATOM     40  C   UNL A   1      40.068  25.434  27.987  1.00  0.00     0.029 A 
ATOM     41  N   UNL A   1      41.541  26.940  28.736  1.00  0.00    -0.354 N 
ATOM     42  C   UNL A   1      45.725  25.962  29.141  1.00  0.00     0.074 A 
ATOM     43  C   UNL A   1      45.982  24.596  28.738  1.00  0.00     0.031 C 
ATOM     44  C   UNL A   1      39.389  26.557  28.270  1.00  0.00     0.029 A 
ATOM     45  C   UNL A   1      40.317  27.560  28.782  1.00  0.00     0.049 A 
ATOM     46  H   UNL A   1      42.377  27.378  29.016  1.00  0.00     0.167 HD
ATOM     47  C   UNL A   1      46.675  26.818  29.584  1.00  0.00     0.037 A 
ATOM     48  C   UNL A   1      39.980  28.797  29.193  1.00  0.00     0.037 A 
ATOM     49  C   UNL A   1      46.423  28.185  29.961  1.00  0.00     0.049 A 
ATOM     50  C   UNL A   1      41.052  29.727  29.687  1.00  0.00     0.074 A 
ATOM     51  C   UNL A   1      47.330  29.150  30.365  1.00  0.00     0.029 A 
ATOM     52  N   UNL A   1      45.171  28.779  29.982  1.00  0.00    -0.354 N 
ATOM     53  N   UNL A   1      42.342  29.520  29.791  1.00  0.00    -0.248 NA
ATOM     54  C   UNL A   1      40.622  31.065  30.115  1.00  0.00     0.031 C 
ATOM     55  C   UNL A   1      46.620  30.316  30.671  1.00  0.00     0.029 A 
ATOM     56  C   UNL A   1      45.278  30.092  30.413  1.00  0.00     0.049 A 
ATOM     57  H   UNL A   1      44.330  28.334  29.729  1.00  0.00     0.167 HD
ATOM     58  C   UNL A   1      42.880  30.708  30.267  1.00  0.00     0.074 A 
ATOM     59  C   UNL A   1      41.779  31.636  30.418  1.00  0.00     0.031 C 
ATOM     60  C   UNL A   1      44.173  31.005  30.552  1.00  0.00     0.037 A 
BRANCH  47  61
ATOM     61  C   UNL A   1      48.081  26.299  29.688  1.00  0.00     0.057 A 
ATOM     62  C   UNL A   1      48.982  26.390  28.619  1.00  0.00     0.134 A 
ATOM     63  C   UNL A   1      48.549  25.731  30.879  1.00  0.00     0.134 A 
ATOM     64  F   UNL A   1      48.596  26.914  27.445  1.00  0.00    -0.206 F 
ATOM     65  C   UNL A   1      50.289  25.908  28.721  1.00  0.00     0.040 A 
ATOM     66  C   UNL A   1      49.861  25.270  31.003  1.00  0.00     0.040 A 
ATOM     67  F   UNL A   1      47.741  25.619  31.944  1.00  0.00    -0.206 F 
ATOM     68  C   UNL A   1      50.733  25.351  29.919  1.00  0.00     0.006 A 
ENDBRANCH  47  61
BRANCH  48  69
ATOM     69  C   UNL A   1      38.564  29.240  29.130  1.00  0.00     0.057 A 
ATOM     70  C   UNL A   1      38.019  29.739  27.940  1.00  0.00     0.134 A 
ATOM     71  C   UNL A   1      37.729  29.189  30.251  1.00  0.00     0.134 A 
ATOM     72  F   UNL A   1      38.776  29.830  26.837  1.00  0.00    -0.206 F 
ATOM     73  C   UNL A   1      36.699  30.186  27.872  1.00  0.00     0.040 A 
ATOM     74  C   UNL A   1      36.399  29.610  30.191  1.00  0.00     0.040 A 
ATOM     75  F   UNL A   1      38.189  28.715  31.419  1.00  0.00    -0.206 F 
ATOM     76  C   UNL A   1      35.883  30.119  29.000  1.00  0.00     0.006 A 
ENDBRANCH  48  69
BRANCH  60  77
ATOM     77  C   UNL A   1      44.468  32.400  31.018  1.00  0.00     0.057 A 
ATOM     78  C   UNL A   1      44.418  32.756  32.372  1.00  0.00     0.134 A 
ATOM     79  C   UNL A   1      44.838  33.393  30.102  1.00  0.00     0.134 A 
ATOM     80  F   UNL A   1      44.057  31.855  33.298  1.00  0.00    -0.206 F 
ATOM     81  C   UNL A   1      44.702  34.055  32.795  1.00  0.00     0.040 A 
ATOM     82  C   UNL A   1      45.150  34.689  30.516  1.00  0.00     0.040 A 
ATOM     83  F   UNL A   1      44.914  33.118  28.791  1.00  0.00    -0.206 F 
ATOM     84  C   UNL A   1      45.077  35.024  31.867  1.00  0.00     0.006 A 
ENDBRANCH  60  77
ENDBRANCH  34  35
ENDBRANCH  26  29
ENDBRANCH  24  25
ENDBRANCH  23  24
ENDBRANCH   1  23
TORSDOF 14
ENDMDL
MODEL 3
REMARK VINA RESULT:     -11.6      3.337      7.834
REMARK SMILES C[C@@H](C(=O)NCCCNC(=O)c1ccc(-c2c3nc(c(-c4c(F)cccc4F)c4ccc([nH]4)c(-c4c(F)cccc4F)c4nc(c(-c5c(F)cccc5F)c5ccc2[nH]5)C=C4)C=C3)cc1)c1ccc(C[C@H]2CCC[C@@H]2O)cc1F
REMARK SMILES IDX 6 1 5 2 3 3 4 4 2 6 1 7 66 8 67 9 78 10 68 11 77 12 79 13
REMARK SMILES IDX 69 14 70 15 71 16 72 17 75 18 73 19 74 20 76 21 7 23 8 24
REMARK SMILES IDX 9 25 10 26 11 28 12 29 13 30 65 31 14 32 64 33 15 34 16 35
REMARK SMILES IDX 17 36 58 37 18 38 63 39 57 40 59 41 19 42 62 43 56 44 55 45
REMARK SMILES IDX 20 47 46 48 29 49 45 50 30 51 33 52 44 53 60 54 31 55 32 56
REMARK SMILES IDX 43 58 61 59 34 60 21 61 22 62 27 63 23 64 24 65 26 66 28 67
REMARK SMILES IDX 25 68 47 69 48 70 53 71 49 72 50 73 52 74 54 75 51 76 35 77
REMARK SMILES IDX 36 78 41 79 37 80 38 81 40 82 42 83 39 84
REMARK H PARENT 5 5 76 22 9 27 59 46 33 57
REMARK Flexibility Score: inf
ROOT
ATOM      1  C   UNL A   1      36.221  19.973  25.005  1.00  0.00     0.117 C 
ENDROOT
BRANCH   1   2
ATOM      2  N   UNL A   1      35.914  21.119  25.842  1.00  0.00    -0.356 N 
ATOM      3  C   UNL A   1      35.654  22.405  25.454  1.00  0.00     0.227 C 
ATOM      4  O   UNL A   1      35.996  23.299  26.229  1.00  0.00    -0.274 OA
ATOM      5  H   UNL A   1      35.889  20.948  26.811  1.00  0.00     0.163 HD
BRANCH   3   6
ATOM      6  C   UNL A   1      35.048  22.656  24.069  1.00  0.00     0.108 C 
ATOM      7  C   UNL A   1      36.212  23.139  23.183  1.00  0.00     0.023 C 
BRANCH   6   8
ATOM      8  C   UNL A   1      33.880  23.639  24.001  1.00  0.00    -0.000 A 
ATOM      9  C   UNL A   1      34.035  24.834  23.274  1.00  0.00     0.008 A 
ATOM     10  C   UNL A   1      32.640  23.436  24.613  1.00  0.00     0.127 A 
ATOM     11  C   UNL A   1      33.079  25.849  23.329  1.00  0.00     0.004 A 
ATOM     12  C   UNL A   1      31.702  24.466  24.714  1.00  0.00     0.043 A 
ATOM     13  F   UNL A   1      32.301  22.246  25.121  1.00  0.00    -0.207 F 
ATOM     14  C   UNL A   1      31.949  25.713  24.136  1.00  0.00    -0.045 A 
BRANCH  14  15
ATOM     15  C   UNL A   1      31.040  26.885  24.409  1.00  0.00     0.041 C 
BRANCH  15  16
ATOM     16  C   UNL A   1      31.504  27.844  25.527  1.00  0.00     0.022 C 
ATOM     17  C   UNL A   1      32.498  27.259  26.547  1.00  0.00     0.007 C 
ATOM     18  C   UNL A   1      32.157  29.154  25.070  1.00  0.00     0.117 C 
ATOM     19  C   UNL A   1      33.454  28.398  26.916  1.00  0.00     0.003 C 
ATOM     20  C   UNL A   1      32.831  29.657  26.337  1.00  0.00     0.032 C 
BRANCH  18  21
ATOM     21  O   UNL A   1      31.206  30.092  24.604  1.00  0.00    -0.393 OA
ATOM     22  H   UNL A   1      31.598  30.979  24.609  1.00  0.00     0.210 HD
ENDBRANCH  18  21
ENDBRANCH  15  16
ENDBRANCH  14  15
ENDBRANCH   6   8
ENDBRANCH   3   6
ENDBRANCH   1   2
BRANCH   1  23
ATOM     23  C   UNL A   1      37.699  19.965  24.607  1.00  0.00     0.042 C 
BRANCH  23  24
ATOM     24  C   UNL A   1      38.659  20.266  25.753  1.00  0.00     0.118 C 
BRANCH  24  25
ATOM     25  N   UNL A   1      39.768  19.329  25.808  1.00  0.00    -0.352 N 
ATOM     26  C   UNL A   1      41.089  19.553  26.097  1.00  0.00     0.251 C 
ATOM     27  H   UNL A   1      39.536  18.393  25.609  1.00  0.00     0.163 HD
ATOM     28  O   UNL A   1      41.912  18.656  25.901  1.00  0.00    -0.269 OA
BRANCH  26  29
ATOM     29  C   UNL A   1      41.542  20.860  26.619  1.00  0.00     0.039 A 
ATOM     30  C   UNL A   1      42.026  21.810  25.716  1.00  0.00     0.014 A 
ATOM     31  C   UNL A   1      41.531  21.141  27.989  1.00  0.00     0.014 A 
ATOM     32  C   UNL A   1      42.453  23.056  26.180  1.00  0.00     0.010 A 
ATOM     33  C   UNL A   1      41.889  22.410  28.442  1.00  0.00     0.010 A 
ATOM     34  C   UNL A   1      42.363  23.377  27.543  1.00  0.00    -0.014 A 
BRANCH  34  35
ATOM     35  C   UNL A   1      42.770  24.715  28.043  1.00  0.00     0.031 A 
ATOM     36  C   UNL A   1      41.736  25.778  28.298  1.00  0.00     0.074 A 
ATOM     37  C   UNL A   1      44.076  24.991  28.222  1.00  0.00     0.049 A 
ATOM     38  N   UNL A   1      41.902  27.016  28.691  1.00  0.00    -0.248 NA
ATOM     39  C   UNL A   1      40.333  25.408  28.058  1.00  0.00     0.031 C 
ATOM     40  C   UNL A   1      45.179  24.061  27.970  1.00  0.00     0.029 A 
ATOM     41  N   UNL A   1      44.699  26.136  28.650  1.00  0.00    -0.354 N 
ATOM     42  C   UNL A   1      40.631  27.575  28.728  1.00  0.00     0.074 A 
ATOM     43  C   UNL A   1      39.709  26.558  28.271  1.00  0.00     0.031 C 
ATOM     44  C   UNL A   1      46.339  24.665  28.272  1.00  0.00     0.029 A 
ATOM     45  C   UNL A   1      46.067  26.033  28.703  1.00  0.00     0.049 A 
ATOM     46  H   UNL A   1      44.211  26.955  28.896  1.00  0.00     0.167 HD
ATOM     47  C   UNL A   1      40.262  28.815  29.127  1.00  0.00     0.037 A 
ATOM     48  C   UNL A   1      46.998  26.939  29.057  1.00  0.00     0.037 A 
ATOM     49  C   UNL A   1      41.177  29.819  29.605  1.00  0.00     0.049 A 
ATOM     50  C   UNL A   1      46.563  28.310  29.491  1.00  0.00     0.074 A 
ATOM     51  C   UNL A   1      40.893  31.084  30.090  1.00  0.00     0.029 A 
ATOM     52  N   UNL A   1      42.554  29.671  29.655  1.00  0.00    -0.354 N 
ATOM     53  N   UNL A   1      45.351  28.801  29.587  1.00  0.00    -0.248 NA
ATOM     54  C   UNL A   1      47.625  29.252  29.871  1.00  0.00     0.031 C 
ATOM     55  C   UNL A   1      42.103  31.717  30.395  1.00  0.00     0.029 A 
ATOM     56  C   UNL A   1      43.137  30.830  30.143  1.00  0.00     0.049 A 
ATOM     57  H   UNL A   1      43.046  28.863  29.384  1.00  0.00     0.167 HD
ATOM     58  C   UNL A   1      45.504  30.096  30.067  1.00  0.00     0.074 A 
ATOM     59  C   UNL A   1      46.924  30.309  30.254  1.00  0.00     0.031 C 
ATOM     60  C   UNL A   1      44.551  31.025  30.330  1.00  0.00     0.037 A 
BRANCH  47  61
ATOM     61  C   UNL A   1      38.800  29.157  29.064  1.00  0.00     0.057 A 
ATOM     62  C   UNL A   1      38.188  29.567  27.872  1.00  0.00     0.134 A 
ATOM     63  C   UNL A   1      37.989  29.045  30.200  1.00  0.00     0.134 A 
ATOM     64  F   UNL A   1      38.910  29.705  26.749  1.00  0.00    -0.206 F 
ATOM     65  C   UNL A   1      36.829  29.882  27.818  1.00  0.00     0.040 A 
ATOM     66  C   UNL A   1      36.623  29.330  30.153  1.00  0.00     0.040 A 
ATOM     67  F   UNL A   1      38.508  28.651  31.372  1.00  0.00    -0.206 F 
ATOM     68  C   UNL A   1      36.041  29.757  28.961  1.00  0.00     0.006 A 
ENDBRANCH  47  61
BRANCH  48  69
ATOM     69  C   UNL A   1      48.436  26.570  29.042  1.00  0.00     0.057 A 
ATOM     70  C   UNL A   1      49.235  26.835  27.924  1.00  0.00     0.134 A 
ATOM     71  C   UNL A   1      49.042  25.938  30.133  1.00  0.00     0.134 A 
ATOM     72  F   UNL A   1      48.706  27.422  26.841  1.00  0.00    -0.206 F 
ATOM     73  C   UNL A   1      50.581  26.470  27.883  1.00  0.00     0.040 A 
ATOM     74  C   UNL A   1      50.393  25.588  30.117  1.00  0.00     0.040 A 
ATOM     75  F   UNL A   1      48.333  25.662  31.238  1.00  0.00    -0.206 F 
ATOM     76  C   UNL A   1      51.165  25.846  28.985  1.00  0.00     0.006 A 
ENDBRANCH  48  69
BRANCH  60  77
ATOM     77  C   UNL A   1      45.013  32.341  30.884  1.00  0.00     0.057 A 
ATOM     78  C   UNL A   1      45.165  32.553  32.261  1.00  0.00     0.134 A 
ATOM     79  C   UNL A   1      45.340  33.398  30.026  1.00  0.00     0.134 A 
ATOM     80  F   UNL A   1      44.855  31.585  33.136  1.00  0.00    -0.206 F 
ATOM     81  C   UNL A   1      45.603  33.778  32.765  1.00  0.00     0.040 A 
ATOM     82  C   UNL A   1      45.804  34.620  30.518  1.00  0.00     0.040 A 
ATOM     83  F   UNL A   1      45.225  33.259  28.698  1.00  0.00    -0.206 F 
ATOM     84  C   UNL A   1      45.931  34.814  31.892  1.00  0.00     0.006 A 
ENDBRANCH  60  77
ENDBRANCH  34  35
ENDBRANCH  26  29
ENDBRANCH  24  25
ENDBRANCH  23  24
ENDBRANCH   1  23
TORSDOF 14
ENDMDL
