MODEL 1
REMARK VINA RESULT:     -11.8      0.000      0.000
REMARK SMILES O=C(Cc1ccccc1Nc1c(Cl)cccc1C(F)(F)F)NCCCNC(=O)c1ccc(-c2c3nc(c(-c4c(F)cccc4F)c4ccc([nH]4)c(-c4c(F)cccc4F)c4nc(c(-c5c(F)cccc5F)c5ccc2[nH]5)C=C4)C=C3)cc1
REMARK SMILES IDX 23 1 22 2 1 3 2 4 3 6 4 7 5 8 9 9 6 10 8 11 7 12 10 13 11 15
REMARK SMILES IDX 12 16 17 17 13 18 14 19 16 20 15 21 18 22 19 23 20 24 21 25
REMARK SMILES IDX 24 26 25 27 26 28 27 29 28 31 29 32 30 33 82 34 31 35 81 36
REMARK SMILES IDX 32 37 33 38 34 39 75 40 35 41 80 42 74 43 76 44 36 45 79 46
REMARK SMILES IDX 73 47 72 48 37 50 63 51 46 52 62 53 47 54 50 55 61 56 77 57
REMARK SMILES IDX 48 58 49 59 60 61 78 62 51 63 38 64 39 65 44 66 40 67 41 68
REMARK SMILES IDX 43 69 45 70 42 71 64 72 65 73 70 74 66 75 67 76 69 77 71 78
REMARK SMILES IDX 68 79 52 80 53 81 58 82 54 83 55 84 57 85 59 86 56 87
REMARK H PARENT 22 5 10 14 26 30 76 49 50 60
REMARK Flexibility Score: inf
ROOT
ATOM      1  C   UNL A   1      30.661  32.136  25.713  1.00  0.00     0.117 C 
ENDROOT
BRANCH   1   2
ATOM      2  N   UNL A   1      30.456  31.114  24.703  1.00  0.00    -0.356 N 
ATOM      3  O   UNL A   1      28.784  32.242  23.618  1.00  0.00    -0.275 OA
ATOM      4  C   UNL A   1      29.523  31.266  23.695  1.00  0.00     0.224 C 
ATOM      5  H   UNL A   1      30.996  30.290  24.738  1.00  0.00     0.163 HD
BRANCH   4   6
ATOM      6  C   UNL A   1      29.540  30.178  22.647  1.00  0.00     0.137 C 
BRANCH   6   7
ATOM      7  C   UNL A   1      29.198  28.750  23.057  1.00  0.00    -0.015 A 
ATOM      8  C   UNL A   1      27.813  28.493  23.186  1.00  0.00     0.006 A 
ATOM      9  C   UNL A   1      30.106  27.722  23.405  1.00  0.00     0.042 A 
ATOM     10  C   UNL A   1      27.334  27.285  23.685  1.00  0.00     0.000 A 
ATOM     11  C   UNL A   1      29.600  26.537  23.973  1.00  0.00     0.026 A 
ATOM     12  C   UNL A   1      28.230  26.313  24.101  1.00  0.00     0.002 A 
BRANCH   9  13
ATOM     13  N   UNL A   1      31.496  27.879  23.247  1.00  0.00    -0.354 N 
ATOM     14  H   UNL A   1      31.770  28.718  22.812  1.00  0.00     0.167 HD
BRANCH  13  15
ATOM     15  C   UNL A   1      32.561  27.027  23.614  1.00  0.00     0.070 A 
ATOM     16  C   UNL A   1      32.939  25.955  22.780  1.00  0.00     0.065 A 
ATOM     17  C   UNL A   1      33.157  27.144  24.885  1.00  0.00     0.080 A 
ATOM     18  Cl  UNL A   1      32.318  25.818  21.170  1.00  0.00    -0.082 Cl
ATOM     19  C   UNL A   1      33.817  24.968  23.235  1.00  0.00     0.023 A 
ATOM     20  C   UNL A   1      34.056  26.152  25.320  1.00  0.00     0.015 A 
ATOM     21  C   UNL A   1      34.361  25.057  24.513  1.00  0.00     0.002 A 
BRANCH  17  22
ATOM     22  C   UNL A   1      32.898  28.345  25.762  1.00  0.00     0.418 C 
ATOM     23  F   UNL A   1      33.632  28.331  26.913  1.00  0.00    -0.166 F 
ATOM     24  F   UNL A   1      33.217  29.517  25.145  1.00  0.00    -0.166 F 
ATOM     25  F   UNL A   1      31.603  28.460  26.167  1.00  0.00    -0.166 F 
ENDBRANCH  17  22
ENDBRANCH  13  15
ENDBRANCH   9  13
ENDBRANCH   6   7
ENDBRANCH   4   6
ENDBRANCH   1   2
BRANCH   1  26
ATOM     26  C   UNL A   1      31.549  31.690  26.867  1.00  0.00     0.042 C 
BRANCH  26  27
ATOM     27  C   UNL A   1      32.713  32.618  27.200  1.00  0.00     0.118 C 
BRANCH  27  28
ATOM     28  N   UNL A   1      32.312  33.951  27.618  1.00  0.00    -0.352 N 
ATOM     29  C   UNL A   1      32.925  34.836  28.477  1.00  0.00     0.251 C 
ATOM     30  H   UNL A   1      31.469  34.273  27.225  1.00  0.00     0.163 HD
ATOM     31  O   UNL A   1      32.415  35.930  28.685  1.00  0.00    -0.269 OA
BRANCH  29  32
ATOM     32  C   UNL A   1      34.157  34.449  29.207  1.00  0.00     0.039 A 
ATOM     33  C   UNL A   1      34.011  33.879  30.476  1.00  0.00     0.014 A 
ATOM     34  C   UNL A   1      35.432  34.608  28.660  1.00  0.00     0.014 A 
ATOM     35  C   UNL A   1      35.126  33.369  31.143  1.00  0.00     0.010 A 
ATOM     36  C   UNL A   1      36.535  34.036  29.292  1.00  0.00     0.010 A 
ATOM     37  C   UNL A   1      36.387  33.389  30.527  1.00  0.00    -0.014 A 
BRANCH  37  38
ATOM     38  C   UNL A   1      37.537  32.673  31.134  1.00  0.00     0.031 A 
ATOM     39  C   UNL A   1      38.126  33.127  32.437  1.00  0.00     0.074 A 
ATOM     40  C   UNL A   1      38.091  31.643  30.464  1.00  0.00     0.049 A 
ATOM     41  N   UNL A   1      39.150  32.642  33.092  1.00  0.00    -0.248 NA
ATOM     42  C   UNL A   1      37.498  34.293  33.078  1.00  0.00     0.031 C 
ATOM     43  C   UNL A   1      37.647  31.147  29.159  1.00  0.00     0.029 A 
ATOM     44  N   UNL A   1      39.149  30.831  30.784  1.00  0.00    -0.354 N 
ATOM     45  C   UNL A   1      39.298  33.447  34.214  1.00  0.00     0.074 A 
ATOM     46  C   UNL A   1      38.285  34.478  34.128  1.00  0.00     0.031 C 
ATOM     47  C   UNL A   1      38.409  30.101  28.804  1.00  0.00     0.029 A 
ATOM     48  C   UNL A   1      39.412  29.871  29.837  1.00  0.00     0.049 A 
ATOM     49  H   UNL A   1      39.672  30.928  31.613  1.00  0.00     0.167 HD
ATOM     50  C   UNL A   1      40.184  33.325  35.231  1.00  0.00     0.037 A 
ATOM     51  C   UNL A   1      40.355  28.911  29.806  1.00  0.00     0.037 A 
ATOM     52  C   UNL A   1      41.178  32.288  35.323  1.00  0.00     0.049 A 
ATOM     53  C   UNL A   1      41.311  28.785  30.957  1.00  0.00     0.074 A 
ATOM     54  C   UNL A   1      42.087  32.051  36.339  1.00  0.00     0.029 A 
ATOM     55  N   UNL A   1      41.393  31.314  34.359  1.00  0.00    -0.354 N 
ATOM     56  N   UNL A   1      41.394  29.512  32.044  1.00  0.00    -0.248 NA
ATOM     57  C   UNL A   1      42.299  27.699  30.881  1.00  0.00     0.031 C 
ATOM     58  C   UNL A   1      42.873  30.949  35.976  1.00  0.00     0.029 A 
ATOM     59  C   UNL A   1      42.428  30.481  34.751  1.00  0.00     0.049 A 
ATOM     60  H   UNL A   1      40.884  31.228  33.521  1.00  0.00     0.167 HD
ATOM     61  C   UNL A   1      42.424  28.959  32.792  1.00  0.00     0.074 A 
ATOM     62  C   UNL A   1      42.927  27.827  32.041  1.00  0.00     0.031 C 
ATOM     63  C   UNL A   1      42.911  29.355  33.994  1.00  0.00     0.037 A 
BRANCH  50  64
ATOM     64  C   UNL A   1      40.111  34.343  36.331  1.00  0.00     0.057 A 
ATOM     65  C   UNL A   1      40.843  35.536  36.277  1.00  0.00     0.134 A 
ATOM     66  C   UNL A   1      39.282  34.143  37.441  1.00  0.00     0.134 A 
ATOM     67  F   UNL A   1      41.665  35.783  35.245  1.00  0.00    -0.206 F 
ATOM     68  C   UNL A   1      40.776  36.482  37.302  1.00  0.00     0.040 A 
ATOM     69  C   UNL A   1      39.187  35.091  38.462  1.00  0.00     0.040 A 
ATOM     70  F   UNL A   1      38.549  33.025  37.552  1.00  0.00    -0.206 F 
ATOM     71  C   UNL A   1      39.941  36.262  38.396  1.00  0.00     0.006 A 
ENDBRANCH  50  64
BRANCH  51  72
ATOM     72  C   UNL A   1      40.417  27.970  28.660  1.00  0.00     0.057 A 
ATOM     73  C   UNL A   1      39.730  26.752  28.692  1.00  0.00     0.134 A 
ATOM     74  C   UNL A   1      41.160  28.264  27.512  1.00  0.00     0.134 A 
ATOM     75  F   UNL A   1      39.015  26.409  29.773  1.00  0.00    -0.206 F 
ATOM     76  C   UNL A   1      39.792  25.850  27.629  1.00  0.00     0.040 A 
ATOM     77  C   UNL A   1      41.215  27.380  26.432  1.00  0.00     0.040 A 
ATOM     78  F   UNL A   1      41.834  29.419  27.418  1.00  0.00    -0.206 F 
ATOM     79  C   UNL A   1      40.534  26.166  26.492  1.00  0.00     0.006 A 
ENDBRANCH  51  72
BRANCH  63  80
ATOM     80  C   UNL A   1      44.022  28.538  34.579  1.00  0.00     0.057 A 
ATOM     81  C   UNL A   1      45.367  28.852  34.352  1.00  0.00     0.134 A 
ATOM     82  C   UNL A   1      43.741  27.439  35.400  1.00  0.00     0.134 A 
ATOM     83  F   UNL A   1      45.700  29.884  33.562  1.00  0.00    -0.206 F 
ATOM     84  C   UNL A   1      46.397  28.088  34.904  1.00  0.00     0.040 A 
ATOM     85  C   UNL A   1      44.762  26.681  35.976  1.00  0.00     0.040 A 
ATOM     86  F   UNL A   1      42.473  27.089  35.661  1.00  0.00    -0.206 F 
ATOM     87  C   UNL A   1      46.093  27.002  35.724  1.00  0.00     0.006 A 
ENDBRANCH  63  80
ENDBRANCH  37  38
ENDBRANCH  29  32
ENDBRANCH  27  28
ENDBRANCH  26  27
ENDBRANCH   1  26
TORSDOF 14
ENDMDL
MODEL 2
REMARK VINA RESULT:     -11.7      4.765      9.287
REMARK SMILES O=C(Cc1ccccc1Nc1c(Cl)cccc1C(F)(F)F)NCCCNC(=O)c1ccc(-c2c3nc(c(-c4c(F)cccc4F)c4ccc([nH]4)c(-c4c(F)cccc4F)c4nc(c(-c5c(F)cccc5F)c5ccc2[nH]5)C=C4)C=C3)cc1
REMARK SMILES IDX 23 1 22 2 1 3 2 4 3 6 4 7 5 8 9 9 6 10 8 11 7 12 10 13 11 15
REMARK SMILES IDX 12 16 17 17 13 18 14 19 16 20 15 21 18 22 19 23 20 24 21 25
REMARK SMILES IDX 24 26 25 27 26 28 27 29 28 31 29 32 30 33 82 34 31 35 81 36
REMARK SMILES IDX 32 37 33 38 34 39 75 40 35 41 80 42 74 43 76 44 36 45 79 46
REMARK SMILES IDX 73 47 72 48 37 50 63 51 46 52 62 53 47 54 50 55 61 56 77 57
REMARK SMILES IDX 48 58 49 59 60 61 78 62 51 63 38 64 39 65 44 66 40 67 41 68
REMARK SMILES IDX 43 69 45 70 42 71 64 72 65 73 70 74 66 75 67 76 69 77 71 78
REMARK SMILES IDX 68 79 52 80 53 81 58 82 54 83 55 84 57 85 59 86 56 87
REMARK H PARENT 22 5 10 14 26 30 76 49 50 60
REMARK Flexibility Score: inf
ROOT
ATOM      1  C   UNL A   1      37.119  21.764  24.106  1.00  0.00     0.117 C 
ENDROOT
BRANCH   1   2
ATOM      2  N   UNL A   1      36.575  22.856  24.891  1.00  0.00    -0.356 N 
ATOM      3  O   UNL A   1      34.911  23.357  23.398  1.00  0.00    -0.275 OA
ATOM      4  C   UNL A   1      35.468  23.570  24.470  1.00  0.00     0.224 C 
ATOM      5  H   UNL A   1      37.004  23.096  25.744  1.00  0.00     0.163 HD
BRANCH   4   6
ATOM      6  C   UNL A   1      34.944  24.574  25.470  1.00  0.00     0.137 C 
BRANCH   6   7
ATOM      7  C   UNL A   1      33.496  24.469  25.934  1.00  0.00    -0.015 A 
ATOM      8  C   UNL A   1      33.204  23.305  26.685  1.00  0.00     0.006 A 
ATOM      9  C   UNL A   1      32.432  25.344  25.612  1.00  0.00     0.042 A 
ATOM     10  C   UNL A   1      31.903  22.986  27.066  1.00  0.00     0.000 A 
ATOM     11  C   UNL A   1      31.119  24.964  25.947  1.00  0.00     0.026 A 
ATOM     12  C   UNL A   1      30.855  23.805  26.678  1.00  0.00     0.002 A 
BRANCH   9  13
ATOM     13  N   UNL A   1      32.651  26.551  24.921  1.00  0.00    -0.354 N 
ATOM     14  H   UNL A   1      33.598  26.783  24.786  1.00  0.00     0.167 HD
BRANCH  13  15
ATOM     15  C   UNL A   1      31.731  27.481  24.389  1.00  0.00     0.070 A 
ATOM     16  C   UNL A   1      31.220  27.317  23.085  1.00  0.00     0.065 A 
ATOM     17  C   UNL A   1      31.430  28.664  25.094  1.00  0.00     0.080 A 
ATOM     18  Cl  UNL A   1      31.471  25.844  22.210  1.00  0.00    -0.082 Cl
ATOM     19  C   UNL A   1      30.508  28.343  22.459  1.00  0.00     0.023 A 
ATOM     20  C   UNL A   1      30.693  29.679  24.456  1.00  0.00     0.015 A 
ATOM     21  C   UNL A   1      30.261  29.531  23.139  1.00  0.00     0.002 A 
BRANCH  17  22
ATOM     22  C   UNL A   1      31.829  28.834  26.540  1.00  0.00     0.418 C 
ATOM     23  F   UNL A   1      33.170  28.675  26.743  1.00  0.00    -0.166 F 
ATOM     24  F   UNL A   1      31.537  30.077  27.016  1.00  0.00    -0.166 F 
ATOM     25  F   UNL A   1      31.233  27.946  27.382  1.00  0.00    -0.166 F 
ENDBRANCH  17  22
ENDBRANCH  13  15
ENDBRANCH   9  13
ENDBRANCH   6   7
ENDBRANCH   4   6
ENDBRANCH   1   2
BRANCH   1  26
ATOM     26  C   UNL A   1      37.525  20.553  24.938  1.00  0.00     0.042 C 
BRANCH  26  27
ATOM     27  C   UNL A   1      38.745  20.747  25.832  1.00  0.00     0.118 C 
BRANCH  27  28
ATOM     28  N   UNL A   1      39.779  19.740  25.654  1.00  0.00    -0.352 N 
ATOM     29  C   UNL A   1      41.111  19.761  26.005  1.00  0.00     0.251 C 
ATOM     30  H   UNL A   1      39.481  18.913  25.213  1.00  0.00     0.163 HD
ATOM     31  O   UNL A   1      41.814  18.786  25.771  1.00  0.00    -0.269 OA
BRANCH  29  32
ATOM     32  C   UNL A   1      41.716  20.977  26.600  1.00  0.00     0.039 A 
ATOM     33  C   UNL A   1      42.226  21.945  25.728  1.00  0.00     0.014 A 
ATOM     34  C   UNL A   1      41.764  21.193  27.979  1.00  0.00     0.014 A 
ATOM     35  C   UNL A   1      42.676  23.167  26.229  1.00  0.00     0.010 A 
ATOM     36  C   UNL A   1      42.146  22.439  28.474  1.00  0.00     0.010 A 
ATOM     37  C   UNL A   1      42.580  23.445  27.601  1.00  0.00    -0.014 A 
BRANCH  37  38
ATOM     38  C   UNL A   1      42.865  24.807  28.118  1.00  0.00     0.031 A 
ATOM     39  C   UNL A   1      44.255  25.205  28.519  1.00  0.00     0.074 A 
ATOM     40  C   UNL A   1      41.841  25.668  28.286  1.00  0.00     0.049 A 
ATOM     41  N   UNL A   1      44.675  26.337  29.022  1.00  0.00    -0.248 NA
ATOM     42  C   UNL A   1      45.307  24.190  28.356  1.00  0.00     0.031 C 
ATOM     43  C   UNL A   1      40.435  25.377  27.991  1.00  0.00     0.029 A 
ATOM     44  N   UNL A   1      41.821  26.958  28.750  1.00  0.00    -0.354 N 
ATOM     45  C   UNL A   1      46.035  26.170  29.247  1.00  0.00     0.074 A 
ATOM     46  C   UNL A   1      46.361  24.812  28.866  1.00  0.00     0.031 C 
ATOM     47  C   UNL A   1      39.696  26.465  28.255  1.00  0.00     0.029 A 
ATOM     48  C   UNL A   1      40.567  27.519  28.766  1.00  0.00     0.049 A 
ATOM     49  H   UNL A   1      42.629  27.438  29.045  1.00  0.00     0.167 HD
ATOM     50  C   UNL A   1      46.933  27.073  29.709  1.00  0.00     0.037 A 
ATOM     51  C   UNL A   1      40.162  28.745  29.146  1.00  0.00     0.037 A 
ATOM     52  C   UNL A   1      46.611  28.429  30.070  1.00  0.00     0.049 A 
ATOM     53  C   UNL A   1      41.182  29.733  29.635  1.00  0.00     0.074 A 
ATOM     54  C   UNL A   1      47.459  29.434  30.500  1.00  0.00     0.029 A 
ATOM     55  N   UNL A   1      45.333  28.969  30.042  1.00  0.00    -0.354 N 
ATOM     56  N   UNL A   1      42.476  29.582  29.778  1.00  0.00    -0.248 NA
ATOM     57  C   UNL A   1      40.686  31.066  30.009  1.00  0.00     0.031 C 
ATOM     58  C   UNL A   1      46.690  30.575  30.761  1.00  0.00     0.029 A 
ATOM     59  C   UNL A   1      45.370  30.290  30.459  1.00  0.00     0.049 A 
ATOM     60  H   UNL A   1      44.522  28.486  29.766  1.00  0.00     0.167 HD
ATOM     61  C   UNL A   1      42.953  30.803  30.232  1.00  0.00     0.074 A 
ATOM     62  C   UNL A   1      41.811  31.689  30.329  1.00  0.00     0.031 C 
ATOM     63  C   UNL A   1      44.224  31.159  30.543  1.00  0.00     0.037 A 
BRANCH  50  64
ATOM     64  C   UNL A   1      48.356  26.618  29.846  1.00  0.00     0.057 A 
ATOM     65  C   UNL A   1      49.300  26.844  28.835  1.00  0.00     0.134 A 
ATOM     66  C   UNL A   1      48.794  25.971  31.007  1.00  0.00     0.134 A 
ATOM     67  F   UNL A   1      48.941  27.448  27.692  1.00  0.00    -0.206 F 
ATOM     68  C   UNL A   1      50.623  26.417  28.963  1.00  0.00     0.040 A 
ATOM     69  C   UNL A   1      50.121  25.560  31.157  1.00  0.00     0.040 A 
ATOM     70  F   UNL A   1      47.944  25.729  32.015  1.00  0.00    -0.206 F 
ATOM     71  C   UNL A   1      51.038  25.778  30.130  1.00  0.00     0.006 A 
ENDBRANCH  50  64
BRANCH  51  72
ATOM     72  C   UNL A   1      38.730  29.118  29.047  1.00  0.00     0.057 A 
ATOM     73  C   UNL A   1      37.888  29.039  30.161  1.00  0.00     0.134 A 
ATOM     74  C   UNL A   1      38.171  29.561  27.843  1.00  0.00     0.134 A 
ATOM     75  F   UNL A   1      38.364  28.605  31.337  1.00  0.00    -0.206 F 
ATOM     76  C   UNL A   1      36.535  29.371  30.080  1.00  0.00     0.040 A 
ATOM     77  C   UNL A   1      36.824  29.916  27.752  1.00  0.00     0.040 A 
ATOM     78  F   UNL A   1      38.929  29.666  26.742  1.00  0.00    -0.206 F 
ATOM     79  C   UNL A   1      36.000  29.815  28.872  1.00  0.00     0.006 A 
ENDBRANCH  51  72
BRANCH  63  80
ATOM     80  C   UNL A   1      44.444  32.573  30.987  1.00  0.00     0.057 A 
ATOM     81  C   UNL A   1      44.406  32.937  32.338  1.00  0.00     0.134 A 
ATOM     82  C   UNL A   1      44.723  33.577  30.051  1.00  0.00     0.134 A 
ATOM     83  F   UNL A   1      44.129  32.023  33.280  1.00  0.00    -0.206 F 
ATOM     84  C   UNL A   1      44.616  34.256  32.743  1.00  0.00     0.040 A 
ATOM     85  C   UNL A   1      44.957  34.895  30.446  1.00  0.00     0.040 A 
ATOM     86  F   UNL A   1      44.779  33.292  28.741  1.00  0.00    -0.206 F 
ATOM     87  C   UNL A   1      44.899  35.238  31.794  1.00  0.00     0.006 A 
ENDBRANCH  63  80
ENDBRANCH  37  38
ENDBRANCH  29  32
ENDBRANCH  27  28
ENDBRANCH  26  27
ENDBRANCH   1  26
TORSDOF 14
ENDMDL
MODEL 3
REMARK VINA RESULT:     -11.7      1.730      2.061
REMARK SMILES O=C(Cc1ccccc1Nc1c(Cl)cccc1C(F)(F)F)NCCCNC(=O)c1ccc(-c2c3nc(c(-c4c(F)cccc4F)c4ccc([nH]4)c(-c4c(F)cccc4F)c4nc(c(-c5c(F)cccc5F)c5ccc2[nH]5)C=C4)C=C3)cc1
REMARK SMILES IDX 23 1 22 2 1 3 2 4 3 6 4 7 5 8 9 9 6 10 8 11 7 12 10 13 11 15
REMARK SMILES IDX 12 16 17 17 13 18 14 19 16 20 15 21 18 22 19 23 20 24 21 25
REMARK SMILES IDX 24 26 25 27 26 28 27 29 28 31 29 32 30 33 82 34 31 35 81 36
REMARK SMILES IDX 32 37 33 38 34 39 75 40 35 41 80 42 74 43 76 44 36 45 79 46
REMARK SMILES IDX 73 47 72 48 37 50 63 51 46 52 62 53 47 54 50 55 61 56 77 57
REMARK SMILES IDX 48 58 49 59 60 61 78 62 51 63 38 64 39 65 44 66 40 67 41 68
REMARK SMILES IDX 43 69 45 70 42 71 64 72 65 73 70 74 66 75 67 76 69 77 71 78
REMARK SMILES IDX 68 79 52 80 53 81 58 82 54 83 55 84 57 85 59 86 56 87
REMARK H PARENT 22 5 10 14 26 30 76 49 50 60
REMARK Flexibility Score: inf
ROOT
ATOM      1  C   UNL A   1      32.164  30.508  26.634  1.00  0.00     0.117 C 
ENDROOT
BRANCH   1   2
ATOM      2  N   UNL A   1      31.725  30.099  25.312  1.00  0.00    -0.356 N 
ATOM      3  O   UNL A   1      33.654  28.971  24.807  1.00  0.00    -0.275 OA
ATOM      4  C   UNL A   1      32.521  29.321  24.493  1.00  0.00     0.224 C 
ATOM      5  H   UNL A   1      30.838  30.382  24.992  1.00  0.00     0.163 HD
BRANCH   4   6
ATOM      6  C   UNL A   1      31.858  28.863  23.215  1.00  0.00     0.137 C 
BRANCH   6   7
ATOM      7  C   UNL A   1      30.558  28.071  23.299  1.00  0.00    -0.015 A 
ATOM      8  C   UNL A   1      29.398  28.811  22.968  1.00  0.00     0.006 A 
ATOM      9  C   UNL A   1      30.398  26.742  23.756  1.00  0.00     0.042 A 
ATOM     10  C   UNL A   1      28.120  28.281  23.125  1.00  0.00     0.000 A 
ATOM     11  C   UNL A   1      29.095  26.254  23.974  1.00  0.00     0.026 A 
ATOM     12  C   UNL A   1      27.967  27.008  23.651  1.00  0.00     0.002 A 
BRANCH   9  13
ATOM     13  N   UNL A   1      31.504  25.922  24.047  1.00  0.00    -0.354 N 
ATOM     14  H   UNL A   1      32.198  26.346  24.602  1.00  0.00     0.167 HD
BRANCH  13  15
ATOM     15  C   UNL A   1      31.779  24.588  23.673  1.00  0.00     0.070 A 
ATOM     16  C   UNL A   1      31.541  23.529  24.573  1.00  0.00     0.065 A 
ATOM     17  C   UNL A   1      32.435  24.314  22.457  1.00  0.00     0.080 A 
ATOM     18  Cl  UNL A   1      30.649  23.787  26.035  1.00  0.00    -0.082 Cl
ATOM     19  C   UNL A   1      32.029  22.246  24.316  1.00  0.00     0.023 A 
ATOM     20  C   UNL A   1      32.902  23.010  22.203  1.00  0.00     0.015 A 
ATOM     21  C   UNL A   1      32.725  21.991  23.138  1.00  0.00     0.002 A 
BRANCH  17  22
ATOM     22  C   UNL A   1      32.591  25.376  21.396  1.00  0.00     0.418 C 
ATOM     23  F   UNL A   1      33.097  24.888  20.226  1.00  0.00    -0.166 F 
ATOM     24  F   UNL A   1      31.403  25.954  21.063  1.00  0.00    -0.166 F 
ATOM     25  F   UNL A   1      33.429  26.389  21.752  1.00  0.00    -0.166 F 
ENDBRANCH  17  22
ENDBRANCH  13  15
ENDBRANCH   9  13
ENDBRANCH   6   7
ENDBRANCH   4   6
ENDBRANCH   1   2
BRANCH   1  26
ATOM     26  C   UNL A   1      31.750  31.926  27.006  1.00  0.00     0.042 C 
BRANCH  26  27
ATOM     27  C   UNL A   1      32.894  32.904  27.253  1.00  0.00     0.118 C 
BRANCH  27  28
ATOM     28  N   UNL A   1      32.469  34.210  27.728  1.00  0.00    -0.352 N 
ATOM     29  C   UNL A   1      33.043  35.049  28.658  1.00  0.00     0.251 C 
ATOM     30  H   UNL A   1      31.640  34.550  27.321  1.00  0.00     0.163 HD
ATOM     31  O   UNL A   1      32.519  36.128  28.905  1.00  0.00    -0.269 OA
BRANCH  29  32
ATOM     32  C   UNL A   1      34.248  34.627  29.413  1.00  0.00     0.039 A 
ATOM     33  C   UNL A   1      34.069  34.162  30.720  1.00  0.00     0.014 A 
ATOM     34  C   UNL A   1      35.528  34.653  28.855  1.00  0.00     0.014 A 
ATOM     35  C   UNL A   1      35.148  33.621  31.421  1.00  0.00     0.010 A 
ATOM     36  C   UNL A   1      36.591  34.049  29.527  1.00  0.00     0.010 A 
ATOM     37  C   UNL A   1      36.403  33.505  30.804  1.00  0.00    -0.014 A 
BRANCH  37  38
ATOM     38  C   UNL A   1      37.501  32.753  31.461  1.00  0.00     0.031 A 
ATOM     39  C   UNL A   1      38.036  33.179  32.797  1.00  0.00     0.074 A 
ATOM     40  C   UNL A   1      38.061  31.714  30.810  1.00  0.00     0.049 A 
ATOM     41  N   UNL A   1      39.013  32.661  33.497  1.00  0.00    -0.248 NA
ATOM     42  C   UNL A   1      37.408  34.356  33.418  1.00  0.00     0.031 C 
ATOM     43  C   UNL A   1      37.670  31.241  29.479  1.00  0.00     0.029 A 
ATOM     44  N   UNL A   1      39.080  30.871  31.173  1.00  0.00    -0.354 N 
ATOM     45  C   UNL A   1      39.126  33.451  34.633  1.00  0.00     0.074 A 
ATOM     46  C   UNL A   1      38.146  34.510  34.507  1.00  0.00     0.031 C 
ATOM     47  C   UNL A   1      38.420  30.178  29.151  1.00  0.00     0.029 A 
ATOM     48  C   UNL A   1      39.364  29.912  30.231  1.00  0.00     0.049 A 
ATOM     49  H   UNL A   1      39.563  30.946  32.029  1.00  0.00     0.167 HD
ATOM     50  C   UNL A   1      39.956  33.296  35.692  1.00  0.00     0.037 A 
ATOM     51  C   UNL A   1      40.281  28.927  30.237  1.00  0.00     0.037 A 
ATOM     52  C   UNL A   1      40.916  32.232  35.823  1.00  0.00     0.049 A 
ATOM     53  C   UNL A   1      41.174  28.765  31.433  1.00  0.00     0.074 A 
ATOM     54  C   UNL A   1      41.766  31.961  36.881  1.00  0.00     0.029 A 
ATOM     55  N   UNL A   1      41.153  31.261  34.861  1.00  0.00    -0.354 N 
ATOM     56  N   UNL A   1      41.223  29.480  32.531  1.00  0.00    -0.248 NA
ATOM     57  C   UNL A   1      42.136  27.653  31.396  1.00  0.00     0.031 C 
ATOM     58  C   UNL A   1      42.540  30.842  36.546  1.00  0.00     0.029 A 
ATOM     59  C   UNL A   1      42.144  30.397  35.296  1.00  0.00     0.049 A 
ATOM     60  H   UNL A   1      40.685  31.196  33.998  1.00  0.00     0.167 HD
ATOM     61  C   UNL A   1      42.198  28.893  33.324  1.00  0.00     0.074 A 
ATOM     62  C   UNL A   1      42.708  27.754  32.588  1.00  0.00     0.031 C 
ATOM     63  C   UNL A   1      42.635  29.265  34.552  1.00  0.00     0.037 A 
BRANCH  50  64
ATOM     64  C   UNL A   1      39.854  34.306  36.797  1.00  0.00     0.057 A 
ATOM     65  C   UNL A   1      40.562  35.515  36.754  1.00  0.00     0.134 A 
ATOM     66  C   UNL A   1      39.024  34.082  37.901  1.00  0.00     0.134 A 
ATOM     67  F   UNL A   1      41.385  35.785  35.729  1.00  0.00    -0.206 F 
ATOM     68  C   UNL A   1      40.468  36.453  37.784  1.00  0.00     0.040 A 
ATOM     69  C   UNL A   1      38.903  35.023  38.926  1.00  0.00     0.040 A 
ATOM     70  F   UNL A   1      38.314  32.948  38.001  1.00  0.00    -0.206 F 
ATOM     71  C   UNL A   1      39.632  36.209  38.872  1.00  0.00     0.006 A 
ENDBRANCH  50  64
BRANCH  51  72
ATOM     72  C   UNL A   1      40.376  27.995  29.087  1.00  0.00     0.057 A 
ATOM     73  C   UNL A   1      39.668  26.789  29.079  1.00  0.00     0.134 A 
ATOM     74  C   UNL A   1      41.172  28.286  27.973  1.00  0.00     0.134 A 
ATOM     75  F   UNL A   1      38.902  26.449  30.126  1.00  0.00    -0.206 F 
ATOM     76  C   UNL A   1      39.760  25.895  28.011  1.00  0.00     0.040 A 
ATOM     77  C   UNL A   1      41.257  27.411  26.889  1.00  0.00     0.040 A 
ATOM     78  F   UNL A   1      41.868  29.430  27.918  1.00  0.00    -0.206 F 
ATOM     79  C   UNL A   1      40.554  26.207  26.909  1.00  0.00     0.006 A 
ENDBRANCH  51  72
BRANCH  63  80
ATOM     80  C   UNL A   1      43.693  28.413  35.184  1.00  0.00     0.057 A 
ATOM     81  C   UNL A   1      45.055  28.620  34.933  1.00  0.00     0.134 A 
ATOM     82  C   UNL A   1      43.345  27.389  36.074  1.00  0.00     0.134 A 
ATOM     83  F   UNL A   1      45.450  29.575  34.077  1.00  0.00    -0.206 F 
ATOM     84  C   UNL A   1      46.034  27.824  35.528  1.00  0.00     0.040 A 
ATOM     85  C   UNL A   1      44.317  26.601  36.693  1.00  0.00     0.040 A 
ATOM     86  F   UNL A   1      42.058  27.144  36.361  1.00  0.00    -0.206 F 
ATOM     87  C   UNL A   1      45.665  26.815  36.416  1.00  0.00     0.006 A 
ENDBRANCH  63  80
ENDBRANCH  37  38
ENDBRANCH  29  32
ENDBRANCH  27  28
ENDBRANCH  26  27
ENDBRANCH   1  26
TORSDOF 14
ENDMDL
