MODEL 1
REMARK VINA RESULT:     -12.4      0.000      0.000
REMARK SMILES Cc1cc(OC(F)(F)F)cc2c1O[C@H](C(F)(F)F)C(C(=O)NCCCNC(=O)c1ccc(-c3c4nc(c(-c5c(F)cccc5F)c5ccc([nH]5)c(-c5c(F)cccc5F)c5nc(c(-c6c(F)cccc6F)c6ccc3[nH]6)C=C5)C=C4)cc1)=C2
REMARK SMILES IDX 24 1 23 2 22 3 20 4 21 5 19 7 1 8 2 9 3 10 12 11 4 12 11 13
REMARK SMILES IDX 13 14 10 15 83 16 14 17 5 18 6 19 7 20 8 21 9 22 15 23 16 24
REMARK SMILES IDX 17 25 18 26 25 27 26 28 27 29 28 31 29 32 30 33 82 34 31 35
REMARK SMILES IDX 81 36 32 37 33 38 34 39 75 40 35 41 80 42 74 43 76 44 36 45
REMARK SMILES IDX 79 46 73 47 72 48 37 50 63 51 46 52 62 53 47 54 50 55 61 56
REMARK SMILES IDX 77 57 48 58 49 59 60 61 78 62 51 63 38 64 39 65 44 66 40 67
REMARK SMILES IDX 41 68 43 69 45 70 42 71 64 72 65 73 70 74 66 75 67 76 69 77
REMARK SMILES IDX 71 78 68 79 52 80 53 81 58 82 54 83 55 84 57 85 59 86 56 87
REMARK H PARENT 22 6 26 30 76 49 50 60
REMARK Flexibility Score: inf
ROOT
ATOM      1  C   UNL A   1      37.785  19.600  24.994  1.00  0.00     0.042 C 
ENDROOT
BRANCH   1   2
ATOM      2  C   UNL A   1      36.731  20.657  24.696  1.00  0.00     0.118 C 
BRANCH   2   3
ATOM      3  N   UNL A   1      35.785  20.797  25.792  1.00  0.00    -0.352 N 
ATOM      4  C   UNL A   1      34.780  21.636  26.135  1.00  0.00     0.251 C 
ATOM      5  O   UNL A   1      34.225  21.377  27.208  1.00  0.00    -0.270 OA
ATOM      6  H   UNL A   1      35.909  20.091  26.467  1.00  0.00     0.163 HD
BRANCH   4   7
ATOM      7  C   UNL A   1      34.324  22.804  25.329  1.00  0.00     0.067 C 
ATOM      8  C   UNL A   1      33.026  26.096  21.604  1.00  0.00     0.048 C 
ATOM      9  C   UNL A   1      33.277  26.190  23.082  1.00  0.00    -0.005 A 
ATOM     10  C   UNL A   1      33.132  27.425  23.734  1.00  0.00     0.054 A 
ATOM     11  C   UNL A   1      33.698  25.081  23.824  1.00  0.00     0.131 A 
ATOM     12  C   UNL A   1      33.388  27.545  25.103  1.00  0.00     0.130 A 
ATOM     13  C   UNL A   1      33.953  25.184  25.193  1.00  0.00     0.021 A 
ATOM     14  O   UNL A   1      33.895  23.909  23.148  1.00  0.00    -0.475 OA
ATOM     15  C   UNL A   1      33.796  26.418  25.827  1.00  0.00     0.058 A 
ATOM     16  C   UNL A   1      34.410  24.007  25.926  1.00  0.00     0.025 C 
ATOM     17  C   UNL A   1      33.767  22.701  23.940  1.00  0.00     0.314 C 
BRANCH  12  18
ATOM     18  O   UNL A   1      33.288  28.688  25.845  1.00  0.00    -0.406 OA
BRANCH  18  19
ATOM     19  C   UNL A   1      31.993  29.098  26.249  1.00  0.00     0.573 C 
ATOM     20  F   UNL A   1      31.174  28.036  26.416  1.00  0.00    -0.132 F 
ATOM     21  F   UNL A   1      32.043  29.812  27.394  1.00  0.00    -0.132 F 
ATOM     22  F   UNL A   1      31.465  29.886  25.286  1.00  0.00    -0.132 F 
ENDBRANCH  18  19
ENDBRANCH  12  18
BRANCH  17  23
ATOM     23  C   UNL A   1      32.303  22.218  23.917  1.00  0.00     0.429 C 
ATOM     24  F   UNL A   1      31.627  22.815  22.903  1.00  0.00    -0.167 F 
ATOM     25  F   UNL A   1      32.199  20.883  23.713  1.00  0.00    -0.167 F 
ATOM     26  F   UNL A   1      31.640  22.491  25.063  1.00  0.00    -0.167 F 
ENDBRANCH  17  23
ENDBRANCH   4   7
ENDBRANCH   2   3
ENDBRANCH   1   2
BRANCH   1  27
ATOM     27  C   UNL A   1      38.953  20.174  25.786  1.00  0.00     0.118 C 
BRANCH  27  28
ATOM     28  N   UNL A   1      40.032  19.200  25.927  1.00  0.00    -0.352 N 
ATOM     29  C   UNL A   1      41.378  19.406  26.085  1.00  0.00     0.251 C 
ATOM     30  H   UNL A   1      39.751  18.256  25.905  1.00  0.00     0.163 HD
ATOM     31  O   UNL A   1      42.173  18.491  25.888  1.00  0.00    -0.269 OA
BRANCH  29  32
ATOM     32  C   UNL A   1      41.865  20.733  26.499  1.00  0.00     0.039 A 
ATOM     33  C   UNL A   1      42.030  21.017  27.857  1.00  0.00     0.014 A 
ATOM     34  C   UNL A   1      42.131  21.706  25.532  1.00  0.00     0.014 A 
ATOM     35  C   UNL A   1      42.516  22.266  28.242  1.00  0.00     0.010 A 
ATOM     36  C   UNL A   1      42.689  22.916  25.909  1.00  0.00     0.010 A 
ATOM     37  C   UNL A   1      42.865  23.214  27.268  1.00  0.00    -0.014 A 
BRANCH  37  38
ATOM     38  C   UNL A   1      43.360  24.557  27.641  1.00  0.00     0.031 A 
ATOM     39  C   UNL A   1      42.376  25.622  28.031  1.00  0.00     0.074 A 
ATOM     40  C   UNL A   1      44.673  24.837  27.547  1.00  0.00     0.049 A 
ATOM     41  N   UNL A   1      42.585  26.879  28.322  1.00  0.00    -0.248 NA
ATOM     42  C   UNL A   1      40.958  25.224  28.062  1.00  0.00     0.031 C 
ATOM     43  C   UNL A   1      45.711  23.898  27.124  1.00  0.00     0.029 A 
ATOM     44  N   UNL A   1      45.351  26.004  27.784  1.00  0.00    -0.354 N 
ATOM     45  C   UNL A   1      41.330  27.422  28.559  1.00  0.00     0.074 A 
ATOM     46  C   UNL A   1      40.360  26.378  28.311  1.00  0.00     0.031 C 
ATOM     47  C   UNL A   1      46.899  24.524  27.138  1.00  0.00     0.029 A 
ATOM     48  C   UNL A   1      46.700  25.911  27.546  1.00  0.00     0.049 A 
ATOM     49  H   UNL A   1      44.914  26.829  28.096  1.00  0.00     0.167 HD
ATOM     50  C   UNL A   1      41.014  28.671  28.973  1.00  0.00     0.037 A 
ATOM     51  C   UNL A   1      47.661  26.848  27.641  1.00  0.00     0.037 A 
ATOM     52  C   UNL A   1      41.986  29.700  29.227  1.00  0.00     0.049 A 
ATOM     53  C   UNL A   1      47.289  28.232  28.095  1.00  0.00     0.074 A 
ATOM     54  C   UNL A   1      41.786  30.978  29.716  1.00  0.00     0.029 A 
ATOM     55  N   UNL A   1      43.348  29.565  28.998  1.00  0.00    -0.354 N 
ATOM     56  N   UNL A   1      46.108  28.712  28.407  1.00  0.00    -0.248 NA
ATOM     57  C   UNL A   1      48.385  29.202  28.220  1.00  0.00     0.031 C 
ATOM     58  C   UNL A   1      43.023  31.633  29.737  1.00  0.00     0.029 A 
ATOM     59  C   UNL A   1      43.999  30.747  29.307  1.00  0.00     0.049 A 
ATOM     60  H   UNL A   1      43.786  28.749  28.664  1.00  0.00     0.167 HD
ATOM     61  C   UNL A   1      46.321  30.031  28.784  1.00  0.00     0.074 A 
ATOM     62  C   UNL A   1      47.746  30.270  28.679  1.00  0.00     0.031 C 
ATOM     63  C   UNL A   1      45.419  30.963  29.183  1.00  0.00     0.037 A 
BRANCH  50  64
ATOM     64  C   UNL A   1      39.556  28.976  29.162  1.00  0.00     0.057 A 
ATOM     65  C   UNL A   1      38.767  29.394  28.084  1.00  0.00     0.134 A 
ATOM     66  C   UNL A   1      38.923  28.826  30.405  1.00  0.00     0.134 A 
ATOM     67  F   UNL A   1      39.306  29.561  26.868  1.00  0.00    -0.206 F 
ATOM     68  C   UNL A   1      37.400  29.638  28.232  1.00  0.00     0.040 A 
ATOM     69  C   UNL A   1      37.552  29.037  30.559  1.00  0.00     0.040 A 
ATOM     70  F   UNL A   1      39.618  28.412  31.476  1.00  0.00    -0.206 F 
ATOM     71  C   UNL A   1      36.786  29.446  29.470  1.00  0.00     0.006 A 
ENDBRANCH  50  64
BRANCH  51  72
ATOM     72  C   UNL A   1      49.068  26.499  27.325  1.00  0.00     0.057 A 
ATOM     73  C   UNL A   1      49.919  25.948  28.291  1.00  0.00     0.134 A 
ATOM     74  C   UNL A   1      49.594  26.714  26.047  1.00  0.00     0.134 A 
ATOM     75  F   UNL A   1      49.477  25.728  29.538  1.00  0.00    -0.206 F 
ATOM     76  C   UNL A   1      51.245  25.627  27.998  1.00  0.00     0.040 A 
ATOM     77  C   UNL A   1      50.912  26.377  25.734  1.00  0.00     0.040 A 
ATOM     78  F   UNL A   1      48.822  27.224  25.077  1.00  0.00    -0.206 F 
ATOM     79  C   UNL A   1      51.743  25.836  26.712  1.00  0.00     0.006 A 
ENDBRANCH  51  72
BRANCH  63  80
ATOM     80  C   UNL A   1      45.958  32.315  29.549  1.00  0.00     0.057 A 
ATOM     81  C   UNL A   1      46.076  33.321  28.582  1.00  0.00     0.134 A 
ATOM     82  C   UNL A   1      46.385  32.612  30.850  1.00  0.00     0.134 A 
ATOM     83  F   UNL A   1      45.693  33.098  27.316  1.00  0.00    -0.206 F 
ATOM     84  C   UNL A   1      46.602  34.575  28.895  1.00  0.00     0.040 A 
ATOM     85  C   UNL A   1      46.885  33.872  31.182  1.00  0.00     0.040 A 
ATOM     86  F   UNL A   1      46.283  31.696  31.824  1.00  0.00    -0.206 F 
ATOM     87  C   UNL A   1      47.001  34.856  30.201  1.00  0.00     0.006 A 
ENDBRANCH  63  80
ENDBRANCH  37  38
ENDBRANCH  29  32
ENDBRANCH  27  28
ENDBRANCH   1  27
TORSDOF 13
ENDMDL
MODEL 2
REMARK VINA RESULT:     -12.4      0.404      1.475
REMARK SMILES Cc1cc(OC(F)(F)F)cc2c1O[C@H](C(F)(F)F)C(C(=O)NCCCNC(=O)c1ccc(-c3c4nc(c(-c5c(F)cccc5F)c5ccc([nH]5)c(-c5c(F)cccc5F)c5nc(c(-c6c(F)cccc6F)c6ccc3[nH]6)C=C5)C=C4)cc1)=C2
REMARK SMILES IDX 24 1 23 2 22 3 20 4 21 5 19 7 1 8 2 9 3 10 12 11 4 12 11 13
REMARK SMILES IDX 13 14 10 15 83 16 14 17 5 18 6 19 7 20 8 21 9 22 15 23 16 24
REMARK SMILES IDX 17 25 18 26 25 27 26 28 27 29 28 31 29 32 30 33 82 34 31 35
REMARK SMILES IDX 81 36 32 37 33 38 34 39 75 40 35 41 80 42 74 43 76 44 36 45
REMARK SMILES IDX 79 46 73 47 72 48 37 50 63 51 46 52 62 53 47 54 50 55 61 56
REMARK SMILES IDX 77 57 48 58 49 59 60 61 78 62 51 63 38 64 39 65 44 66 40 67
REMARK SMILES IDX 41 68 43 69 45 70 42 71 64 72 65 73 70 74 66 75 67 76 69 77
REMARK SMILES IDX 71 78 68 79 52 80 53 81 58 82 54 83 55 84 57 85 59 86 56 87
REMARK H PARENT 22 6 26 30 76 49 50 60
REMARK Flexibility Score: inf
ROOT
ATOM      1  C   UNL A   1      37.834  19.529  24.927  1.00  0.00     0.042 C 
ENDROOT
BRANCH   1   2
ATOM      2  C   UNL A   1      36.787  20.594  24.631  1.00  0.00     0.118 C 
BRANCH   2   3
ATOM      3  N   UNL A   1      35.893  20.797  25.761  1.00  0.00    -0.352 N 
ATOM      4  C   UNL A   1      34.892  21.644  26.095  1.00  0.00     0.251 C 
ATOM      5  O   UNL A   1      34.395  21.453  27.210  1.00  0.00    -0.270 OA
ATOM      6  H   UNL A   1      36.062  20.141  26.476  1.00  0.00     0.163 HD
BRANCH   4   7
ATOM      7  C   UNL A   1      34.378  22.747  25.234  1.00  0.00     0.067 C 
ATOM      8  C   UNL A   1      32.902  25.778  21.357  1.00  0.00     0.048 C 
ATOM      9  C   UNL A   1      33.162  25.960  22.825  1.00  0.00    -0.005 A 
ATOM     10  C   UNL A   1      32.970  27.221  23.413  1.00  0.00     0.054 A 
ATOM     11  C   UNL A   1      33.638  24.912  23.619  1.00  0.00     0.131 A 
ATOM     12  C   UNL A   1      33.234  27.425  24.770  1.00  0.00     0.130 A 
ATOM     13  C   UNL A   1      33.902  25.099  24.978  1.00  0.00     0.021 A 
ATOM     14  O   UNL A   1      33.879  23.715  23.003  1.00  0.00    -0.475 OA
ATOM     15  C   UNL A   1      33.697  26.357  25.548  1.00  0.00     0.058 A 
ATOM     16  C   UNL A   1      34.417  23.982  25.766  1.00  0.00     0.025 C 
ATOM     17  C   UNL A   1      33.813  22.546  23.859  1.00  0.00     0.314 C 
BRANCH  12  18
ATOM     18  O   UNL A   1      33.091  28.600  25.452  1.00  0.00    -0.406 OA
BRANCH  18  19
ATOM     19  C   UNL A   1      31.779  28.994  25.817  1.00  0.00     0.573 C 
ATOM     20  F   UNL A   1      31.786  29.720  26.956  1.00  0.00    -0.132 F 
ATOM     21  F   UNL A   1      31.193  29.707  24.831  1.00  0.00    -0.132 F 
ATOM     22  F   UNL A   1      31.036  27.886  26.032  1.00  0.00    -0.132 F 
ENDBRANCH  18  19
ENDBRANCH  12  18
BRANCH  17  23
ATOM     23  C   UNL A   1      32.371  22.000  23.880  1.00  0.00     0.429 C 
ATOM     24  F   UNL A   1      32.380  20.657  24.079  1.00  0.00    -0.167 F 
ATOM     25  F   UNL A   1      31.629  22.531  24.880  1.00  0.00    -0.167 F 
ATOM     26  F   UNL A   1      31.702  22.235  22.730  1.00  0.00    -0.167 F 
ENDBRANCH  17  23
ENDBRANCH   4   7
ENDBRANCH   2   3
ENDBRANCH   1   2
BRANCH   1  27
ATOM     27  C   UNL A   1      38.990  20.086  25.748  1.00  0.00     0.118 C 
BRANCH  27  28
ATOM     28  N   UNL A   1      40.068  19.109  25.882  1.00  0.00    -0.352 N 
ATOM     29  C   UNL A   1      41.419  19.311  26.002  1.00  0.00     0.251 C 
ATOM     30  H   UNL A   1      39.782  18.167  25.887  1.00  0.00     0.163 HD
ATOM     31  O   UNL A   1      42.204  18.388  25.804  1.00  0.00    -0.269 OA
BRANCH  29  32
ATOM     32  C   UNL A   1      41.922  20.644  26.374  1.00  0.00     0.039 A 
ATOM     33  C   UNL A   1      42.138  20.951  27.719  1.00  0.00     0.014 A 
ATOM     34  C   UNL A   1      42.153  21.599  25.380  1.00  0.00     0.014 A 
ATOM     35  C   UNL A   1      42.639  22.206  28.064  1.00  0.00     0.010 A 
ATOM     36  C   UNL A   1      42.727  22.815  25.715  1.00  0.00     0.010 A 
ATOM     37  C   UNL A   1      42.954  23.136  27.061  1.00  0.00    -0.014 A 
BRANCH  37  38
ATOM     38  C   UNL A   1      43.464  24.484  27.392  1.00  0.00     0.031 A 
ATOM     39  C   UNL A   1      42.500  25.548  27.833  1.00  0.00     0.074 A 
ATOM     40  C   UNL A   1      44.767  24.769  27.216  1.00  0.00     0.049 A 
ATOM     41  N   UNL A   1      42.721  26.808  28.100  1.00  0.00    -0.248 NA
ATOM     42  C   UNL A   1      41.089  25.144  27.955  1.00  0.00     0.031 C 
ATOM     43  C   UNL A   1      45.782  23.831  26.737  1.00  0.00     0.029 A 
ATOM     44  N   UNL A   1      45.453  25.941  27.401  1.00  0.00    -0.354 N 
ATOM     45  C   UNL A   1      41.480  27.348  28.409  1.00  0.00     0.074 A 
ATOM     46  C   UNL A   1      40.502  26.298  28.230  1.00  0.00     0.031 C 
ATOM     47  C   UNL A   1      46.966  24.462  26.674  1.00  0.00     0.029 A 
ATOM     48  C   UNL A   1      46.785  25.852  27.081  1.00  0.00     0.049 A 
ATOM     49  H   UNL A   1      45.031  26.767  27.732  1.00  0.00     0.167 HD
ATOM     50  C   UNL A   1      41.184  28.600  28.832  1.00  0.00     0.037 A 
ATOM     51  C   UNL A   1      47.745  26.794  27.110  1.00  0.00     0.037 A 
ATOM     52  C   UNL A   1      42.165  29.635  29.018  1.00  0.00     0.049 A 
ATOM     53  C   UNL A   1      47.395  28.180  27.574  1.00  0.00     0.074 A 
ATOM     54  C   UNL A   1      41.989  30.916  29.507  1.00  0.00     0.029 A 
ATOM     55  N   UNL A   1      43.511  29.504  28.706  1.00  0.00    -0.354 N 
ATOM     56  N   UNL A   1      46.234  28.657  27.954  1.00  0.00    -0.248 NA
ATOM     57  C   UNL A   1      48.492  29.156  27.623  1.00  0.00     0.031 C 
ATOM     58  C   UNL A   1      43.222  31.576  29.447  1.00  0.00     0.029 A 
ATOM     59  C   UNL A   1      44.174  30.691  28.964  1.00  0.00     0.049 A 
ATOM     60  H   UNL A   1      43.932  28.687  28.353  1.00  0.00     0.167 HD
ATOM     61  C   UNL A   1      46.462  29.980  28.306  1.00  0.00     0.074 A 
ATOM     62  C   UNL A   1      47.878  30.225  28.112  1.00  0.00     0.031 C 
ATOM     63  C   UNL A   1      45.582  30.912  28.753  1.00  0.00     0.037 A 
BRANCH  50  64
ATOM     64  C   UNL A   1      39.739  28.900  29.108  1.00  0.00     0.057 A 
ATOM     65  C   UNL A   1      39.221  28.790  30.404  1.00  0.00     0.134 A 
ATOM     66  C   UNL A   1      38.865  29.329  28.098  1.00  0.00     0.134 A 
ATOM     67  F   UNL A   1      39.999  28.383  31.418  1.00  0.00    -0.206 F 
ATOM     68  C   UNL A   1      37.892  29.109  30.688  1.00  0.00     0.040 A 
ATOM     69  C   UNL A   1      37.543  29.680  28.375  1.00  0.00     0.040 A 
ATOM     70  F   UNL A   1      39.302  29.472  26.838  1.00  0.00    -0.206 F 
ATOM     71  C   UNL A   1      37.052  29.568  29.674  1.00  0.00     0.006 A 
ENDBRANCH  50  64
BRANCH  51  72
ATOM     72  C   UNL A   1      49.132  26.449  26.711  1.00  0.00     0.057 A 
ATOM     73  C   UNL A   1      50.039  25.896  27.623  1.00  0.00     0.134 A 
ATOM     74  C   UNL A   1      49.583  26.668  25.405  1.00  0.00     0.134 A 
ATOM     75  F   UNL A   1      49.671  25.672  28.893  1.00  0.00    -0.206 F 
ATOM     76  C   UNL A   1      51.347  25.578  27.252  1.00  0.00     0.040 A 
ATOM     77  C   UNL A   1      50.880  26.334  25.013  1.00  0.00     0.040 A 
ATOM     78  F   UNL A   1      48.754  27.179  24.483  1.00  0.00    -0.206 F 
ATOM     79  C   UNL A   1      51.768  25.791  25.940  1.00  0.00     0.006 A 
ENDBRANCH  51  72
BRANCH  63  80
ATOM     80  C   UNL A   1      46.136  32.269  29.073  1.00  0.00     0.057 A 
ATOM     81  C   UNL A   1      46.615  32.559  30.358  1.00  0.00     0.134 A 
ATOM     82  C   UNL A   1      46.171  33.296  28.122  1.00  0.00     0.134 A 
ATOM     83  F   UNL A   1      46.602  31.621  31.317  1.00  0.00    -0.206 F 
ATOM     84  C   UNL A   1      47.108  33.823  30.684  1.00  0.00     0.040 A 
ATOM     85  C   UNL A   1      46.688  34.556  28.428  1.00  0.00     0.040 A 
ATOM     86  F   UNL A   1      45.741  33.077  26.870  1.00  0.00    -0.206 F 
ATOM     87  C   UNL A   1      47.152  34.824  29.715  1.00  0.00     0.006 A 
ENDBRANCH  63  80
ENDBRANCH  37  38
ENDBRANCH  29  32
ENDBRANCH  27  28
ENDBRANCH   1  27
TORSDOF 13
ENDMDL
MODEL 3
REMARK VINA RESULT:     -12.4      1.194      2.192
REMARK SMILES Cc1cc(OC(F)(F)F)cc2c1O[C@H](C(F)(F)F)C(C(=O)NCCCNC(=O)c1ccc(-c3c4nc(c(-c5c(F)cccc5F)c5ccc([nH]5)c(-c5c(F)cccc5F)c5nc(c(-c6c(F)cccc6F)c6ccc3[nH]6)C=C5)C=C4)cc1)=C2
REMARK SMILES IDX 24 1 23 2 22 3 20 4 21 5 19 7 1 8 2 9 3 10 12 11 4 12 11 13
REMARK SMILES IDX 13 14 10 15 83 16 14 17 5 18 6 19 7 20 8 21 9 22 15 23 16 24
REMARK SMILES IDX 17 25 18 26 25 27 26 28 27 29 28 31 29 32 30 33 82 34 31 35
REMARK SMILES IDX 81 36 32 37 33 38 34 39 75 40 35 41 80 42 74 43 76 44 36 45
REMARK SMILES IDX 79 46 73 47 72 48 37 50 63 51 46 52 62 53 47 54 50 55 61 56
REMARK SMILES IDX 77 57 48 58 49 59 60 61 78 62 51 63 38 64 39 65 44 66 40 67
REMARK SMILES IDX 41 68 43 69 45 70 42 71 64 72 65 73 70 74 66 75 67 76 69 77
REMARK SMILES IDX 71 78 68 79 52 80 53 81 58 82 54 83 55 84 57 85 59 86 56 87
REMARK H PARENT 22 6 26 30 76 49 50 60
REMARK Flexibility Score: inf
ROOT
ATOM      1  C   UNL A   1      37.736  19.664  24.966  1.00  0.00     0.042 C 
ENDROOT
BRANCH   1   2
ATOM      2  C   UNL A   1      36.654  20.688  24.648  1.00  0.00     0.118 C 
BRANCH   2   3
ATOM      3  N   UNL A   1      35.671  20.780  25.717  1.00  0.00    -0.352 N 
ATOM      4  C   UNL A   1      34.685  21.628  26.088  1.00  0.00     0.251 C 
ATOM      5  O   UNL A   1      34.079  21.310  27.117  1.00  0.00    -0.270 OA
ATOM      6  H   UNL A   1      35.742  20.018  26.337  1.00  0.00     0.163 HD
BRANCH   4   7
ATOM      7  C   UNL A   1      34.306  22.873  25.362  1.00  0.00     0.067 C 
ATOM      8  C   UNL A   1      33.301  26.503  21.866  1.00  0.00     0.048 C 
ATOM      9  C   UNL A   1      33.474  26.466  23.359  1.00  0.00    -0.005 A 
ATOM     10  C   UNL A   1      33.328  27.646  24.104  1.00  0.00     0.054 A 
ATOM     11  C   UNL A   1      33.824  25.287  24.024  1.00  0.00     0.131 A 
ATOM     12  C   UNL A   1      33.513  27.645  25.490  1.00  0.00     0.130 A 
ATOM     13  C   UNL A   1      34.007  25.268  25.409  1.00  0.00     0.021 A 
ATOM     14  O   UNL A   1      34.025  24.169  23.263  1.00  0.00    -0.475 OA
ATOM     15  C   UNL A   1      33.850  26.449  26.136  1.00  0.00     0.058 A 
ATOM     16  C   UNL A   1      34.392  24.020  26.062  1.00  0.00     0.025 C 
ATOM     17  C   UNL A   1      33.822  22.904  23.942  1.00  0.00     0.314 C 
BRANCH  12  18
ATOM     18  O   UNL A   1      33.404  28.724  26.319  1.00  0.00    -0.406 OA
BRANCH  18  19
ATOM     19  C   UNL A   1      32.107  29.085  26.763  1.00  0.00     0.573 C 
ATOM     20  F   UNL A   1      31.218  29.057  25.747  1.00  0.00    -0.132 F 
ATOM     21  F   UNL A   1      31.687  28.268  27.752  1.00  0.00    -0.132 F 
ATOM     22  F   UNL A   1      32.148  30.345  27.248  1.00  0.00    -0.132 F 
ENDBRANCH  18  19
ENDBRANCH  12  18
BRANCH  17  23
ATOM     23  C   UNL A   1      32.348  22.471  23.803  1.00  0.00     0.429 C 
ATOM     24  F   UNL A   1      31.670  22.739  24.949  1.00  0.00    -0.167 F 
ATOM     25  F   UNL A   1      31.703  23.133  22.814  1.00  0.00    -0.167 F 
ATOM     26  F   UNL A   1      32.208  21.152  23.547  1.00  0.00    -0.167 F 
ENDBRANCH  17  23
ENDBRANCH   4   7
ENDBRANCH   2   3
ENDBRANCH   1   2
BRANCH   1  27
ATOM     27  C   UNL A   1      38.898  20.289  25.728  1.00  0.00     0.118 C 
BRANCH  27  28
ATOM     28  N   UNL A   1      40.028  19.369  25.823  1.00  0.00    -0.352 N 
ATOM     29  C   UNL A   1      41.355  19.636  26.043  1.00  0.00     0.251 C 
ATOM     30  H   UNL A   1      39.805  18.416  25.712  1.00  0.00     0.163 HD
ATOM     31  O   UNL A   1      42.208  18.789  25.796  1.00  0.00    -0.269 OA
BRANCH  29  32
ATOM     32  C   UNL A   1      41.750  20.949  26.582  1.00  0.00     0.039 A 
ATOM     33  C   UNL A   1      42.124  21.972  25.708  1.00  0.00     0.014 A 
ATOM     34  C   UNL A   1      41.774  21.151  27.965  1.00  0.00     0.014 A 
ATOM     35  C   UNL A   1      42.472  23.221  26.223  1.00  0.00     0.010 A 
ATOM     36  C   UNL A   1      42.040  22.413  28.472  1.00  0.00     0.010 A 
ATOM     37  C   UNL A   1      42.413  23.451  27.606  1.00  0.00    -0.014 A 
BRANCH  37  38
ATOM     38  C   UNL A   1      42.798  24.755  28.188  1.00  0.00     0.031 A 
ATOM     39  C   UNL A   1      41.746  25.807  28.397  1.00  0.00     0.074 A 
ATOM     40  C   UNL A   1      44.092  25.018  28.446  1.00  0.00     0.049 A 
ATOM     41  N   UNL A   1      41.876  27.036  28.822  1.00  0.00    -0.248 NA
ATOM     42  C   UNL A   1      40.366  25.433  28.044  1.00  0.00     0.031 C 
ATOM     43  C   UNL A   1      45.204  24.093  28.228  1.00  0.00     0.029 A 
ATOM     44  N   UNL A   1      44.689  26.153  28.930  1.00  0.00    -0.354 N 
ATOM     45  C   UNL A   1      40.601  27.583  28.777  1.00  0.00     0.074 A 
ATOM     46  C   UNL A   1      39.724  26.577  28.219  1.00  0.00     0.031 C 
ATOM     47  C   UNL A   1      46.350  24.695  28.584  1.00  0.00     0.029 A 
ATOM     48  C   UNL A   1      46.054  26.053  29.029  1.00  0.00     0.049 A 
ATOM     49  H   UNL A   1      44.187  26.961  29.181  1.00  0.00     0.167 HD
ATOM     50  C   UNL A   1      40.190  28.806  29.189  1.00  0.00     0.037 A 
ATOM     51  C   UNL A   1      46.960  26.964  29.430  1.00  0.00     0.037 A 
ATOM     52  C   UNL A   1      41.067  29.796  29.753  1.00  0.00     0.049 A 
ATOM     53  C   UNL A   1      46.486  28.319  29.876  1.00  0.00     0.074 A 
ATOM     54  C   UNL A   1      40.750  31.039  30.269  1.00  0.00     0.029 A 
ATOM     55  N   UNL A   1      42.444  29.654  29.862  1.00  0.00    -0.354 N 
ATOM     56  N   UNL A   1      45.264  28.796  29.918  1.00  0.00    -0.248 NA
ATOM     57  C   UNL A   1      47.515  29.258  30.341  1.00  0.00     0.031 C 
ATOM     58  C   UNL A   1      41.943  31.669  30.646  1.00  0.00     0.029 A 
ATOM     59  C   UNL A   1      42.996  30.799  30.409  1.00  0.00     0.049 A 
ATOM     60  H   UNL A   1      42.952  28.856  29.589  1.00  0.00     0.167 HD
ATOM     61  C   UNL A   1      45.375  30.081  30.431  1.00  0.00     0.074 A 
ATOM     62  C   UNL A   1      46.781  30.301  30.703  1.00  0.00     0.031 C 
ATOM     63  C   UNL A   1      44.401  30.998  30.660  1.00  0.00     0.037 A 
BRANCH  50  64
ATOM     64  C   UNL A   1      38.732  29.122  29.031  1.00  0.00     0.057 A 
ATOM     65  C   UNL A   1      37.854  29.013  30.117  1.00  0.00     0.134 A 
ATOM     66  C   UNL A   1      38.197  29.566  27.812  1.00  0.00     0.134 A 
ATOM     67  F   UNL A   1      38.296  28.592  31.311  1.00  0.00    -0.206 F 
ATOM     68  C   UNL A   1      36.503  29.346  29.999  1.00  0.00     0.040 A 
ATOM     69  C   UNL A   1      36.856  29.931  27.691  1.00  0.00     0.040 A 
ATOM     70  F   UNL A   1      38.987  29.709  26.737  1.00  0.00    -0.206 F 
ATOM     71  C   UNL A   1      36.004  29.821  28.787  1.00  0.00     0.006 A 
ENDBRANCH  50  64
BRANCH  51  72
ATOM     72  C   UNL A   1      48.402  26.614  29.450  1.00  0.00     0.057 A 
ATOM     73  C   UNL A   1      49.224  26.838  28.339  1.00  0.00     0.134 A 
ATOM     74  C   UNL A   1      48.989  26.042  30.584  1.00  0.00     0.134 A 
ATOM     75  F   UNL A   1      48.718  27.373  27.219  1.00  0.00    -0.206 F 
ATOM     76  C   UNL A   1      50.579  26.501  28.354  1.00  0.00     0.040 A 
ATOM     77  C   UNL A   1      50.347  25.721  30.620  1.00  0.00     0.040 A 
ATOM     78  F   UNL A   1      48.255  25.819  31.684  1.00  0.00    -0.206 F 
ATOM     79  C   UNL A   1      51.145  25.946  29.501  1.00  0.00     0.006 A 
ENDBRANCH  51  72
BRANCH  63  80
ATOM     80  C   UNL A   1      44.831  32.311  31.246  1.00  0.00     0.057 A 
ATOM     81  C   UNL A   1      44.890  32.486  32.635  1.00  0.00     0.134 A 
ATOM     82  C   UNL A   1      45.159  33.408  30.440  1.00  0.00     0.134 A 
ATOM     83  F   UNL A   1      44.579  31.478  33.463  1.00  0.00    -0.206 F 
ATOM     84  C   UNL A   1      45.259  33.708  33.200  1.00  0.00     0.040 A 
ATOM     85  C   UNL A   1      45.557  34.625  30.993  1.00  0.00     0.040 A 
ATOM     86  F   UNL A   1      45.137  33.299  29.103  1.00  0.00    -0.206 F 
ATOM     87  C   UNL A   1      45.602  34.779  32.378  1.00  0.00     0.006 A 
ENDBRANCH  63  80
ENDBRANCH  37  38
ENDBRANCH  29  32
ENDBRANCH  27  28
ENDBRANCH   1  27
TORSDOF 13
ENDMDL
