MODEL 1
REMARK VINA RESULT:     -12.1      0.000      0.000
REMARK SMILES C#Cc1cc(Cl)c2c(c1)C=C(C(=O)NCCCNC(=O)c1ccc(-c3c4nc(c(-c5c(F)cccc5F)c5ccc([nH]5)c(-c5c(F)cccc5F)c5nc(c(-c6c(F)cccc6F)c6ccc3[nH]6)C=C5)C=C4)cc1)[C@@H](C(F)(F)F)O2
REMARK SMILES IDX 16 1 15 2 14 3 12 4 13 5 11 7 3 8 4 9 9 10 5 11 8 12 6 13
REMARK SMILES IDX 7 14 10 15 80 16 75 17 2 18 1 19 76 20 77 21 78 22 79 23
REMARK SMILES IDX 17 24 18 25 19 26 20 28 21 29 22 30 74 31 23 32 73 33 24 34
REMARK SMILES IDX 25 35 26 36 67 37 27 38 72 39 66 40 68 41 28 42 71 43 65 44
REMARK SMILES IDX 64 45 29 47 55 48 38 49 54 50 39 51 42 52 53 53 69 54 40 55
REMARK SMILES IDX 41 56 52 58 70 59 43 60 30 61 31 62 36 63 32 64 33 65 35 66
REMARK SMILES IDX 37 67 34 68 56 69 57 70 62 71 58 72 59 73 61 74 63 75 60 76
REMARK SMILES IDX 44 77 45 78 50 79 46 80 47 81 49 82 51 83 48 84
REMARK H PARENT 14 6 18 27 68 46 42 57
REMARK Flexibility Score: inf
ROOT
ATOM      1  C   UNL A   1      37.826  19.594  24.939  1.00  0.00     0.042 C 
ENDROOT
BRANCH   1   2
ATOM      2  C   UNL A   1      36.758  20.633  24.649  1.00  0.00     0.118 C 
BRANCH   2   3
ATOM      3  N   UNL A   1      35.738  20.669  25.687  1.00  0.00    -0.352 N 
ATOM      4  C   UNL A   1      34.670  21.440  26.002  1.00  0.00     0.251 C 
ATOM      5  O   UNL A   1      34.038  21.090  27.002  1.00  0.00    -0.270 OA
ATOM      6  H   UNL A   1      35.857  19.936  26.333  1.00  0.00     0.163 HD
BRANCH   4   7
ATOM      7  C   UNL A   1      34.240  22.645  25.234  1.00  0.00     0.067 C 
ATOM      8  C   UNL A   1      33.516  27.424  25.086  1.00  0.00     0.027 A 
ATOM      9  C   UNL A   1      33.238  27.348  23.721  1.00  0.00     0.041 A 
ATOM     10  C   UNL A   1      33.866  26.273  25.802  1.00  0.00     0.029 A 
ATOM     11  C   UNL A   1      33.315  26.122  23.068  1.00  0.00     0.084 A 
ATOM     12  C   UNL A   1      33.939  25.038  25.149  1.00  0.00     0.020 A 
ATOM     13  Cl  UNL A   1      32.973  26.059  21.377  1.00  0.00    -0.080 Cl
ATOM     14  C   UNL A   1      33.660  24.969  23.780  1.00  0.00     0.146 A 
ATOM     15  C   UNL A   1      34.349  23.830  25.861  1.00  0.00     0.025 C 
ATOM     16  O   UNL A   1      33.766  23.801  23.081  1.00  0.00    -0.474 OA
ATOM     17  C   UNL A   1      33.687  22.575  23.843  1.00  0.00     0.314 C 
BRANCH   8  18
ATOM     18  C   UNL A   1      33.459  28.693  25.739  1.00  0.00    -0.070 C 
ATOM     19  C   UNL A   1      33.399  29.775  26.259  1.00  0.00     0.010 C 
ENDBRANCH   8  18
BRANCH  17  20
ATOM     20  C   UNL A   1      32.240  22.040  23.809  1.00  0.00     0.429 C 
ATOM     21  F   UNL A   1      32.237  20.704  23.578  1.00  0.00    -0.167 F 
ATOM     22  F   UNL A   1      31.586  22.226  24.981  1.00  0.00    -0.167 F 
ATOM     23  F   UNL A   1      31.492  22.626  22.849  1.00  0.00    -0.167 F 
ENDBRANCH  17  20
ENDBRANCH   4   7
ENDBRANCH   2   3
ENDBRANCH   1   2
BRANCH   1  24
ATOM     24  C   UNL A   1      38.955  20.175  25.774  1.00  0.00     0.118 C 
BRANCH  24  25
ATOM     25  N   UNL A   1      40.094  19.262  25.851  1.00  0.00    -0.352 N 
ATOM     26  C   UNL A   1      41.424  19.523  26.065  1.00  0.00     0.251 C 
ATOM     27  H   UNL A   1      39.874  18.311  25.730  1.00  0.00     0.163 HD
ATOM     28  O   UNL A   1      42.267  18.667  25.820  1.00  0.00    -0.269 OA
BRANCH  26  29
ATOM     29  C   UNL A   1      41.827  20.840  26.586  1.00  0.00     0.039 A 
ATOM     30  C   UNL A   1      42.257  21.828  25.699  1.00  0.00     0.014 A 
ATOM     31  C   UNL A   1      41.776  21.091  27.958  1.00  0.00     0.014 A 
ATOM     32  C   UNL A   1      42.570  23.093  26.191  1.00  0.00     0.010 A 
ATOM     33  C   UNL A   1      41.967  22.379  28.429  1.00  0.00     0.010 A 
ATOM     34  C   UNL A   1      42.390  23.386  27.553  1.00  0.00    -0.014 A 
BRANCH  34  35
ATOM     35  C   UNL A   1      42.680  24.732  28.096  1.00  0.00     0.031 A 
ATOM     36  C   UNL A   1      44.089  25.090  28.478  1.00  0.00     0.074 A 
ATOM     37  C   UNL A   1      41.673  25.606  28.280  1.00  0.00     0.049 A 
ATOM     38  N   UNL A   1      44.542  26.198  29.003  1.00  0.00    -0.248 NA
ATOM     39  C   UNL A   1      45.122  24.060  28.269  1.00  0.00     0.031 C 
ATOM     40  C   UNL A   1      40.263  25.348  27.979  1.00  0.00     0.029 A 
ATOM     41  N   UNL A   1      41.682  26.890  28.759  1.00  0.00    -0.354 N 
ATOM     42  C   UNL A   1      45.904  25.997  29.182  1.00  0.00     0.074 A 
ATOM     43  C   UNL A   1      46.193  24.638  28.789  1.00  0.00     0.031 C 
ATOM     44  C   UNL A   1      39.551  26.455  28.238  1.00  0.00     0.029 A 
ATOM     45  C   UNL A   1      40.442  27.482  28.767  1.00  0.00     0.049 A 
ATOM     46  H   UNL A   1      42.499  27.345  29.067  1.00  0.00     0.167 HD
ATOM     47  C   UNL A   1      46.837  26.882  29.599  1.00  0.00     0.037 A 
ATOM     48  C   UNL A   1      40.070  28.715  29.160  1.00  0.00     0.037 A 
ATOM     49  C   UNL A   1      46.542  28.239  29.969  1.00  0.00     0.049 A 
ATOM     50  C   UNL A   1      41.121  29.664  29.667  1.00  0.00     0.074 A 
ATOM     51  C   UNL A   1      47.420  29.228  30.371  1.00  0.00     0.029 A 
ATOM     52  N   UNL A   1      45.271  28.796  29.985  1.00  0.00    -0.354 N 
ATOM     53  N   UNL A   1      42.416  29.484  29.771  1.00  0.00    -0.248 NA
ATOM     54  C   UNL A   1      40.661  30.989  30.108  1.00  0.00     0.031 C 
ATOM     55  C   UNL A   1      46.675  30.365  30.692  1.00  0.00     0.029 A 
ATOM     56  C   UNL A   1      45.340  30.107  30.424  1.00  0.00     0.049 A 
ATOM     57  H   UNL A   1      44.445  28.328  29.724  1.00  0.00     0.167 HD
ATOM     58  C   UNL A   1      42.929  30.677  30.265  1.00  0.00     0.074 A 
ATOM     59  C   UNL A   1      41.807  31.580  30.418  1.00  0.00     0.031 C 
ATOM     60  C   UNL A   1      44.213  30.994  30.565  1.00  0.00     0.037 A 
BRANCH  47  61
ATOM     61  C   UNL A   1      48.264  26.419  29.661  1.00  0.00     0.057 A 
ATOM     62  C   UNL A   1      48.787  25.797  30.804  1.00  0.00     0.134 A 
ATOM     63  C   UNL A   1      49.105  26.535  28.548  1.00  0.00     0.134 A 
ATOM     64  F   UNL A   1      48.040  25.668  31.911  1.00  0.00    -0.206 F 
ATOM     65  C   UNL A   1      50.098  25.322  30.841  1.00  0.00     0.040 A 
ATOM     66  C   UNL A   1      50.407  26.034  28.562  1.00  0.00     0.040 A 
ATOM     67  F   UNL A   1      48.668  27.119  27.422  1.00  0.00    -0.206 F 
ATOM     68  C   UNL A   1      50.908  25.428  29.713  1.00  0.00     0.006 A 
ENDBRANCH  47  61
BRANCH  48  69
ATOM     69  C   UNL A   1      38.647  29.126  29.054  1.00  0.00     0.057 A 
ATOM     70  C   UNL A   1      37.788  29.042  30.156  1.00  0.00     0.134 A 
ATOM     71  C   UNL A   1      38.114  29.632  27.861  1.00  0.00     0.134 A 
ATOM     72  F   UNL A   1      38.233  28.552  31.322  1.00  0.00    -0.206 F 
ATOM     73  C   UNL A   1      36.451  29.434  30.075  1.00  0.00     0.040 A 
ATOM     74  C   UNL A   1      36.787  30.056  27.774  1.00  0.00     0.040 A 
ATOM     75  F   UNL A   1      38.884  29.747  26.769  1.00  0.00    -0.206 F 
ATOM     76  C   UNL A   1      35.949  29.952  28.882  1.00  0.00     0.006 A 
ENDBRANCH  48  69
BRANCH  60  77
ATOM     77  C   UNL A   1      44.488  32.379  31.077  1.00  0.00     0.057 A 
ATOM     78  C   UNL A   1      44.715  33.454  30.209  1.00  0.00     0.134 A 
ATOM     79  C   UNL A   1      44.431  32.655  32.450  1.00  0.00     0.134 A 
ATOM     80  F   UNL A   1      44.789  33.255  28.884  1.00  0.00    -0.206 F 
ATOM     81  C   UNL A   1      44.890  34.752  30.689  1.00  0.00     0.040 A 
ATOM     82  C   UNL A   1      44.570  33.955  32.938  1.00  0.00     0.040 A 
ATOM     83  F   UNL A   1      44.203  31.674  33.335  1.00  0.00    -0.206 F 
ATOM     84  C   UNL A   1      44.803  35.007  32.057  1.00  0.00     0.006 A 
ENDBRANCH  60  77
ENDBRANCH  34  35
ENDBRANCH  26  29
ENDBRANCH  24  25
ENDBRANCH   1  24
TORSDOF 12
ENDMDL
MODEL 2
REMARK VINA RESULT:     -12.1      0.084      1.372
REMARK SMILES C#Cc1cc(Cl)c2c(c1)C=C(C(=O)NCCCNC(=O)c1ccc(-c3c4nc(c(-c5c(F)cccc5F)c5ccc([nH]5)c(-c5c(F)cccc5F)c5nc(c(-c6c(F)cccc6F)c6ccc3[nH]6)C=C5)C=C4)cc1)[C@@H](C(F)(F)F)O2
REMARK SMILES IDX 16 1 15 2 14 3 12 4 13 5 11 7 3 8 4 9 9 10 5 11 8 12 6 13
REMARK SMILES IDX 7 14 10 15 80 16 75 17 2 18 1 19 76 20 77 21 78 22 79 23
REMARK SMILES IDX 17 24 18 25 19 26 20 28 21 29 22 30 74 31 23 32 73 33 24 34
REMARK SMILES IDX 25 35 26 36 67 37 27 38 72 39 66 40 68 41 28 42 71 43 65 44
REMARK SMILES IDX 64 45 29 47 55 48 38 49 54 50 39 51 42 52 53 53 69 54 40 55
REMARK SMILES IDX 41 56 52 58 70 59 43 60 30 61 31 62 36 63 32 64 33 65 35 66
REMARK SMILES IDX 37 67 34 68 56 69 57 70 62 71 58 72 59 73 61 74 63 75 60 76
REMARK SMILES IDX 44 77 45 78 50 79 46 80 47 81 49 82 51 83 48 84
REMARK H PARENT 14 6 18 27 68 46 42 57
REMARK Flexibility Score: inf
ROOT
ATOM      1  C   UNL A   1      37.824  19.604  24.952  1.00  0.00     0.042 C 
ENDROOT
BRANCH   1   2
ATOM      2  C   UNL A   1      36.755  20.640  24.651  1.00  0.00     0.118 C 
BRANCH   2   3
ATOM      3  N   UNL A   1      35.739  20.690  25.691  1.00  0.00    -0.352 N 
ATOM      4  C   UNL A   1      34.672  21.465  25.999  1.00  0.00     0.251 C 
ATOM      5  O   UNL A   1      34.042  21.129  27.005  1.00  0.00    -0.270 OA
ATOM      6  H   UNL A   1      35.858  19.964  26.346  1.00  0.00     0.163 HD
BRANCH   4   7
ATOM      7  C   UNL A   1      34.242  22.661  25.218  1.00  0.00     0.067 C 
ATOM      8  C   UNL A   1      33.491  27.435  25.024  1.00  0.00     0.027 A 
ATOM      9  C   UNL A   1      33.225  27.346  23.657  1.00  0.00     0.041 A 
ATOM     10  C   UNL A   1      33.842  26.292  25.752  1.00  0.00     0.029 A 
ATOM     11  C   UNL A   1      33.315  26.115  23.015  1.00  0.00     0.084 A 
ATOM     12  C   UNL A   1      33.928  25.052  25.111  1.00  0.00     0.020 A 
ATOM     13  Cl  UNL A   1      32.988  26.037  21.321  1.00  0.00    -0.080 Cl
ATOM     14  C   UNL A   1      33.660  24.970  23.739  1.00  0.00     0.146 A 
ATOM     15  C   UNL A   1      34.338  23.853  25.836  1.00  0.00     0.025 C 
ATOM     16  O   UNL A   1      33.779  23.797  23.051  1.00  0.00    -0.474 OA
ATOM     17  C   UNL A   1      33.701  22.577  23.822  1.00  0.00     0.314 C 
BRANCH   8  18
ATOM     18  C   UNL A   1      33.421  28.709  25.666  1.00  0.00    -0.070 C 
ATOM     19  C   UNL A   1      33.393  29.775  26.221  1.00  0.00     0.010 C 
ENDBRANCH   8  18
BRANCH  17  20
ATOM     20  C   UNL A   1      32.258  22.033  23.781  1.00  0.00     0.429 C 
ATOM     21  F   UNL A   1      31.581  22.572  22.737  1.00  0.00    -0.167 F 
ATOM     22  F   UNL A   1      32.209  20.690  23.615  1.00  0.00    -0.167 F 
ATOM     23  F   UNL A   1      31.566  22.311  24.907  1.00  0.00    -0.167 F 
ENDBRANCH  17  20
ENDBRANCH   4   7
ENDBRANCH   2   3
ENDBRANCH   1   2
BRANCH   1  24
ATOM     24  C   UNL A   1      38.976  20.206  25.738  1.00  0.00     0.118 C 
BRANCH  24  25
ATOM     25  N   UNL A   1      40.109  19.286  25.826  1.00  0.00    -0.352 N 
ATOM     26  C   UNL A   1      41.439  19.540  26.047  1.00  0.00     0.251 C 
ATOM     27  H   UNL A   1      39.883  18.336  25.708  1.00  0.00     0.163 HD
ATOM     28  O   UNL A   1      42.278  18.677  25.810  1.00  0.00    -0.269 OA
BRANCH  26  29
ATOM     29  C   UNL A   1      41.848  20.856  26.564  1.00  0.00     0.039 A 
ATOM     30  C   UNL A   1      42.288  21.838  25.675  1.00  0.00     0.014 A 
ATOM     31  C   UNL A   1      41.792  21.113  27.936  1.00  0.00     0.014 A 
ATOM     32  C   UNL A   1      42.606  23.103  26.164  1.00  0.00     0.010 A 
ATOM     33  C   UNL A   1      41.989  22.401  28.402  1.00  0.00     0.010 A 
ATOM     34  C   UNL A   1      42.422  23.402  27.525  1.00  0.00    -0.014 A 
BRANCH  34  35
ATOM     35  C   UNL A   1      42.718  24.748  28.063  1.00  0.00     0.031 A 
ATOM     36  C   UNL A   1      44.130  25.106  28.433  1.00  0.00     0.074 A 
ATOM     37  C   UNL A   1      41.713  25.624  28.255  1.00  0.00     0.049 A 
ATOM     38  N   UNL A   1      44.588  26.214  28.952  1.00  0.00    -0.248 NA
ATOM     39  C   UNL A   1      45.161  24.076  28.215  1.00  0.00     0.031 C 
ATOM     40  C   UNL A   1      40.300  25.366  27.968  1.00  0.00     0.029 A 
ATOM     41  N   UNL A   1      41.726  26.908  28.733  1.00  0.00    -0.354 N 
ATOM     42  C   UNL A   1      45.952  26.013  29.119  1.00  0.00     0.074 A 
ATOM     43  C   UNL A   1      46.236  24.653  28.725  1.00  0.00     0.031 C 
ATOM     44  C   UNL A   1      39.591  26.474  28.231  1.00  0.00     0.029 A 
ATOM     45  C   UNL A   1      40.487  27.501  28.752  1.00  0.00     0.049 A 
ATOM     46  H   UNL A   1      42.547  27.363  29.034  1.00  0.00     0.167 HD
ATOM     47  C   UNL A   1      46.889  26.897  29.527  1.00  0.00     0.037 A 
ATOM     48  C   UNL A   1      40.119  28.734  29.147  1.00  0.00     0.037 A 
ATOM     49  C   UNL A   1      46.598  28.255  29.898  1.00  0.00     0.049 A 
ATOM     50  C   UNL A   1      41.176  29.683  29.644  1.00  0.00     0.074 A 
ATOM     51  C   UNL A   1      47.480  29.244  30.292  1.00  0.00     0.029 A 
ATOM     52  N   UNL A   1      45.328  28.812  29.926  1.00  0.00    -0.354 N 
ATOM     53  N   UNL A   1      42.471  29.503  29.737  1.00  0.00    -0.248 NA
ATOM     54  C   UNL A   1      40.721  31.008  30.087  1.00  0.00     0.031 C 
ATOM     55  C   UNL A   1      46.739  30.381  30.618  1.00  0.00     0.029 A 
ATOM     56  C   UNL A   1      45.401  30.124  30.362  1.00  0.00     0.049 A 
ATOM     57  H   UNL A   1      44.499  28.346  29.672  1.00  0.00     0.167 HD
ATOM     58  C   UNL A   1      42.989  30.695  30.224  1.00  0.00     0.074 A 
ATOM     59  C   UNL A   1      41.869  31.599  30.387  1.00  0.00     0.031 C 
ATOM     60  C   UNL A   1      44.276  31.013  30.513  1.00  0.00     0.037 A 
BRANCH  47  61
ATOM     61  C   UNL A   1      48.316  26.434  29.577  1.00  0.00     0.057 A 
ATOM     62  C   UNL A   1      49.186  26.611  28.491  1.00  0.00     0.134 A 
ATOM     63  C   UNL A   1      48.845  25.866  30.741  1.00  0.00     0.134 A 
ATOM     64  F   UNL A   1      48.740  27.134  27.339  1.00  0.00    -0.206 F 
ATOM     65  C   UNL A   1      50.525  26.225  28.559  1.00  0.00     0.040 A 
ATOM     66  C   UNL A   1      50.190  25.507  30.833  1.00  0.00     0.040 A 
ATOM     67  F   UNL A   1      48.068  25.670  31.818  1.00  0.00    -0.206 F 
ATOM     68  C   UNL A   1      51.035  25.684  29.737  1.00  0.00     0.006 A 
ENDBRANCH  47  61
BRANCH  48  69
ATOM     69  C   UNL A   1      38.696  29.146  29.054  1.00  0.00     0.057 A 
ATOM     70  C   UNL A   1      38.157  29.613  27.848  1.00  0.00     0.134 A 
ATOM     71  C   UNL A   1      37.832  29.064  30.154  1.00  0.00     0.134 A 
ATOM     72  F   UNL A   1      38.935  29.729  26.763  1.00  0.00    -0.206 F 
ATOM     73  C   UNL A   1      36.819  29.993  27.743  1.00  0.00     0.040 A 
ATOM     74  C   UNL A   1      36.484  29.413  30.055  1.00  0.00     0.040 A 
ATOM     75  F   UNL A   1      38.281  28.617  31.336  1.00  0.00    -0.206 F 
ATOM     76  C   UNL A   1      35.975  29.885  28.847  1.00  0.00     0.006 A 
ENDBRANCH  48  69
BRANCH  60  77
ATOM     77  C   UNL A   1      44.557  32.397  31.021  1.00  0.00     0.057 A 
ATOM     78  C   UNL A   1      44.751  33.476  30.150  1.00  0.00     0.134 A 
ATOM     79  C   UNL A   1      44.538  32.669  32.396  1.00  0.00     0.134 A 
ATOM     80  F   UNL A   1      44.787  33.282  28.824  1.00  0.00    -0.206 F 
ATOM     81  C   UNL A   1      44.930  34.775  30.629  1.00  0.00     0.040 A 
ATOM     82  C   UNL A   1      44.682  33.968  32.884  1.00  0.00     0.040 A 
ATOM     83  F   UNL A   1      44.343  31.683  33.284  1.00  0.00    -0.206 F 
ATOM     84  C   UNL A   1      44.882  35.024  32.000  1.00  0.00     0.006 A 
ENDBRANCH  60  77
ENDBRANCH  34  35
ENDBRANCH  26  29
ENDBRANCH  24  25
ENDBRANCH   1  24
TORSDOF 12
ENDMDL
MODEL 3
REMARK VINA RESULT:     -12.0      0.998      6.271
REMARK SMILES C#Cc1cc(Cl)c2c(c1)C=C(C(=O)NCCCNC(=O)c1ccc(-c3c4nc(c(-c5c(F)cccc5F)c5ccc([nH]5)c(-c5c(F)cccc5F)c5nc(c(-c6c(F)cccc6F)c6ccc3[nH]6)C=C5)C=C4)cc1)[C@@H](C(F)(F)F)O2
REMARK SMILES IDX 16 1 15 2 14 3 12 4 13 5 11 7 3 8 4 9 9 10 5 11 8 12 6 13
REMARK SMILES IDX 7 14 10 15 80 16 75 17 2 18 1 19 76 20 77 21 78 22 79 23
REMARK SMILES IDX 17 24 18 25 19 26 20 28 21 29 22 30 74 31 23 32 73 33 24 34
REMARK SMILES IDX 25 35 26 36 67 37 27 38 72 39 66 40 68 41 28 42 71 43 65 44
REMARK SMILES IDX 64 45 29 47 55 48 38 49 54 50 39 51 42 52 53 53 69 54 40 55
REMARK SMILES IDX 41 56 52 58 70 59 43 60 30 61 31 62 36 63 32 64 33 65 35 66
REMARK SMILES IDX 37 67 34 68 56 69 57 70 62 71 58 72 59 73 61 74 63 75 60 76
REMARK SMILES IDX 44 77 45 78 50 79 46 80 47 81 49 82 51 83 48 84
REMARK H PARENT 14 6 18 27 68 46 42 57
REMARK Flexibility Score: inf
ROOT
ATOM      1  C   UNL A   1      37.968  19.576  24.995  1.00  0.00     0.042 C 
ENDROOT
BRANCH   1   2
ATOM      2  C   UNL A   1      36.936  20.650  24.702  1.00  0.00     0.118 C 
BRANCH   2   3
ATOM      3  N   UNL A   1      35.675  20.392  25.383  1.00  0.00    -0.352 N 
ATOM      4  C   UNL A   1      34.476  21.007  25.516  1.00  0.00     0.251 C 
ATOM      5  O   UNL A   1      33.642  20.406  26.199  1.00  0.00    -0.270 OA
ATOM      6  H   UNL A   1      35.701  19.542  25.879  1.00  0.00     0.163 HD
BRANCH   4   7
ATOM      7  C   UNL A   1      34.128  22.324  24.909  1.00  0.00     0.067 C 
ATOM      8  C   UNL A   1      33.755  27.126  25.354  1.00  0.00     0.027 A 
ATOM      9  C   UNL A   1      33.459  27.237  23.995  1.00  0.00     0.041 A 
ATOM     10  C   UNL A   1      34.027  25.874  25.918  1.00  0.00     0.029 A 
ATOM     11  C   UNL A   1      33.440  26.097  23.197  1.00  0.00     0.084 A 
ATOM     12  C   UNL A   1      34.003  24.725  25.120  1.00  0.00     0.020 A 
ATOM     13  Cl  UNL A   1      33.079  26.267  21.517  1.00  0.00    -0.080 Cl
ATOM     14  C   UNL A   1      33.706  24.844  23.758  1.00  0.00     0.146 A 
ATOM     15  C   UNL A   1      34.329  23.414  25.673  1.00  0.00     0.025 C 
ATOM     16  O   UNL A   1      33.720  23.766  22.920  1.00  0.00    -0.474 OA
ATOM     17  C   UNL A   1      33.559  22.465  23.529  1.00  0.00     0.314 C 
BRANCH   8  18
ATOM     18  C   UNL A   1      33.797  28.306  26.157  1.00  0.00    -0.070 C 
ATOM     19  C   UNL A   1      33.798  29.303  26.829  1.00  0.00     0.010 C 
ENDBRANCH   8  18
BRANCH  17  20
ATOM     20  C   UNL A   1      32.076  22.043  23.457  1.00  0.00     0.429 C 
ATOM     21  F   UNL A   1      31.968  20.785  22.965  1.00  0.00    -0.167 F 
ATOM     22  F   UNL A   1      31.476  22.031  24.672  1.00  0.00    -0.167 F 
ATOM     23  F   UNL A   1      31.342  22.858  22.669  1.00  0.00    -0.167 F 
ENDBRANCH  17  20
ENDBRANCH   4   7
ENDBRANCH   2   3
ENDBRANCH   1   2
BRANCH   1  24
ATOM     24  C   UNL A   1      39.162  20.142  25.745  1.00  0.00     0.118 C 
BRANCH  24  25
ATOM     25  N   UNL A   1      40.212  19.140  25.924  1.00  0.00    -0.352 N 
ATOM     26  C   UNL A   1      41.561  19.297  26.115  1.00  0.00     0.251 C 
ATOM     27  H   UNL A   1      39.902  18.206  25.905  1.00  0.00     0.163 HD
ATOM     28  O   UNL A   1      42.319  18.344  25.967  1.00  0.00    -0.269 OA
BRANCH  26  29
ATOM     29  C   UNL A   1      42.089  20.619  26.493  1.00  0.00     0.039 A 
ATOM     30  C   UNL A   1      42.498  21.506  25.496  1.00  0.00     0.014 A 
ATOM     31  C   UNL A   1      42.175  20.974  27.840  1.00  0.00     0.014 A 
ATOM     32  C   UNL A   1      42.931  22.780  25.858  1.00  0.00     0.010 A 
ATOM     33  C   UNL A   1      42.486  22.277  28.189  1.00  0.00     0.010 A 
ATOM     34  C   UNL A   1      42.890  23.185  27.203  1.00  0.00    -0.014 A 
BRANCH  34  35
ATOM     35  C   UNL A   1      43.309  24.545  27.609  1.00  0.00     0.031 A 
ATOM     36  C   UNL A   1      42.266  25.575  27.939  1.00  0.00     0.074 A 
ATOM     37  C   UNL A   1      44.619  24.856  27.641  1.00  0.00     0.049 A 
ATOM     38  N   UNL A   1      42.425  26.827  28.279  1.00  0.00    -0.248 NA
ATOM     39  C   UNL A   1      40.857  25.154  27.851  1.00  0.00     0.031 C 
ATOM     40  C   UNL A   1      45.713  23.944  27.302  1.00  0.00     0.029 A 
ATOM     41  N   UNL A   1      45.251  26.025  27.977  1.00  0.00    -0.354 N 
ATOM     42  C   UNL A   1      41.144  27.335  28.445  1.00  0.00     0.074 A 
ATOM     43  C   UNL A   1      40.217  26.286  28.091  1.00  0.00     0.031 C 
ATOM     44  C   UNL A   1      46.883  24.574  27.493  1.00  0.00     0.029 A 
ATOM     45  C   UNL A   1      46.621  25.945  27.919  1.00  0.00     0.049 A 
ATOM     46  H   UNL A   1      44.769  26.843  28.237  1.00  0.00     0.167 HD
ATOM     47  C   UNL A   1      40.775  28.556  28.892  1.00  0.00     0.037 A 
ATOM     48  C   UNL A   1      47.559  26.876  28.178  1.00  0.00     0.037 A 
ATOM     49  C   UNL A   1      41.707  29.587  29.261  1.00  0.00     0.049 A 
ATOM     50  C   UNL A   1      47.120  28.243  28.626  1.00  0.00     0.074 A 
ATOM     51  C   UNL A   1      41.437  30.848  29.760  1.00  0.00     0.029 A 
ATOM     52  N   UNL A   1      43.086  29.477  29.166  1.00  0.00    -0.354 N 
ATOM     53  N   UNL A   1      45.906  28.693  28.841  1.00  0.00    -0.248 NA
ATOM     54  C   UNL A   1      48.178  29.232  28.872  1.00  0.00     0.031 C 
ATOM     55  C   UNL A   1      42.649  31.524  29.908  1.00  0.00     0.029 A 
ATOM     56  C   UNL A   1      43.679  30.661  29.568  1.00  0.00     0.049 A 
ATOM     57  H   UNL A   1      43.571  28.676  28.861  1.00  0.00     0.167 HD
ATOM     58  C   UNL A   1      46.055  30.005  29.270  1.00  0.00     0.074 A 
ATOM     59  C   UNL A   1      47.478  30.272  29.305  1.00  0.00     0.031 C 
ATOM     60  C   UNL A   1      45.100  30.908  29.603  1.00  0.00     0.037 A 
BRANCH  47  61
ATOM     61  C   UNL A   1      39.307  28.840  29.024  1.00  0.00     0.057 A 
ATOM     62  C   UNL A   1      38.626  28.648  30.234  1.00  0.00     0.134 A 
ATOM     63  C   UNL A   1      38.580  29.372  27.953  1.00  0.00     0.134 A 
ATOM     64  F   UNL A   1      39.258  28.126  31.297  1.00  0.00    -0.206 F 
ATOM     65  C   UNL A   1      37.273  28.961  30.369  1.00  0.00     0.040 A 
ATOM     66  C   UNL A   1      37.236  29.721  28.084  1.00  0.00     0.040 A 
ATOM     67  F   UNL A   1      39.171  29.583  26.766  1.00  0.00    -0.206 F 
ATOM     68  C   UNL A   1      36.577  29.512  29.295  1.00  0.00     0.006 A 
ENDBRANCH  47  61
BRANCH  48  69
ATOM     69  C   UNL A   1      48.998  26.531  28.052  1.00  0.00     0.057 A 
ATOM     70  C   UNL A   1      49.661  26.640  26.824  1.00  0.00     0.134 A 
ATOM     71  C   UNL A   1      49.752  26.107  29.155  1.00  0.00     0.134 A 
ATOM     72  F   UNL A   1      48.991  27.026  25.728  1.00  0.00    -0.206 F 
ATOM     73  C   UNL A   1      51.015  26.329  26.693  1.00  0.00     0.040 A 
ATOM     74  C   UNL A   1      51.113  25.822  29.044  1.00  0.00     0.040 A 
ATOM     75  F   UNL A   1      49.180  25.990  30.362  1.00  0.00    -0.206 F 
ATOM     76  C   UNL A   1      51.748  25.927  27.808  1.00  0.00     0.006 A 
ENDBRANCH  48  69
BRANCH  60  77
ATOM     77  C   UNL A   1      45.550  32.268  30.050  1.00  0.00     0.057 A 
ATOM     78  C   UNL A   1      45.677  33.335  29.152  1.00  0.00     0.134 A 
ATOM     79  C   UNL A   1      45.767  32.536  31.410  1.00  0.00     0.134 A 
ATOM     80  F   UNL A   1      45.490  33.144  27.838  1.00  0.00    -0.206 F 
ATOM     81  C   UNL A   1      46.016  34.616  29.588  1.00  0.00     0.040 A 
ATOM     82  C   UNL A   1      46.073  33.820  31.860  1.00  0.00     0.040 A 
ATOM     83  F   UNL A   1      45.647  31.562  32.324  1.00  0.00    -0.206 F 
ATOM     84  C   UNL A   1      46.202  34.864  30.947  1.00  0.00     0.006 A 
ENDBRANCH  60  77
ENDBRANCH  34  35
ENDBRANCH  26  29
ENDBRANCH  24  25
ENDBRANCH   1  24
TORSDOF 12
ENDMDL
