MODEL 1
REMARK VINA RESULT:     -12.8      0.000      0.000
REMARK SMILES NS(=O)(=O)c1ccc(-n2nc(C(=O)NCCCNC(=O)c3ccc(-c4c5nc(c(-c6c(F)cccc6F)c6ccc([nH]6)c(-c6c(F)cccc6F)c6nc(c(-c7c(F)cccc7F)c7ccc4[nH]7)C=C6)C=C5)cc3)cc2-c2cc3ccccc3s2)cc1
REMARK SMILES IDX 15 1 14 2 12 3 13 4 11 6 9 7 10 8 76 9 75 10 8 11 5 12 6 13
REMARK SMILES IDX 87 14 7 15 86 16 2 17 3 18 4 19 1 20 77 23 78 24 85 25 79 26
REMARK SMILES IDX 84 27 80 28 83 29 81 30 82 31 16 32 17 33 18 34 19 35 20 37
REMARK SMILES IDX 21 38 22 39 74 40 23 41 73 42 24 43 25 44 26 45 67 46 27 47
REMARK SMILES IDX 72 48 66 49 68 50 28 51 71 52 65 53 64 54 29 56 55 57 38 58
REMARK SMILES IDX 54 59 39 60 42 61 53 62 69 63 40 64 41 65 52 67 70 68 43 69
REMARK SMILES IDX 30 70 31 71 36 72 32 73 33 74 35 75 37 76 34 77 56 78 57 79
REMARK SMILES IDX 62 80 58 81 59 82 61 83 63 84 60 85 44 86 45 87 50 88 46 89
REMARK SMILES IDX 47 90 49 91 51 92 48 93
REMARK H PARENT 14 5 1 21 1 22 18 36 68 55 42 66
REMARK Flexibility Score: inf
ROOT
ATOM      1  C   UNL A   1      39.892  20.283  25.952  1.00  0.00     0.118 C 
ENDROOT
BRANCH   1   2
ATOM      2  N   UNL A   1      40.095  21.706  26.210  1.00  0.00    -0.351 N 
ATOM      3  C   UNL A   1      39.232  22.789  26.113  1.00  0.00     0.271 C 
ATOM      4  O   UNL A   1      39.653  23.871  26.526  1.00  0.00    -0.267 OA
ATOM      5  H   UNL A   1      41.004  21.938  26.505  1.00  0.00     0.163 HD
BRANCH   3   6
ATOM      6  C   UNL A   1      37.864  22.606  25.591  1.00  0.00     0.151 A 
ATOM      7  N   UNL A   1      35.865  23.178  25.032  1.00  0.00    -0.231 N 
ATOM      8  N   UNL A   1      37.165  23.592  24.994  1.00  0.00    -0.162 NA
ATOM      9  C   UNL A   1      35.767  21.931  25.607  1.00  0.00     0.085 A 
ATOM     10  C   UNL A   1      37.063  21.454  25.640  1.00  0.00     0.066 A 
BRANCH   7  11
ATOM     11  C   UNL A   1      34.854  23.950  24.411  1.00  0.00     0.065 A 
ATOM     12  C   UNL A   1      32.972  25.618  23.220  1.00  0.00     0.082 A 
ATOM     13  C   UNL A   1      33.417  24.477  22.543  1.00  0.00     0.024 A 
ATOM     14  C   UNL A   1      33.451  25.926  24.495  1.00  0.00     0.024 A 
ATOM     15  C   UNL A   1      34.380  23.653  23.130  1.00  0.00     0.030 A 
ATOM     16  C   UNL A   1      34.369  25.071  25.105  1.00  0.00     0.030 A 
BRANCH  12  17
ATOM     17  S   UNL A   1      31.818  26.710  22.446  1.00  0.00     0.238 S 
ATOM     18  O   UNL A   1      32.416  28.024  22.333  1.00  0.00    -0.207 OA
ATOM     19  O   UNL A   1      30.515  26.487  23.017  1.00  0.00    -0.207 OA
BRANCH  17  20
ATOM     20  N   UNL A   1      31.748  26.135  20.866  1.00  0.00    -0.225 NA
ATOM     21  H   UNL A   1      30.908  26.493  20.411  1.00  0.00     0.137 HD
ATOM     22  H   UNL A   1      31.720  25.116  20.876  1.00  0.00     0.137 HD
ENDBRANCH  17  20
ENDBRANCH  12  17
ENDBRANCH   7  11
BRANCH   9  23
ATOM     23  C   UNL A   1      34.673  21.233  26.220  1.00  0.00     0.054 A 
ATOM     24  C   UNL A   1      33.948  21.699  27.309  1.00  0.00     0.031 A 
ATOM     25  S   UNL A   1      33.529  20.476  25.155  1.00  0.00    -0.134 S 
ATOM     26  C   UNL A   1      32.723  22.281  26.783  1.00  0.00    -0.007 A 
ATOM     27  C   UNL A   1      32.423  21.760  25.517  1.00  0.00     0.035 A 
ATOM     28  C   UNL A   1      31.918  23.336  27.274  1.00  0.00     0.009 A 
ATOM     29  C   UNL A   1      31.393  22.277  24.715  1.00  0.00     0.019 A 
ATOM     30  C   UNL A   1      30.925  23.892  26.459  1.00  0.00     0.001 A 
ATOM     31  C   UNL A   1      30.677  23.377  25.190  1.00  0.00     0.001 A 
ENDBRANCH   9  23
ENDBRANCH   3   6
ENDBRANCH   1   2
BRANCH   1  32
ATOM     32  C   UNL A   1      41.115  19.442  26.344  1.00  0.00     0.042 C 
BRANCH  32  33
ATOM     33  C   UNL A   1      42.361  20.282  26.564  1.00  0.00     0.118 C 
BRANCH  33  34
ATOM     34  N   UNL A   1      43.435  19.978  25.611  1.00  0.00    -0.352 N 
ATOM     35  C   UNL A   1      44.201  20.864  24.873  1.00  0.00     0.251 C 
ATOM     36  H   UNL A   1      43.637  19.024  25.481  1.00  0.00     0.163 HD
ATOM     37  O   UNL A   1      44.814  20.493  23.880  1.00  0.00    -0.269 OA
BRANCH  35  38
ATOM     38  C   UNL A   1      44.258  22.270  25.307  1.00  0.00     0.039 A 
ATOM     39  C   UNL A   1      43.394  23.241  24.790  1.00  0.00     0.014 A 
ATOM     40  C   UNL A   1      45.157  22.583  26.318  1.00  0.00     0.014 A 
ATOM     41  C   UNL A   1      43.367  24.503  25.384  1.00  0.00     0.010 A 
ATOM     42  C   UNL A   1      44.998  23.750  27.014  1.00  0.00     0.010 A 
ATOM     43  C   UNL A   1      44.150  24.739  26.522  1.00  0.00    -0.014 A 
BRANCH  43  44
ATOM     44  C   UNL A   1      43.998  25.955  27.321  1.00  0.00     0.031 A 
ATOM     45  C   UNL A   1      44.941  27.055  26.955  1.00  0.00     0.074 A 
ATOM     46  C   UNL A   1      42.897  26.159  28.081  1.00  0.00     0.049 A 
ATOM     47  N   UNL A   1      45.795  27.668  27.709  1.00  0.00    -0.248 NA
ATOM     48  C   UNL A   1      45.037  27.437  25.532  1.00  0.00     0.031 C 
ATOM     49  C   UNL A   1      41.735  25.268  28.230  1.00  0.00     0.029 A 
ATOM     50  N   UNL A   1      42.494  27.269  28.759  1.00  0.00    -0.354 N 
ATOM     51  C   UNL A   1      46.371  28.659  26.912  1.00  0.00     0.074 A 
ATOM     52  C   UNL A   1      46.030  28.327  25.557  1.00  0.00     0.031 C 
ATOM     53  C   UNL A   1      40.683  25.964  28.706  1.00  0.00     0.029 A 
ATOM     54  C   UNL A   1      41.135  27.294  29.067  1.00  0.00     0.049 A 
ATOM     55  H   UNL A   1      43.112  27.993  29.011  1.00  0.00     0.167 HD
ATOM     56  C   UNL A   1      46.833  29.820  27.460  1.00  0.00     0.037 A 
ATOM     57  C   UNL A   1      40.422  28.344  29.546  1.00  0.00     0.037 A 
ATOM     58  C   UNL A   1      47.048  29.656  28.879  1.00  0.00     0.049 A 
ATOM     59  C   UNL A   1      41.394  29.336  30.064  1.00  0.00     0.074 A 
ATOM     60  C   UNL A   1      47.807  28.807  29.662  1.00  0.00     0.029 A 
ATOM     61  N   UNL A   1      46.123  30.212  29.728  1.00  0.00    -0.354 N 
ATOM     62  N   UNL A   1      42.137  29.146  31.117  1.00  0.00    -0.248 NA
ATOM     63  C   UNL A   1      41.867  30.353  29.139  1.00  0.00     0.031 C 
ATOM     64  C   UNL A   1      46.992  28.529  30.800  1.00  0.00     0.029 A 
ATOM     65  C   UNL A   1      45.824  29.283  30.687  1.00  0.00     0.049 A 
ATOM     66  H   UNL A   1      45.743  31.118  29.660  1.00  0.00     0.167 HD
ATOM     67  C   UNL A   1      43.372  29.675  30.774  1.00  0.00     0.074 A 
ATOM     68  C   UNL A   1      43.119  30.488  29.585  1.00  0.00     0.031 C 
ATOM     69  C   UNL A   1      44.523  29.165  31.302  1.00  0.00     0.037 A 
BRANCH  56  70
ATOM     70  C   UNL A   1      46.667  31.196  26.830  1.00  0.00     0.057 A 
ATOM     71  C   UNL A   1      47.775  32.069  26.823  1.00  0.00     0.134 A 
ATOM     72  C   UNL A   1      45.436  31.816  26.530  1.00  0.00     0.134 A 
ATOM     73  F   UNL A   1      49.016  31.616  27.058  1.00  0.00    -0.206 F 
ATOM     74  C   UNL A   1      47.647  33.458  26.677  1.00  0.00     0.040 A 
ATOM     75  C   UNL A   1      45.305  33.196  26.336  1.00  0.00     0.040 A 
ATOM     76  F   UNL A   1      44.277  31.156  26.486  1.00  0.00    -0.206 F 
ATOM     77  C   UNL A   1      46.403  34.028  26.453  1.00  0.00     0.006 A 
ENDBRANCH  56  70
BRANCH  57  78
ATOM     78  C   UNL A   1      38.995  28.682  29.345  1.00  0.00     0.057 A 
ATOM     79  C   UNL A   1      38.102  28.723  30.425  1.00  0.00     0.134 A 
ATOM     80  C   UNL A   1      38.530  29.242  28.141  1.00  0.00     0.134 A 
ATOM     81  F   UNL A   1      38.465  28.247  31.626  1.00  0.00    -0.206 F 
ATOM     82  C   UNL A   1      36.833  29.311  30.326  1.00  0.00     0.040 A 
ATOM     83  C   UNL A   1      37.263  29.827  28.026  1.00  0.00     0.040 A 
ATOM     84  F   UNL A   1      39.323  29.322  27.064  1.00  0.00    -0.206 F 
ATOM     85  C   UNL A   1      36.415  29.877  29.126  1.00  0.00     0.006 A 
ENDBRANCH  57  78
BRANCH  69  86
ATOM     86  C   UNL A   1      44.410  28.226  32.471  1.00  0.00     0.057 A 
ATOM     87  C   UNL A   1      44.250  28.628  33.806  1.00  0.00     0.134 A 
ATOM     88  C   UNL A   1      44.313  26.854  32.212  1.00  0.00     0.134 A 
ATOM     89  F   UNL A   1      44.226  29.923  34.144  1.00  0.00    -0.206 F 
ATOM     90  C   UNL A   1      44.050  27.705  34.837  1.00  0.00     0.040 A 
ATOM     91  C   UNL A   1      44.076  25.925  33.226  1.00  0.00     0.040 A 
ATOM     92  F   UNL A   1      44.400  26.397  30.952  1.00  0.00    -0.206 F 
ATOM     93  C   UNL A   1      43.956  26.348  34.546  1.00  0.00     0.006 A 
ENDBRANCH  69  86
ENDBRANCH  43  44
ENDBRANCH  35  38
ENDBRANCH  33  34
ENDBRANCH  32  33
ENDBRANCH   1  32
TORSDOF 14
ENDMDL
MODEL 2
REMARK VINA RESULT:     -12.6      3.875      8.966
REMARK SMILES NS(=O)(=O)c1ccc(-n2nc(C(=O)NCCCNC(=O)c3ccc(-c4c5nc(c(-c6c(F)cccc6F)c6ccc([nH]6)c(-c6c(F)cccc6F)c6nc(c(-c7c(F)cccc7F)c7ccc4[nH]7)C=C6)C=C5)cc3)cc2-c2cc3ccccc3s2)cc1
REMARK SMILES IDX 15 1 14 2 12 3 13 4 11 6 9 7 10 8 76 9 75 10 8 11 5 12 6 13
REMARK SMILES IDX 87 14 7 15 86 16 2 17 3 18 4 19 1 20 77 23 78 24 85 25 79 26
REMARK SMILES IDX 84 27 80 28 83 29 81 30 82 31 16 32 17 33 18 34 19 35 20 37
REMARK SMILES IDX 21 38 22 39 74 40 23 41 73 42 24 43 25 44 26 45 67 46 27 47
REMARK SMILES IDX 72 48 66 49 68 50 28 51 71 52 65 53 64 54 29 56 55 57 38 58
REMARK SMILES IDX 54 59 39 60 42 61 53 62 69 63 40 64 41 65 52 67 70 68 43 69
REMARK SMILES IDX 30 70 31 71 36 72 32 73 33 74 35 75 37 76 34 77 56 78 57 79
REMARK SMILES IDX 62 80 58 81 59 82 61 83 63 84 60 85 44 86 45 87 50 88 46 89
REMARK SMILES IDX 47 90 49 91 51 92 48 93
REMARK H PARENT 14 5 1 21 1 22 18 36 68 55 42 66
REMARK Flexibility Score: inf
ROOT
ATOM      1  C   UNL A   1      33.111  32.957  27.657  1.00  0.00     0.118 C 
ENDROOT
BRANCH   1   2
ATOM      2  N   UNL A   1      34.158  32.134  28.256  1.00  0.00    -0.351 N 
ATOM      3  C   UNL A   1      34.460  30.787  28.115  1.00  0.00     0.271 C 
ATOM      4  O   UNL A   1      35.496  30.392  28.652  1.00  0.00    -0.267 OA
ATOM      5  H   UNL A   1      34.753  32.621  28.869  1.00  0.00     0.163 HD
BRANCH   3   6
ATOM      6  C   UNL A   1      33.593  29.911  27.302  1.00  0.00     0.151 A 
ATOM      7  N   UNL A   1      33.000  28.115  26.274  1.00  0.00    -0.231 N 
ATOM      8  N   UNL A   1      33.584  28.568  27.422  1.00  0.00    -0.162 NA
ATOM      9  C   UNL A   1      32.615  29.167  25.474  1.00  0.00     0.085 A 
ATOM     10  C   UNL A   1      32.692  30.279  26.290  1.00  0.00     0.066 A 
BRANCH   7  11
ATOM     11  C   UNL A   1      32.755  26.732  26.098  1.00  0.00     0.065 A 
ATOM     12  C   UNL A   1      32.423  23.980  25.860  1.00  0.00     0.082 A 
ATOM     13  C   UNL A   1      31.347  24.777  26.266  1.00  0.00     0.024 A 
ATOM     14  C   UNL A   1      33.662  24.549  25.560  1.00  0.00     0.024 A 
ATOM     15  C   UNL A   1      31.520  26.156  26.410  1.00  0.00     0.030 A 
ATOM     16  C   UNL A   1      33.818  25.932  25.647  1.00  0.00     0.030 A 
BRANCH  12  17
ATOM     17  S   UNL A   1      32.231  22.226  25.760  1.00  0.00     0.238 S 
ATOM     18  O   UNL A   1      32.999  21.607  26.821  1.00  0.00    -0.207 OA
ATOM     19  O   UNL A   1      32.337  21.827  24.381  1.00  0.00    -0.207 OA
BRANCH  17  20
ATOM     20  N   UNL A   1      30.625  21.990  26.200  1.00  0.00    -0.225 NA
ATOM     21  H   UNL A   1      30.049  22.729  25.796  1.00  0.00     0.137 HD
ATOM     22  H   UNL A   1      30.543  22.013  27.216  1.00  0.00     0.137 HD
ENDBRANCH  17  20
ENDBRANCH  12  17
ENDBRANCH   7  11
BRANCH   9  23
ATOM     23  C   UNL A   1      32.332  29.260  24.070  1.00  0.00     0.054 A 
ATOM     24  C   UNL A   1      33.209  28.888  23.059  1.00  0.00     0.031 A 
ATOM     25  S   UNL A   1      30.749  28.767  23.554  1.00  0.00    -0.134 S 
ATOM     26  C   UNL A   1      32.806  27.562  22.617  1.00  0.00    -0.007 A 
ATOM     27  C   UNL A   1      31.462  27.316  22.932  1.00  0.00     0.035 A 
ATOM     28  C   UNL A   1      33.566  26.500  22.076  1.00  0.00     0.009 A 
ATOM     29  C   UNL A   1      30.872  26.051  22.773  1.00  0.00     0.019 A 
ATOM     30  C   UNL A   1      33.000  25.224  21.963  1.00  0.00     0.001 A 
ATOM     31  C   UNL A   1      31.674  25.001  22.322  1.00  0.00     0.001 A 
ENDBRANCH   9  23
ENDBRANCH   3   6
ENDBRANCH   1   2
BRANCH   1  32
ATOM     32  C   UNL A   1      33.140  34.402  28.177  1.00  0.00     0.042 C 
BRANCH  32  33
ATOM     33  C   UNL A   1      34.200  34.623  29.242  1.00  0.00     0.118 C 
BRANCH  33  34
ATOM     34  N   UNL A   1      33.646  35.103  30.514  1.00  0.00    -0.352 N 
ATOM     35  C   UNL A   1      33.877  34.613  31.787  1.00  0.00     0.251 C 
ATOM     36  H   UNL A   1      33.034  35.872  30.453  1.00  0.00     0.163 HD
ATOM     37  O   UNL A   1      33.112  34.866  32.709  1.00  0.00    -0.269 OA
BRANCH  35  38
ATOM     38  C   UNL A   1      35.065  33.772  32.009  1.00  0.00     0.039 A 
ATOM     39  C   UNL A   1      35.025  32.380  31.872  1.00  0.00     0.014 A 
ATOM     40  C   UNL A   1      36.259  34.426  32.284  1.00  0.00     0.014 A 
ATOM     41  C   UNL A   1      36.223  31.667  31.900  1.00  0.00     0.010 A 
ATOM     42  C   UNL A   1      37.440  33.754  32.126  1.00  0.00     0.010 A 
ATOM     43  C   UNL A   1      37.434  32.367  31.994  1.00  0.00    -0.014 A 
BRANCH  43  44
ATOM     44  C   UNL A   1      38.723  31.703  31.801  1.00  0.00     0.031 A 
ATOM     45  C   UNL A   1      39.433  31.355  33.069  1.00  0.00     0.074 A 
ATOM     46  C   UNL A   1      39.064  31.172  30.603  1.00  0.00     0.049 A 
ATOM     47  N   UNL A   1      40.616  31.708  33.453  1.00  0.00    -0.248 NA
ATOM     48  C   UNL A   1      38.677  30.622  34.105  1.00  0.00     0.031 C 
ATOM     49  C   UNL A   1      38.263  31.161  29.369  1.00  0.00     0.029 A 
ATOM     50  N   UNL A   1      40.124  30.389  30.262  1.00  0.00    -0.354 N 
ATOM     51  C   UNL A   1      40.837  31.059  34.670  1.00  0.00     0.074 A 
ATOM     52  C   UNL A   1      39.551  30.596  35.111  1.00  0.00     0.031 C 
ATOM     53  C   UNL A   1      38.723  30.207  28.535  1.00  0.00     0.029 A 
ATOM     54  C   UNL A   1      39.950  29.666  29.084  1.00  0.00     0.049 A 
ATOM     55  H   UNL A   1      40.945  30.338  30.804  1.00  0.00     0.167 HD
ATOM     56  C   UNL A   1      42.097  30.713  35.061  1.00  0.00     0.037 A 
ATOM     57  C   UNL A   1      40.736  28.666  28.613  1.00  0.00     0.037 A 
ATOM     58  C   UNL A   1      43.080  31.476  34.328  1.00  0.00     0.049 A 
ATOM     59  C   UNL A   1      42.022  28.735  29.345  1.00  0.00     0.074 A 
ATOM     60  C   UNL A   1      43.342  32.821  34.154  1.00  0.00     0.029 A 
ATOM     61  N   UNL A   1      43.759  30.834  33.322  1.00  0.00    -0.354 N 
ATOM     62  N   UNL A   1      42.887  29.700  29.210  1.00  0.00    -0.248 NA
ATOM     63  C   UNL A   1      42.136  27.958  30.569  1.00  0.00     0.031 C 
ATOM     64  C   UNL A   1      43.740  32.944  32.788  1.00  0.00     0.029 A 
ATOM     65  C   UNL A   1      43.777  31.664  32.234  1.00  0.00     0.049 A 
ATOM     66  H   UNL A   1      44.162  29.937  33.374  1.00  0.00     0.167 HD
ATOM     67  C   UNL A   1      43.343  29.942  30.497  1.00  0.00     0.074 A 
ATOM     68  C   UNL A   1      42.920  28.778  31.275  1.00  0.00     0.031 C 
ATOM     69  C   UNL A   1      43.753  31.190  30.871  1.00  0.00     0.037 A 
BRANCH  56  70
ATOM     70  C   UNL A   1      42.454  29.405  35.755  1.00  0.00     0.057 A 
ATOM     71  C   UNL A   1      43.418  29.432  36.784  1.00  0.00     0.134 A 
ATOM     72  C   UNL A   1      42.155  28.114  35.272  1.00  0.00     0.134 A 
ATOM     73  F   UNL A   1      43.779  30.587  37.365  1.00  0.00    -0.206 F 
ATOM     74  C   UNL A   1      44.129  28.294  37.190  1.00  0.00     0.040 A 
ATOM     75  C   UNL A   1      42.826  26.964  35.704  1.00  0.00     0.040 A 
ATOM     76  F   UNL A   1      41.268  27.883  34.301  1.00  0.00    -0.206 F 
ATOM     77  C   UNL A   1      43.847  27.056  36.633  1.00  0.00     0.006 A 
ENDBRANCH  56  70
BRANCH  57  78
ATOM     78  C   UNL A   1      40.371  27.493  27.785  1.00  0.00     0.057 A 
ATOM     79  C   UNL A   1      40.979  27.268  26.542  1.00  0.00     0.134 A 
ATOM     80  C   UNL A   1      39.627  26.420  28.310  1.00  0.00     0.134 A 
ATOM     81  F   UNL A   1      41.739  28.216  25.975  1.00  0.00    -0.206 F 
ATOM     82  C   UNL A   1      40.880  26.041  25.872  1.00  0.00     0.040 A 
ATOM     83  C   UNL A   1      39.514  25.192  27.648  1.00  0.00     0.040 A 
ATOM     84  F   UNL A   1      39.062  26.499  29.522  1.00  0.00    -0.206 F 
ATOM     85  C   UNL A   1      40.155  24.993  26.431  1.00  0.00     0.006 A 
ENDBRANCH  57  78
BRANCH  69  86
ATOM     86  C   UNL A   1      43.972  32.215  29.794  1.00  0.00     0.057 A 
ATOM     87  C   UNL A   1      43.012  33.148  29.373  1.00  0.00     0.134 A 
ATOM     88  C   UNL A   1      45.259  32.356  29.265  1.00  0.00     0.134 A 
ATOM     89  F   UNL A   1      41.779  33.161  29.894  1.00  0.00    -0.206 F 
ATOM     90  C   UNL A   1      43.309  34.142  28.436  1.00  0.00     0.040 A 
ATOM     91  C   UNL A   1      45.579  33.367  28.357  1.00  0.00     0.040 A 
ATOM     92  F   UNL A   1      46.246  31.536  29.662  1.00  0.00    -0.206 F 
ATOM     93  C   UNL A   1      44.599  34.258  27.930  1.00  0.00     0.006 A 
ENDBRANCH  69  86
ENDBRANCH  43  44
ENDBRANCH  35  38
ENDBRANCH  33  34
ENDBRANCH  32  33
ENDBRANCH   1  32
TORSDOF 14
ENDMDL
MODEL 3
REMARK VINA RESULT:     -12.2      4.334      9.319
REMARK SMILES NS(=O)(=O)c1ccc(-n2nc(C(=O)NCCCNC(=O)c3ccc(-c4c5nc(c(-c6c(F)cccc6F)c6ccc([nH]6)c(-c6c(F)cccc6F)c6nc(c(-c7c(F)cccc7F)c7ccc4[nH]7)C=C6)C=C5)cc3)cc2-c2cc3ccccc3s2)cc1
REMARK SMILES IDX 15 1 14 2 12 3 13 4 11 6 9 7 10 8 76 9 75 10 8 11 5 12 6 13
REMARK SMILES IDX 87 14 7 15 86 16 2 17 3 18 4 19 1 20 77 23 78 24 85 25 79 26
REMARK SMILES IDX 84 27 80 28 83 29 81 30 82 31 16 32 17 33 18 34 19 35 20 37
REMARK SMILES IDX 21 38 22 39 74 40 23 41 73 42 24 43 25 44 26 45 67 46 27 47
REMARK SMILES IDX 72 48 66 49 68 50 28 51 71 52 65 53 64 54 29 56 55 57 38 58
REMARK SMILES IDX 54 59 39 60 42 61 53 62 69 63 40 64 41 65 52 67 70 68 43 69
REMARK SMILES IDX 30 70 31 71 36 72 32 73 33 74 35 75 37 76 34 77 56 78 57 79
REMARK SMILES IDX 62 80 58 81 59 82 61 83 63 84 60 85 44 86 45 87 50 88 46 89
REMARK SMILES IDX 47 90 49 91 51 92 48 93
REMARK H PARENT 14 5 1 21 1 22 18 36 68 55 42 66
REMARK Flexibility Score: inf
ROOT
ATOM      1  C   UNL A   1      32.810  33.175  27.775  1.00  0.00     0.118 C 
ENDROOT
BRANCH   1   2
ATOM      2  N   UNL A   1      34.100  32.528  27.996  1.00  0.00    -0.351 N 
ATOM      3  C   UNL A   1      34.573  31.275  27.634  1.00  0.00     0.271 C 
ATOM      4  O   UNL A   1      35.766  31.050  27.847  1.00  0.00    -0.267 OA
ATOM      5  H   UNL A   1      34.749  33.079  28.490  1.00  0.00     0.163 HD
BRANCH   3   6
ATOM      6  C   UNL A   1      33.678  30.304  26.974  1.00  0.00     0.151 A 
ATOM      7  N   UNL A   1      33.073  28.405  26.160  1.00  0.00    -0.231 N 
ATOM      8  N   UNL A   1      33.726  28.978  27.213  1.00  0.00    -0.162 NA
ATOM      9  C   UNL A   1      32.591  29.368  25.302  1.00  0.00     0.085 A 
ATOM     10  C   UNL A   1      32.691  30.551  26.008  1.00  0.00     0.066 A 
BRANCH   7  11
ATOM     11  C   UNL A   1      32.865  27.005  26.128  1.00  0.00     0.065 A 
ATOM     12  C   UNL A   1      32.605  24.235  26.175  1.00  0.00     0.082 A 
ATOM     13  C   UNL A   1      31.509  25.042  26.500  1.00  0.00     0.024 A 
ATOM     14  C   UNL A   1      33.828  24.803  25.812  1.00  0.00     0.024 A 
ATOM     15  C   UNL A   1      31.646  26.432  26.502  1.00  0.00     0.030 A 
ATOM     16  C   UNL A   1      33.947  26.191  25.757  1.00  0.00     0.030 A 
BRANCH  12  17
ATOM     17  S   UNL A   1      32.460  22.476  26.256  1.00  0.00     0.238 S 
ATOM     18  O   UNL A   1      33.665  21.879  25.717  1.00  0.00    -0.207 OA
ATOM     19  O   UNL A   1      31.138  22.100  25.825  1.00  0.00    -0.207 OA
BRANCH  17  20
ATOM     20  N   UNL A   1      32.528  22.161  27.907  1.00  0.00    -0.225 NA
ATOM     21  H   UNL A   1      32.534  23.042  28.421  1.00  0.00     0.137 HD
ATOM     22  H   UNL A   1      33.377  21.638  28.119  1.00  0.00     0.137 HD
ENDBRANCH  17  20
ENDBRANCH  12  17
ENDBRANCH   7  11
BRANCH   9  23
ATOM     23  C   UNL A   1      32.199  29.324  23.922  1.00  0.00     0.054 A 
ATOM     24  C   UNL A   1      32.995  28.849  22.888  1.00  0.00     0.031 A 
ATOM     25  S   UNL A   1      30.581  28.792  23.583  1.00  0.00    -0.134 S 
ATOM     26  C   UNL A   1      32.560  27.488  22.611  1.00  0.00    -0.007 A 
ATOM     27  C   UNL A   1      31.246  27.282  23.053  1.00  0.00     0.035 A 
ATOM     28  C   UNL A   1      33.278  26.373  22.121  1.00  0.00     0.009 A 
ATOM     29  C   UNL A   1      30.647  26.012  23.066  1.00  0.00     0.019 A 
ATOM     30  C   UNL A   1      32.707  25.096  22.179  1.00  0.00     0.001 A 
ATOM     31  C   UNL A   1      31.413  24.918  22.659  1.00  0.00     0.001 A 
ENDBRANCH   9  23
ENDBRANCH   3   6
ENDBRANCH   1   2
BRANCH   1  32
ATOM     32  C   UNL A   1      32.785  34.616  28.301  1.00  0.00     0.042 C 
BRANCH  32  33
ATOM     33  C   UNL A   1      33.738  34.835  29.464  1.00  0.00     0.118 C 
BRANCH  33  34
ATOM     34  N   UNL A   1      33.052  35.202  30.709  1.00  0.00    -0.352 N 
ATOM     35  C   UNL A   1      33.302  34.743  31.990  1.00  0.00     0.251 C 
ATOM     36  H   UNL A   1      32.323  35.857  30.621  1.00  0.00     0.163 HD
ATOM     37  O   UNL A   1      32.463  34.855  32.876  1.00  0.00    -0.269 OA
BRANCH  35  38
ATOM     38  C   UNL A   1      34.603  34.111  32.267  1.00  0.00     0.039 A 
ATOM     39  C   UNL A   1      34.784  32.726  32.200  1.00  0.00     0.014 A 
ATOM     40  C   UNL A   1      35.675  34.958  32.521  1.00  0.00     0.014 A 
ATOM     41  C   UNL A   1      36.077  32.211  32.277  1.00  0.00     0.010 A 
ATOM     42  C   UNL A   1      36.949  34.472  32.410  1.00  0.00     0.010 A 
ATOM     43  C   UNL A   1      37.162  33.097  32.347  1.00  0.00    -0.014 A 
BRANCH  43  44
ATOM     44  C   UNL A   1      38.543  32.635  32.202  1.00  0.00     0.031 A 
ATOM     45  C   UNL A   1      39.304  32.554  33.485  1.00  0.00     0.074 A 
ATOM     46  C   UNL A   1      38.963  32.036  31.064  1.00  0.00     0.049 A 
ATOM     47  N   UNL A   1      40.414  33.137  33.802  1.00  0.00    -0.248 NA
ATOM     48  C   UNL A   1      38.682  31.830  34.612  1.00  0.00     0.031 C 
ATOM     49  C   UNL A   1      38.171  31.754  29.856  1.00  0.00     0.029 A 
ATOM     50  N   UNL A   1      40.136  31.402  30.789  1.00  0.00    -0.354 N 
ATOM     51  C   UNL A   1      40.742  32.675  35.078  1.00  0.00     0.074 A 
ATOM     52  C   UNL A   1      39.552  32.061  35.596  1.00  0.00     0.031 C 
ATOM     53  C   UNL A   1      38.779  30.800  29.123  1.00  0.00     0.029 A 
ATOM     54  C   UNL A   1      40.081  30.532  29.703  1.00  0.00     0.049 A 
ATOM     55  H   UNL A   1      40.956  31.548  31.316  1.00  0.00     0.167 HD
ATOM     56  C   UNL A   1      42.043  32.586  35.479  1.00  0.00     0.037 A 
ATOM     57  C   UNL A   1      41.019  29.627  29.328  1.00  0.00     0.037 A 
ATOM     58  C   UNL A   1      42.885  33.412  34.645  1.00  0.00     0.049 A 
ATOM     59  C   UNL A   1      42.279  29.988  30.021  1.00  0.00     0.074 A 
ATOM     60  C   UNL A   1      42.921  34.753  34.316  1.00  0.00     0.029 A 
ATOM     61  N   UNL A   1      43.657  32.780  33.701  1.00  0.00    -0.354 N 
ATOM     62  N   UNL A   1      42.972  31.060  29.761  1.00  0.00    -0.248 NA
ATOM     63  C   UNL A   1      42.523  29.384  31.321  1.00  0.00     0.031 C 
ATOM     64  C   UNL A   1      43.290  34.784  32.937  1.00  0.00     0.029 A 
ATOM     65  C   UNL A   1      43.535  33.473  32.528  1.00  0.00     0.049 A 
ATOM     66  H   UNL A   1      44.203  31.972  33.844  1.00  0.00     0.167 HD
ATOM     67  C   UNL A   1      43.386  31.518  31.003  1.00  0.00     0.074 A 
ATOM     68  C   UNL A   1      43.163  30.396  31.914  1.00  0.00     0.031 C 
ATOM     69  C   UNL A   1      43.586  32.850  31.227  1.00  0.00     0.037 A 
BRANCH  56  70
ATOM     70  C   UNL A   1      42.613  31.441  36.305  1.00  0.00     0.057 A 
ATOM     71  C   UNL A   1      43.474  31.752  37.379  1.00  0.00     0.134 A 
ATOM     72  C   UNL A   1      42.625  30.083  35.925  1.00  0.00     0.134 A 
ATOM     73  F   UNL A   1      43.544  32.997  37.872  1.00  0.00    -0.206 F 
ATOM     74  C   UNL A   1      44.374  30.825  37.924  1.00  0.00     0.040 A 
ATOM     75  C   UNL A   1      43.487  29.139  36.495  1.00  0.00     0.040 A 
ATOM     76  F   UNL A   1      41.877  29.595  34.932  1.00  0.00    -0.206 F 
ATOM     77  C   UNL A   1      44.397  29.517  37.465  1.00  0.00     0.006 A 
ENDBRANCH  56  70
BRANCH  57  78
ATOM     78  C   UNL A   1      40.850  28.324  28.645  1.00  0.00     0.057 A 
ATOM     79  C   UNL A   1      40.075  27.304  29.214  1.00  0.00     0.134 A 
ATOM     80  C   UNL A   1      41.210  28.144  27.297  1.00  0.00     0.134 A 
ATOM     81  F   UNL A   1      39.651  27.401  30.483  1.00  0.00    -0.206 F 
ATOM     82  C   UNL A   1      39.656  26.185  28.482  1.00  0.00     0.040 A 
ATOM     83  C   UNL A   1      40.805  27.028  26.555  1.00  0.00     0.040 A 
ATOM     84  F   UNL A   1      41.890  29.088  26.630  1.00  0.00    -0.206 F 
ATOM     85  C   UNL A   1      40.011  26.051  27.143  1.00  0.00     0.006 A 
ENDBRANCH  57  78
BRANCH  69  86
ATOM     86  C   UNL A   1      43.629  33.769  30.038  1.00  0.00     0.057 A 
ATOM     87  C   UNL A   1      44.746  33.946  29.207  1.00  0.00     0.134 A 
ATOM     88  C   UNL A   1      42.441  34.389  29.635  1.00  0.00     0.134 A 
ATOM     89  F   UNL A   1      45.902  33.315  29.450  1.00  0.00    -0.206 F 
ATOM     90  C   UNL A   1      44.693  34.740  28.057  1.00  0.00     0.040 A 
ATOM     91  C   UNL A   1      42.364  35.153  28.469  1.00  0.00     0.040 A 
ATOM     92  F   UNL A   1      41.316  34.220  30.349  1.00  0.00    -0.206 F 
ATOM     93  C   UNL A   1      43.496  35.340  27.682  1.00  0.00     0.006 A 
ENDBRANCH  69  86
ENDBRANCH  43  44
ENDBRANCH  35  38
ENDBRANCH  33  34
ENDBRANCH  32  33
ENDBRANCH   1  32
TORSDOF 14
ENDMDL
