MODEL 1
REMARK VINA RESULT:     -12.1      0.000      0.000
REMARK SMILES Cc1ccc(S(=O)(=O)/C=C/C(=O)NCCCNC(=O)c2ccc(-c3c4nc(c(-c5c(F)cccc5F)c5ccc([nH]5)c(-c5c(F)cccc5F)c5nc(c(-c6c(F)cccc6F)c6ccc3[nH]6)C=C5)C=C4)cc2)cc1
REMARK SMILES IDX 15 1 14 2 13 3 11 4 12 5 10 7 9 8 6 9 7 10 8 11 5 12 1 13
REMARK SMILES IDX 2 14 3 15 75 16 4 17 74 18 16 19 17 20 18 21 19 23 20 24
REMARK SMILES IDX 21 25 73 26 22 27 72 28 23 29 24 30 25 31 66 32 26 33 71 34
REMARK SMILES IDX 65 35 67 36 27 37 70 38 64 39 63 40 28 42 54 43 37 44 53 45
REMARK SMILES IDX 38 46 41 47 52 48 68 49 39 50 40 51 51 53 69 54 42 55 29 56
REMARK SMILES IDX 30 57 35 58 31 59 32 60 34 61 36 62 33 63 55 64 56 65 61 66
REMARK SMILES IDX 57 67 58 68 60 69 62 70 59 71 43 72 44 73 49 74 45 75 46 76
REMARK SMILES IDX 48 77 50 78 47 79
REMARK H PARENT 13 6 17 22 67 41 41 52
REMARK Flexibility Score: inf
ROOT
ATOM      1  C   UNL A   1      32.387  30.450  26.260  1.00  0.00     0.042 C 
ENDROOT
BRANCH   1   2
ATOM      2  C   UNL A   1      32.234  29.318  25.248  1.00  0.00     0.118 C 
BRANCH   2   3
ATOM      3  N   UNL A   1      33.152  29.470  24.125  1.00  0.00    -0.352 N 
ATOM      4  C   UNL A   1      33.769  28.491  23.406  1.00  0.00     0.244 C 
ATOM      5  O   UNL A   1      34.506  28.738  22.459  1.00  0.00    -0.270 OA
ATOM      6  H   UNL A   1      33.352  30.396  23.854  1.00  0.00     0.163 HD
BRANCH   4   7
ATOM      7  C   UNL A   1      33.503  27.102  23.796  1.00  0.00     0.083 C 
ATOM      8  C   UNL A   1      33.594  26.149  22.860  1.00  0.00     0.117 C 
BRANCH   8   9
ATOM      9  S   UNL A   1      33.343  24.504  23.313  1.00  0.00     0.200 S 
ATOM     10  O   UNL A   1      33.092  23.729  22.118  1.00  0.00    -0.219 OA
ATOM     11  O   UNL A   1      32.390  24.496  24.414  1.00  0.00    -0.219 OA
BRANCH   9  12
ATOM     12  C   UNL A   1      34.881  23.914  23.986  1.00  0.00     0.071 A 
ATOM     13  C   UNL A   1      38.437  22.429  25.884  1.00  0.00     0.044 C 
ATOM     14  C   UNL A   1      37.201  22.953  25.215  1.00  0.00    -0.051 A 
ATOM     15  C   UNL A   1      36.382  23.875  25.878  1.00  0.00     0.005 A 
ATOM     16  C   UNL A   1      36.866  22.545  23.918  1.00  0.00     0.005 A 
ATOM     17  C   UNL A   1      35.220  24.351  25.270  1.00  0.00     0.021 A 
ATOM     18  C   UNL A   1      35.711  23.026  23.298  1.00  0.00     0.021 A 
ENDBRANCH   9  12
ENDBRANCH   8   9
ENDBRANCH   4   7
ENDBRANCH   2   3
ENDBRANCH   1   2
BRANCH   1  19
ATOM     19  C   UNL A   1      33.441  30.143  27.311  1.00  0.00     0.118 C 
BRANCH  19  20
ATOM     20  N   UNL A   1      34.113  31.320  27.850  1.00  0.00    -0.352 N 
ATOM     21  C   UNL A   1      35.321  31.432  28.517  1.00  0.00     0.251 C 
ATOM     22  H   UNL A   1      33.633  32.169  27.720  1.00  0.00     0.163 HD
ATOM     23  O   UNL A   1      35.672  32.524  28.954  1.00  0.00    -0.269 OA
BRANCH  21  24
ATOM     24  C   UNL A   1      36.258  30.282  28.573  1.00  0.00     0.039 A 
ATOM     25  C   UNL A   1      36.358  29.566  29.777  1.00  0.00     0.014 A 
ATOM     26  C   UNL A   1      37.176  30.055  27.557  1.00  0.00     0.014 A 
ATOM     27  C   UNL A   1      37.520  28.850  30.056  1.00  0.00     0.010 A 
ATOM     28  C   UNL A   1      38.378  29.471  27.881  1.00  0.00     0.010 A 
ATOM     29  C   UNL A   1      38.572  28.920  29.150  1.00  0.00    -0.014 A 
BRANCH  29  30
ATOM     30  C   UNL A   1      39.936  28.484  29.408  1.00  0.00     0.031 A 
ATOM     31  C   UNL A   1      40.376  27.165  28.910  1.00  0.00     0.074 A 
ATOM     32  C   UNL A   1      40.834  29.383  29.866  1.00  0.00     0.049 A 
ATOM     33  N   UNL A   1      41.518  26.629  29.163  1.00  0.00    -0.248 NA
ATOM     34  C   UNL A   1      39.514  26.317  28.097  1.00  0.00     0.031 C 
ATOM     35  C   UNL A   1      42.288  29.320  29.757  1.00  0.00     0.029 A 
ATOM     36  N   UNL A   1      40.597  30.469  30.720  1.00  0.00    -0.354 N 
ATOM     37  C   UNL A   1      41.656  25.516  28.364  1.00  0.00     0.074 A 
ATOM     38  C   UNL A   1      40.352  25.330  27.775  1.00  0.00     0.031 C 
ATOM     39  C   UNL A   1      42.828  30.104  30.703  1.00  0.00     0.029 A 
ATOM     40  C   UNL A   1      41.741  30.547  31.556  1.00  0.00     0.049 A 
ATOM     41  H   UNL A   1      39.807  31.054  30.737  1.00  0.00     0.167 HD
ATOM     42  C   UNL A   1      42.893  24.957  28.233  1.00  0.00     0.037 A 
ATOM     43  C   UNL A   1      41.645  30.282  32.893  1.00  0.00     0.037 A 
ATOM     44  C   UNL A   1      43.836  25.570  29.174  1.00  0.00     0.049 A 
ATOM     45  C   UNL A   1      42.461  29.098  33.372  1.00  0.00     0.074 A 
ATOM     46  C   UNL A   1      44.804  26.558  29.087  1.00  0.00     0.029 A 
ATOM     47  N   UNL A   1      43.637  25.350  30.523  1.00  0.00    -0.354 N 
ATOM     48  N   UNL A   1      43.124  28.295  32.586  1.00  0.00    -0.248 NA
ATOM     49  C   UNL A   1      42.514  28.670  34.771  1.00  0.00     0.031 C 
ATOM     50  C   UNL A   1      45.146  26.956  30.415  1.00  0.00     0.029 A 
ATOM     51  C   UNL A   1      44.397  26.199  31.298  1.00  0.00     0.049 A 
ATOM     52  H   UNL A   1      43.026  24.669  30.886  1.00  0.00     0.167 HD
ATOM     53  C   UNL A   1      43.599  27.238  33.313  1.00  0.00     0.074 A 
ATOM     54  C   UNL A   1      43.213  27.525  34.682  1.00  0.00     0.031 C 
ATOM     55  C   UNL A   1      44.221  26.170  32.740  1.00  0.00     0.037 A 
BRANCH  42  56
ATOM     56  C   UNL A   1      43.330  23.980  27.159  1.00  0.00     0.057 A 
ATOM     57  C   UNL A   1      43.915  24.460  25.967  1.00  0.00     0.134 A 
ATOM     58  C   UNL A   1      43.164  22.584  27.183  1.00  0.00     0.134 A 
ATOM     59  F   UNL A   1      44.222  25.754  25.802  1.00  0.00    -0.206 F 
ATOM     60  C   UNL A   1      44.220  23.637  24.874  1.00  0.00     0.040 A 
ATOM     61  C   UNL A   1      43.435  21.752  26.087  1.00  0.00     0.040 A 
ATOM     62  F   UNL A   1      42.784  21.923  28.276  1.00  0.00    -0.206 F 
ATOM     63  C   UNL A   1      43.954  22.279  24.919  1.00  0.00     0.006 A 
ENDBRANCH  42  56
BRANCH  43  64
ATOM     64  C   UNL A   1      40.323  30.673  33.449  1.00  0.00     0.057 A 
ATOM     65  C   UNL A   1      40.066  32.038  33.675  1.00  0.00     0.134 A 
ATOM     66  C   UNL A   1      39.219  29.822  33.349  1.00  0.00     0.134 A 
ATOM     67  F   UNL A   1      41.085  32.907  33.779  1.00  0.00    -0.206 F 
ATOM     68  C   UNL A   1      38.769  32.552  33.662  1.00  0.00     0.040 A 
ATOM     69  C   UNL A   1      37.914  30.325  33.353  1.00  0.00     0.040 A 
ATOM     70  F   UNL A   1      39.385  28.512  33.115  1.00  0.00    -0.206 F 
ATOM     71  C   UNL A   1      37.689  31.697  33.462  1.00  0.00     0.006 A 
ENDBRANCH  43  64
BRANCH  55  72
ATOM     72  C   UNL A   1      44.700  24.989  33.522  1.00  0.00     0.057 A 
ATOM     73  C   UNL A   1      46.053  24.632  33.576  1.00  0.00     0.134 A 
ATOM     74  C   UNL A   1      43.798  24.097  34.132  1.00  0.00     0.134 A 
ATOM     75  F   UNL A   1      46.990  25.406  33.009  1.00  0.00    -0.206 F 
ATOM     76  C   UNL A   1      46.482  23.454  34.199  1.00  0.00     0.040 A 
ATOM     77  C   UNL A   1      44.208  22.897  34.715  1.00  0.00     0.040 A 
ATOM     78  F   UNL A   1      42.486  24.369  34.200  1.00  0.00    -0.206 F 
ATOM     79  C   UNL A   1      45.557  22.574  34.753  1.00  0.00     0.006 A 
ENDBRANCH  55  72
ENDBRANCH  29  30
ENDBRANCH  21  24
ENDBRANCH  19  20
ENDBRANCH   1  19
TORSDOF 12
ENDMDL
MODEL 2
REMARK VINA RESULT:     -12.0      1.087      1.846
REMARK SMILES Cc1ccc(S(=O)(=O)/C=C/C(=O)NCCCNC(=O)c2ccc(-c3c4nc(c(-c5c(F)cccc5F)c5ccc([nH]5)c(-c5c(F)cccc5F)c5nc(c(-c6c(F)cccc6F)c6ccc3[nH]6)C=C5)C=C4)cc2)cc1
REMARK SMILES IDX 15 1 14 2 13 3 11 4 12 5 10 7 9 8 6 9 7 10 8 11 5 12 1 13
REMARK SMILES IDX 2 14 3 15 75 16 4 17 74 18 16 19 17 20 18 21 19 23 20 24
REMARK SMILES IDX 21 25 73 26 22 27 72 28 23 29 24 30 25 31 66 32 26 33 71 34
REMARK SMILES IDX 65 35 67 36 27 37 70 38 64 39 63 40 28 42 54 43 37 44 53 45
REMARK SMILES IDX 38 46 41 47 52 48 68 49 39 50 40 51 51 53 69 54 42 55 29 56
REMARK SMILES IDX 30 57 35 58 31 59 32 60 34 61 36 62 33 63 55 64 56 65 61 66
REMARK SMILES IDX 57 67 58 68 60 69 62 70 59 71 43 72 44 73 49 74 45 75 46 76
REMARK SMILES IDX 48 77 50 78 47 79
REMARK H PARENT 13 6 17 22 67 41 41 52
REMARK Flexibility Score: inf
ROOT
ATOM      1  C   UNL A   1      33.547  29.800  26.125  1.00  0.00     0.042 C 
ENDROOT
BRANCH   1   2
ATOM      2  C   UNL A   1      33.569  28.334  25.695  1.00  0.00     0.118 C 
BRANCH   2   3
ATOM      3  N   UNL A   1      32.546  27.556  26.383  1.00  0.00    -0.352 N 
ATOM      4  C   UNL A   1      32.151  26.277  26.128  1.00  0.00     0.244 C 
ATOM      5  O   UNL A   1      31.293  25.711  26.793  1.00  0.00    -0.270 OA
ATOM      6  H   UNL A   1      32.082  28.011  27.123  1.00  0.00     0.163 HD
BRANCH   4   7
ATOM      7  C   UNL A   1      32.813  25.577  25.022  1.00  0.00     0.083 C 
ATOM      8  C   UNL A   1      33.369  24.383  25.264  1.00  0.00     0.117 C 
BRANCH   8   9
ATOM      9  S   UNL A   1      34.100  23.520  23.963  1.00  0.00     0.200 S 
ATOM     10  O   UNL A   1      34.344  24.443  22.876  1.00  0.00    -0.219 OA
ATOM     11  O   UNL A   1      33.316  22.313  23.745  1.00  0.00    -0.219 OA
BRANCH   9  12
ATOM     12  C   UNL A   1      35.695  22.979  24.535  1.00  0.00     0.071 A 
ATOM     13  C   UNL A   1      39.467  21.782  26.209  1.00  0.00     0.044 C 
ATOM     14  C   UNL A   1      38.154  22.200  25.615  1.00  0.00    -0.051 A 
ATOM     15  C   UNL A   1      37.652  23.484  25.859  1.00  0.00     0.005 A 
ATOM     16  C   UNL A   1      37.431  21.324  24.797  1.00  0.00     0.005 A 
ATOM     17  C   UNL A   1      36.422  23.873  25.327  1.00  0.00     0.021 A 
ATOM     18  C   UNL A   1      36.205  21.710  24.251  1.00  0.00     0.021 A 
ENDBRANCH   9  12
ENDBRANCH   8   9
ENDBRANCH   4   7
ENDBRANCH   2   3
ENDBRANCH   1   2
BRANCH   1  19
ATOM     19  C   UNL A   1      33.554  29.955  27.636  1.00  0.00     0.118 C 
BRANCH  19  20
ATOM     20  N   UNL A   1      34.286  31.122  28.118  1.00  0.00    -0.352 N 
ATOM     21  C   UNL A   1      35.539  31.213  28.697  1.00  0.00     0.251 C 
ATOM     22  H   UNL A   1      33.814  31.979  28.014  1.00  0.00     0.163 HD
ATOM     23  O   UNL A   1      35.941  32.301  29.099  1.00  0.00    -0.269 OA
BRANCH  21  24
ATOM     24  C   UNL A   1      36.455  30.045  28.697  1.00  0.00     0.039 A 
ATOM     25  C   UNL A   1      36.615  29.328  29.893  1.00  0.00     0.014 A 
ATOM     26  C   UNL A   1      37.303  29.800  27.626  1.00  0.00     0.014 A 
ATOM     27  C   UNL A   1      37.778  28.590  30.100  1.00  0.00     0.010 A 
ATOM     28  C   UNL A   1      38.511  29.192  27.875  1.00  0.00     0.010 A 
ATOM     29  C   UNL A   1      38.773  28.638  29.131  1.00  0.00    -0.014 A 
BRANCH  29  30
ATOM     30  C   UNL A   1      40.141  28.175  29.304  1.00  0.00     0.031 A 
ATOM     31  C   UNL A   1      40.537  26.871  28.735  1.00  0.00     0.074 A 
ATOM     32  C   UNL A   1      41.074  29.044  29.751  1.00  0.00     0.049 A 
ATOM     33  N   UNL A   1      41.682  26.311  28.910  1.00  0.00    -0.248 NA
ATOM     34  C   UNL A   1      39.624  26.066  27.934  1.00  0.00     0.031 C 
ATOM     35  C   UNL A   1      42.520  28.967  29.568  1.00  0.00     0.029 A 
ATOM     36  N   UNL A   1      40.895  30.099  30.657  1.00  0.00    -0.354 N 
ATOM     37  C   UNL A   1      41.764  25.228  28.064  1.00  0.00     0.074 A 
ATOM     38  C   UNL A   1      40.431  25.082  27.533  1.00  0.00     0.031 C 
ATOM     39  C   UNL A   1      43.117  29.706  30.514  1.00  0.00     0.029 A 
ATOM     40  C   UNL A   1      42.079  30.130  31.437  1.00  0.00     0.049 A 
ATOM     41  H   UNL A   1      40.115  30.692  30.735  1.00  0.00     0.167 HD
ATOM     42  C   UNL A   1      42.986  24.659  27.850  1.00  0.00     0.037 A 
ATOM     43  C   UNL A   1      42.045  29.814  32.766  1.00  0.00     0.037 A 
ATOM     44  C   UNL A   1      43.982  25.223  28.766  1.00  0.00     0.049 A 
ATOM     45  C   UNL A   1      42.866  28.603  33.158  1.00  0.00     0.074 A 
ATOM     46  C   UNL A   1      44.959  26.201  28.669  1.00  0.00     0.029 A 
ATOM     47  N   UNL A   1      43.846  24.953  30.114  1.00  0.00    -0.354 N 
ATOM     48  N   UNL A   1      43.479  27.822  32.310  1.00  0.00    -0.248 NA
ATOM     49  C   UNL A   1      42.982  28.120  34.536  1.00  0.00     0.031 C 
ATOM     50  C   UNL A   1      45.371  26.543  29.992  1.00  0.00     0.029 A 
ATOM     51  C   UNL A   1      44.656  25.762  30.882  1.00  0.00     0.049 A 
ATOM     52  H   UNL A   1      43.244  24.266  30.481  1.00  0.00     0.167 HD
ATOM     53  C   UNL A   1      43.973  26.731  32.972  1.00  0.00     0.074 A 
ATOM     54  C   UNL A   1      43.658  26.970  34.368  1.00  0.00     0.031 C 
ATOM     55  C   UNL A   1      44.551  25.679  32.329  1.00  0.00     0.037 A 
BRANCH  42  56
ATOM     56  C   UNL A   1      43.355  23.719  26.719  1.00  0.00     0.057 A 
ATOM     57  C   UNL A   1      43.121  22.334  26.851  1.00  0.00     0.134 A 
ATOM     58  C   UNL A   1      43.988  24.072  25.513  1.00  0.00     0.134 A 
ATOM     59  F   UNL A   1      42.456  21.827  27.897  1.00  0.00    -0.206 F 
ATOM     60  C   UNL A   1      43.555  21.387  25.912  1.00  0.00     0.040 A 
ATOM     61  C   UNL A   1      44.456  23.135  24.581  1.00  0.00     0.040 A 
ATOM     62  F   UNL A   1      44.148  25.338  25.128  1.00  0.00    -0.206 F 
ATOM     63  C   UNL A   1      44.252  21.783  24.783  1.00  0.00     0.006 A 
ENDBRANCH  42  56
BRANCH  43  64
ATOM     64  C   UNL A   1      40.757  30.200  33.401  1.00  0.00     0.057 A 
ATOM     65  C   UNL A   1      40.565  31.546  33.766  1.00  0.00     0.134 A 
ATOM     66  C   UNL A   1      39.617  29.406  33.257  1.00  0.00     0.134 A 
ATOM     67  F   UNL A   1      41.622  32.360  33.919  1.00  0.00    -0.206 F 
ATOM     68  C   UNL A   1      39.291  32.109  33.847  1.00  0.00     0.040 A 
ATOM     69  C   UNL A   1      38.335  29.957  33.354  1.00  0.00     0.040 A 
ATOM     70  F   UNL A   1      39.721  28.120  32.893  1.00  0.00    -0.206 F 
ATOM     71  C   UNL A   1      38.171  31.319  33.602  1.00  0.00     0.006 A 
ENDBRANCH  43  64
BRANCH  55  72
ATOM     72  C   UNL A   1      45.050  24.462  33.040  1.00  0.00     0.057 A 
ATOM     73  C   UNL A   1      44.249  23.329  33.226  1.00  0.00     0.134 A 
ATOM     74  C   UNL A   1      46.304  24.447  33.678  1.00  0.00     0.134 A 
ATOM     75  F   UNL A   1      43.029  23.254  32.674  1.00  0.00    -0.206 F 
ATOM     76  C   UNL A   1      44.672  22.244  34.003  1.00  0.00     0.040 A 
ATOM     77  C   UNL A   1      46.719  23.392  34.493  1.00  0.00     0.040 A 
ATOM     78  F   UNL A   1      47.183  25.448  33.517  1.00  0.00    -0.206 F 
ATOM     79  C   UNL A   1      45.900  22.283  34.656  1.00  0.00     0.006 A 
ENDBRANCH  55  72
ENDBRANCH  29  30
ENDBRANCH  21  24
ENDBRANCH  19  20
ENDBRANCH   1  19
TORSDOF 12
ENDMDL
MODEL 3
REMARK VINA RESULT:     -11.9      3.834      9.111
REMARK SMILES Cc1ccc(S(=O)(=O)/C=C/C(=O)NCCCNC(=O)c2ccc(-c3c4nc(c(-c5c(F)cccc5F)c5ccc([nH]5)c(-c5c(F)cccc5F)c5nc(c(-c6c(F)cccc6F)c6ccc3[nH]6)C=C5)C=C4)cc2)cc1
REMARK SMILES IDX 15 1 14 2 13 3 11 4 12 5 10 7 9 8 6 9 7 10 8 11 5 12 1 13
REMARK SMILES IDX 2 14 3 15 75 16 4 17 74 18 16 19 17 20 18 21 19 23 20 24
REMARK SMILES IDX 21 25 73 26 22 27 72 28 23 29 24 30 25 31 66 32 26 33 71 34
REMARK SMILES IDX 65 35 67 36 27 37 70 38 64 39 63 40 28 42 54 43 37 44 53 45
REMARK SMILES IDX 38 46 41 47 52 48 68 49 39 50 40 51 51 53 69 54 42 55 29 56
REMARK SMILES IDX 30 57 35 58 31 59 32 60 34 61 36 62 33 63 55 64 56 65 61 66
REMARK SMILES IDX 57 67 58 68 60 69 62 70 59 71 43 72 44 73 49 74 45 75 46 76
REMARK SMILES IDX 48 77 50 78 47 79
REMARK H PARENT 13 6 17 22 67 41 41 52
REMARK Flexibility Score: inf
ROOT
ATOM      1  C   UNL A   1      37.666  21.691  25.500  1.00  0.00     0.042 C 
ENDROOT
BRANCH   1   2
ATOM      2  C   UNL A   1      36.151  21.792  25.335  1.00  0.00     0.118 C 
BRANCH   2   3
ATOM      3  N   UNL A   1      35.785  22.272  24.007  1.00  0.00    -0.352 N 
ATOM      4  C   UNL A   1      34.716  23.043  23.659  1.00  0.00     0.244 C 
ATOM      5  O   UNL A   1      34.521  23.411  22.508  1.00  0.00    -0.270 OA
ATOM      6  H   UNL A   1      36.383  22.006  23.272  1.00  0.00     0.163 HD
BRANCH   4   7
ATOM      7  C   UNL A   1      33.798  23.443  24.731  1.00  0.00     0.083 C 
ATOM      8  C   UNL A   1      33.037  24.529  24.546  1.00  0.00     0.117 C 
BRANCH   8   9
ATOM      9  S   UNL A   1      31.909  24.979  25.771  1.00  0.00     0.200 S 
ATOM     10  O   UNL A   1      32.073  24.089  26.899  1.00  0.00    -0.219 OA
ATOM     11  O   UNL A   1      30.610  25.132  25.132  1.00  0.00    -0.219 OA
BRANCH   9  12
ATOM     12  C   UNL A   1      32.380  26.600  26.333  1.00  0.00     0.071 A 
ATOM     13  C   UNL A   1      33.641  30.567  27.397  1.00  0.00     0.044 C 
ATOM     14  C   UNL A   1      33.200  29.180  27.035  1.00  0.00    -0.051 A 
ATOM     15  C   UNL A   1      34.088  28.307  26.394  1.00  0.00     0.005 A 
ATOM     16  C   UNL A   1      31.912  28.736  27.353  1.00  0.00     0.005 A 
ATOM     17  C   UNL A   1      33.679  27.022  26.035  1.00  0.00     0.021 A 
ATOM     18  C   UNL A   1      31.499  27.447  27.009  1.00  0.00     0.021 A 
ENDBRANCH   9  12
ENDBRANCH   8   9
ENDBRANCH   4   7
ENDBRANCH   2   3
ENDBRANCH   1   2
BRANCH   1  19
ATOM     19  C   UNL A   1      38.283  23.005  25.952  1.00  0.00     0.118 C 
BRANCH  19  20
ATOM     20  N   UNL A   1      39.585  22.867  26.596  1.00  0.00    -0.352 N 
ATOM     21  C   UNL A   1      40.423  23.829  27.132  1.00  0.00     0.251 C 
ATOM     22  H   UNL A   1      39.921  21.944  26.659  1.00  0.00     0.163 HD
ATOM     23  O   UNL A   1      41.521  23.499  27.569  1.00  0.00    -0.269 OA
BRANCH  21  24
ATOM     24  C   UNL A   1      39.944  25.221  27.321  1.00  0.00     0.039 A 
ATOM     25  C   UNL A   1      40.456  26.219  26.477  1.00  0.00     0.014 A 
ATOM     26  C   UNL A   1      39.196  25.577  28.435  1.00  0.00     0.014 A 
ATOM     27  C   UNL A   1      40.456  27.546  26.903  1.00  0.00     0.010 A 
ATOM     28  C   UNL A   1      39.318  26.857  28.923  1.00  0.00     0.010 A 
ATOM     29  C   UNL A   1      39.999  27.828  28.184  1.00  0.00    -0.014 A 
BRANCH  29  30
ATOM     30  C   UNL A   1      40.190  29.087  28.889  1.00  0.00     0.031 A 
ATOM     31  C   UNL A   1      39.118  30.102  28.854  1.00  0.00     0.074 A 
ATOM     32  C   UNL A   1      41.218  29.199  29.758  1.00  0.00     0.049 A 
ATOM     33  N   UNL A   1      39.212  31.286  29.348  1.00  0.00    -0.248 NA
ATOM     34  C   UNL A   1      37.838  29.853  28.203  1.00  0.00     0.031 C 
ATOM     35  C   UNL A   1      41.338  30.130  30.876  1.00  0.00     0.029 A 
ATOM     36  N   UNL A   1      42.481  28.597  29.671  1.00  0.00    -0.354 N 
ATOM     37  C   UNL A   1      37.962  31.862  29.321  1.00  0.00     0.074 A 
ATOM     38  C   UNL A   1      37.161  30.955  28.535  1.00  0.00     0.031 C 
ATOM     39  C   UNL A   1      42.635  30.263  31.192  1.00  0.00     0.029 A 
ATOM     40  C   UNL A   1      43.393  29.562  30.171  1.00  0.00     0.049 A 
ATOM     41  H   UNL A   1      42.692  27.697  29.336  1.00  0.00     0.167 HD
ATOM     42  C   UNL A   1      37.748  32.989  30.060  1.00  0.00     0.037 A 
ATOM     43  C   UNL A   1      44.309  30.148  29.344  1.00  0.00     0.037 A 
ATOM     44  C   UNL A   1      39.013  33.494  30.603  1.00  0.00     0.049 A 
ATOM     45  C   UNL A   1      44.166  31.649  29.190  1.00  0.00     0.074 A 
ATOM     46  C   UNL A   1      39.662  33.401  31.824  1.00  0.00     0.029 A 
ATOM     47  N   UNL A   1      39.947  33.988  29.713  1.00  0.00    -0.354 N 
ATOM     48  N   UNL A   1      43.189  32.351  29.695  1.00  0.00    -0.248 NA
ATOM     49  C   UNL A   1      45.066  32.464  28.371  1.00  0.00     0.031 C 
ATOM     50  C   UNL A   1      41.017  33.806  31.633  1.00  0.00     0.029 A 
ATOM     51  C   UNL A   1      41.180  34.157  30.305  1.00  0.00     0.049 A 
ATOM     52  H   UNL A   1      39.755  34.194  28.769  1.00  0.00     0.167 HD
ATOM     53  C   UNL A   1      43.261  33.634  29.224  1.00  0.00     0.074 A 
ATOM     54  C   UNL A   1      44.465  33.666  28.415  1.00  0.00     0.031 C 
ATOM     55  C   UNL A   1      42.301  34.566  29.476  1.00  0.00     0.037 A 
BRANCH  42  56
ATOM     56  C   UNL A   1      36.402  33.567  30.451  1.00  0.00     0.057 A 
ATOM     57  C   UNL A   1      35.527  34.048  29.455  1.00  0.00     0.134 A 
ATOM     58  C   UNL A   1      35.918  33.741  31.760  1.00  0.00     0.134 A 
ATOM     59  F   UNL A   1      35.787  33.892  28.150  1.00  0.00    -0.206 F 
ATOM     60  C   UNL A   1      34.328  34.717  29.741  1.00  0.00     0.040 A 
ATOM     61  C   UNL A   1      34.737  34.436  32.063  1.00  0.00     0.040 A 
ATOM     62  F   UNL A   1      36.516  33.210  32.826  1.00  0.00    -0.206 F 
ATOM     63  C   UNL A   1      33.941  34.939  31.051  1.00  0.00     0.006 A 
ENDBRANCH  42  56
BRANCH  43  64
ATOM     64  C   UNL A   1      44.758  29.230  28.264  1.00  0.00     0.057 A 
ATOM     65  C   UNL A   1      45.690  28.225  28.581  1.00  0.00     0.134 A 
ATOM     66  C   UNL A   1      43.997  29.055  27.105  1.00  0.00     0.134 A 
ATOM     67  F   UNL A   1      46.451  28.335  29.683  1.00  0.00    -0.206 F 
ATOM     68  C   UNL A   1      45.763  27.036  27.854  1.00  0.00     0.040 A 
ATOM     69  C   UNL A   1      44.075  27.874  26.359  1.00  0.00     0.040 A 
ATOM     70  F   UNL A   1      43.074  29.961  26.750  1.00  0.00    -0.206 F 
ATOM     71  C   UNL A   1      44.924  26.844  26.760  1.00  0.00     0.006 A 
ENDBRANCH  43  64
BRANCH  55  72
ATOM     72  C   UNL A   1      42.348  35.956  28.925  1.00  0.00     0.057 A 
ATOM     73  C   UNL A   1      41.800  36.280  27.679  1.00  0.00     0.134 A 
ATOM     74  C   UNL A   1      43.065  36.978  29.573  1.00  0.00     0.134 A 
ATOM     75  F   UNL A   1      41.113  35.369  26.973  1.00  0.00    -0.206 F 
ATOM     76  C   UNL A   1      41.959  37.548  27.108  1.00  0.00     0.040 A 
ATOM     77  C   UNL A   1      43.271  38.232  28.995  1.00  0.00     0.040 A 
ATOM     78  F   UNL A   1      43.576  36.804  30.801  1.00  0.00    -0.206 F 
ATOM     79  C   UNL A   1      42.713  38.521  27.757  1.00  0.00     0.006 A 
ENDBRANCH  55  72
ENDBRANCH  29  30
ENDBRANCH  21  24
ENDBRANCH  19  20
ENDBRANCH   1  19
TORSDOF 12
ENDMDL
