MODEL 1
REMARK VINA RESULT:     -12.3      0.000      0.000
REMARK SMILES O=C(NCCCNC(=O)[C@@H]1C=C[C@@H](NC(=O)c2c[nH]c(=O)[nH]2)C1)c1ccc(-c2c3nc(c(-c4c(F)cccc4F)c4ccc([nH]4)c(-c4c(F)cccc4F)c4nc(c(-c5c(F)cccc5F)c5ccc2[nH]5)C=C4)C=C3)cc1
REMARK SMILES IDX 5 1 4 2 3 3 1 4 2 5 24 7 25 8 77 9 26 10 76 11 27 12 28 13
REMARK SMILES IDX 29 14 70 15 30 16 75 17 69 18 71 19 31 20 74 21 68 22 67 23
REMARK SMILES IDX 32 25 58 26 41 27 57 28 42 29 45 30 56 31 72 32 43 33 44 34
REMARK SMILES IDX 55 36 73 37 46 38 33 39 34 40 39 41 35 42 36 43 38 44 40 45
REMARK SMILES IDX 37 46 59 47 60 48 65 49 61 50 62 51 64 52 66 53 63 54 47 55
REMARK SMILES IDX 48 56 53 57 49 58 50 59 52 60 54 61 51 62 6 63 7 64 8 65
REMARK SMILES IDX 9 67 10 68 11 69 23 70 12 71 13 72 14 73 15 74 16 76 17 77
REMARK SMILES IDX 18 78 22 79 19 80 20 81 21 84
REMARK H PARENT 3 6 71 24 45 35 7 66 14 75 22 82 19 83
REMARK Flexibility Score: inf
ROOT
ATOM      1  C   UNL A   1      34.076  31.042  27.324  1.00  0.00     0.042 C 
ENDROOT
BRANCH   1   2
ATOM      2  C   UNL A   1      35.268  30.474  28.080  1.00  0.00     0.118 C 
BRANCH   2   3
ATOM      3  N   UNL A   1      35.275  30.891  29.477  1.00  0.00    -0.352 N 
ATOM      4  O   UNL A   1      35.920  30.907  31.631  1.00  0.00    -0.269 OA
ATOM      5  C   UNL A   1      36.203  30.665  30.462  1.00  0.00     0.251 C 
ATOM      6  H   UNL A   1      34.490  31.417  29.758  1.00  0.00     0.163 HD
BRANCH   5   7
ATOM      7  C   UNL A   1      37.540  30.149  30.107  1.00  0.00     0.039 A 
ATOM      8  C   UNL A   1      38.066  30.390  28.836  1.00  0.00     0.014 A 
ATOM      9  C   UNL A   1      38.292  29.455  31.058  1.00  0.00     0.014 A 
ATOM     10  C   UNL A   1      39.266  29.807  28.464  1.00  0.00     0.010 A 
ATOM     11  C   UNL A   1      39.559  28.972  30.718  1.00  0.00     0.010 A 
ATOM     12  C   UNL A   1      40.047  29.128  29.411  1.00  0.00    -0.014 A 
BRANCH  12  13
ATOM     13  C   UNL A   1      41.405  28.679  29.020  1.00  0.00     0.031 A 
ATOM     14  C   UNL A   1      41.658  27.276  28.551  1.00  0.00     0.074 A 
ATOM     15  C   UNL A   1      42.408  29.578  29.060  1.00  0.00     0.049 A 
ATOM     16  N   UNL A   1      42.784  26.733  28.159  1.00  0.00    -0.248 NA
ATOM     17  C   UNL A   1      40.508  26.362  28.519  1.00  0.00     0.031 C 
ATOM     18  C   UNL A   1      42.276  30.969  29.505  1.00  0.00     0.029 A 
ATOM     19  N   UNL A   1      43.727  29.471  28.706  1.00  0.00    -0.354 N 
ATOM     20  C   UNL A   1      42.482  25.413  27.852  1.00  0.00     0.074 A 
ATOM     21  C   UNL A   1      41.074  25.227  28.130  1.00  0.00     0.031 C 
ATOM     22  C   UNL A   1      43.447  31.598  29.347  1.00  0.00     0.029 A 
ATOM     23  C   UNL A   1      44.434  30.639  28.871  1.00  0.00     0.049 A 
ATOM     24  H   UNL A   1      44.130  28.640  28.366  1.00  0.00     0.167 HD
ATOM     25  C   UNL A   1      43.307  24.450  27.375  1.00  0.00     0.037 A 
ATOM     26  C   UNL A   1      45.739  30.903  28.688  1.00  0.00     0.037 A 
ATOM     27  C   UNL A   1      44.709  24.648  27.105  1.00  0.00     0.049 A 
ATOM     28  C   UNL A   1      46.638  29.801  28.213  1.00  0.00     0.074 A 
ATOM     29  C   UNL A   1      45.628  23.743  26.603  1.00  0.00     0.029 A 
ATOM     30  N   UNL A   1      45.399  25.832  27.327  1.00  0.00    -0.354 N 
ATOM     31  N   UNL A   1      46.333  28.566  27.895  1.00  0.00    -0.248 NA
ATOM     32  C   UNL A   1      48.062  30.126  28.073  1.00  0.00     0.031 C 
ATOM     33  C   UNL A   1      46.882  24.360  26.574  1.00  0.00     0.029 A 
ATOM     34  C   UNL A   1      46.736  25.672  26.996  1.00  0.00     0.049 A 
ATOM     35  H   UNL A   1      44.998  26.664  27.668  1.00  0.00     0.167 HD
ATOM     36  C   UNL A   1      47.522  27.973  27.498  1.00  0.00     0.074 A 
ATOM     37  C   UNL A   1      48.547  28.991  27.592  1.00  0.00     0.031 C 
ATOM     38  C   UNL A   1      47.744  26.698  27.093  1.00  0.00     0.037 A 
BRANCH  25  39
ATOM     39  C   UNL A   1      42.723  23.086  27.138  1.00  0.00     0.057 A 
ATOM     40  C   UNL A   1      42.445  22.608  25.850  1.00  0.00     0.134 A 
ATOM     41  C   UNL A   1      42.473  22.219  28.211  1.00  0.00     0.134 A 
ATOM     42  F   UNL A   1      42.651  23.388  24.777  1.00  0.00    -0.206 F 
ATOM     43  C   UNL A   1      41.919  21.332  25.639  1.00  0.00     0.040 A 
ATOM     44  C   UNL A   1      41.973  20.932  28.012  1.00  0.00     0.040 A 
ATOM     45  F   UNL A   1      42.723  22.607  29.471  1.00  0.00    -0.206 F 
ATOM     46  C   UNL A   1      41.688  20.486  26.723  1.00  0.00     0.006 A 
ENDBRANCH  25  39
BRANCH  26  47
ATOM     47  C   UNL A   1      46.270  32.258  28.981  1.00  0.00     0.057 A 
ATOM     48  C   UNL A   1      46.710  32.604  30.264  1.00  0.00     0.134 A 
ATOM     49  C   UNL A   1      46.350  33.241  27.986  1.00  0.00     0.134 A 
ATOM     50  F   UNL A   1      46.647  31.711  31.263  1.00  0.00    -0.206 F 
ATOM     51  C   UNL A   1      47.189  33.882  30.552  1.00  0.00     0.040 A 
ATOM     52  C   UNL A   1      46.858  34.513  28.252  1.00  0.00     0.040 A 
ATOM     53  F   UNL A   1      45.956  32.972  26.733  1.00  0.00    -0.206 F 
ATOM     54  C   UNL A   1      47.270  34.840  29.542  1.00  0.00     0.006 A 
ENDBRANCH  26  47
BRANCH  38  55
ATOM     55  C   UNL A   1      49.146  26.351  26.682  1.00  0.00     0.057 A 
ATOM     56  C   UNL A   1      50.039  25.712  27.552  1.00  0.00     0.134 A 
ATOM     57  C   UNL A   1      49.599  26.643  25.389  1.00  0.00     0.134 A 
ATOM     58  F   UNL A   1      49.672  25.419  28.809  1.00  0.00    -0.206 F 
ATOM     59  C   UNL A   1      51.341  25.402  27.160  1.00  0.00     0.040 A 
ATOM     60  C   UNL A   1      50.889  26.310  24.976  1.00  0.00     0.040 A 
ATOM     61  F   UNL A   1      48.793  27.249  24.504  1.00  0.00    -0.206 F 
ATOM     62  C   UNL A   1      51.767  25.695  25.866  1.00  0.00     0.006 A 
ENDBRANCH  38  55
ENDBRANCH  12  13
ENDBRANCH   5   7
ENDBRANCH   2   3
ENDBRANCH   1   2
BRANCH   1  63
ATOM     63  C   UNL A   1      33.279  29.956  26.615  1.00  0.00     0.117 C 
BRANCH  63  64
ATOM     64  N   UNL A   1      33.789  29.658  25.298  1.00  0.00    -0.356 N 
ATOM     65  C   UNL A   1      33.320  28.899  24.277  1.00  0.00     0.227 C 
ATOM     66  H   UNL A   1      34.650  30.094  25.101  1.00  0.00     0.163 HD
ATOM     67  O   UNL A   1      33.925  29.032  23.204  1.00  0.00    -0.274 OA
BRANCH  65  68
ATOM     68  C   UNL A   1      32.104  27.956  24.334  1.00  0.00     0.103 C 
ATOM     69  C   UNL A   1      31.982  27.051  23.139  1.00  0.00    -0.016 C 
ATOM     70  C   UNL A   1      30.680  28.499  24.481  1.00  0.00     0.047 C 
ATOM     71  C   UNL A   1      30.813  27.209  22.504  1.00  0.00    -0.006 C 
ATOM     72  C   UNL A   1      30.043  28.333  23.099  1.00  0.00     0.106 C 
BRANCH  72  73
ATOM     73  N   UNL A   1      28.627  28.097  23.108  1.00  0.00    -0.344 N 
ATOM     74  C   UNL A   1      27.640  29.030  22.918  1.00  0.00     0.269 C 
ATOM     75  H   UNL A   1      28.335  27.171  23.265  1.00  0.00     0.164 HD
ATOM     76  O   UNL A   1      26.485  28.779  23.257  1.00  0.00    -0.268 OA
BRANCH  74  77
ATOM     77  C   UNL A   1      27.979  30.374  22.371  1.00  0.00     0.124 A 
ATOM     78  C   UNL A   1      28.191  30.771  21.104  1.00  0.00     0.119 A 
ATOM     79  N   UNL A   1      28.074  31.482  23.185  1.00  0.00    -0.302 N 
ATOM     80  N   UNL A   1      28.476  32.114  21.102  1.00  0.00    -0.312 N 
ATOM     81  C   UNL A   1      28.399  32.604  22.415  1.00  0.00     0.323 A 
ATOM     82  H   UNL A   1      27.934  31.484  24.159  1.00  0.00     0.172 HD
ATOM     83  H   UNL A   1      28.701  32.649  20.307  1.00  0.00     0.171 HD
ATOM     84  O   UNL A   1      28.581  33.741  22.794  1.00  0.00    -0.248 OA
ENDBRANCH  74  77
ENDBRANCH  72  73
ENDBRANCH  65  68
ENDBRANCH  63  64
ENDBRANCH   1  63
TORSDOF 12
ENDMDL
MODEL 2
REMARK VINA RESULT:     -12.3      4.589      6.802
REMARK SMILES O=C(NCCCNC(=O)[C@@H]1C=C[C@@H](NC(=O)c2c[nH]c(=O)[nH]2)C1)c1ccc(-c2c3nc(c(-c4c(F)cccc4F)c4ccc([nH]4)c(-c4c(F)cccc4F)c4nc(c(-c5c(F)cccc5F)c5ccc2[nH]5)C=C4)C=C3)cc1
REMARK SMILES IDX 5 1 4 2 3 3 1 4 2 5 24 7 25 8 77 9 26 10 76 11 27 12 28 13
REMARK SMILES IDX 29 14 70 15 30 16 75 17 69 18 71 19 31 20 74 21 68 22 67 23
REMARK SMILES IDX 32 25 58 26 41 27 57 28 42 29 45 30 56 31 72 32 43 33 44 34
REMARK SMILES IDX 55 36 73 37 46 38 33 39 34 40 39 41 35 42 36 43 38 44 40 45
REMARK SMILES IDX 37 46 59 47 60 48 65 49 61 50 62 51 64 52 66 53 63 54 47 55
REMARK SMILES IDX 48 56 53 57 49 58 50 59 52 60 54 61 51 62 6 63 7 64 8 65
REMARK SMILES IDX 9 67 10 68 11 69 23 70 12 71 13 72 14 73 15 74 16 76 17 77
REMARK SMILES IDX 18 78 22 79 19 80 20 81 21 84
REMARK H PARENT 3 6 71 24 45 35 7 66 14 75 22 82 19 83
REMARK Flexibility Score: inf
ROOT
ATOM      1  C   UNL A   1      33.479  31.460  26.877  1.00  0.00     0.042 C 
ENDROOT
BRANCH   1   2
ATOM      2  C   UNL A   1      32.147  32.069  27.288  1.00  0.00     0.118 C 
BRANCH   2   3
ATOM      3  N   UNL A   1      32.236  33.517  27.444  1.00  0.00    -0.352 N 
ATOM      4  O   UNL A   1      32.837  35.464  28.393  1.00  0.00    -0.269 OA
ATOM      5  C   UNL A   1      33.068  34.271  28.233  1.00  0.00     0.251 C 
ATOM      6  H   UNL A   1      31.600  34.033  26.898  1.00  0.00     0.163 HD
BRANCH   5   7
ATOM      7  C   UNL A   1      34.244  33.644  28.869  1.00  0.00     0.039 A 
ATOM      8  C   UNL A   1      34.071  32.748  29.926  1.00  0.00     0.014 A 
ATOM      9  C   UNL A   1      35.525  33.920  28.385  1.00  0.00     0.014 A 
ATOM     10  C   UNL A   1      35.176  32.253  30.599  1.00  0.00     0.010 A 
ATOM     11  C   UNL A   1      36.635  33.321  28.988  1.00  0.00     0.010 A 
ATOM     12  C   UNL A   1      36.469  32.498  30.112  1.00  0.00    -0.014 A 
BRANCH  12  13
ATOM     13  C   UNL A   1      37.612  31.800  30.752  1.00  0.00     0.031 A 
ATOM     14  C   UNL A   1      38.399  30.755  30.016  1.00  0.00     0.074 A 
ATOM     15  C   UNL A   1      37.953  32.157  32.006  1.00  0.00     0.049 A 
ATOM     16  N   UNL A   1      39.432  30.065  30.429  1.00  0.00    -0.248 NA
ATOM     17  C   UNL A   1      37.973  30.436  28.646  1.00  0.00     0.031 C 
ATOM     18  C   UNL A   1      37.254  33.159  32.817  1.00  0.00     0.029 A 
ATOM     19  N   UNL A   1      38.979  31.740  32.813  1.00  0.00    -0.354 N 
ATOM     20  C   UNL A   1      39.770  29.221  29.380  1.00  0.00     0.074 A 
ATOM     21  C   UNL A   1      38.813  29.463  28.321  1.00  0.00     0.031 C 
ATOM     22  C   UNL A   1      37.900  33.317  33.979  1.00  0.00     0.029 A 
ATOM     23  C   UNL A   1      39.006  32.372  34.033  1.00  0.00     0.049 A 
ATOM     24  H   UNL A   1      39.633  31.054  32.545  1.00  0.00     0.167 HD
ATOM     25  C   UNL A   1      40.790  28.332  29.310  1.00  0.00     0.037 A 
ATOM     26  C   UNL A   1      39.814  32.191  35.092  1.00  0.00     0.037 A 
ATOM     27  C   UNL A   1      41.733  28.099  30.374  1.00  0.00     0.049 A 
ATOM     28  C   UNL A   1      40.899  31.160  35.003  1.00  0.00     0.074 A 
ATOM     29  C   UNL A   1      42.814  27.234  30.395  1.00  0.00     0.029 A 
ATOM     30  N   UNL A   1      41.702  28.727  31.612  1.00  0.00    -0.354 N 
ATOM     31  N   UNL A   1      41.226  30.391  33.993  1.00  0.00    -0.248 NA
ATOM     32  C   UNL A   1      41.724  30.967  36.201  1.00  0.00     0.031 C 
ATOM     33  C   UNL A   1      43.402  27.297  31.662  1.00  0.00     0.029 A 
ATOM     34  C   UNL A   1      42.728  28.249  32.412  1.00  0.00     0.049 A 
ATOM     35  H   UNL A   1      41.048  29.411  31.882  1.00  0.00     0.167 HD
ATOM     36  C   UNL A   1      42.309  29.640  34.425  1.00  0.00     0.074 A 
ATOM     37  C   UNL A   1      42.595  30.063  35.780  1.00  0.00     0.031 C 
ATOM     38  C   UNL A   1      43.002  28.684  33.759  1.00  0.00     0.037 A 
BRANCH  25  39
ATOM     39  C   UNL A   1      40.924  27.524  28.049  1.00  0.00     0.057 A 
ATOM     40  C   UNL A   1      41.708  27.955  26.970  1.00  0.00     0.134 A 
ATOM     41  C   UNL A   1      40.296  26.278  27.929  1.00  0.00     0.134 A 
ATOM     42  F   UNL A   1      42.330  29.143  27.013  1.00  0.00    -0.206 F 
ATOM     43  C   UNL A   1      41.841  27.188  25.811  1.00  0.00     0.040 A 
ATOM     44  C   UNL A   1      40.443  25.490  26.787  1.00  0.00     0.040 A 
ATOM     45  F   UNL A   1      39.537  25.799  28.927  1.00  0.00    -0.206 F 
ATOM     46  C   UNL A   1      41.213  25.947  25.719  1.00  0.00     0.006 A 
ENDBRANCH  25  39
BRANCH  26  47
ATOM     47  C   UNL A   1      39.606  32.987  36.328  1.00  0.00     0.057 A 
ATOM     48  C   UNL A   1      40.309  34.176  36.553  1.00  0.00     0.134 A 
ATOM     49  C   UNL A   1      38.700  32.577  37.315  1.00  0.00     0.134 A 
ATOM     50  F   UNL A   1      41.200  34.614  35.652  1.00  0.00    -0.206 F 
ATOM     51  C   UNL A   1      40.135  34.916  37.723  1.00  0.00     0.040 A 
ATOM     52  C   UNL A   1      38.491  33.326  38.474  1.00  0.00     0.040 A 
ATOM     53  F   UNL A   1      37.985  31.454  37.156  1.00  0.00    -0.206 F 
ATOM     54  C   UNL A   1      39.219  34.495  38.686  1.00  0.00     0.006 A 
ENDBRANCH  26  47
BRANCH  38  55
ATOM     55  C   UNL A   1      44.165  28.063  34.479  1.00  0.00     0.057 A 
ATOM     56  C   UNL A   1      45.448  28.623  34.440  1.00  0.00     0.134 A 
ATOM     57  C   UNL A   1      43.990  26.898  35.237  1.00  0.00     0.134 A 
ATOM     58  F   UNL A   1      45.687  29.729  33.718  1.00  0.00    -0.206 F 
ATOM     59  C   UNL A   1      46.522  28.032  35.107  1.00  0.00     0.040 A 
ATOM     60  C   UNL A   1      45.048  26.315  35.934  1.00  0.00     0.040 A 
ATOM     61  F   UNL A   1      42.785  26.314  35.321  1.00  0.00    -0.206 F 
ATOM     62  C   UNL A   1      46.321  26.877  35.862  1.00  0.00     0.006 A 
ENDBRANCH  38  55
ENDBRANCH  12  13
ENDBRANCH   5   7
ENDBRANCH   2   3
ENDBRANCH   1   2
BRANCH   1  63
ATOM     63  C   UNL A   1      33.360  29.971  26.583  1.00  0.00     0.117 C 
BRANCH  63  64
ATOM     64  N   UNL A   1      33.816  29.626  25.258  1.00  0.00    -0.356 N 
ATOM     65  C   UNL A   1      33.293  28.855  24.273  1.00  0.00     0.227 C 
ATOM     66  H   UNL A   1      34.681  30.033  25.020  1.00  0.00     0.163 HD
ATOM     67  O   UNL A   1      33.863  28.944  23.177  1.00  0.00    -0.274 OA
BRANCH  65  68
ATOM     68  C   UNL A   1      32.054  27.947  24.395  1.00  0.00     0.103 C 
ATOM     69  C   UNL A   1      31.919  26.952  23.276  1.00  0.00    -0.016 C 
ATOM     70  C   UNL A   1      30.643  28.534  24.486  1.00  0.00     0.047 C 
ATOM     71  C   UNL A   1      30.758  27.085  22.621  1.00  0.00    -0.006 C 
ATOM     72  C   UNL A   1      30.010  28.271  23.116  1.00  0.00     0.106 C 
BRANCH  72  73
ATOM     73  N   UNL A   1      28.589  28.069  23.133  1.00  0.00    -0.344 N 
ATOM     74  C   UNL A   1      27.624  29.026  22.947  1.00  0.00     0.269 C 
ATOM     75  H   UNL A   1      28.276  27.150  23.292  1.00  0.00     0.164 HD
ATOM     76  O   UNL A   1      26.465  28.803  23.292  1.00  0.00    -0.268 OA
BRANCH  74  77
ATOM     77  C   UNL A   1      27.993  30.361  22.397  1.00  0.00     0.124 A 
ATOM     78  C   UNL A   1      28.279  30.736  21.138  1.00  0.00     0.119 A 
ATOM     79  N   UNL A   1      28.037  31.483  23.195  1.00  0.00    -0.302 N 
ATOM     80  N   UNL A   1      28.561  32.079  21.130  1.00  0.00    -0.312 N 
ATOM     81  C   UNL A   1      28.405  32.592  22.426  1.00  0.00     0.323 A 
ATOM     82  H   UNL A   1      27.839  31.502  24.159  1.00  0.00     0.172 HD
ATOM     83  H   UNL A   1      28.832  32.601  20.340  1.00  0.00     0.171 HD
ATOM     84  O   UNL A   1      28.561  33.736  22.795  1.00  0.00    -0.248 OA
ENDBRANCH  74  77
ENDBRANCH  72  73
ENDBRANCH  65  68
ENDBRANCH  63  64
ENDBRANCH   1  63
TORSDOF 12
ENDMDL
MODEL 3
REMARK VINA RESULT:     -12.2      5.139      9.294
REMARK SMILES O=C(NCCCNC(=O)[C@@H]1C=C[C@@H](NC(=O)c2c[nH]c(=O)[nH]2)C1)c1ccc(-c2c3nc(c(-c4c(F)cccc4F)c4ccc([nH]4)c(-c4c(F)cccc4F)c4nc(c(-c5c(F)cccc5F)c5ccc2[nH]5)C=C4)C=C3)cc1
REMARK SMILES IDX 5 1 4 2 3 3 1 4 2 5 24 7 25 8 77 9 26 10 76 11 27 12 28 13
REMARK SMILES IDX 29 14 70 15 30 16 75 17 69 18 71 19 31 20 74 21 68 22 67 23
REMARK SMILES IDX 32 25 58 26 41 27 57 28 42 29 45 30 56 31 72 32 43 33 44 34
REMARK SMILES IDX 55 36 73 37 46 38 33 39 34 40 39 41 35 42 36 43 38 44 40 45
REMARK SMILES IDX 37 46 59 47 60 48 65 49 61 50 62 51 64 52 66 53 63 54 47 55
REMARK SMILES IDX 48 56 53 57 49 58 50 59 52 60 54 61 51 62 6 63 7 64 8 65
REMARK SMILES IDX 9 67 10 68 11 69 23 70 12 71 13 72 14 73 15 74 16 76 17 77
REMARK SMILES IDX 18 78 22 79 19 80 20 81 21 84
REMARK H PARENT 3 6 71 24 45 35 7 66 14 75 22 82 19 83
REMARK Flexibility Score: inf
ROOT
ATOM      1  C   UNL A   1      38.289  20.781  25.007  1.00  0.00     0.042 C 
ENDROOT
BRANCH   1   2
ATOM      2  C   UNL A   1      38.842  20.057  26.225  1.00  0.00     0.118 C 
BRANCH   2   3
ATOM      3  N   UNL A   1      40.057  19.314  25.911  1.00  0.00    -0.352 N 
ATOM      4  O   UNL A   1      42.219  19.011  25.372  1.00  0.00    -0.269 OA
ATOM      5  C   UNL A   1      41.364  19.732  25.876  1.00  0.00     0.251 C 
ATOM      6  H   UNL A   1      39.918  18.365  25.690  1.00  0.00     0.163 HD
BRANCH   5   7
ATOM      7  C   UNL A   1      41.734  21.036  26.461  1.00  0.00     0.039 A 
ATOM      8  C   UNL A   1      41.913  22.146  25.635  1.00  0.00     0.014 A 
ATOM      9  C   UNL A   1      41.866  21.163  27.847  1.00  0.00     0.014 A 
ATOM     10  C   UNL A   1      42.375  23.338  26.169  1.00  0.00     0.010 A 
ATOM     11  C   UNL A   1      42.212  22.401  28.396  1.00  0.00     0.010 A 
ATOM     12  C   UNL A   1      42.488  23.493  27.559  1.00  0.00    -0.014 A 
BRANCH  12  13
ATOM     13  C   UNL A   1      42.808  24.837  28.099  1.00  0.00     0.031 A 
ATOM     14  C   UNL A   1      41.735  25.861  28.331  1.00  0.00     0.074 A 
ATOM     15  C   UNL A   1      44.090  25.107  28.414  1.00  0.00     0.049 A 
ATOM     16  N   UNL A   1      41.849  27.074  28.811  1.00  0.00    -0.248 NA
ATOM     17  C   UNL A   1      40.360  25.482  27.978  1.00  0.00     0.031 C 
ATOM     18  C   UNL A   1      45.217  24.186  28.225  1.00  0.00     0.029 A 
ATOM     19  N   UNL A   1      44.665  26.217  28.976  1.00  0.00    -0.354 N 
ATOM     20  C   UNL A   1      40.568  27.608  28.801  1.00  0.00     0.074 A 
ATOM     21  C   UNL A   1      39.695  26.598  28.241  1.00  0.00     0.031 C 
ATOM     22  C   UNL A   1      46.332  24.746  28.711  1.00  0.00     0.029 A 
ATOM     23  C   UNL A   1      46.020  26.093  29.168  1.00  0.00     0.049 A 
ATOM     24  H   UNL A   1      44.157  27.024  29.219  1.00  0.00     0.167 HD
ATOM     25  C   UNL A   1      40.161  28.828  29.229  1.00  0.00     0.037 A 
ATOM     26  C   UNL A   1      46.921  26.976  29.632  1.00  0.00     0.037 A 
ATOM     27  C   UNL A   1      41.043  29.825  29.782  1.00  0.00     0.049 A 
ATOM     28  C   UNL A   1      46.448  28.338  30.045  1.00  0.00     0.074 A 
ATOM     29  C   UNL A   1      40.728  31.085  30.262  1.00  0.00     0.029 A 
ATOM     30  N   UNL A   1      42.417  29.680  29.919  1.00  0.00    -0.354 N 
ATOM     31  N   UNL A   1      45.229  28.819  30.060  1.00  0.00    -0.248 NA
ATOM     32  C   UNL A   1      47.475  29.282  30.501  1.00  0.00     0.031 C 
ATOM     33  C   UNL A   1      41.915  31.722  30.636  1.00  0.00     0.029 A 
ATOM     34  C   UNL A   1      42.965  30.836  30.451  1.00  0.00     0.049 A 
ATOM     35  H   UNL A   1      42.927  28.874  29.675  1.00  0.00     0.167 HD
ATOM     36  C   UNL A   1      45.338  30.112  30.548  1.00  0.00     0.074 A 
ATOM     37  C   UNL A   1      46.740  30.331  30.837  1.00  0.00     0.031 C 
ATOM     38  C   UNL A   1      44.364  31.037  30.737  1.00  0.00     0.037 A 
BRANCH  25  39
ATOM     39  C   UNL A   1      38.703  29.164  29.091  1.00  0.00     0.057 A 
ATOM     40  C   UNL A   1      37.815  29.081  30.172  1.00  0.00     0.134 A 
ATOM     41  C   UNL A   1      38.186  29.618  27.870  1.00  0.00     0.134 A 
ATOM     42  F   UNL A   1      38.240  28.645  31.368  1.00  0.00    -0.206 F 
ATOM     43  C   UNL A   1      36.466  29.414  30.039  1.00  0.00     0.040 A 
ATOM     44  C   UNL A   1      36.846  29.980  27.730  1.00  0.00     0.040 A 
ATOM     45  F   UNL A   1      38.981  29.731  26.794  1.00  0.00    -0.206 F 
ATOM     46  C   UNL A   1      35.978  29.872  28.816  1.00  0.00     0.006 A 
ENDBRANCH  25  39
BRANCH  26  47
ATOM     47  C   UNL A   1      48.357  26.604  29.704  1.00  0.00     0.057 A 
ATOM     48  C   UNL A   1      48.879  25.936  30.817  1.00  0.00     0.134 A 
ATOM     49  C   UNL A   1      49.242  26.908  28.662  1.00  0.00     0.134 A 
ATOM     50  F   UNL A   1      48.085  25.629  31.854  1.00  0.00    -0.206 F 
ATOM     51  C   UNL A   1      50.231  25.604  30.901  1.00  0.00     0.040 A 
ATOM     52  C   UNL A   1      50.590  26.552  28.718  1.00  0.00     0.040 A 
ATOM     53  F   UNL A   1      48.803  27.536  27.561  1.00  0.00    -0.206 F 
ATOM     54  C   UNL A   1      51.090  25.907  29.846  1.00  0.00     0.006 A 
ENDBRANCH  26  47
BRANCH  38  55
ATOM     55  C   UNL A   1      44.783  32.354  31.323  1.00  0.00     0.057 A 
ATOM     56  C   UNL A   1      45.142  33.445  30.519  1.00  0.00     0.134 A 
ATOM     57  C   UNL A   1      44.807  32.538  32.711  1.00  0.00     0.134 A 
ATOM     58  F   UNL A   1      45.157  33.329  29.182  1.00  0.00    -0.206 F 
ATOM     59  C   UNL A   1      45.537  34.661  31.077  1.00  0.00     0.040 A 
ATOM     60  C   UNL A   1      45.170  33.759  33.279  1.00  0.00     0.040 A 
ATOM     61  F   UNL A   1      44.469  31.537  33.537  1.00  0.00    -0.206 F 
ATOM     62  C   UNL A   1      45.545  34.822  32.461  1.00  0.00     0.006 A 
ENDBRANCH  38  55
ENDBRANCH  12  13
ENDBRANCH   5   7
ENDBRANCH   2   3
ENDBRANCH   1   2
BRANCH   1  63
ATOM     63  C   UNL A   1      37.884  22.214  25.327  1.00  0.00     0.117 C 
BRANCH  63  64
ATOM     64  N   UNL A   1      36.792  22.287  26.269  1.00  0.00    -0.356 N 
ATOM     65  C   UNL A   1      35.450  22.151  26.138  1.00  0.00     0.227 C 
ATOM     66  H   UNL A   1      37.080  22.472  27.193  1.00  0.00     0.163 HD
ATOM     67  O   UNL A   1      34.823  22.075  27.203  1.00  0.00    -0.274 OA
BRANCH  65  68
ATOM     68  C   UNL A   1      34.677  22.036  24.810  1.00  0.00     0.103 C 
ATOM     69  C   UNL A   1      33.296  22.630  24.860  1.00  0.00    -0.016 C 
ATOM     70  C   UNL A   1      34.428  20.679  24.148  1.00  0.00     0.047 C 
ATOM     71  C   UNL A   1      32.350  21.730  24.556  1.00  0.00    -0.006 C 
ATOM     72  C   UNL A   1      32.947  20.378  24.393  1.00  0.00     0.106 C 
BRANCH  72  73
ATOM     73  N   UNL A   1      32.306  19.605  23.368  1.00  0.00    -0.344 N 
ATOM     74  C   UNL A   1      32.436  18.256  23.158  1.00  0.00     0.269 C 
ATOM     75  H   UNL A   1      31.713  20.093  22.753  1.00  0.00     0.164 HD
ATOM     76  O   UNL A   1      32.101  17.768  22.080  1.00  0.00    -0.268 OA
BRANCH  74  77
ATOM     77  C   UNL A   1      33.052  17.394  24.206  1.00  0.00     0.124 A 
ATOM     78  C   UNL A   1      32.609  17.061  25.431  1.00  0.00     0.119 A 
ATOM     79  N   UNL A   1      34.242  16.734  23.991  1.00  0.00    -0.302 N 
ATOM     80  N   UNL A   1      33.533  16.239  26.027  1.00  0.00    -0.312 N 
ATOM     81  C   UNL A   1      34.585  16.000  25.130  1.00  0.00     0.323 A 
ATOM     82  H   UNL A   1      34.771  16.774  23.161  1.00  0.00     0.172 HD
ATOM     83  H   UNL A   1      33.469  15.876  26.940  1.00  0.00     0.171 HD
ATOM     84  O   UNL A   1      35.570  15.316  25.308  1.00  0.00    -0.248 OA
ENDBRANCH  74  77
ENDBRANCH  72  73
ENDBRANCH  65  68
ENDBRANCH  63  64
ENDBRANCH   1  63
TORSDOF 12
ENDMDL
