MODEL 1
REMARK VINA RESULT:     -12.3      0.000      0.000
REMARK SMILES COc1c(Cl)cc(C(=O)NCCCNC(=O)c2ccc(-c3c4nc(c(-c5c(F)cccc5F)c5ccc([nH]5)c(-c5c(F)cccc5F)c5nc(c(-c6c(F)cccc6F)c6ccc3[nH]6)C=C5)C=C4)cc2)cc1NC(=S)NC(=O)c1ccccc1F
REMARK SMILES IDX 11 1 10 2 8 3 9 4 7 6 3 7 4 8 72 9 5 10 6 11 71 12 2 13 1 14
REMARK SMILES IDX 73 15 74 17 75 18 76 19 77 20 78 22 79 23 80 24 84 25 81 26
REMARK SMILES IDX 83 27 85 28 82 29 12 30 13 31 14 32 15 33 16 35 17 36 18 37
REMARK SMILES IDX 70 38 19 39 69 40 20 41 21 42 22 43 63 44 23 45 68 46 62 47
REMARK SMILES IDX 64 48 24 49 67 50 61 51 60 52 25 54 51 55 34 56 50 57 35 58
REMARK SMILES IDX 38 59 49 60 65 61 36 62 37 63 48 65 66 66 39 67 26 68 27 69
REMARK SMILES IDX 32 70 28 71 29 72 31 73 33 74 30 75 52 76 53 77 58 78 54 79
REMARK SMILES IDX 55 80 57 81 59 82 56 83 40 84 41 85 46 86 42 87 43 88 45 89
REMARK SMILES IDX 47 90 44 91
REMARK H PARENT 10 5 73 16 76 21 14 34 64 53 38 64
REMARK Flexibility Score: inf
ROOT
ATOM      1  C   UNL A   1      38.669  22.713  25.905  1.00  0.00     0.118 C 
ENDROOT
BRANCH   1   2
ATOM      2  N   UNL A   1      37.902  22.810  24.644  1.00  0.00    -0.352 N 
ATOM      3  C   UNL A   1      36.662  23.086  24.095  1.00  0.00     0.251 C 
ATOM      4  O   UNL A   1      36.745  23.221  22.861  1.00  0.00    -0.269 OA
ATOM      5  H   UNL A   1      38.514  22.592  23.904  1.00  0.00     0.163 HD
BRANCH   3   6
ATOM      6  C   UNL A   1      35.191  23.176  24.660  1.00  0.00     0.043 A 
ATOM      7  C   UNL A   1      31.849  22.532  25.951  1.00  0.00     0.160 A 
ATOM      8  C   UNL A   1      32.855  21.202  25.254  1.00  0.00     0.086 A 
ATOM      9  C   UNL A   1      32.404  24.177  26.083  1.00  0.00     0.085 A 
ATOM     10  Cl  UNL A   1      32.153  19.635  25.081  1.00  0.00    -0.080 Cl
ATOM     11  C   UNL A   1      34.523  21.462  24.628  1.00  0.00     0.038 A 
ATOM     12  C   UNL A   1      33.886  24.523  25.404  1.00  0.00     0.044 A 
BRANCH   7  13
ATOM     13  O   UNL A   1      30.476  22.446  25.751  1.00  0.00    -0.493 OA
ATOM     14  C   UNL A   1      29.715  22.578  26.934  1.00  0.00     0.278 C 
ENDBRANCH   7  13
BRANCH   9  15
ATOM     15  N   UNL A   1      31.943  25.334  26.750  1.00  0.00    -0.329 N 
ATOM     16  H   UNL A   1      32.227  25.424  27.689  1.00  0.00     0.169 HD
BRANCH  15  17
ATOM     17  C   UNL A   1      31.143  26.369  26.262  1.00  0.00     0.177 C 
ATOM     18  S   UNL A   1      31.403  27.908  26.880  1.00  0.00    -0.040 S 
BRANCH  17  19
ATOM     19  N   UNL A   1      30.124  26.290  25.245  1.00  0.00    -0.299 N 
ATOM     20  C   UNL A   1      29.541  26.711  23.959  1.00  0.00     0.260 C 
ATOM     21  H   UNL A   1      29.500  25.606  25.580  1.00  0.00     0.172 HD
ATOM     22  O   UNL A   1      28.318  26.835  23.876  1.00  0.00    -0.269 OA
BRANCH  20  23
ATOM     23  C   UNL A   1      30.393  27.215  22.804  1.00  0.00     0.075 A 
ATOM     24  C   UNL A   1      30.669  28.865  23.300  1.00  0.00     0.017 A 
ATOM     25  C   UNL A   1      31.709  26.076  22.277  1.00  0.00     0.135 A 
ATOM     26  C   UNL A   1      32.340  29.328  23.623  1.00  0.00     0.001 A 
ATOM     27  C   UNL A   1      33.432  26.438  22.483  1.00  0.00     0.040 A 
ATOM     28  F   UNL A   1      31.409  24.762  22.262  1.00  0.00    -0.206 F 
ATOM     29  C   UNL A   1      33.843  28.021  23.231  1.00  0.00     0.003 A 
ENDBRANCH  20  23
ENDBRANCH  17  19
ENDBRANCH  15  17
ENDBRANCH   9  15
ENDBRANCH   3   6
ENDBRANCH   1   2
BRANCH   1  30
ATOM     30  C   UNL A   1      38.939  21.298  26.415  1.00  0.00     0.042 C 
BRANCH  30  31
ATOM     31  C   UNL A   1      39.089  20.241  25.342  1.00  0.00     0.118 C 
BRANCH  31  32
ATOM     32  N   UNL A   1      40.026  19.203  25.751  1.00  0.00    -0.352 N 
ATOM     33  C   UNL A   1      41.353  19.293  26.094  1.00  0.00     0.251 C 
ATOM     34  H   UNL A   1      39.650  18.295  25.787  1.00  0.00     0.163 HD
ATOM     35  O   UNL A   1      42.038  18.275  26.099  1.00  0.00    -0.269 OA
BRANCH  33  36
ATOM     36  C   UNL A   1      41.962  20.593  26.458  1.00  0.00     0.039 A 
ATOM     37  C   UNL A   1      42.359  21.460  25.436  1.00  0.00     0.014 A 
ATOM     38  C   UNL A   1      42.188  20.947  27.791  1.00  0.00     0.014 A 
ATOM     39  C   UNL A   1      42.920  22.697  25.752  1.00  0.00     0.010 A 
ATOM     40  C   UNL A   1      42.643  22.222  28.108  1.00  0.00     0.010 A 
ATOM     41  C   UNL A   1      43.018  23.107  27.091  1.00  0.00    -0.014 A 
BRANCH  41  42
ATOM     42  C   UNL A   1      43.475  24.473  27.444  1.00  0.00     0.031 A 
ATOM     43  C   UNL A   1      42.484  25.528  27.847  1.00  0.00     0.074 A 
ATOM     44  C   UNL A   1      44.786  24.768  27.342  1.00  0.00     0.049 A 
ATOM     45  N   UNL A   1      42.694  26.790  28.124  1.00  0.00    -0.248 NA
ATOM     46  C   UNL A   1      41.071  25.122  27.934  1.00  0.00     0.031 C 
ATOM     47  C   UNL A   1      45.831  23.832  26.921  1.00  0.00     0.029 A 
ATOM     48  N   UNL A   1      45.463  25.937  27.575  1.00  0.00    -0.354 N 
ATOM     49  C   UNL A   1      41.447  27.325  28.422  1.00  0.00     0.074 A 
ATOM     50  C   UNL A   1      40.477  26.269  28.231  1.00  0.00     0.031 C 
ATOM     51  C   UNL A   1      47.019  24.453  26.959  1.00  0.00     0.029 A 
ATOM     52  C   UNL A   1      46.814  25.845  27.340  1.00  0.00     0.049 A 
ATOM     53  H   UNL A   1      45.025  26.764  27.884  1.00  0.00     0.167 HD
ATOM     54  C   UNL A   1      41.146  28.576  28.840  1.00  0.00     0.037 A 
ATOM     55  C   UNL A   1      47.776  26.785  27.398  1.00  0.00     0.037 A 
ATOM     56  C   UNL A   1      42.120  29.619  29.024  1.00  0.00     0.049 A 
ATOM     57  C   UNL A   1      47.394  28.186  27.794  1.00  0.00     0.074 A 
ATOM     58  C   UNL A   1      41.918  30.912  29.475  1.00  0.00     0.029 A 
ATOM     59  N   UNL A   1      43.475  29.493  28.757  1.00  0.00    -0.354 N 
ATOM     60  N   UNL A   1      46.222  28.657  28.147  1.00  0.00    -0.248 NA
ATOM     61  C   UNL A   1      48.468  29.187  27.799  1.00  0.00     0.031 C 
ATOM     62  C   UNL A   1      43.138  31.589  29.412  1.00  0.00     0.029 A 
ATOM     63  C   UNL A   1      44.114  30.699  28.996  1.00  0.00     0.049 A 
ATOM     64  H   UNL A   1      43.916  28.670  28.447  1.00  0.00     0.167 HD
ATOM     65  C   UNL A   1      46.425  29.998  28.442  1.00  0.00     0.074 A 
ATOM     66  C   UNL A   1      47.837  30.257  28.260  1.00  0.00     0.031 C 
ATOM     67  C   UNL A   1      45.523  30.937  28.819  1.00  0.00     0.037 A 
BRANCH  54  68
ATOM     68  C   UNL A   1      39.707  28.894  29.132  1.00  0.00     0.057 A 
ATOM     69  C   UNL A   1      38.825  29.308  28.125  1.00  0.00     0.134 A 
ATOM     70  C   UNL A   1      39.178  28.706  30.415  1.00  0.00     0.134 A 
ATOM     71  F   UNL A   1      39.266  29.513  26.874  1.00  0.00    -0.206 F 
ATOM     72  C   UNL A   1      37.474  29.541  28.387  1.00  0.00     0.040 A 
ATOM     73  C   UNL A   1      37.823  28.905  30.683  1.00  0.00     0.040 A 
ATOM     74  F   UNL A   1      39.964  28.302  31.424  1.00  0.00    -0.206 F 
ATOM     75  C   UNL A   1      36.967  29.328  29.668  1.00  0.00     0.006 A 
ENDBRANCH  54  68
BRANCH  55  76
ATOM     76  C   UNL A   1      49.183  26.453  27.052  1.00  0.00     0.057 A 
ATOM     77  C   UNL A   1      49.629  26.478  25.725  1.00  0.00     0.134 A 
ATOM     78  C   UNL A   1      50.101  26.047  28.028  1.00  0.00     0.134 A 
ATOM     79  F   UNL A   1      48.797  26.846  24.739  1.00  0.00    -0.206 F 
ATOM     80  C   UNL A   1      50.915  26.062  25.376  1.00  0.00     0.040 A 
ATOM     81  C   UNL A   1      51.403  25.669  27.699  1.00  0.00     0.040 A 
ATOM     82  F   UNL A   1      49.747  26.010  29.322  1.00  0.00    -0.206 F 
ATOM     83  C   UNL A   1      51.807  25.657  26.366  1.00  0.00     0.006 A 
ENDBRANCH  55  76
BRANCH  67  84
ATOM     84  C   UNL A   1      46.040  32.320  29.090  1.00  0.00     0.057 A 
ATOM     85  C   UNL A   1      46.075  33.305  28.094  1.00  0.00     0.134 A 
ATOM     86  C   UNL A   1      46.464  32.686  30.374  1.00  0.00     0.134 A 
ATOM     87  F   UNL A   1      45.692  33.020  26.840  1.00  0.00    -0.206 F 
ATOM     88  C   UNL A   1      46.541  34.593  28.359  1.00  0.00     0.040 A 
ATOM     89  C   UNL A   1      46.895  33.981  30.660  1.00  0.00     0.040 A 
ATOM     90  F   UNL A   1      46.444  31.796  31.379  1.00  0.00    -0.206 F 
ATOM     91  C   UNL A   1      46.944  34.937  29.647  1.00  0.00     0.006 A 
ENDBRANCH  67  84
ENDBRANCH  41  42
ENDBRANCH  33  36
ENDBRANCH  31  32
ENDBRANCH  30  31
ENDBRANCH   1  30
TORSDOF 15
ENDMDL
MODEL 2
REMARK VINA RESULT:     -12.1      0.724      6.125
REMARK SMILES COc1c(Cl)cc(C(=O)NCCCNC(=O)c2ccc(-c3c4nc(c(-c5c(F)cccc5F)c5ccc([nH]5)c(-c5c(F)cccc5F)c5nc(c(-c6c(F)cccc6F)c6ccc3[nH]6)C=C5)C=C4)cc2)cc1NC(=S)NC(=O)c1ccccc1F
REMARK SMILES IDX 11 1 10 2 8 3 9 4 7 6 3 7 4 8 72 9 5 10 6 11 71 12 2 13 1 14
REMARK SMILES IDX 73 15 74 17 75 18 76 19 77 20 78 22 79 23 80 24 84 25 81 26
REMARK SMILES IDX 83 27 85 28 82 29 12 30 13 31 14 32 15 33 16 35 17 36 18 37
REMARK SMILES IDX 70 38 19 39 69 40 20 41 21 42 22 43 63 44 23 45 68 46 62 47
REMARK SMILES IDX 64 48 24 49 67 50 61 51 60 52 25 54 51 55 34 56 50 57 35 58
REMARK SMILES IDX 38 59 49 60 65 61 36 62 37 63 48 65 66 66 39 67 26 68 27 69
REMARK SMILES IDX 32 70 28 71 29 72 31 73 33 74 30 75 52 76 53 77 58 78 54 79
REMARK SMILES IDX 55 80 57 81 59 82 56 83 40 84 41 85 46 86 42 87 43 88 45 89
REMARK SMILES IDX 47 90 44 91
REMARK H PARENT 10 5 73 16 76 21 14 34 64 53 38 64
REMARK Flexibility Score: inf
ROOT
ATOM      1  C   UNL A   1      38.747  22.448  25.937  1.00  0.00     0.118 C 
ENDROOT
BRANCH   1   2
ATOM      2  N   UNL A   1      38.002  22.586  24.667  1.00  0.00    -0.352 N 
ATOM      3  C   UNL A   1      36.787  22.937  24.103  1.00  0.00     0.251 C 
ATOM      4  O   UNL A   1      36.893  23.060  22.870  1.00  0.00    -0.269 OA
ATOM      5  H   UNL A   1      38.607  22.328  23.935  1.00  0.00     0.163 HD
BRANCH   3   6
ATOM      6  C   UNL A   1      35.319  23.120  24.651  1.00  0.00     0.043 A 
ATOM      7  C   UNL A   1      31.940  22.690  25.937  1.00  0.00     0.160 A 
ATOM      8  C   UNL A   1      32.885  21.287  25.300  1.00  0.00     0.086 A 
ATOM      9  C   UNL A   1      32.575  24.310  26.011  1.00  0.00     0.085 A 
ATOM     10  Cl  UNL A   1      32.107  19.750  25.180  1.00  0.00    -0.080 Cl
ATOM     11  C   UNL A   1      34.568  21.441  24.679  1.00  0.00     0.038 A 
ATOM     12  C   UNL A   1      34.077  24.556  25.332  1.00  0.00     0.044 A 
BRANCH   7  13
ATOM     13  O   UNL A   1      30.567  22.664  25.728  1.00  0.00    -0.493 OA
ATOM     14  C   UNL A   1      29.805  22.702  26.917  1.00  0.00     0.278 C 
ENDBRANCH   7  13
BRANCH   9  15
ATOM     15  N   UNL A   1      32.167  25.513  26.629  1.00  0.00    -0.329 N 
ATOM     16  H   UNL A   1      32.532  25.672  27.529  1.00  0.00     0.169 HD
BRANCH  15  17
ATOM     17  C   UNL A   1      31.319  26.509  26.139  1.00  0.00     0.177 C 
ATOM     18  S   UNL A   1      31.594  28.084  26.653  1.00  0.00    -0.040 S 
BRANCH  17  19
ATOM     19  N   UNL A   1      30.238  26.360  25.197  1.00  0.00    -0.299 N 
ATOM     20  C   UNL A   1      29.608  26.633  23.893  1.00  0.00     0.260 C 
ATOM     21  H   UNL A   1      29.590  25.783  25.662  1.00  0.00     0.172 HD
ATOM     22  O   UNL A   1      28.394  26.836  23.853  1.00  0.00    -0.269 OA
BRANCH  20  23
ATOM     23  C   UNL A   1      30.422  26.896  22.634  1.00  0.00     0.075 A 
ATOM     24  C   UNL A   1      30.695  28.613  22.777  1.00  0.00     0.017 A 
ATOM     25  C   UNL A   1      31.733  25.679  22.309  1.00  0.00     0.135 A 
ATOM     26  C   UNL A   1      32.369  29.139  22.949  1.00  0.00     0.001 A 
ATOM     27  C   UNL A   1      33.457  26.083  22.386  1.00  0.00     0.040 A 
ATOM     28  F   UNL A   1      31.447  24.389  22.570  1.00  0.00    -0.206 F 
ATOM     29  C   UNL A   1      33.873  27.786  22.784  1.00  0.00     0.003 A 
ENDBRANCH  20  23
ENDBRANCH  17  19
ENDBRANCH  15  17
ENDBRANCH   9  15
ENDBRANCH   3   6
ENDBRANCH   1   2
BRANCH   1  30
ATOM     30  C   UNL A   1      38.990  21.017  26.417  1.00  0.00     0.042 C 
BRANCH  30  31
ATOM     31  C   UNL A   1      39.245  20.003  25.324  1.00  0.00     0.118 C 
BRANCH  31  32
ATOM     32  N   UNL A   1      40.274  19.049  25.719  1.00  0.00    -0.352 N 
ATOM     33  C   UNL A   1      41.583  19.258  26.078  1.00  0.00     0.251 C 
ATOM     34  H   UNL A   1      39.986  18.109  25.730  1.00  0.00     0.163 HD
ATOM     35  O   UNL A   1      42.362  18.309  26.067  1.00  0.00    -0.269 OA
BRANCH  33  36
ATOM     36  C   UNL A   1      42.062  20.601  26.478  1.00  0.00     0.039 A 
ATOM     37  C   UNL A   1      42.489  21.486  25.484  1.00  0.00     0.014 A 
ATOM     38  C   UNL A   1      42.139  20.979  27.821  1.00  0.00     0.014 A 
ATOM     39  C   UNL A   1      42.929  22.763  25.833  1.00  0.00     0.010 A 
ATOM     40  C   UNL A   1      42.472  22.286  28.160  1.00  0.00     0.010 A 
ATOM     41  C   UNL A   1      42.874  23.189  27.170  1.00  0.00    -0.014 A 
BRANCH  41  42
ATOM     42  C   UNL A   1      43.199  24.587  27.543  1.00  0.00     0.031 A 
ATOM     43  C   UNL A   1      44.629  25.034  27.653  1.00  0.00     0.074 A 
ATOM     44  C   UNL A   1      42.192  25.433  27.836  1.00  0.00     0.049 A 
ATOM     45  N   UNL A   1      45.100  26.195  28.029  1.00  0.00    -0.248 NA
ATOM     46  C   UNL A   1      45.668  24.047  27.314  1.00  0.00     0.031 C 
ATOM     47  C   UNL A   1      40.768  25.093  27.801  1.00  0.00     0.029 A 
ATOM     48  N   UNL A   1      42.209  26.747  28.228  1.00  0.00    -0.354 N 
ATOM     49  C   UNL A   1      46.483  26.081  27.969  1.00  0.00     0.074 A 
ATOM     50  C   UNL A   1      46.778  24.719  27.581  1.00  0.00     0.031 C 
ATOM     51  C   UNL A   1      40.048  26.179  28.123  1.00  0.00     0.029 A 
ATOM     52  C   UNL A   1      40.958  27.269  28.453  1.00  0.00     0.049 A 
ATOM     53  H   UNL A   1      43.039  27.267  28.337  1.00  0.00     0.167 HD
ATOM     54  C   UNL A   1      47.417  27.034  28.194  1.00  0.00     0.037 A 
ATOM     55  C   UNL A   1      40.587  28.483  28.901  1.00  0.00     0.037 A 
ATOM     56  C   UNL A   1      47.111  28.386  28.582  1.00  0.00     0.049 A 
ATOM     57  C   UNL A   1      41.656  29.495  29.213  1.00  0.00     0.074 A 
ATOM     58  C   UNL A   1      47.986  29.435  28.803  1.00  0.00     0.029 A 
ATOM     59  N   UNL A   1      45.833  28.872  28.818  1.00  0.00    -0.354 N 
ATOM     60  N   UNL A   1      42.957  29.396  29.077  1.00  0.00    -0.248 NA
ATOM     61  C   UNL A   1      41.206  30.789  29.743  1.00  0.00     0.031 C 
ATOM     62  C   UNL A   1      47.245  30.534  29.242  1.00  0.00     0.029 A 
ATOM     63  C   UNL A   1      45.902  30.195  29.222  1.00  0.00     0.049 A 
ATOM     64  H   UNL A   1      45.003  28.354  28.713  1.00  0.00     0.167 HD
ATOM     65  C   UNL A   1      43.474  30.621  29.477  1.00  0.00     0.074 A 
ATOM     66  C   UNL A   1      42.347  31.458  29.827  1.00  0.00     0.031 C 
ATOM     67  C   UNL A   1      44.768  31.017  29.557  1.00  0.00     0.037 A 
BRANCH  54  68
ATOM     68  C   UNL A   1      48.861  26.658  28.024  1.00  0.00     0.057 A 
ATOM     69  C   UNL A   1      49.635  26.201  29.100  1.00  0.00     0.134 A 
ATOM     70  C   UNL A   1      49.462  26.676  26.759  1.00  0.00     0.134 A 
ATOM     71  F   UNL A   1      49.123  26.164  30.340  1.00  0.00    -0.206 F 
ATOM     72  C   UNL A   1      50.958  25.792  28.926  1.00  0.00     0.040 A 
ATOM     73  C   UNL A   1      50.774  26.239  26.567  1.00  0.00     0.040 A 
ATOM     74  F   UNL A   1      48.777  27.093  25.684  1.00  0.00    -0.206 F 
ATOM     75  C   UNL A   1      51.528  25.800  27.655  1.00  0.00     0.006 A 
ENDBRANCH  54  68
BRANCH  55  76
ATOM     76  C   UNL A   1      39.152  28.808  29.110  1.00  0.00     0.057 A 
ATOM     77  C   UNL A   1      38.378  29.369  28.087  1.00  0.00     0.134 A 
ATOM     78  C   UNL A   1      38.533  28.624  30.353  1.00  0.00     0.134 A 
ATOM     79  F   UNL A   1      38.913  29.583  26.876  1.00  0.00    -0.206 F 
ATOM     80  C   UNL A   1      37.062  29.780  28.305  1.00  0.00     0.040 A 
ATOM     81  C   UNL A   1      37.205  28.991  30.573  1.00  0.00     0.040 A 
ATOM     82  F   UNL A   1      39.211  28.082  31.377  1.00  0.00    -0.206 F 
ATOM     83  C   UNL A   1      36.472  29.590  29.552  1.00  0.00     0.006 A 
ENDBRANCH  55  76
BRANCH  67  84
ATOM     84  C   UNL A   1      45.032  32.422  30.013  1.00  0.00     0.057 A 
ATOM     85  C   UNL A   1      45.278  32.731  31.358  1.00  0.00     0.134 A 
ATOM     86  C   UNL A   1      45.087  33.474  29.089  1.00  0.00     0.134 A 
ATOM     87  F   UNL A   1      45.231  31.773  32.296  1.00  0.00    -0.206 F 
ATOM     88  C   UNL A   1      45.539  34.038  31.770  1.00  0.00     0.040 A 
ATOM     89  C   UNL A   1      45.385  34.778  29.484  1.00  0.00     0.040 A 
ATOM     90  F   UNL A   1      44.875  33.248  27.784  1.00  0.00    -0.206 F 
ATOM     91  C   UNL A   1      45.603  35.065  30.830  1.00  0.00     0.006 A 
ENDBRANCH  67  84
ENDBRANCH  41  42
ENDBRANCH  33  36
ENDBRANCH  31  32
ENDBRANCH  30  31
ENDBRANCH   1  30
TORSDOF 15
ENDMDL
MODEL 3
REMARK VINA RESULT:     -11.9      9.347     15.958
REMARK SMILES COc1c(Cl)cc(C(=O)NCCCNC(=O)c2ccc(-c3c4nc(c(-c5c(F)cccc5F)c5ccc([nH]5)c(-c5c(F)cccc5F)c5nc(c(-c6c(F)cccc6F)c6ccc3[nH]6)C=C5)C=C4)cc2)cc1NC(=S)NC(=O)c1ccccc1F
REMARK SMILES IDX 11 1 10 2 8 3 9 4 7 6 3 7 4 8 72 9 5 10 6 11 71 12 2 13 1 14
REMARK SMILES IDX 73 15 74 17 75 18 76 19 77 20 78 22 79 23 80 24 84 25 81 26
REMARK SMILES IDX 83 27 85 28 82 29 12 30 13 31 14 32 15 33 16 35 17 36 18 37
REMARK SMILES IDX 70 38 19 39 69 40 20 41 21 42 22 43 63 44 23 45 68 46 62 47
REMARK SMILES IDX 64 48 24 49 67 50 61 51 60 52 25 54 51 55 34 56 50 57 35 58
REMARK SMILES IDX 38 59 49 60 65 61 36 62 37 63 48 65 66 66 39 67 26 68 27 69
REMARK SMILES IDX 32 70 28 71 29 72 31 73 33 74 30 75 52 76 53 77 58 78 54 79
REMARK SMILES IDX 55 80 57 81 59 82 56 83 40 84 41 85 46 86 42 87 43 88 45 89
REMARK SMILES IDX 47 90 44 91
REMARK H PARENT 10 5 73 16 76 21 14 34 64 53 38 64
REMARK Flexibility Score: inf
ROOT
ATOM      1  C   UNL A   1      42.604  38.643  26.875  1.00  0.00     0.118 C 
ENDROOT
BRANCH   1   2
ATOM      2  N   UNL A   1      41.685  39.782  26.662  1.00  0.00    -0.352 N 
ATOM      3  C   UNL A   1      41.356  40.823  25.812  1.00  0.00     0.251 C 
ATOM      4  O   UNL A   1      40.256  41.315  26.122  1.00  0.00    -0.269 OA
ATOM      5  H   UNL A   1      41.063  39.811  27.425  1.00  0.00     0.163 HD
BRANCH   3   6
ATOM      6  C   UNL A   1      42.088  41.564  24.627  1.00  0.00     0.043 A 
ATOM      7  C   UNL A   1      44.419  43.324  22.453  1.00  0.00     0.160 A 
ATOM      8  C   UNL A   1      44.747  43.136  24.220  1.00  0.00     0.086 A 
ATOM      9  C   UNL A   1      43.010  42.664  21.671  1.00  0.00     0.085 A 
ATOM     10  Cl  UNL A   1      46.125  43.927  24.896  1.00  0.00    -0.080 Cl
ATOM     11  C   UNL A   1      43.642  42.252  25.333  1.00  0.00     0.038 A 
ATOM     12  C   UNL A   1      41.874  41.947  22.658  1.00  0.00     0.044 A 
BRANCH   7  13
ATOM     13  O   UNL A   1      44.857  44.501  21.858  1.00  0.00    -0.493 OA
ATOM     14  C   UNL A   1      46.130  44.400  21.255  1.00  0.00     0.278 C 
ENDBRANCH   7  13
BRANCH   9  15
ATOM     15  N   UNL A   1      42.612  42.474  20.329  1.00  0.00    -0.329 N 
ATOM     16  H   UNL A   1      42.355  41.554  20.089  1.00  0.00     0.169 HD
BRANCH  15  17
ATOM     17  C   UNL A   1      42.531  43.410  19.296  1.00  0.00     0.177 C 
ATOM     18  S   UNL A   1      41.010  43.738  18.665  1.00  0.00    -0.040 S 
BRANCH  17  19
ATOM     19  N   UNL A   1      43.605  44.176  18.715  1.00  0.00    -0.299 N 
ATOM     20  C   UNL A   1      44.145  45.418  18.134  1.00  0.00     0.260 C 
ATOM     21  H   UNL A   1      44.365  43.550  18.696  1.00  0.00     0.172 HD
ATOM     22  O   UNL A   1      44.911  45.338  17.173  1.00  0.00    -0.269 OA
BRANCH  20  23
ATOM     23  C   UNL A   1      43.623  46.793  18.524  1.00  0.00     0.075 A 
ATOM     24  C   UNL A   1      45.079  47.529  19.143  1.00  0.00     0.017 A 
ATOM     25  C   UNL A   1      42.533  47.569  17.292  1.00  0.00     0.135 A 
ATOM     26  C   UNL A   1      45.686  48.939  18.276  1.00  0.00     0.001 A 
ATOM     27  C   UNL A   1      42.989  49.025  16.390  1.00  0.00     0.040 A 
ATOM     28  F   UNL A   1      41.661  46.763  16.655  1.00  0.00    -0.206 F 
ATOM     29  C   UNL A   1      44.597  49.737  16.760  1.00  0.00     0.003 A 
ENDBRANCH  20  23
ENDBRANCH  17  19
ENDBRANCH  15  17
ENDBRANCH   9  15
ENDBRANCH   3   6
ENDBRANCH   1   2
BRANCH   1  30
ATOM     30  C   UNL A   1      43.994  38.995  27.403  1.00  0.00     0.042 C 
BRANCH  30  31
ATOM     31  C   UNL A   1      44.378  38.332  28.708  1.00  0.00     0.118 C 
BRANCH  31  32
ATOM     32  N   UNL A   1      45.817  38.112  28.785  1.00  0.00    -0.352 N 
ATOM     33  C   UNL A   1      46.524  36.973  29.079  1.00  0.00     0.251 C 
ATOM     34  H   UNL A   1      46.368  38.905  28.598  1.00  0.00     0.163 HD
ATOM     35  O   UNL A   1      47.704  37.070  29.402  1.00  0.00    -0.269 OA
BRANCH  33  36
ATOM     36  C   UNL A   1      45.886  35.638  29.010  1.00  0.00     0.039 A 
ATOM     37  C   UNL A   1      45.179  35.289  27.856  1.00  0.00     0.014 A 
ATOM     38  C   UNL A   1      45.938  34.747  30.086  1.00  0.00     0.014 A 
ATOM     39  C   UNL A   1      44.584  34.030  27.760  1.00  0.00     0.010 A 
ATOM     40  C   UNL A   1      45.441  33.456  29.948  1.00  0.00     0.010 A 
ATOM     41  C   UNL A   1      44.755  33.087  28.785  1.00  0.00    -0.014 A 
BRANCH  41  42
ATOM     42  C   UNL A   1      44.256  31.698  28.641  1.00  0.00     0.031 A 
ATOM     43  C   UNL A   1      45.054  30.676  27.881  1.00  0.00     0.074 A 
ATOM     44  C   UNL A   1      43.051  31.383  29.153  1.00  0.00     0.049 A 
ATOM     45  N   UNL A   1      44.745  29.437  27.597  1.00  0.00    -0.248 NA
ATOM     46  C   UNL A   1      46.362  31.103  27.354  1.00  0.00     0.031 C 
ATOM     47  C   UNL A   1      42.173  32.307  29.875  1.00  0.00     0.029 A 
ATOM     48  N   UNL A   1      42.351  30.204  29.140  1.00  0.00    -0.354 N 
ATOM     49  C   UNL A   1      45.815  28.937  26.867  1.00  0.00     0.074 A 
ATOM     50  C   UNL A   1      46.755  30.023  26.695  1.00  0.00     0.031 C 
ATOM     51  C   UNL A   1      41.069  31.651  30.264  1.00  0.00     0.029 A 
ATOM     52  C   UNL A   1      41.129  30.284  29.763  1.00  0.00     0.049 A 
ATOM     53  H   UNL A   1      42.692  29.378  28.725  1.00  0.00     0.167 HD
ATOM     54  C   UNL A   1      46.005  27.680  26.405  1.00  0.00     0.037 A 
ATOM     55  C   UNL A   1      40.153  29.365  29.892  1.00  0.00     0.037 A 
ATOM     56  C   UNL A   1      45.061  26.607  26.580  1.00  0.00     0.049 A 
ATOM     57  C   UNL A   1      40.365  27.998  29.300  1.00  0.00     0.074 A 
ATOM     58  C   UNL A   1      45.175  25.288  26.175  1.00  0.00     0.029 A 
ATOM     59  N   UNL A   1      43.826  26.732  27.199  1.00  0.00    -0.354 N 
ATOM     60  N   UNL A   1      41.416  27.518  28.679  1.00  0.00    -0.248 NA
ATOM     61  C   UNL A   1      39.256  27.044  29.426  1.00  0.00     0.031 C 
ATOM     62  C   UNL A   1      43.982  24.634  26.485  1.00  0.00     0.029 A 
ATOM     63  C   UNL A   1      43.153  25.522  27.151  1.00  0.00     0.049 A 
ATOM     64  H   UNL A   1      43.482  27.556  27.612  1.00  0.00     0.167 HD
ATOM     65  C   UNL A   1      41.103  26.202  28.367  1.00  0.00     0.074 A 
ATOM     66  C   UNL A   1      39.781  25.948  28.897  1.00  0.00     0.031 C 
ATOM     67  C   UNL A   1      41.840  25.285  27.693  1.00  0.00     0.037 A 
BRANCH  54  68
ATOM     68  C   UNL A   1      47.279  27.384  25.667  1.00  0.00     0.057 A 
ATOM     69  C   UNL A   1      48.395  26.835  26.313  1.00  0.00     0.134 A 
ATOM     70  C   UNL A   1      47.366  27.575  24.282  1.00  0.00     0.134 A 
ATOM     71  F   UNL A   1      48.382  26.632  27.640  1.00  0.00    -0.206 F 
ATOM     72  C   UNL A   1      49.555  26.502  25.612  1.00  0.00     0.040 A 
ATOM     73  C   UNL A   1      48.508  27.216  23.565  1.00  0.00     0.040 A 
ATOM     74  F   UNL A   1      46.332  28.088  23.598  1.00  0.00    -0.206 F 
ATOM     75  C   UNL A   1      49.609  26.682  24.231  1.00  0.00     0.006 A 
ENDBRANCH  54  68
BRANCH  55  76
ATOM     76  C   UNL A   1      38.880  29.702  30.582  1.00  0.00     0.057 A 
ATOM     77  C   UNL A   1      37.835  30.342  29.904  1.00  0.00     0.134 A 
ATOM     78  C   UNL A   1      38.697  29.448  31.947  1.00  0.00     0.134 A 
ATOM     79  F   UNL A   1      37.950  30.624  28.598  1.00  0.00    -0.206 F 
ATOM     80  C   UNL A   1      36.680  30.762  30.567  1.00  0.00     0.040 A 
ATOM     81  C   UNL A   1      37.531  29.824  32.614  1.00  0.00     0.040 A 
ATOM     82  F   UNL A   1      39.652  28.829  32.658  1.00  0.00    -0.206 F 
ATOM     83  C   UNL A   1      36.526  30.502  31.927  1.00  0.00     0.006 A 
ENDBRANCH  55  76
BRANCH  67  84
ATOM     84  C   UNL A   1      41.246  23.918  27.516  1.00  0.00     0.057 A 
ATOM     85  C   UNL A   1      40.239  23.664  26.576  1.00  0.00     0.134 A 
ATOM     86  C   UNL A   1      41.719  22.831  28.264  1.00  0.00     0.134 A 
ATOM     87  F   UNL A   1      39.733  24.661  25.833  1.00  0.00    -0.206 F 
ATOM     88  C   UNL A   1      39.704  22.386  26.407  1.00  0.00     0.040 A 
ATOM     89  C   UNL A   1      41.219  21.543  28.077  1.00  0.00     0.040 A 
ATOM     90  F   UNL A   1      42.691  23.000  29.173  1.00  0.00    -0.206 F 
ATOM     91  C   UNL A   1      40.201  21.319  27.152  1.00  0.00     0.006 A 
ENDBRANCH  67  84
ENDBRANCH  41  42
ENDBRANCH  33  36
ENDBRANCH  31  32
ENDBRANCH  30  31
ENDBRANCH   1  30
TORSDOF 15
ENDMDL
