MODEL 1
REMARK VINA RESULT:     -10.9      0.000      0.000
REMARK SMILES O=C(CSc1nc(-c2ccccc2)cc(-c2ccccc2)n1)NCCCNC(=O)c1ccc(-c2c3nc(c(-c4c(F)cccc4F)c4ccc([nH]4)c(-c4c(F)cccc4F)c4nc(c(-c5c(F)cccc5F)c5ccc2[nH]5)C=C4)C=C3)cc1
REMARK SMILES IDX 24 1 23 2 1 3 2 4 3 6 4 7 5 8 6 9 22 10 7 11 15 12 14 13
REMARK SMILES IDX 8 14 9 15 13 16 10 17 12 18 11 19 16 20 17 21 21 22 18 23
REMARK SMILES IDX 20 24 19 25 25 26 26 27 27 28 28 29 29 31 30 32 31 33 83 34
REMARK SMILES IDX 32 35 82 36 33 37 34 38 35 39 76 40 36 41 81 42 75 43 77 44
REMARK SMILES IDX 37 45 80 46 74 47 73 48 38 50 64 51 47 52 63 53 48 54 51 55
REMARK SMILES IDX 62 56 78 57 49 58 50 59 61 61 79 62 52 63 39 64 40 65 45 66
REMARK SMILES IDX 41 67 42 68 44 69 46 70 43 71 65 72 66 73 71 74 67 75 68 76
REMARK SMILES IDX 70 77 72 78 69 79 53 80 54 81 59 82 55 83 56 84 58 85 60 86
REMARK SMILES IDX 57 87
REMARK H PARENT 23 5 27 30 77 49 51 60
REMARK Flexibility Score: inf
ROOT
ATOM      1  C   UNL A   1      32.603  36.510  31.173  1.00  0.00     0.117 C 
ENDROOT
BRANCH   1   2
ATOM      2  N   UNL A   1      33.540  35.777  31.995  1.00  0.00    -0.355 N 
ATOM      3  O   UNL A   1      33.822  37.436  33.542  1.00  0.00    -0.274 OA
ATOM      4  C   UNL A   1      34.032  36.278  33.183  1.00  0.00     0.230 C 
ATOM      5  H   UNL A   1      33.838  34.888  31.696  1.00  0.00     0.163 HD
BRANCH   4   6
ATOM      6  C   UNL A   1      34.958  35.357  33.966  1.00  0.00     0.178 C 
BRANCH   6   7
ATOM      7  S   UNL A   1      34.753  33.590  33.575  1.00  0.00    -0.076 SA
BRANCH   7   8
ATOM      8  C   UNL A   1      36.188  32.906  34.370  1.00  0.00     0.189 A 
ATOM      9  N   UNL A   1      36.590  33.421  35.537  1.00  0.00    -0.222 NA
ATOM     10  N   UNL A   1      36.768  31.871  33.749  1.00  0.00    -0.222 NA
ATOM     11  C   UNL A   1      37.672  32.862  36.114  1.00  0.00     0.075 A 
ATOM     12  C   UNL A   1      37.831  31.308  34.359  1.00  0.00     0.075 A 
ATOM     13  C   UNL A   1      38.328  31.784  35.555  1.00  0.00     0.058 A 
BRANCH  11  14
ATOM     14  C   UNL A   1      38.104  33.459  37.386  1.00  0.00     0.000 A 
ATOM     15  C   UNL A   1      38.847  34.653  37.401  1.00  0.00     0.010 A 
ATOM     16  C   UNL A   1      37.788  32.864  38.620  1.00  0.00     0.010 A 
ATOM     17  C   UNL A   1      39.234  35.245  38.606  1.00  0.00     0.001 A 
ATOM     18  C   UNL A   1      38.186  33.450  39.825  1.00  0.00     0.001 A 
ATOM     19  C   UNL A   1      38.903  34.643  39.817  1.00  0.00     0.000 A 
ENDBRANCH  11  14
BRANCH  12  20
ATOM     20  C   UNL A   1      38.431  30.156  33.679  1.00  0.00     0.000 A 
ATOM     21  C   UNL A   1      39.795  29.859  33.836  1.00  0.00     0.010 A 
ATOM     22  C   UNL A   1      37.661  29.313  32.858  1.00  0.00     0.010 A 
ATOM     23  C   UNL A   1      40.365  28.746  33.211  1.00  0.00     0.001 A 
ATOM     24  C   UNL A   1      38.233  28.206  32.226  1.00  0.00     0.001 A 
ATOM     25  C   UNL A   1      39.583  27.920  32.406  1.00  0.00     0.000 A 
ENDBRANCH  12  20
ENDBRANCH   7   8
ENDBRANCH   6   7
ENDBRANCH   4   6
ENDBRANCH   1   2
BRANCH   1  26
ATOM     26  C   UNL A   1      33.278  37.399  30.134  1.00  0.00     0.042 C 
BRANCH  26  27
ATOM     27  C   UNL A   1      33.793  36.669  28.896  1.00  0.00     0.118 C 
BRANCH  27  28
ATOM     28  N   UNL A   1      32.899  35.617  28.430  1.00  0.00    -0.352 N 
ATOM     29  C   UNL A   1      33.095  34.270  28.265  1.00  0.00     0.251 C 
ATOM     30  H   UNL A   1      31.996  35.928  28.193  1.00  0.00     0.163 HD
ATOM     31  O   UNL A   1      32.201  33.604  27.739  1.00  0.00    -0.269 OA
BRANCH  29  32
ATOM     32  C   UNL A   1      34.350  33.598  28.672  1.00  0.00     0.039 A 
ATOM     33  C   UNL A   1      35.469  33.735  27.842  1.00  0.00     0.014 A 
ATOM     34  C   UNL A   1      34.438  32.797  29.814  1.00  0.00     0.014 A 
ATOM     35  C   UNL A   1      36.680  33.129  28.186  1.00  0.00     0.010 A 
ATOM     36  C   UNL A   1      35.665  32.246  30.192  1.00  0.00     0.010 A 
ATOM     37  C   UNL A   1      36.799  32.408  29.384  1.00  0.00    -0.014 A 
BRANCH  37  38
ATOM     38  C   UNL A   1      38.113  31.854  29.806  1.00  0.00     0.031 A 
ATOM     39  C   UNL A   1      38.601  30.531  29.286  1.00  0.00     0.074 A 
ATOM     40  C   UNL A   1      38.857  32.534  30.701  1.00  0.00     0.049 A 
ATOM     41  N   UNL A   1      39.717  29.899  29.554  1.00  0.00    -0.248 NA
ATOM     42  C   UNL A   1      37.712  29.812  28.361  1.00  0.00     0.031 C 
ATOM     43  C   UNL A   1      38.476  33.801  31.328  1.00  0.00     0.029 A 
ATOM     44  N   UNL A   1      40.089  32.255  31.239  1.00  0.00    -0.354 N 
ATOM     45  C   UNL A   1      39.660  28.707  28.843  1.00  0.00     0.074 A 
ATOM     46  C   UNL A   1      38.381  28.684  28.165  1.00  0.00     0.031 C 
ATOM     47  C   UNL A   1      39.464  34.203  32.143  1.00  0.00     0.029 A 
ATOM     48  C   UNL A   1      40.535  33.212  32.117  1.00  0.00     0.049 A 
ATOM     49  H   UNL A   1      40.602  31.444  31.018  1.00  0.00     0.167 HD
ATOM     50  C   UNL A   1      40.594  27.730  28.747  1.00  0.00     0.037 A 
ATOM     51  C   UNL A   1      41.681  33.287  32.819  1.00  0.00     0.037 A 
ATOM     52  C   UNL A   1      41.878  27.759  29.401  1.00  0.00     0.049 A 
ATOM     53  C   UNL A   1      42.713  32.206  32.673  1.00  0.00     0.074 A 
ATOM     54  C   UNL A   1      42.910  26.841  29.317  1.00  0.00     0.029 A 
ATOM     55  N   UNL A   1      42.305  28.761  30.259  1.00  0.00    -0.354 N 
ATOM     56  N   UNL A   1      42.672  31.118  31.943  1.00  0.00    -0.248 NA
ATOM     57  C   UNL A   1      43.957  32.370  33.439  1.00  0.00     0.031 C 
ATOM     58  C   UNL A   1      43.951  27.270  30.149  1.00  0.00     0.029 A 
ATOM     59  C   UNL A   1      43.580  28.476  30.721  1.00  0.00     0.049 A 
ATOM     60  H   UNL A   1      41.779  29.556  30.505  1.00  0.00     0.167 HD
ATOM     61  C   UNL A   1      43.889  30.482  32.142  1.00  0.00     0.074 A 
ATOM     62  C   UNL A   1      44.654  31.313  33.048  1.00  0.00     0.031 C 
ATOM     63  C   UNL A   1      44.333  29.312  31.620  1.00  0.00     0.037 A 
BRANCH  50  64
ATOM     64  C   UNL A   1      40.264  26.541  27.892  1.00  0.00     0.057 A 
ATOM     65  C   UNL A   1      40.792  26.392  26.603  1.00  0.00     0.134 A 
ATOM     66  C   UNL A   1      39.440  25.516  28.376  1.00  0.00     0.134 A 
ATOM     67  F   UNL A   1      41.580  27.343  26.078  1.00  0.00    -0.206 F 
ATOM     68  C   UNL A   1      40.496  25.277  25.818  1.00  0.00     0.040 A 
ATOM     69  C   UNL A   1      39.156  24.386  27.608  1.00  0.00     0.040 A 
ATOM     70  F   UNL A   1      38.907  25.593  29.604  1.00  0.00    -0.206 F 
ATOM     71  C   UNL A   1      39.680  24.267  26.322  1.00  0.00     0.006 A 
ENDBRANCH  50  64
BRANCH  51  72
ATOM     72  C   UNL A   1      41.932  34.455  33.697  1.00  0.00     0.057 A 
ATOM     73  C   UNL A   1      41.667  34.393  35.071  1.00  0.00     0.134 A 
ATOM     74  C   UNL A   1      42.437  35.657  33.190  1.00  0.00     0.134 A 
ATOM     75  F   UNL A   1      41.164  33.273  35.610  1.00  0.00    -0.206 F 
ATOM     76  C   UNL A   1      41.879  35.489  35.906  1.00  0.00     0.040 A 
ATOM     77  C   UNL A   1      42.675  36.756  34.018  1.00  0.00     0.040 A 
ATOM     78  F   UNL A   1      42.718  35.776  31.884  1.00  0.00    -0.206 F 
ATOM     79  C   UNL A   1      42.389  36.675  35.380  1.00  0.00     0.006 A 
ENDBRANCH  51  72
BRANCH  63  80
ATOM     80  C   UNL A   1      45.720  28.884  31.995  1.00  0.00     0.057 A 
ATOM     81  C   UNL A   1      46.841  29.276  31.252  1.00  0.00     0.134 A 
ATOM     82  C   UNL A   1      45.938  28.074  33.117  1.00  0.00     0.134 A 
ATOM     83  F   UNL A   1      46.699  30.038  30.157  1.00  0.00    -0.206 F 
ATOM     84  C   UNL A   1      48.127  28.856  31.597  1.00  0.00     0.040 A 
ATOM     85  C   UNL A   1      47.221  27.668  33.485  1.00  0.00     0.040 A 
ATOM     86  F   UNL A   1      44.908  27.669  33.875  1.00  0.00    -0.206 F 
ATOM     87  C   UNL A   1      48.320  28.053  32.719  1.00  0.00     0.006 A 
ENDBRANCH  63  80
ENDBRANCH  37  38
ENDBRANCH  29  32
ENDBRANCH  27  28
ENDBRANCH  26  27
ENDBRANCH   1  26
TORSDOF 14
ENDMDL
MODEL 2
REMARK VINA RESULT:     -10.9      0.418      6.203
REMARK SMILES O=C(CSc1nc(-c2ccccc2)cc(-c2ccccc2)n1)NCCCNC(=O)c1ccc(-c2c3nc(c(-c4c(F)cccc4F)c4ccc([nH]4)c(-c4c(F)cccc4F)c4nc(c(-c5c(F)cccc5F)c5ccc2[nH]5)C=C4)C=C3)cc1
REMARK SMILES IDX 24 1 23 2 1 3 2 4 3 6 4 7 5 8 6 9 22 10 7 11 15 12 14 13
REMARK SMILES IDX 8 14 9 15 13 16 10 17 12 18 11 19 16 20 17 21 21 22 18 23
REMARK SMILES IDX 20 24 19 25 25 26 26 27 27 28 28 29 29 31 30 32 31 33 83 34
REMARK SMILES IDX 32 35 82 36 33 37 34 38 35 39 76 40 36 41 81 42 75 43 77 44
REMARK SMILES IDX 37 45 80 46 74 47 73 48 38 50 64 51 47 52 63 53 48 54 51 55
REMARK SMILES IDX 62 56 78 57 49 58 50 59 61 61 79 62 52 63 39 64 40 65 45 66
REMARK SMILES IDX 41 67 42 68 44 69 46 70 43 71 65 72 66 73 71 74 67 75 68 76
REMARK SMILES IDX 70 77 72 78 69 79 53 80 54 81 59 82 55 83 56 84 58 85 60 86
REMARK SMILES IDX 57 87
REMARK H PARENT 23 5 27 30 77 49 51 60
REMARK Flexibility Score: inf
ROOT
ATOM      1  C   UNL A   1      32.538  36.431  31.055  1.00  0.00     0.117 C 
ENDROOT
BRANCH   1   2
ATOM      2  N   UNL A   1      33.499  35.745  31.889  1.00  0.00    -0.355 N 
ATOM      3  O   UNL A   1      33.719  37.437  33.410  1.00  0.00    -0.274 OA
ATOM      4  C   UNL A   1      33.970  36.281  33.069  1.00  0.00     0.230 C 
ATOM      5  H   UNL A   1      33.829  34.862  31.604  1.00  0.00     0.163 HD
BRANCH   4   6
ATOM      6  C   UNL A   1      34.927  35.407  33.868  1.00  0.00     0.178 C 
BRANCH   6   7
ATOM      7  S   UNL A   1      34.700  33.619  33.599  1.00  0.00    -0.076 SA
BRANCH   7   8
ATOM      8  C   UNL A   1      36.163  32.978  34.378  1.00  0.00     0.189 A 
ATOM      9  N   UNL A   1      36.591  33.539  35.514  1.00  0.00    -0.222 NA
ATOM     10  N   UNL A   1      36.736  31.925  33.781  1.00  0.00    -0.222 NA
ATOM     11  C   UNL A   1      37.694  33.012  36.082  1.00  0.00     0.075 A 
ATOM     12  C   UNL A   1      37.820  31.396  34.382  1.00  0.00     0.075 A 
ATOM     13  C   UNL A   1      38.344  31.919  35.545  1.00  0.00     0.058 A 
BRANCH  11  14
ATOM     14  C   UNL A   1      38.155  33.660  37.318  1.00  0.00     0.000 A 
ATOM     15  C   UNL A   1      37.928  33.059  38.569  1.00  0.00     0.010 A 
ATOM     16  C   UNL A   1      38.836  34.889  37.292  1.00  0.00     0.010 A 
ATOM     17  C   UNL A   1      38.390  33.652  39.747  1.00  0.00     0.001 A 
ATOM     18  C   UNL A   1      39.289  35.488  38.471  1.00  0.00     0.001 A 
ATOM     19  C   UNL A   1      39.071  34.865  39.697  1.00  0.00     0.000 A 
ENDBRANCH  11  14
BRANCH  12  20
ATOM     20  C   UNL A   1      38.413  30.224  33.728  1.00  0.00     0.000 A 
ATOM     21  C   UNL A   1      39.768  29.906  33.914  1.00  0.00     0.010 A 
ATOM     22  C   UNL A   1      37.643  29.383  32.904  1.00  0.00     0.010 A 
ATOM     23  C   UNL A   1      40.331  28.775  33.316  1.00  0.00     0.001 A 
ATOM     24  C   UNL A   1      38.208  28.258  32.298  1.00  0.00     0.001 A 
ATOM     25  C   UNL A   1      39.550  27.952  32.507  1.00  0.00     0.000 A 
ENDBRANCH  12  20
ENDBRANCH   7   8
ENDBRANCH   6   7
ENDBRANCH   4   6
ENDBRANCH   1   2
BRANCH   1  26
ATOM     26  C   UNL A   1      33.181  37.380  30.048  1.00  0.00     0.042 C 
BRANCH  26  27
ATOM     27  C   UNL A   1      33.643  36.726  28.748  1.00  0.00     0.118 C 
BRANCH  27  28
ATOM     28  N   UNL A   1      32.860  35.556  28.378  1.00  0.00    -0.352 N 
ATOM     29  C   UNL A   1      33.195  34.229  28.305  1.00  0.00     0.251 C 
ATOM     30  H   UNL A   1      31.925  35.752  28.139  1.00  0.00     0.163 HD
ATOM     31  O   UNL A   1      32.369  33.436  27.846  1.00  0.00    -0.269 OA
BRANCH  29  32
ATOM     32  C   UNL A   1      34.520  33.724  28.732  1.00  0.00     0.039 A 
ATOM     33  C   UNL A   1      34.582  32.928  29.881  1.00  0.00     0.014 A 
ATOM     34  C   UNL A   1      35.702  34.057  28.064  1.00  0.00     0.014 A 
ATOM     35  C   UNL A   1      35.807  32.419  30.321  1.00  0.00     0.010 A 
ATOM     36  C   UNL A   1      36.917  33.494  28.464  1.00  0.00     0.010 A 
ATOM     37  C   UNL A   1      36.982  32.668  29.594  1.00  0.00    -0.014 A 
BRANCH  37  38
ATOM     38  C   UNL A   1      38.267  32.038  29.998  1.00  0.00     0.031 A 
ATOM     39  C   UNL A   1      39.197  32.720  30.962  1.00  0.00     0.074 A 
ATOM     40  C   UNL A   1      38.620  30.856  29.456  1.00  0.00     0.049 A 
ATOM     41  N   UNL A   1      40.359  32.316  31.416  1.00  0.00    -0.248 NA
ATOM     42  C   UNL A   1      38.781  34.037  31.468  1.00  0.00     0.031 C 
ATOM     43  C   UNL A   1      37.837  30.113  28.464  1.00  0.00     0.029 A 
ATOM     44  N   UNL A   1      39.726  30.070  29.660  1.00  0.00    -0.354 N 
ATOM     45  C   UNL A   1      40.815  33.329  32.248  1.00  0.00     0.074 A 
ATOM     46  C   UNL A   1      39.827  34.387  32.204  1.00  0.00     0.031 C 
ATOM     47  C   UNL A   1      38.474  28.969  28.169  1.00  0.00     0.029 A 
ATOM     48  C   UNL A   1      39.720  28.908  28.928  1.00  0.00     0.049 A 
ATOM     49  H   UNL A   1      40.457  30.316  30.273  1.00  0.00     0.167 HD
ATOM     50  C   UNL A   1      41.945  33.370  32.996  1.00  0.00     0.037 A 
ATOM     51  C   UNL A   1      40.613  27.902  28.875  1.00  0.00     0.037 A 
ATOM     52  C   UNL A   1      42.920  32.311  33.062  1.00  0.00     0.049 A 
ATOM     53  C   UNL A   1      41.842  27.957  29.736  1.00  0.00     0.074 A 
ATOM     54  C   UNL A   1      44.066  32.239  33.834  1.00  0.00     0.029 A 
ATOM     55  N   UNL A   1      42.862  31.137  32.326  1.00  0.00    -0.354 N 
ATOM     56  N   UNL A   1      42.226  28.893  30.569  1.00  0.00    -0.248 NA
ATOM     57  C   UNL A   1      42.756  26.808  29.657  1.00  0.00     0.031 C 
ATOM     58  C   UNL A   1      44.720  31.036  33.544  1.00  0.00     0.029 A 
ATOM     59  C   UNL A   1      43.959  30.341  32.618  1.00  0.00     0.049 A 
ATOM     60  H   UNL A   1      42.148  30.903  31.690  1.00  0.00     0.167 HD
ATOM     61  C   UNL A   1      43.410  28.438  31.131  1.00  0.00     0.074 A 
ATOM     62  C   UNL A   1      43.673  27.134  30.557  1.00  0.00     0.031 C 
ATOM     63  C   UNL A   1      44.209  29.045  32.043  1.00  0.00     0.037 A 
BRANCH  50  64
ATOM     64  C   UNL A   1      42.186  34.604  33.816  1.00  0.00     0.057 A 
ATOM     65  C   UNL A   1      42.718  35.770  33.252  1.00  0.00     0.134 A 
ATOM     66  C   UNL A   1      41.846  34.639  35.175  1.00  0.00     0.134 A 
ATOM     67  F   UNL A   1      43.072  35.798  31.958  1.00  0.00    -0.206 F 
ATOM     68  C   UNL A   1      42.925  36.921  34.014  1.00  0.00     0.040 A 
ATOM     69  C   UNL A   1      42.027  35.791  35.941  1.00  0.00     0.040 A 
ATOM     70  F   UNL A   1      41.326  33.559  35.776  1.00  0.00    -0.206 F 
ATOM     71  C   UNL A   1      42.573  36.935  35.362  1.00  0.00     0.006 A 
ENDBRANCH  50  64
BRANCH  51  72
ATOM     72  C   UNL A   1      40.356  26.732  28.001  1.00  0.00     0.057 A 
ATOM     73  C   UNL A   1      40.944  26.638  26.735  1.00  0.00     0.134 A 
ATOM     74  C   UNL A   1      39.517  25.687  28.405  1.00  0.00     0.134 A 
ATOM     75  F   UNL A   1      41.741  27.618  26.287  1.00  0.00    -0.206 F 
ATOM     76  C   UNL A   1      40.696  25.554  25.893  1.00  0.00     0.040 A 
ATOM     77  C   UNL A   1      39.277  24.585  27.583  1.00  0.00     0.040 A 
ATOM     78  F   UNL A   1      38.930  25.717  29.610  1.00  0.00    -0.206 F 
ATOM     79  C   UNL A   1      39.863  24.520  26.319  1.00  0.00     0.006 A 
ENDBRANCH  51  72
BRANCH  63  80
ATOM     80  C   UNL A   1      45.423  28.290  32.494  1.00  0.00     0.057 A 
ATOM     81  C   UNL A   1      45.383  27.406  33.580  1.00  0.00     0.134 A 
ATOM     82  C   UNL A   1      46.646  28.443  31.829  1.00  0.00     0.134 A 
ATOM     83  F   UNL A   1      44.245  27.227  34.269  1.00  0.00    -0.206 F 
ATOM     84  C   UNL A   1      46.523  26.722  34.006  1.00  0.00     0.040 A 
ATOM     85  C   UNL A   1      47.787  27.746  32.231  1.00  0.00     0.040 A 
ATOM     86  F   UNL A   1      46.751  29.269  30.777  1.00  0.00    -0.206 F 
ATOM     87  C   UNL A   1      47.728  26.888  33.328  1.00  0.00     0.006 A 
ENDBRANCH  63  80
ENDBRANCH  37  38
ENDBRANCH  29  32
ENDBRANCH  27  28
ENDBRANCH  26  27
ENDBRANCH   1  26
TORSDOF 14
ENDMDL
MODEL 3
REMARK VINA RESULT:     -10.8      0.529      6.880
REMARK SMILES O=C(CSc1nc(-c2ccccc2)cc(-c2ccccc2)n1)NCCCNC(=O)c1ccc(-c2c3nc(c(-c4c(F)cccc4F)c4ccc([nH]4)c(-c4c(F)cccc4F)c4nc(c(-c5c(F)cccc5F)c5ccc2[nH]5)C=C4)C=C3)cc1
REMARK SMILES IDX 24 1 23 2 1 3 2 4 3 6 4 7 5 8 6 9 22 10 7 11 15 12 14 13
REMARK SMILES IDX 8 14 9 15 13 16 10 17 12 18 11 19 16 20 17 21 21 22 18 23
REMARK SMILES IDX 20 24 19 25 25 26 26 27 27 28 28 29 29 31 30 32 31 33 83 34
REMARK SMILES IDX 32 35 82 36 33 37 34 38 35 39 76 40 36 41 81 42 75 43 77 44
REMARK SMILES IDX 37 45 80 46 74 47 73 48 38 50 64 51 47 52 63 53 48 54 51 55
REMARK SMILES IDX 62 56 78 57 49 58 50 59 61 61 79 62 52 63 39 64 40 65 45 66
REMARK SMILES IDX 41 67 42 68 44 69 46 70 43 71 65 72 66 73 71 74 67 75 68 76
REMARK SMILES IDX 70 77 72 78 69 79 53 80 54 81 59 82 55 83 56 84 58 85 60 86
REMARK SMILES IDX 57 87
REMARK H PARENT 23 5 27 30 77 49 51 60
REMARK Flexibility Score: inf
ROOT
ATOM      1  C   UNL A   1      32.642  36.509  31.087  1.00  0.00     0.117 C 
ENDROOT
BRANCH   1   2
ATOM      2  N   UNL A   1      33.650  35.810  31.852  1.00  0.00    -0.355 N 
ATOM      3  O   UNL A   1      33.690  37.304  33.582  1.00  0.00    -0.274 OA
ATOM      4  C   UNL A   1      34.052  36.229  33.103  1.00  0.00     0.230 C 
ATOM      5  H   UNL A   1      34.065  35.004  31.466  1.00  0.00     0.163 HD
BRANCH   4   6
ATOM      6  C   UNL A   1      35.074  35.348  33.809  1.00  0.00     0.178 C 
BRANCH   6   7
ATOM      7  S   UNL A   1      34.728  33.564  33.686  1.00  0.00    -0.076 SA
BRANCH   7   8
ATOM      8  C   UNL A   1      36.250  32.888  34.306  1.00  0.00     0.189 A 
ATOM      9  N   UNL A   1      36.757  31.793  33.729  1.00  0.00    -0.222 NA
ATOM     10  N   UNL A   1      36.824  33.557  35.315  1.00  0.00    -0.222 NA
ATOM     11  C   UNL A   1      37.921  31.324  34.218  1.00  0.00     0.075 A 
ATOM     12  C   UNL A   1      38.003  33.087  35.768  1.00  0.00     0.075 A 
ATOM     13  C   UNL A   1      38.592  31.953  35.247  1.00  0.00     0.058 A 
BRANCH  11  14
ATOM     14  C   UNL A   1      38.445  30.108  33.579  1.00  0.00     0.000 A 
ATOM     15  C   UNL A   1      39.789  29.733  33.748  1.00  0.00     0.010 A 
ATOM     16  C   UNL A   1      37.625  29.284  32.789  1.00  0.00     0.010 A 
ATOM     17  C   UNL A   1      40.288  28.562  33.171  1.00  0.00     0.001 A 
ATOM     18  C   UNL A   1      38.126  28.119  32.202  1.00  0.00     0.001 A 
ATOM     19  C   UNL A   1      39.456  27.755  32.399  1.00  0.00     0.000 A 
ENDBRANCH  11  14
BRANCH  12  20
ATOM     20  C   UNL A   1      38.630  33.853  36.851  1.00  0.00     0.000 A 
ATOM     21  C   UNL A   1      38.868  35.230  36.713  1.00  0.00     0.010 A 
ATOM     22  C   UNL A   1      39.004  33.235  38.058  1.00  0.00     0.010 A 
ATOM     23  C   UNL A   1      39.440  35.969  37.752  1.00  0.00     0.001 A 
ATOM     24  C   UNL A   1      39.585  33.972  39.093  1.00  0.00     0.001 A 
ATOM     25  C   UNL A   1      39.798  35.339  38.941  1.00  0.00     0.000 A 
ENDBRANCH  12  20
ENDBRANCH   7   8
ENDBRANCH   6   7
ENDBRANCH   4   6
ENDBRANCH   1   2
BRANCH   1  26
ATOM     26  C   UNL A   1      33.224  37.421  30.012  1.00  0.00     0.042 C 
BRANCH  26  27
ATOM     27  C   UNL A   1      33.702  36.708  28.749  1.00  0.00     0.118 C 
BRANCH  27  28
ATOM     28  N   UNL A   1      32.904  35.539  28.407  1.00  0.00    -0.352 N 
ATOM     29  C   UNL A   1      33.225  34.208  28.350  1.00  0.00     0.251 C 
ATOM     30  H   UNL A   1      31.968  35.741  28.175  1.00  0.00     0.163 HD
ATOM     31  O   UNL A   1      32.388  33.416  27.914  1.00  0.00    -0.269 OA
BRANCH  29  32
ATOM     32  C   UNL A   1      34.551  33.697  28.770  1.00  0.00     0.039 A 
ATOM     33  C   UNL A   1      34.610  32.860  29.889  1.00  0.00     0.014 A 
ATOM     34  C   UNL A   1      35.736  34.064  28.125  1.00  0.00     0.014 A 
ATOM     35  C   UNL A   1      35.834  32.343  30.320  1.00  0.00     0.010 A 
ATOM     36  C   UNL A   1      36.951  33.496  28.515  1.00  0.00     0.010 A 
ATOM     37  C   UNL A   1      37.013  32.628  29.614  1.00  0.00    -0.014 A 
BRANCH  37  38
ATOM     38  C   UNL A   1      38.300  31.993  30.005  1.00  0.00     0.031 A 
ATOM     39  C   UNL A   1      39.240  32.670  30.963  1.00  0.00     0.074 A 
ATOM     40  C   UNL A   1      38.645  30.811  29.456  1.00  0.00     0.049 A 
ATOM     41  N   UNL A   1      40.404  32.260  31.406  1.00  0.00    -0.248 NA
ATOM     42  C   UNL A   1      38.832  33.986  31.477  1.00  0.00     0.031 C 
ATOM     43  C   UNL A   1      37.852  30.074  28.469  1.00  0.00     0.029 A 
ATOM     44  N   UNL A   1      39.751  30.021  29.649  1.00  0.00    -0.354 N 
ATOM     45  C   UNL A   1      40.871  33.270  32.237  1.00  0.00     0.074 A 
ATOM     46  C   UNL A   1      39.885  34.331  32.205  1.00  0.00     0.031 C 
ATOM     47  C   UNL A   1      38.482  28.929  28.166  1.00  0.00     0.029 A 
ATOM     48  C   UNL A   1      39.734  28.862  28.913  1.00  0.00     0.049 A 
ATOM     49  H   UNL A   1      40.487  30.264  30.257  1.00  0.00     0.167 HD
ATOM     50  C   UNL A   1      42.007  33.305  32.976  1.00  0.00     0.037 A 
ATOM     51  C   UNL A   1      40.624  27.853  28.851  1.00  0.00     0.037 A 
ATOM     52  C   UNL A   1      42.979  32.243  33.030  1.00  0.00     0.049 A 
ATOM     53  C   UNL A   1      41.860  27.902  29.701  1.00  0.00     0.074 A 
ATOM     54  C   UNL A   1      44.132  32.166  33.793  1.00  0.00     0.029 A 
ATOM     55  N   UNL A   1      42.912  31.071  32.292  1.00  0.00    -0.354 N 
ATOM     56  N   UNL A   1      42.254  28.834  30.534  1.00  0.00    -0.248 NA
ATOM     57  C   UNL A   1      42.770  26.751  29.612  1.00  0.00     0.031 C 
ATOM     58  C   UNL A   1      44.779  30.961  33.494  1.00  0.00     0.029 A 
ATOM     59  C   UNL A   1      44.008  30.271  32.573  1.00  0.00     0.049 A 
ATOM     60  H   UNL A   1      42.191  30.842  31.661  1.00  0.00     0.167 HD
ATOM     61  C   UNL A   1      43.442  28.374  31.085  1.00  0.00     0.074 A 
ATOM     62  C   UNL A   1      43.696  27.071  30.504  1.00  0.00     0.031 C 
ATOM     63  C   UNL A   1      44.250  28.976  31.992  1.00  0.00     0.037 A 
BRANCH  50  64
ATOM     64  C   UNL A   1      42.258  34.536  33.798  1.00  0.00     0.057 A 
ATOM     65  C   UNL A   1      42.090  34.538  35.188  1.00  0.00     0.134 A 
ATOM     66  C   UNL A   1      42.710  35.718  33.198  1.00  0.00     0.134 A 
ATOM     67  F   UNL A   1      41.652  33.440  35.823  1.00  0.00    -0.206 F 
ATOM     68  C   UNL A   1      42.341  35.680  35.951  1.00  0.00     0.040 A 
ATOM     69  C   UNL A   1      42.986  36.859  33.954  1.00  0.00     0.040 A 
ATOM     70  F   UNL A   1      42.898  35.781  31.872  1.00  0.00    -0.206 F 
ATOM     71  C   UNL A   1      42.796  36.844  35.334  1.00  0.00     0.006 A 
ENDBRANCH  50  64
BRANCH  51  72
ATOM     72  C   UNL A   1      40.356  26.687  27.975  1.00  0.00     0.057 A 
ATOM     73  C   UNL A   1      39.508  25.654  28.393  1.00  0.00     0.134 A 
ATOM     74  C   UNL A   1      40.939  26.573  26.709  1.00  0.00     0.134 A 
ATOM     75  F   UNL A   1      38.936  25.700  29.605  1.00  0.00    -0.206 F 
ATOM     76  C   UNL A   1      39.262  24.541  27.590  1.00  0.00     0.040 A 
ATOM     77  C   UNL A   1      40.685  25.476  25.885  1.00  0.00     0.040 A 
ATOM     78  F   UNL A   1      41.755  27.533  26.250  1.00  0.00    -0.206 F 
ATOM     79  C   UNL A   1      39.848  24.452  26.328  1.00  0.00     0.006 A 
ENDBRANCH  51  72
BRANCH  63  80
ATOM     80  C   UNL A   1      45.465  28.216  32.431  1.00  0.00     0.057 A 
ATOM     81  C   UNL A   1      45.420  27.295  33.485  1.00  0.00     0.134 A 
ATOM     82  C   UNL A   1      46.694  28.402  31.785  1.00  0.00     0.134 A 
ATOM     83  F   UNL A   1      44.276  27.083  34.154  1.00  0.00    -0.206 F 
ATOM     84  C   UNL A   1      46.561  26.606  33.900  1.00  0.00     0.040 A 
ATOM     85  C   UNL A   1      47.836  27.701  32.176  1.00  0.00     0.040 A 
ATOM     86  F   UNL A   1      46.804  29.265  30.764  1.00  0.00    -0.206 F 
ATOM     87  C   UNL A   1      47.773  26.806  33.242  1.00  0.00     0.006 A 
ENDBRANCH  63  80
ENDBRANCH  37  38
ENDBRANCH  29  32
ENDBRANCH  27  28
ENDBRANCH  26  27
ENDBRANCH   1  26
TORSDOF 14
ENDMDL
