MODEL 1
REMARK VINA RESULT:     -12.0      0.000      0.000
REMARK SMILES Cc1ccc(S(=O)(=O)Nc2cnc(N(C)C)c(C(=O)NCCCNC(=O)c3ccc(-c4c5nc(c(-c6c(F)cccc6F)c6ccc([nH]6)c(-c6c(F)cccc6F)c6nc(c(-c7c(F)cccc7F)c7ccc4[nH]7)C=C6)C=C5)cc3)c2)c(C)c1
REMARK SMILES IDX 21 1 20 2 18 3 19 4 17 6 10 7 11 8 81 9 12 10 13 11 9 12
REMARK SMILES IDX 6 14 7 15 8 16 5 17 1 18 2 19 3 20 84 21 4 22 82 23 83 24
REMARK SMILES IDX 14 25 15 26 16 27 22 28 23 29 24 30 25 31 26 33 27 34 28 35
REMARK SMILES IDX 80 36 29 37 79 38 30 39 31 40 32 41 73 42 33 43 78 44 72 45
REMARK SMILES IDX 74 46 34 47 77 48 71 49 70 50 35 52 61 53 44 54 60 55 45 56
REMARK SMILES IDX 48 57 59 58 75 59 46 60 47 61 58 63 76 64 49 65 36 66 37 67
REMARK SMILES IDX 42 68 38 69 39 70 41 71 43 72 40 73 62 74 63 75 68 76 64 77
REMARK SMILES IDX 65 78 67 79 69 80 66 81 50 82 51 83 56 84 52 85 53 86 55 87
REMARK SMILES IDX 57 88 54 89
REMARK H PARENT 20 5 9 13 24 32 74 51 48 62
REMARK Flexibility Score: inf
ROOT
ATOM      1  C   UNL A   1      33.141  29.546  25.074  1.00  0.00     0.118 C 
ENDROOT
BRANCH   1   2
ATOM      2  N   UNL A   1      33.126  29.347  23.634  1.00  0.00    -0.352 N 
ATOM      3  C   UNL A   1      32.448  28.456  22.833  1.00  0.00     0.255 C 
ATOM      4  O   UNL A   1      32.907  28.258  21.710  1.00  0.00    -0.269 OA
ATOM      5  H   UNL A   1      33.709  29.965  23.138  1.00  0.00     0.163 HD
BRANCH   3   6
ATOM      6  C   UNL A   1      31.209  27.762  23.270  1.00  0.00     0.084 A 
ATOM      7  C   UNL A   1      30.227  25.777  24.258  1.00  0.00     0.068 A 
ATOM      8  C   UNL A   1      28.998  26.343  24.001  1.00  0.00     0.140 A 
ATOM      9  C   UNL A   1      31.332  26.441  23.755  1.00  0.00     0.046 A 
ATOM     10  N   UNL A   1      28.841  27.571  23.476  1.00  0.00    -0.236 NA
ATOM     11  C   UNL A   1      29.923  28.344  23.173  1.00  0.00     0.141 A 
BRANCH   7  12
ATOM     12  N   UNL A   1      30.276  24.618  25.081  1.00  0.00    -0.278 N 
ATOM     13  H   UNL A   1      29.669  23.876  24.859  1.00  0.00     0.180 HD
BRANCH  12  14
ATOM     14  S   UNL A   1      31.292  24.423  26.401  1.00  0.00     0.262 S 
ATOM     15  O   UNL A   1      30.729  23.364  27.218  1.00  0.00    -0.201 OA
ATOM     16  O   UNL A   1      31.486  25.757  26.920  1.00  0.00    -0.201 OA
BRANCH  14  17
ATOM     17  C   UNL A   1      32.901  23.840  25.861  1.00  0.00     0.090 A 
ATOM     18  C   UNL A   1      36.438  23.015  23.533  1.00  0.00     0.044 C 
ATOM     19  C   UNL A   1      35.241  23.265  24.404  1.00  0.00    -0.051 A 
ATOM     20  C   UNL A   1      35.203  24.353  25.275  1.00  0.00     0.005 A 
ATOM     21  C   UNL A   1      34.155  22.383  24.381  1.00  0.00     0.008 A 
ATOM     22  C   UNL A   1      34.048  24.629  26.017  1.00  0.00     0.023 A 
ATOM     23  C   UNL A   1      32.976  22.653  25.102  1.00  0.00    -0.030 A 
ATOM     24  C   UNL A   1      31.896  21.605  25.055  1.00  0.00     0.046 C 
ENDBRANCH  14  17
ENDBRANCH  12  14
ENDBRANCH   7  12
BRANCH  11  25
ATOM     25  N   UNL A   1      29.594  29.658  22.899  1.00  0.00    -0.362 N 
ATOM     26  C   UNL A   1      29.537  30.057  21.491  1.00  0.00     0.145 C 
ATOM     27  C   UNL A   1      29.567  30.746  23.859  1.00  0.00     0.145 C 
ENDBRANCH  11  25
ENDBRANCH   3   6
ENDBRANCH   1   2
BRANCH   1  28
ATOM     28  C   UNL A   1      33.869  28.389  25.762  1.00  0.00     0.042 C 
BRANCH  28  29
ATOM     29  C   UNL A   1      33.859  28.498  27.284  1.00  0.00     0.118 C 
BRANCH  29  30
ATOM     30  N   UNL A   1      33.748  29.877  27.730  1.00  0.00    -0.352 N 
ATOM     31  C   UNL A   1      34.672  30.653  28.382  1.00  0.00     0.251 C 
ATOM     32  H   UNL A   1      32.887  30.316  27.538  1.00  0.00     0.163 HD
ATOM     33  O   UNL A   1      34.334  31.737  28.850  1.00  0.00    -0.269 OA
BRANCH  31  34
ATOM     34  C   UNL A   1      36.068  30.187  28.537  1.00  0.00     0.039 A 
ATOM     35  C   UNL A   1      36.470  29.680  29.776  1.00  0.00     0.014 A 
ATOM     36  C   UNL A   1      36.992  30.296  27.493  1.00  0.00     0.014 A 
ATOM     37  C   UNL A   1      37.788  29.255  29.960  1.00  0.00     0.010 A 
ATOM     38  C   UNL A   1      38.292  29.820  27.660  1.00  0.00     0.010 A 
ATOM     39  C   UNL A   1      38.706  29.310  28.900  1.00  0.00    -0.014 A 
BRANCH  39  40
ATOM     40  C   UNL A   1      40.112  28.878  29.087  1.00  0.00     0.031 A 
ATOM     41  C   UNL A   1      41.107  29.809  29.721  1.00  0.00     0.074 A 
ATOM     42  C   UNL A   1      40.506  27.669  28.644  1.00  0.00     0.049 A 
ATOM     43  N   UNL A   1      42.389  29.637  29.926  1.00  0.00    -0.248 NA
ATOM     44  C   UNL A   1      40.599  31.117  30.163  1.00  0.00     0.031 C 
ATOM     45  C   UNL A   1      39.649  26.695  27.968  1.00  0.00     0.029 A 
ATOM     46  N   UNL A   1      41.733  27.059  28.691  1.00  0.00    -0.354 N 
ATOM     47  C   UNL A   1      42.843  30.821  30.491  1.00  0.00     0.074 A 
ATOM     48  C   UNL A   1      41.710  31.717  30.567  1.00  0.00     0.031 C 
ATOM     49  C   UNL A   1      40.372  25.600  27.682  1.00  0.00     0.029 A 
ATOM     50  C   UNL A   1      41.746  25.805  28.133  1.00  0.00     0.049 A 
ATOM     51  H   UNL A   1      42.531  27.481  29.088  1.00  0.00     0.167 HD
ATOM     52  C   UNL A   1      44.089  31.129  30.926  1.00  0.00     0.037 A 
ATOM     53  C   UNL A   1      42.751  24.920  28.004  1.00  0.00     0.037 A 
ATOM     54  C   UNL A   1      45.207  30.225  30.892  1.00  0.00     0.049 A 
ATOM     55  C   UNL A   1      44.112  25.265  28.540  1.00  0.00     0.074 A 
ATOM     56  C   UNL A   1      46.492  30.422  31.365  1.00  0.00     0.029 A 
ATOM     57  N   UNL A   1      45.166  28.945  30.360  1.00  0.00    -0.354 N 
ATOM     58  N   UNL A   1      44.514  26.368  29.122  1.00  0.00    -0.248 NA
ATOM     59  C   UNL A   1      45.155  24.237  28.410  1.00  0.00     0.031 C 
ATOM     60  C   UNL A   1      47.237  29.265  31.102  1.00  0.00     0.029 A 
ATOM     61  C   UNL A   1      46.406  28.341  30.489  1.00  0.00     0.049 A 
ATOM     62  H   UNL A   1      44.374  28.527  29.952  1.00  0.00     0.167 HD
ATOM     63  C   UNL A   1      45.848  26.161  29.448  1.00  0.00     0.074 A 
ATOM     64  C   UNL A   1      46.184  24.822  29.008  1.00  0.00     0.031 C 
ATOM     65  C   UNL A   1      46.717  27.004  30.055  1.00  0.00     0.037 A 
BRANCH  52  66
ATOM     66  C   UNL A   1      44.301  32.505  31.481  1.00  0.00     0.057 A 
ATOM     67  C   UNL A   1      44.116  32.787  32.842  1.00  0.00     0.134 A 
ATOM     68  C   UNL A   1      44.710  33.557  30.653  1.00  0.00     0.134 A 
ATOM     69  F   UNL A   1      43.710  31.826  33.684  1.00  0.00    -0.206 F 
ATOM     70  C   UNL A   1      44.307  34.071  33.353  1.00  0.00     0.040 A 
ATOM     71  C   UNL A   1      44.925  34.840  31.157  1.00  0.00     0.040 A 
ATOM     72  F   UNL A   1      44.909  33.353  29.342  1.00  0.00    -0.206 F 
ATOM     73  C   UNL A   1      44.717  35.102  32.509  1.00  0.00     0.006 A 
ENDBRANCH  52  66
BRANCH  53  74
ATOM     74  C   UNL A   1      42.498  23.602  27.375  1.00  0.00     0.057 A 
ATOM     75  C   UNL A   1      42.109  22.502  28.148  1.00  0.00     0.134 A 
ATOM     76  C   UNL A   1      42.630  23.412  25.996  1.00  0.00     0.134 A 
ATOM     77  F   UNL A   1      41.983  22.622  29.477  1.00  0.00    -0.206 F 
ATOM     78  C   UNL A   1      41.872  21.254  27.571  1.00  0.00     0.040 A 
ATOM     79  C   UNL A   1      42.379  22.173  25.403  1.00  0.00     0.040 A 
ATOM     80  F   UNL A   1      42.995  24.431  25.204  1.00  0.00    -0.206 F 
ATOM     81  C   UNL A   1      42.003  21.088  26.193  1.00  0.00     0.006 A 
ENDBRANCH  53  74
BRANCH  65  82
ATOM     82  C   UNL A   1      48.102  26.493  30.304  1.00  0.00     0.057 A 
ATOM     83  C   UNL A   1      48.433  25.810  31.480  1.00  0.00     0.134 A 
ATOM     84  C   UNL A   1      49.105  26.657  29.341  1.00  0.00     0.134 A 
ATOM     85  F   UNL A   1      47.518  25.635  32.444  1.00  0.00    -0.206 F 
ATOM     86  C   UNL A   1      49.722  25.323  31.698  1.00  0.00     0.040 A 
ATOM     87  C   UNL A   1      50.393  26.158  29.540  1.00  0.00     0.040 A 
ATOM     88  F   UNL A   1      48.848  27.299  28.191  1.00  0.00    -0.206 F 
ATOM     89  C   UNL A   1      50.705  25.492  30.724  1.00  0.00     0.006 A 
ENDBRANCH  65  82
ENDBRANCH  39  40
ENDBRANCH  31  34
ENDBRANCH  29  30
ENDBRANCH  28  29
ENDBRANCH   1  28
TORSDOF 14
ENDMDL
MODEL 2
REMARK VINA RESULT:     -11.8      3.293      4.544
REMARK SMILES Cc1ccc(S(=O)(=O)Nc2cnc(N(C)C)c(C(=O)NCCCNC(=O)c3ccc(-c4c5nc(c(-c6c(F)cccc6F)c6ccc([nH]6)c(-c6c(F)cccc6F)c6nc(c(-c7c(F)cccc7F)c7ccc4[nH]7)C=C6)C=C5)cc3)c2)c(C)c1
REMARK SMILES IDX 21 1 20 2 18 3 19 4 17 6 10 7 11 8 81 9 12 10 13 11 9 12
REMARK SMILES IDX 6 14 7 15 8 16 5 17 1 18 2 19 3 20 84 21 4 22 82 23 83 24
REMARK SMILES IDX 14 25 15 26 16 27 22 28 23 29 24 30 25 31 26 33 27 34 28 35
REMARK SMILES IDX 80 36 29 37 79 38 30 39 31 40 32 41 73 42 33 43 78 44 72 45
REMARK SMILES IDX 74 46 34 47 77 48 71 49 70 50 35 52 61 53 44 54 60 55 45 56
REMARK SMILES IDX 48 57 59 58 75 59 46 60 47 61 58 63 76 64 49 65 36 66 37 67
REMARK SMILES IDX 42 68 38 69 39 70 41 71 43 72 40 73 62 74 63 75 68 76 64 77
REMARK SMILES IDX 65 78 67 79 69 80 66 81 50 82 51 83 56 84 52 85 53 86 55 87
REMARK SMILES IDX 57 88 54 89
REMARK H PARENT 20 5 9 13 24 32 74 51 48 62
REMARK Flexibility Score: inf
ROOT
ATOM      1  C   UNL A   1      31.603  30.459  26.526  1.00  0.00     0.118 C 
ENDROOT
BRANCH   1   2
ATOM      2  N   UNL A   1      32.311  30.328  25.263  1.00  0.00    -0.352 N 
ATOM      3  C   UNL A   1      32.328  29.332  24.313  1.00  0.00     0.255 C 
ATOM      4  O   UNL A   1      33.292  29.310  23.550  1.00  0.00    -0.269 OA
ATOM      5  H   UNL A   1      32.887  31.097  25.046  1.00  0.00     0.163 HD
BRANCH   3   6
ATOM      6  C   UNL A   1      31.241  28.328  24.180  1.00  0.00     0.084 A 
ATOM      7  C   UNL A   1      30.453  26.098  24.714  1.00  0.00     0.068 A 
ATOM      8  C   UNL A   1      29.369  26.365  23.907  1.00  0.00     0.140 A 
ATOM      9  C   UNL A   1      31.462  27.046  24.730  1.00  0.00     0.046 A 
ATOM     10  N   UNL A   1      29.161  27.552  23.311  1.00  0.00    -0.236 NA
ATOM     11  C   UNL A   1      30.034  28.585  23.490  1.00  0.00     0.141 A 
BRANCH   7  12
ATOM     12  N   UNL A   1      30.419  24.931  25.525  1.00  0.00    -0.278 N 
ATOM     13  H   UNL A   1      30.065  25.022  26.439  1.00  0.00     0.180 HD
BRANCH  12  14
ATOM     14  S   UNL A   1      30.935  23.410  25.040  1.00  0.00     0.262 S 
ATOM     15  O   UNL A   1      30.676  23.308  23.615  1.00  0.00    -0.201 OA
ATOM     16  O   UNL A   1      30.337  22.496  25.985  1.00  0.00    -0.201 OA
BRANCH  14  17
ATOM     17  C   UNL A   1      32.713  23.270  25.239  1.00  0.00     0.090 A 
ATOM     18  C   UNL A   1      36.976  23.461  24.612  1.00  0.00     0.044 C 
ATOM     19  C   UNL A   1      35.507  23.364  24.901  1.00  0.00    -0.051 A 
ATOM     20  C   UNL A   1      34.849  24.364  25.617  1.00  0.00     0.005 A 
ATOM     21  C   UNL A   1      34.779  22.243  24.488  1.00  0.00     0.008 A 
ATOM     22  C   UNL A   1      33.463  24.309  25.804  1.00  0.00     0.023 A 
ATOM     23  C   UNL A   1      33.381  22.177  24.647  1.00  0.00    -0.030 A 
ATOM     24  C   UNL A   1      32.708  20.899  24.223  1.00  0.00     0.046 C 
ENDBRANCH  14  17
ENDBRANCH  12  14
ENDBRANCH   7  12
BRANCH  11  25
ATOM     25  N   UNL A   1      29.544  29.795  23.035  1.00  0.00    -0.362 N 
ATOM     26  C   UNL A   1      29.781  30.131  21.630  1.00  0.00     0.145 C 
ATOM     27  C   UNL A   1      29.063  30.883  23.867  1.00  0.00     0.145 C 
ENDBRANCH  11  25
ENDBRANCH   3   6
ENDBRANCH   1   2
BRANCH   1  28
ATOM     28  C   UNL A   1      31.393  31.936  26.866  1.00  0.00     0.042 C 
BRANCH  28  29
ATOM     29  C   UNL A   1      32.695  32.731  26.902  1.00  0.00     0.118 C 
BRANCH  29  30
ATOM     30  N   UNL A   1      32.523  34.030  27.532  1.00  0.00    -0.352 N 
ATOM     31  C   UNL A   1      33.165  34.554  28.625  1.00  0.00     0.251 C 
ATOM     32  H   UNL A   1      31.850  34.617  27.115  1.00  0.00     0.163 HD
ATOM     33  O   UNL A   1      32.755  35.594  29.131  1.00  0.00    -0.269 OA
BRANCH  31  34
ATOM     34  C   UNL A   1      34.340  33.866  29.206  1.00  0.00     0.039 A 
ATOM     35  C   UNL A   1      35.617  34.264  28.799  1.00  0.00     0.014 A 
ATOM     36  C   UNL A   1      34.192  32.802  30.101  1.00  0.00     0.014 A 
ATOM     37  C   UNL A   1      36.744  33.617  29.312  1.00  0.00     0.010 A 
ATOM     38  C   UNL A   1      35.318  32.195  30.654  1.00  0.00     0.010 A 
ATOM     39  C   UNL A   1      36.604  32.586  30.252  1.00  0.00    -0.014 A 
BRANCH  39  40
ATOM     40  C   UNL A   1      37.791  31.880  30.791  1.00  0.00     0.031 A 
ATOM     41  C   UNL A   1      38.336  32.248  32.143  1.00  0.00     0.074 A 
ATOM     42  C   UNL A   1      38.407  30.941  30.048  1.00  0.00     0.049 A 
ATOM     43  N   UNL A   1      39.391  31.784  32.765  1.00  0.00    -0.248 NA
ATOM     44  C   UNL A   1      37.614  33.295  32.883  1.00  0.00     0.031 C 
ATOM     45  C   UNL A   1      38.006  30.528  28.702  1.00  0.00     0.029 A 
ATOM     46  N   UNL A   1      39.509  30.170  30.319  1.00  0.00    -0.354 N 
ATOM     47  C   UNL A   1      39.474  32.500  33.952  1.00  0.00     0.074 A 
ATOM     48  C   UNL A   1      38.385  33.453  33.950  1.00  0.00     0.031 C 
ATOM     49  C   UNL A   1      38.837  29.564  28.274  1.00  0.00     0.029 A 
ATOM     50  C   UNL A   1      39.841  29.309  29.304  1.00  0.00     0.049 A 
ATOM     51  H   UNL A   1      40.014  30.230  31.163  1.00  0.00     0.167 HD
ATOM     52  C   UNL A   1      40.366  32.365  34.962  1.00  0.00     0.037 A 
ATOM     53  C   UNL A   1      40.840  28.412  29.216  1.00  0.00     0.037 A 
ATOM     54  C   UNL A   1      41.423  31.390  34.986  1.00  0.00     0.049 A 
ATOM     55  C   UNL A   1      41.786  28.244  30.370  1.00  0.00     0.074 A 
ATOM     56  C   UNL A   1      42.339  31.132  35.992  1.00  0.00     0.029 A 
ATOM     57  N   UNL A   1      41.697  30.503  33.956  1.00  0.00    -0.354 N 
ATOM     58  N   UNL A   1      41.820  28.890  31.510  1.00  0.00    -0.248 NA
ATOM     59  C   UNL A   1      42.827  27.215  30.230  1.00  0.00     0.031 C 
ATOM     60  C   UNL A   1      43.182  30.100  35.561  1.00  0.00     0.029 A 
ATOM     61  C   UNL A   1      42.772  29.700  34.299  1.00  0.00     0.049 A 
ATOM     62  H   UNL A   1      41.202  30.452  33.107  1.00  0.00     0.167 HD
ATOM     63  C   UNL A   1      42.867  28.334  32.232  1.00  0.00     0.074 A 
ATOM     64  C   UNL A   1      43.437  27.289  31.405  1.00  0.00     0.031 C 
ATOM     65  C   UNL A   1      43.317  28.659  33.467  1.00  0.00     0.037 A 
BRANCH  52  66
ATOM     66  C   UNL A   1      40.228  33.296  36.129  1.00  0.00     0.057 A 
ATOM     67  C   UNL A   1      40.966  34.484  36.215  1.00  0.00     0.134 A 
ATOM     68  C   UNL A   1      39.336  33.011  37.170  1.00  0.00     0.134 A 
ATOM     69  F   UNL A   1      41.847  34.806  35.258  1.00  0.00    -0.206 F 
ATOM     70  C   UNL A   1      40.839  35.343  37.308  1.00  0.00     0.040 A 
ATOM     71  C   UNL A   1      39.185  33.873  38.257  1.00  0.00     0.040 A 
ATOM     72  F   UNL A   1      38.596  31.892  37.147  1.00  0.00    -0.206 F 
ATOM     73  C   UNL A   1      39.943  35.040  38.331  1.00  0.00     0.006 A 
ENDBRANCH  52  66
BRANCH  53  74
ATOM     74  C   UNL A   1      40.971  27.571  28.002  1.00  0.00     0.057 A 
ATOM     75  C   UNL A   1      40.386  26.302  27.942  1.00  0.00     0.134 A 
ATOM     76  C   UNL A   1      41.674  28.015  26.877  1.00  0.00     0.134 A 
ATOM     77  F   UNL A   1      39.715  25.818  28.997  1.00  0.00    -0.206 F 
ATOM     78  C   UNL A   1      40.506  25.497  26.808  1.00  0.00     0.040 A 
ATOM     79  C   UNL A   1      41.787  27.228  25.730  1.00  0.00     0.040 A 
ATOM     80  F   UNL A   1      42.253  29.226  26.874  1.00  0.00    -0.206 F 
ATOM     81  C   UNL A   1      41.205  25.962  25.696  1.00  0.00     0.006 A 
ENDBRANCH  53  74
BRANCH  65  82
ATOM     82  C   UNL A   1      44.462  27.859  34.008  1.00  0.00     0.057 A 
ATOM     83  C   UNL A   1      45.789  28.270  33.841  1.00  0.00     0.134 A 
ATOM     84  C   UNL A   1      44.229  26.682  34.730  1.00  0.00     0.134 A 
ATOM     85  F   UNL A   1      46.074  29.380  33.147  1.00  0.00    -0.206 F 
ATOM     86  C   UNL A   1      46.850  27.527  34.361  1.00  0.00     0.040 A 
ATOM     87  C   UNL A   1      45.280  25.941  35.271  1.00  0.00     0.040 A 
ATOM     88  F   UNL A   1      42.978  26.239  34.928  1.00  0.00    -0.206 F 
ATOM     89  C   UNL A   1      46.596  26.361  35.083  1.00  0.00     0.006 A 
ENDBRANCH  65  82
ENDBRANCH  39  40
ENDBRANCH  31  34
ENDBRANCH  29  30
ENDBRANCH  28  29
ENDBRANCH   1  28
TORSDOF 14
ENDMDL
MODEL 3
REMARK VINA RESULT:     -11.6      3.418      7.270
REMARK SMILES Cc1ccc(S(=O)(=O)Nc2cnc(N(C)C)c(C(=O)NCCCNC(=O)c3ccc(-c4c5nc(c(-c6c(F)cccc6F)c6ccc([nH]6)c(-c6c(F)cccc6F)c6nc(c(-c7c(F)cccc7F)c7ccc4[nH]7)C=C6)C=C5)cc3)c2)c(C)c1
REMARK SMILES IDX 21 1 20 2 18 3 19 4 17 6 10 7 11 8 81 9 12 10 13 11 9 12
REMARK SMILES IDX 6 14 7 15 8 16 5 17 1 18 2 19 3 20 84 21 4 22 82 23 83 24
REMARK SMILES IDX 14 25 15 26 16 27 22 28 23 29 24 30 25 31 26 33 27 34 28 35
REMARK SMILES IDX 80 36 29 37 79 38 30 39 31 40 32 41 73 42 33 43 78 44 72 45
REMARK SMILES IDX 74 46 34 47 77 48 71 49 70 50 35 52 61 53 44 54 60 55 45 56
REMARK SMILES IDX 48 57 59 58 75 59 46 60 47 61 58 63 76 64 49 65 36 66 37 67
REMARK SMILES IDX 42 68 38 69 39 70 41 71 43 72 40 73 62 74 63 75 68 76 64 77
REMARK SMILES IDX 65 78 67 79 69 80 66 81 50 82 51 83 56 84 52 85 53 86 55 87
REMARK SMILES IDX 57 88 54 89
REMARK H PARENT 20 5 9 13 24 32 74 51 48 62
REMARK Flexibility Score: inf
ROOT
ATOM      1  C   UNL A   1      31.504  30.461  26.332  1.00  0.00     0.118 C 
ENDROOT
BRANCH   1   2
ATOM      2  N   UNL A   1      32.049  30.239  25.002  1.00  0.00    -0.352 N 
ATOM      3  C   UNL A   1      32.165  29.105  24.230  1.00  0.00     0.255 C 
ATOM      4  O   UNL A   1      32.999  29.133  23.326  1.00  0.00    -0.269 OA
ATOM      5  H   UNL A   1      32.401  31.052  24.573  1.00  0.00     0.163 HD
BRANCH   3   6
ATOM      6  C   UNL A   1      31.328  27.897  24.442  1.00  0.00     0.084 A 
ATOM      7  C   UNL A   1      31.058  25.785  25.603  1.00  0.00     0.068 A 
ATOM      8  C   UNL A   1      29.937  25.584  24.829  1.00  0.00     0.140 A 
ATOM      9  C   UNL A   1      31.831  26.892  25.298  1.00  0.00     0.046 A 
ATOM     10  N   UNL A   1      29.466  26.489  23.953  1.00  0.00    -0.236 NA
ATOM     11  C   UNL A   1      30.089  27.692  23.791  1.00  0.00     0.141 A 
BRANCH   7  12
ATOM     12  N   UNL A   1      31.289  24.906  26.696  1.00  0.00    -0.278 N 
ATOM     13  H   UNL A   1      31.201  25.276  27.604  1.00  0.00     0.180 HD
BRANCH  12  14
ATOM     14  S   UNL A   1      31.698  23.285  26.554  1.00  0.00     0.262 S 
ATOM     15  O   UNL A   1      30.783  22.698  25.592  1.00  0.00    -0.201 OA
ATOM     16  O   UNL A   1      31.780  22.802  27.913  1.00  0.00    -0.201 OA
BRANCH  14  17
ATOM     17  C   UNL A   1      33.340  23.123  25.848  1.00  0.00     0.090 A 
ATOM     18  C   UNL A   1      36.673  22.962  23.115  1.00  0.00     0.044 C 
ATOM     19  C   UNL A   1      35.564  23.005  24.125  1.00  0.00    -0.051 A 
ATOM     20  C   UNL A   1      35.263  24.184  24.808  1.00  0.00     0.005 A 
ATOM     21  C   UNL A   1      34.836  21.849  24.425  1.00  0.00     0.008 A 
ATOM     22  C   UNL A   1      34.170  24.239  25.682  1.00  0.00     0.023 A 
ATOM     23  C   UNL A   1      33.720  21.887  25.284  1.00  0.00    -0.030 A 
ATOM     24  C   UNL A   1      33.050  20.573  25.586  1.00  0.00     0.046 C 
ENDBRANCH  14  17
ENDBRANCH  12  14
ENDBRANCH   7  12
BRANCH  11  25
ATOM     25  N   UNL A   1      29.340  28.599  23.064  1.00  0.00    -0.362 N 
ATOM     26  C   UNL A   1      27.883  28.472  23.130  1.00  0.00     0.145 C 
ATOM     27  C   UNL A   1      29.847  29.485  22.032  1.00  0.00     0.145 C 
ENDBRANCH  11  25
ENDBRANCH   3   6
ENDBRANCH   1   2
BRANCH   1  28
ATOM     28  C   UNL A   1      31.396  31.960  26.617  1.00  0.00     0.042 C 
BRANCH  28  29
ATOM     29  C   UNL A   1      32.721  32.582  27.050  1.00  0.00     0.118 C 
BRANCH  29  30
ATOM     30  N   UNL A   1      32.548  33.933  27.558  1.00  0.00    -0.352 N 
ATOM     31  C   UNL A   1      33.182  34.551  28.606  1.00  0.00     0.251 C 
ATOM     32  H   UNL A   1      31.882  34.482  27.084  1.00  0.00     0.163 HD
ATOM     33  O   UNL A   1      32.771  35.634  29.012  1.00  0.00    -0.269 OA
BRANCH  31  34
ATOM     34  C   UNL A   1      34.348  33.914  29.259  1.00  0.00     0.039 A 
ATOM     35  C   UNL A   1      35.626  34.396  28.961  1.00  0.00     0.014 A 
ATOM     36  C   UNL A   1      34.196  32.818  30.114  1.00  0.00     0.014 A 
ATOM     37  C   UNL A   1      36.748  33.800  29.543  1.00  0.00     0.010 A 
ATOM     38  C   UNL A   1      35.311  32.260  30.737  1.00  0.00     0.010 A 
ATOM     39  C   UNL A   1      36.598  32.735  30.444  1.00  0.00    -0.014 A 
BRANCH  39  40
ATOM     40  C   UNL A   1      37.781  32.082  31.055  1.00  0.00     0.031 A 
ATOM     41  C   UNL A   1      38.504  30.991  30.315  1.00  0.00     0.074 A 
ATOM     42  C   UNL A   1      38.177  32.436  32.292  1.00  0.00     0.049 A 
ATOM     43  N   UNL A   1      39.524  30.266  30.699  1.00  0.00    -0.248 NA
ATOM     44  C   UNL A   1      37.998  30.654  28.976  1.00  0.00     0.031 C 
ATOM     45  C   UNL A   1      37.530  33.444  33.133  1.00  0.00     0.029 A 
ATOM     46  N   UNL A   1      39.217  31.978  33.060  1.00  0.00    -0.354 N 
ATOM     47  C   UNL A   1      39.762  29.372  29.664  1.00  0.00     0.074 A 
ATOM     48  C   UNL A   1      38.760  29.621  28.650  1.00  0.00     0.031 C 
ATOM     49  C   UNL A   1      38.201  33.543  34.292  1.00  0.00     0.029 A 
ATOM     50  C   UNL A   1      39.308  32.591  34.285  1.00  0.00     0.049 A 
ATOM     51  H   UNL A   1      39.839  31.275  32.762  1.00  0.00     0.167 HD
ATOM     52  C   UNL A   1      40.738  28.438  29.558  1.00  0.00     0.037 A 
ATOM     53  C   UNL A   1      40.188  32.408  35.286  1.00  0.00     0.037 A 
ATOM     54  C   UNL A   1      41.761  28.219  30.545  1.00  0.00     0.049 A 
ATOM     55  C   UNL A   1      41.293  31.403  35.124  1.00  0.00     0.074 A 
ATOM     56  C   UNL A   1      42.831  27.341  30.501  1.00  0.00     0.029 A 
ATOM     57  N   UNL A   1      41.846  28.895  31.753  1.00  0.00    -0.354 N 
ATOM     58  N   UNL A   1      41.538  30.602  34.117  1.00  0.00    -0.248 NA
ATOM     59  C   UNL A   1      42.248  31.285  36.236  1.00  0.00     0.031 C 
ATOM     60  C   UNL A   1      43.552  27.472  31.694  1.00  0.00     0.029 A 
ATOM     61  C   UNL A   1      42.946  28.450  32.466  1.00  0.00     0.049 A 
ATOM     62  H   UNL A   1      41.217  29.588  32.058  1.00  0.00     0.167 HD
ATOM     63  C   UNL A   1      42.686  29.901  34.460  1.00  0.00     0.074 A 
ATOM     64  C   UNL A   1      43.095  30.379  35.765  1.00  0.00     0.031 C 
ATOM     65  C   UNL A   1      43.342  28.946  33.758  1.00  0.00     0.037 A 
BRANCH  52  66
ATOM     66  C   UNL A   1      40.745  27.589  28.323  1.00  0.00     0.057 A 
ATOM     67  C   UNL A   1      41.459  27.961  27.176  1.00  0.00     0.134 A 
ATOM     68  C   UNL A   1      40.043  26.378  28.283  1.00  0.00     0.134 A 
ATOM     69  F   UNL A   1      42.138  29.117  27.146  1.00  0.00    -0.206 F 
ATOM     70  C   UNL A   1      41.455  27.171  26.026  1.00  0.00     0.040 A 
ATOM     71  C   UNL A   1      40.050  25.569  27.147  1.00  0.00     0.040 A 
ATOM     72  F   UNL A   1      39.342  25.961  29.349  1.00  0.00    -0.206 F 
ATOM     73  C   UNL A   1      40.751  25.968  26.011  1.00  0.00     0.006 A 
ENDBRANCH  52  66
BRANCH  53  74
ATOM     74  C   UNL A   1      40.084  33.227  36.518  1.00  0.00     0.057 A 
ATOM     75  C   UNL A   1      40.846  34.390  36.671  1.00  0.00     0.134 A 
ATOM     76  C   UNL A   1      39.222  32.874  37.561  1.00  0.00     0.134 A 
ATOM     77  F   UNL A   1      41.702  34.768  35.711  1.00  0.00    -0.206 F 
ATOM     78  C   UNL A   1      40.764  35.168  37.827  1.00  0.00     0.040 A 
ATOM     79  C   UNL A   1      39.117  33.651  38.715  1.00  0.00     0.040 A 
ATOM     80  F   UNL A   1      38.463  31.771  37.468  1.00  0.00    -0.206 F 
ATOM     81  C   UNL A   1      39.893  34.801  38.852  1.00  0.00     0.006 A 
ENDBRANCH  53  74
BRANCH  65  82
ATOM     82  C   UNL A   1      44.583  28.378  34.375  1.00  0.00     0.057 A 
ATOM     83  C   UNL A   1      45.841  28.952  34.157  1.00  0.00     0.134 A 
ATOM     84  C   UNL A   1      44.512  27.265  35.222  1.00  0.00     0.134 A 
ATOM     85  F   UNL A   1      45.973  30.011  33.345  1.00  0.00    -0.206 F 
ATOM     86  C   UNL A   1      46.991  28.427  34.747  1.00  0.00     0.040 A 
ATOM     87  C   UNL A   1      45.652  26.742  35.832  1.00  0.00     0.040 A 
ATOM     88  F   UNL A   1      43.334  26.673  35.473  1.00  0.00    -0.206 F 
ATOM     89  C   UNL A   1      46.897  27.322  35.592  1.00  0.00     0.006 A 
ENDBRANCH  65  82
ENDBRANCH  39  40
ENDBRANCH  31  34
ENDBRANCH  29  30
ENDBRANCH  28  29
ENDBRANCH   1  28
TORSDOF 14
ENDMDL
