MODEL 1
REMARK VINA RESULT:     -11.6      0.000      0.000
REMARK SMILES C[C@H](CC(=O)NCCCNC(=O)c1ccc(-c2c3nc(c(-c4c(F)cccc4F)c4ccc([nH]4)c(-c4c(F)cccc4F)c4nc(c(-c5c(F)cccc5F)c5ccc2[nH]5)C=C4)C=C3)cc1)NC(=O)Cn1nc2ccccn2c1=O
REMARK SMILES IDX 7 1 6 2 4 3 5 4 3 6 2 7 1 8 67 9 68 10 69 12 70 13 71 14
REMARK SMILES IDX 72 15 79 16 73 17 78 18 80 19 74 20 77 21 75 22 76 23 8 24
REMARK SMILES IDX 9 25 10 26 11 27 12 29 13 30 14 31 66 32 15 33 65 34 16 35
REMARK SMILES IDX 17 36 18 37 59 38 19 39 64 40 58 41 60 42 20 43 63 44 57 45
REMARK SMILES IDX 56 46 21 48 47 49 30 50 46 51 31 52 34 53 45 54 61 55 32 56
REMARK SMILES IDX 33 57 44 59 62 60 35 61 22 62 23 63 28 64 24 65 25 66 27 67
REMARK SMILES IDX 29 68 26 69 48 70 49 71 54 72 50 73 51 74 53 75 55 76 52 77
REMARK SMILES IDX 36 78 37 79 42 80 38 81 39 82 41 83 43 84 40 85
REMARK H PARENT 6 5 67 11 10 28 60 47 34 58
REMARK Flexibility Score: inf
ROOT
ATOM      1  C   UNL A   1      36.231  20.169  25.046  1.00  0.00     0.117 C 
ENDROOT
BRANCH   1   2
ATOM      2  N   UNL A   1      36.172  21.534  25.539  1.00  0.00    -0.356 N 
ATOM      3  C   UNL A   1      35.208  22.174  26.254  1.00  0.00     0.222 C 
ATOM      4  O   UNL A   1      35.386  23.360  26.538  1.00  0.00    -0.275 OA
ATOM      5  H   UNL A   1      36.957  22.086  25.318  1.00  0.00     0.163 HD
BRANCH   3   6
ATOM      6  C   UNL A   1      33.949  21.454  26.682  1.00  0.00     0.124 C 
BRANCH   6   7
ATOM      7  C   UNL A   1      32.681  21.766  25.868  1.00  0.00     0.088 C 
ATOM      8  C   UNL A   1      32.252  20.680  24.882  1.00  0.00     0.031 C 
BRANCH   7   9
ATOM      9  N   UNL A   1      31.566  22.108  26.754  1.00  0.00    -0.352 N 
ATOM     10  C   UNL A   1      30.656  23.123  26.712  1.00  0.00     0.242 C 
ATOM     11  H   UNL A   1      31.453  21.495  27.515  1.00  0.00     0.163 HD
ATOM     12  O   UNL A   1      29.751  23.076  27.554  1.00  0.00    -0.273 OA
BRANCH  10  13
ATOM     13  C   UNL A   1      30.598  24.153  25.583  1.00  0.00     0.249 C 
BRANCH  13  14
ATOM     14  N   UNL A   1      31.253  25.409  25.836  1.00  0.00    -0.203 N 
ATOM     15  N   UNL A   1      30.749  26.337  26.730  1.00  0.00    -0.149 NA
ATOM     16  C   UNL A   1      32.547  25.772  25.436  1.00  0.00     0.350 A 
ATOM     17  C   UNL A   1      31.664  27.254  26.747  1.00  0.00     0.161 A 
ATOM     18  N   UNL A   1      32.737  27.021  25.955  1.00  0.00    -0.250 N 
ATOM     19  O   UNL A   1      33.310  25.134  24.718  1.00  0.00    -0.246 OA
ATOM     20  C   UNL A   1      31.664  28.518  27.490  1.00  0.00     0.050 A 
ATOM     21  C   UNL A   1      33.721  27.937  25.704  1.00  0.00     0.098 A 
ATOM     22  C   UNL A   1      32.394  29.514  26.961  1.00  0.00     0.005 A 
ATOM     23  C   UNL A   1      33.562  29.188  26.162  1.00  0.00     0.019 A 
ENDBRANCH  13  14
ENDBRANCH  10  13
ENDBRANCH   7   9
ENDBRANCH   6   7
ENDBRANCH   3   6
ENDBRANCH   1   2
BRANCH   1  24
ATOM     24  C   UNL A   1      37.648  19.743  24.666  1.00  0.00     0.042 C 
BRANCH  24  25
ATOM     25  C   UNL A   1      38.740  20.251  25.601  1.00  0.00     0.118 C 
BRANCH  25  26
ATOM     26  N   UNL A   1      39.845  19.315  25.728  1.00  0.00    -0.352 N 
ATOM     27  C   UNL A   1      41.148  19.539  26.094  1.00  0.00     0.251 C 
ATOM     28  H   UNL A   1      39.624  18.378  25.519  1.00  0.00     0.163 HD
ATOM     29  O   UNL A   1      41.979  18.646  25.946  1.00  0.00    -0.269 OA
BRANCH  27  30
ATOM     30  C   UNL A   1      41.568  20.845  26.653  1.00  0.00     0.039 A 
ATOM     31  C   UNL A   1      42.050  21.824  25.779  1.00  0.00     0.014 A 
ATOM     32  C   UNL A   1      41.538  21.094  28.028  1.00  0.00     0.014 A 
ATOM     33  C   UNL A   1      42.457  23.065  26.277  1.00  0.00     0.010 A 
ATOM     34  C   UNL A   1      41.876  22.355  28.515  1.00  0.00     0.010 A 
ATOM     35  C   UNL A   1      42.349  23.352  27.647  1.00  0.00    -0.014 A 
BRANCH  35  36
ATOM     36  C   UNL A   1      42.738  24.681  28.188  1.00  0.00     0.031 A 
ATOM     37  C   UNL A   1      41.698  25.747  28.403  1.00  0.00     0.074 A 
ATOM     38  C   UNL A   1      44.035  24.949  28.435  1.00  0.00     0.049 A 
ATOM     39  N   UNL A   1      41.852  26.986  28.801  1.00  0.00    -0.248 NA
ATOM     40  C   UNL A   1      40.304  25.380  28.111  1.00  0.00     0.031 C 
ATOM     41  C   UNL A   1      45.145  24.017  28.234  1.00  0.00     0.029 A 
ATOM     42  N   UNL A   1      44.640  26.091  28.900  1.00  0.00    -0.354 N 
ATOM     43  C   UNL A   1      40.580  27.547  28.792  1.00  0.00     0.074 A 
ATOM     44  C   UNL A   1      39.675  26.531  28.300  1.00  0.00     0.031 C 
ATOM     45  C   UNL A   1      46.293  24.616  28.591  1.00  0.00     0.029 A 
ATOM     46  C   UNL A   1      46.005  25.986  29.008  1.00  0.00     0.049 A 
ATOM     47  H   UNL A   1      44.143  26.907  29.133  1.00  0.00     0.167 HD
ATOM     48  C   UNL A   1      40.199  28.788  29.179  1.00  0.00     0.037 A 
ATOM     49  C   UNL A   1      46.925  26.894  29.388  1.00  0.00     0.037 A 
ATOM     50  C   UNL A   1      41.098  29.792  29.687  1.00  0.00     0.049 A 
ATOM     51  C   UNL A   1      46.477  28.270  29.797  1.00  0.00     0.074 A 
ATOM     52  C   UNL A   1      40.798  31.060  30.155  1.00  0.00     0.029 A 
ATOM     53  N   UNL A   1      42.472  29.641  29.792  1.00  0.00    -0.354 N 
ATOM     54  N   UNL A   1      45.265  28.766  29.842  1.00  0.00    -0.248 NA
ATOM     55  C   UNL A   1      47.527  29.211  30.212  1.00  0.00     0.031 C 
ATOM     56  C   UNL A   1      41.996  31.695  30.497  1.00  0.00     0.029 A 
ATOM     57  C   UNL A   1      43.036  30.803  30.296  1.00  0.00     0.049 A 
ATOM     58  H   UNL A   1      42.972  28.831  29.546  1.00  0.00     0.167 HD
ATOM     59  C   UNL A   1      45.402  30.063  30.322  1.00  0.00     0.074 A 
ATOM     60  C   UNL A   1      46.814  30.272  30.563  1.00  0.00     0.031 C 
ATOM     61  C   UNL A   1      44.443  30.996  30.543  1.00  0.00     0.037 A 
BRANCH  48  62
ATOM     62  C   UNL A   1      38.741  29.132  29.065  1.00  0.00     0.057 A 
ATOM     63  C   UNL A   1      37.876  29.064  30.166  1.00  0.00     0.134 A 
ATOM     64  C   UNL A   1      38.201  29.573  27.849  1.00  0.00     0.134 A 
ATOM     65  F   UNL A   1      38.324  28.640  31.357  1.00  0.00    -0.206 F 
ATOM     66  C   UNL A   1      36.524  29.393  30.056  1.00  0.00     0.040 A 
ATOM     67  C   UNL A   1      36.857  29.934  27.733  1.00  0.00     0.040 A 
ATOM     68  F   UNL A   1      38.974  29.671  26.756  1.00  0.00    -0.206 F 
ATOM     69  C   UNL A   1      36.012  29.837  28.837  1.00  0.00     0.006 A 
ENDBRANCH  48  62
BRANCH  49  70
ATOM     70  C   UNL A   1      48.363  26.526  29.419  1.00  0.00     0.057 A 
ATOM     71  C   UNL A   1      49.200  26.789  28.328  1.00  0.00     0.134 A 
ATOM     72  C   UNL A   1      48.935  25.892  30.529  1.00  0.00     0.134 A 
ATOM     73  F   UNL A   1      48.708  27.376  27.226  1.00  0.00    -0.206 F 
ATOM     74  C   UNL A   1      50.545  26.417  28.330  1.00  0.00     0.040 A 
ATOM     75  C   UNL A   1      50.285  25.540  30.557  1.00  0.00     0.040 A 
ATOM     76  F   UNL A   1      48.188  25.618  31.609  1.00  0.00    -0.206 F 
ATOM     77  C   UNL A   1      51.092  25.794  29.450  1.00  0.00     0.006 A 
ENDBRANCH  49  70
BRANCH  61  78
ATOM     78  C   UNL A   1      44.882  32.312  31.114  1.00  0.00     0.057 A 
ATOM     79  C   UNL A   1      45.061  32.503  32.490  1.00  0.00     0.134 A 
ATOM     80  C   UNL A   1      45.166  33.394  30.270  1.00  0.00     0.134 A 
ATOM     81  F   UNL A   1      44.796  31.512  33.355  1.00  0.00    -0.206 F 
ATOM     82  C   UNL A   1      45.485  33.730  33.007  1.00  0.00     0.040 A 
ATOM     83  C   UNL A   1      45.616  34.616  30.773  1.00  0.00     0.040 A 
ATOM     84  F   UNL A   1      45.023  33.277  28.941  1.00  0.00    -0.206 F 
ATOM     85  C   UNL A   1      45.771  34.788  32.146  1.00  0.00     0.006 A 
ENDBRANCH  61  78
ENDBRANCH  35  36
ENDBRANCH  27  30
ENDBRANCH  25  26
ENDBRANCH  24  25
ENDBRANCH   1  24
TORSDOF 14
ENDMDL
MODEL 2
REMARK VINA RESULT:     -11.4      0.571      6.296
REMARK SMILES C[C@H](CC(=O)NCCCNC(=O)c1ccc(-c2c3nc(c(-c4c(F)cccc4F)c4ccc([nH]4)c(-c4c(F)cccc4F)c4nc(c(-c5c(F)cccc5F)c5ccc2[nH]5)C=C4)C=C3)cc1)NC(=O)Cn1nc2ccccn2c1=O
REMARK SMILES IDX 7 1 6 2 4 3 5 4 3 6 2 7 1 8 67 9 68 10 69 12 70 13 71 14
REMARK SMILES IDX 72 15 79 16 73 17 78 18 80 19 74 20 77 21 75 22 76 23 8 24
REMARK SMILES IDX 9 25 10 26 11 27 12 29 13 30 14 31 66 32 15 33 65 34 16 35
REMARK SMILES IDX 17 36 18 37 59 38 19 39 64 40 58 41 60 42 20 43 63 44 57 45
REMARK SMILES IDX 56 46 21 48 47 49 30 50 46 51 31 52 34 53 45 54 61 55 32 56
REMARK SMILES IDX 33 57 44 59 62 60 35 61 22 62 23 63 28 64 24 65 25 66 27 67
REMARK SMILES IDX 29 68 26 69 48 70 49 71 54 72 50 73 51 74 53 75 55 76 52 77
REMARK SMILES IDX 36 78 37 79 42 80 38 81 39 82 41 83 43 84 40 85
REMARK H PARENT 6 5 67 11 10 28 60 47 34 58
REMARK Flexibility Score: inf
ROOT
ATOM      1  C   UNL A   1      36.416  19.774  24.974  1.00  0.00     0.117 C 
ENDROOT
BRANCH   1   2
ATOM      2  N   UNL A   1      36.217  21.012  25.706  1.00  0.00    -0.356 N 
ATOM      3  C   UNL A   1      35.389  22.063  25.458  1.00  0.00     0.222 C 
ATOM      4  O   UNL A   1      35.420  23.021  26.231  1.00  0.00    -0.275 OA
ATOM      5  H   UNL A   1      36.772  21.106  26.513  1.00  0.00     0.163 HD
BRANCH   3   6
ATOM      6  C   UNL A   1      34.462  22.057  24.263  1.00  0.00     0.124 C 
BRANCH   6   7
ATOM      7  C   UNL A   1      32.995  21.694  24.546  1.00  0.00     0.088 C 
ATOM      8  C   UNL A   1      32.596  20.259  24.199  1.00  0.00     0.031 C 
BRANCH   7   9
ATOM      9  N   UNL A   1      32.646  21.989  25.937  1.00  0.00    -0.352 N 
ATOM     10  C   UNL A   1      31.931  23.009  26.494  1.00  0.00     0.242 C 
ATOM     11  H   UNL A   1      32.987  21.334  26.587  1.00  0.00     0.163 HD
ATOM     12  O   UNL A   1      31.708  22.917  27.707  1.00  0.00    -0.273 OA
BRANCH  10  13
ATOM     13  C   UNL A   1      31.249  24.103  25.672  1.00  0.00     0.249 C 
BRANCH  13  14
ATOM     14  N   UNL A   1      31.682  25.451  25.927  1.00  0.00    -0.203 N 
ATOM     15  N   UNL A   1      31.049  26.267  26.849  1.00  0.00    -0.149 NA
ATOM     16  C   UNL A   1      32.879  26.040  25.498  1.00  0.00     0.350 A 
ATOM     17  C   UNL A   1      31.790  27.330  26.857  1.00  0.00     0.161 A 
ATOM     18  N   UNL A   1      32.863  27.297  26.033  1.00  0.00    -0.250 N 
ATOM     19  O   UNL A   1      33.721  25.554  24.749  1.00  0.00    -0.246 OA
ATOM     20  C   UNL A   1      31.590  28.565  27.619  1.00  0.00     0.050 A 
ATOM     21  C   UNL A   1      33.664  28.374  25.769  1.00  0.00     0.098 A 
ATOM     22  C   UNL A   1      32.119  29.680  27.088  1.00  0.00     0.005 A 
ATOM     23  C   UNL A   1      33.302  29.573  26.252  1.00  0.00     0.019 A 
ENDBRANCH  13  14
ENDBRANCH  10  13
ENDBRANCH   7   9
ENDBRANCH   6   7
ENDBRANCH   3   6
ENDBRANCH   1   2
BRANCH   1  24
ATOM     24  C   UNL A   1      37.888  19.502  24.669  1.00  0.00     0.042 C 
BRANCH  24  25
ATOM     25  C   UNL A   1      38.860  19.952  25.755  1.00  0.00     0.118 C 
BRANCH  25  26
ATOM     26  N   UNL A   1      40.053  19.125  25.811  1.00  0.00    -0.352 N 
ATOM     27  C   UNL A   1      41.354  19.477  26.075  1.00  0.00     0.251 C 
ATOM     28  H   UNL A   1      39.907  18.168  25.632  1.00  0.00     0.163 HD
ATOM     29  O   UNL A   1      42.252  18.662  25.877  1.00  0.00    -0.269 OA
BRANCH  27  30
ATOM     30  C   UNL A   1      41.688  20.827  26.583  1.00  0.00     0.039 A 
ATOM     31  C   UNL A   1      42.187  21.777  25.686  1.00  0.00     0.014 A 
ATOM     32  C   UNL A   1      41.563  21.148  27.937  1.00  0.00     0.014 A 
ATOM     33  C   UNL A   1      42.515  23.058  26.136  1.00  0.00     0.010 A 
ATOM     34  C   UNL A   1      41.823  22.447  28.372  1.00  0.00     0.010 A 
ATOM     35  C   UNL A   1      42.311  23.414  27.479  1.00  0.00    -0.014 A 
BRANCH  35  36
ATOM     36  C   UNL A   1      42.616  24.786  27.966  1.00  0.00     0.031 A 
ATOM     37  C   UNL A   1      44.024  25.164  28.338  1.00  0.00     0.074 A 
ATOM     38  C   UNL A   1      41.617  25.675  28.128  1.00  0.00     0.049 A 
ATOM     39  N   UNL A   1      44.474  26.285  28.844  1.00  0.00    -0.248 NA
ATOM     40  C   UNL A   1      45.060  24.139  28.135  1.00  0.00     0.031 C 
ATOM     41  C   UNL A   1      40.204  25.423  27.840  1.00  0.00     0.029 A 
ATOM     42  N   UNL A   1      41.637  26.971  28.583  1.00  0.00    -0.354 N 
ATOM     43  C   UNL A   1      45.838  26.095  29.032  1.00  0.00     0.074 A 
ATOM     44  C   UNL A   1      46.132  24.735  28.636  1.00  0.00     0.031 C 
ATOM     45  C   UNL A   1      39.496  26.533  28.107  1.00  0.00     0.029 A 
ATOM     46  C   UNL A   1      40.398  27.561  28.622  1.00  0.00     0.049 A 
ATOM     47  H   UNL A   1      42.462  27.433  28.856  1.00  0.00     0.167 HD
ATOM     48  C   UNL A   1      46.764  26.979  29.475  1.00  0.00     0.037 A 
ATOM     49  C   UNL A   1      40.025  28.787  29.036  1.00  0.00     0.037 A 
ATOM     50  C   UNL A   1      46.473  28.339  29.850  1.00  0.00     0.049 A 
ATOM     51  C   UNL A   1      41.070  29.744  29.539  1.00  0.00     0.074 A 
ATOM     52  C   UNL A   1      47.353  29.327  30.259  1.00  0.00     0.029 A 
ATOM     53  N   UNL A   1      45.206  28.901  29.863  1.00  0.00    -0.354 N 
ATOM     54  N   UNL A   1      42.364  29.571  29.653  1.00  0.00    -0.248 NA
ATOM     55  C   UNL A   1      40.602  31.071  29.965  1.00  0.00     0.031 C 
ATOM     56  C   UNL A   1      46.612  30.472  30.567  1.00  0.00     0.029 A 
ATOM     57  C   UNL A   1      45.278  30.215  30.296  1.00  0.00     0.049 A 
ATOM     58  H   UNL A   1      44.379  28.436  29.604  1.00  0.00     0.167 HD
ATOM     59  C   UNL A   1      42.869  30.774  30.132  1.00  0.00     0.074 A 
ATOM     60  C   UNL A   1      41.742  31.672  30.275  1.00  0.00     0.031 C 
ATOM     61  C   UNL A   1      44.150  31.104  30.425  1.00  0.00     0.037 A 
BRANCH  48  62
ATOM     62  C   UNL A   1      48.184  26.501  29.579  1.00  0.00     0.057 A 
ATOM     63  C   UNL A   1      49.101  26.670  28.533  1.00  0.00     0.134 A 
ATOM     64  C   UNL A   1      48.653  25.899  30.755  1.00  0.00     0.134 A 
ATOM     65  F   UNL A   1      48.717  27.229  27.376  1.00  0.00    -0.206 F 
ATOM     66  C   UNL A   1      50.422  26.231  28.639  1.00  0.00     0.040 A 
ATOM     67  C   UNL A   1      49.980  25.483  30.885  1.00  0.00     0.040 A 
ATOM     68  F   UNL A   1      47.832  25.714  31.800  1.00  0.00    -0.206 F 
ATOM     69  C   UNL A   1      50.867  25.641  29.822  1.00  0.00     0.006 A 
ENDBRANCH  48  62
BRANCH  49  70
ATOM     70  C   UNL A   1      38.597  29.189  28.977  1.00  0.00     0.057 A 
ATOM     71  C   UNL A   1      38.021  29.636  27.781  1.00  0.00     0.134 A 
ATOM     72  C   UNL A   1      37.777  29.153  30.111  1.00  0.00     0.134 A 
ATOM     73  F   UNL A   1      38.759  29.713  26.664  1.00  0.00    -0.206 F 
ATOM     74  C   UNL A   1      36.689  30.051  27.720  1.00  0.00     0.040 A 
ATOM     75  C   UNL A   1      36.437  29.538  30.059  1.00  0.00     0.040 A 
ATOM     76  F   UNL A   1      38.267  28.729  31.286  1.00  0.00    -0.206 F 
ATOM     77  C   UNL A   1      35.892  29.998  28.862  1.00  0.00     0.006 A 
ENDBRANCH  49  70
BRANCH  61  78
ATOM     78  C   UNL A   1      44.411  32.508  30.887  1.00  0.00     0.057 A 
ATOM     79  C   UNL A   1      44.662  33.553  29.989  1.00  0.00     0.134 A 
ATOM     80  C   UNL A   1      44.373  32.825  32.252  1.00  0.00     0.134 A 
ATOM     81  F   UNL A   1      44.724  33.316  28.670  1.00  0.00    -0.206 F 
ATOM     82  C   UNL A   1      44.888  34.858  30.433  1.00  0.00     0.040 A 
ATOM     83  C   UNL A   1      44.570  34.130  32.705  1.00  0.00     0.040 A 
ATOM     84  F   UNL A   1      44.130  31.873  33.166  1.00  0.00    -0.206 F 
ATOM     85  C   UNL A   1      44.834  35.150  31.795  1.00  0.00     0.006 A 
ENDBRANCH  61  78
ENDBRANCH  35  36
ENDBRANCH  27  30
ENDBRANCH  25  26
ENDBRANCH  24  25
ENDBRANCH   1  24
TORSDOF 14
ENDMDL
MODEL 3
REMARK VINA RESULT:     -11.4      4.412      9.085
REMARK SMILES C[C@H](CC(=O)NCCCNC(=O)c1ccc(-c2c3nc(c(-c4c(F)cccc4F)c4ccc([nH]4)c(-c4c(F)cccc4F)c4nc(c(-c5c(F)cccc5F)c5ccc2[nH]5)C=C4)C=C3)cc1)NC(=O)Cn1nc2ccccn2c1=O
REMARK SMILES IDX 7 1 6 2 4 3 5 4 3 6 2 7 1 8 67 9 68 10 69 12 70 13 71 14
REMARK SMILES IDX 72 15 79 16 73 17 78 18 80 19 74 20 77 21 75 22 76 23 8 24
REMARK SMILES IDX 9 25 10 26 11 27 12 29 13 30 14 31 66 32 15 33 65 34 16 35
REMARK SMILES IDX 17 36 18 37 59 38 19 39 64 40 58 41 60 42 20 43 63 44 57 45
REMARK SMILES IDX 56 46 21 48 47 49 30 50 46 51 31 52 34 53 45 54 61 55 32 56
REMARK SMILES IDX 33 57 44 59 62 60 35 61 22 62 23 63 28 64 24 65 25 66 27 67
REMARK SMILES IDX 29 68 26 69 48 70 49 71 54 72 50 73 51 74 53 75 55 76 52 77
REMARK SMILES IDX 36 78 37 79 42 80 38 81 39 82 41 83 43 84 40 85
REMARK H PARENT 6 5 67 11 10 28 60 47 34 58
REMARK Flexibility Score: inf
ROOT
ATOM      1  C   UNL A   1      31.428  30.151  26.058  1.00  0.00     0.117 C 
ENDROOT
BRANCH   1   2
ATOM      2  N   UNL A   1      32.266  29.903  24.898  1.00  0.00    -0.356 N 
ATOM      3  C   UNL A   1      33.197  28.938  24.671  1.00  0.00     0.222 C 
ATOM      4  O   UNL A   1      33.799  28.953  23.597  1.00  0.00    -0.275 OA
ATOM      5  H   UNL A   1      32.140  30.537  24.157  1.00  0.00     0.163 HD
BRANCH   3   6
ATOM      6  C   UNL A   1      33.491  27.880  25.712  1.00  0.00     0.124 C 
BRANCH   6   7
ATOM      7  C   UNL A   1      33.173  26.430  25.311  1.00  0.00     0.088 C 
ATOM      8  C   UNL A   1      34.350  25.457  25.378  1.00  0.00     0.031 C 
BRANCH   7   9
ATOM      9  N   UNL A   1      32.048  25.910  26.091  1.00  0.00    -0.352 N 
ATOM     10  C   UNL A   1      30.793  25.525  25.723  1.00  0.00     0.242 C 
ATOM     11  H   UNL A   1      32.231  25.822  27.054  1.00  0.00     0.163 HD
ATOM     12  O   UNL A   1      30.099  25.013  26.610  1.00  0.00    -0.273 OA
BRANCH  10  13
ATOM     13  C   UNL A   1      30.310  25.510  24.272  1.00  0.00     0.249 C 
BRANCH  13  14
ATOM     14  N   UNL A   1      29.795  26.754  23.762  1.00  0.00    -0.203 N 
ATOM     15  N   UNL A   1      30.585  27.644  23.055  1.00  0.00    -0.149 NA
ATOM     16  C   UNL A   1      28.448  27.132  23.686  1.00  0.00     0.350 A 
ATOM     17  C   UNL A   1      29.741  28.558  22.692  1.00  0.00     0.161 A 
ATOM     18  N   UNL A   1      28.461  28.358  23.084  1.00  0.00    -0.250 N 
ATOM     19  O   UNL A   1      27.478  26.525  24.129  1.00  0.00    -0.246 OA
ATOM     20  C   UNL A   1      30.010  29.790  21.944  1.00  0.00     0.050 A 
ATOM     21  C   UNL A   1      27.463  29.283  22.951  1.00  0.00     0.098 A 
ATOM     22  C   UNL A   1      29.158  30.807  22.154  1.00  0.00     0.005 A 
ATOM     23  C   UNL A   1      27.784  30.514  22.523  1.00  0.00     0.019 A 
ENDBRANCH  13  14
ENDBRANCH  10  13
ENDBRANCH   7   9
ENDBRANCH   6   7
ENDBRANCH   3   6
ENDBRANCH   1   2
BRANCH   1  24
ATOM     24  C   UNL A   1      31.343  31.633  26.416  1.00  0.00     0.042 C 
BRANCH  24  25
ATOM     25  C   UNL A   1      32.658  32.257  26.872  1.00  0.00     0.118 C 
BRANCH  25  26
ATOM     26  N   UNL A   1      32.495  33.623  27.340  1.00  0.00    -0.352 N 
ATOM     27  C   UNL A   1      33.150  34.292  28.343  1.00  0.00     0.251 C 
ATOM     28  H   UNL A   1      31.809  34.147  26.865  1.00  0.00     0.163 HD
ATOM     29  O   UNL A   1      32.726  35.383  28.719  1.00  0.00    -0.269 OA
BRANCH  27  30
ATOM     30  C   UNL A   1      34.352  33.713  28.985  1.00  0.00     0.039 A 
ATOM     31  C   UNL A   1      34.183  32.705  29.938  1.00  0.00     0.014 A 
ATOM     32  C   UNL A   1      35.634  34.187  28.694  1.00  0.00     0.014 A 
ATOM     33  C   UNL A   1      35.298  32.141  30.564  1.00  0.00     0.010 A 
ATOM     34  C   UNL A   1      36.749  33.576  29.265  1.00  0.00     0.010 A 
ATOM     35  C   UNL A   1      36.594  32.553  30.214  1.00  0.00    -0.014 A 
BRANCH  35  36
ATOM     36  C   UNL A   1      37.793  31.934  30.839  1.00  0.00     0.031 A 
ATOM     37  C   UNL A   1      38.548  30.848  30.123  1.00  0.00     0.074 A 
ATOM     38  C   UNL A   1      38.172  32.311  32.076  1.00  0.00     0.049 A 
ATOM     39  N   UNL A   1      39.574  30.143  30.532  1.00  0.00    -0.248 NA
ATOM     40  C   UNL A   1      38.074  30.490  28.777  1.00  0.00     0.031 C 
ATOM     41  C   UNL A   1      37.505  33.326  32.893  1.00  0.00     0.029 A 
ATOM     42  N   UNL A   1      39.207  31.876  32.866  1.00  0.00    -0.354 N 
ATOM     43  C   UNL A   1      39.856  29.252  29.504  1.00  0.00     0.074 A 
ATOM     44  C   UNL A   1      38.863  29.469  28.474  1.00  0.00     0.031 C 
ATOM     45  C   UNL A   1      38.158  33.449  34.060  1.00  0.00     0.029 A 
ATOM     46  C   UNL A   1      39.264  32.496  34.091  1.00  0.00     0.049 A 
ATOM     47  H   UNL A   1      39.848  31.185  32.582  1.00  0.00     0.167 HD
ATOM     48  C   UNL A   1      40.863  28.351  29.416  1.00  0.00     0.037 A 
ATOM     49  C   UNL A   1      40.104  32.311  35.126  1.00  0.00     0.037 A 
ATOM     50  C   UNL A   1      41.863  28.149  30.433  1.00  0.00     0.049 A 
ATOM     51  C   UNL A   1      41.204  31.292  35.011  1.00  0.00     0.074 A 
ATOM     52  C   UNL A   1      42.955  27.297  30.412  1.00  0.00     0.029 A 
ATOM     53  N   UNL A   1      41.892  28.806  31.654  1.00  0.00    -0.354 N 
ATOM     54  N   UNL A   1      41.496  30.500  34.008  1.00  0.00    -0.248 NA
ATOM     55  C   UNL A   1      42.095  31.144  36.171  1.00  0.00     0.031 C 
ATOM     56  C   UNL A   1      43.615  27.403  31.640  1.00  0.00     0.029 A 
ATOM     57  C   UNL A   1      42.969  28.361  32.403  1.00  0.00     0.049 A 
ATOM     58  H   UNL A   1      41.243  29.487  31.944  1.00  0.00     0.167 HD
ATOM     59  C   UNL A   1      42.622  29.787  34.401  1.00  0.00     0.074 A 
ATOM     60  C   UNL A   1      42.965  30.247  35.730  1.00  0.00     0.031 C 
ATOM     61  C   UNL A   1      43.308  28.836  33.721  1.00  0.00     0.037 A 
BRANCH  48  62
ATOM     62  C   UNL A   1      40.933  27.509  28.174  1.00  0.00     0.057 A 
ATOM     63  C   UNL A   1      40.241  26.295  28.062  1.00  0.00     0.134 A 
ATOM     64  C   UNL A   1      41.671  27.933  27.061  1.00  0.00     0.134 A 
ATOM     65  F   UNL A   1      39.524  25.824  29.093  1.00  0.00    -0.206 F 
ATOM     66  C   UNL A   1      40.304  25.521  26.902  1.00  0.00     0.040 A 
ATOM     67  C   UNL A   1      41.718  27.183  25.884  1.00  0.00     0.040 A 
ATOM     68  F   UNL A   1      42.351  29.090  27.095  1.00  0.00    -0.206 F 
ATOM     69  C   UNL A   1      41.039  25.969  25.805  1.00  0.00     0.006 A 
ENDBRANCH  48  62
BRANCH  49  70
ATOM     70  C   UNL A   1      39.951  33.121  36.362  1.00  0.00     0.057 A 
ATOM     71  C   UNL A   1      40.707  34.282  36.562  1.00  0.00     0.134 A 
ATOM     72  C   UNL A   1      39.061  32.750  37.377  1.00  0.00     0.134 A 
ATOM     73  F   UNL A   1      41.593  34.679  35.636  1.00  0.00    -0.206 F 
ATOM     74  C   UNL A   1      40.599  35.033  37.734  1.00  0.00     0.040 A 
ATOM     75  C   UNL A   1      38.922  33.507  38.541  1.00  0.00     0.040 A 
ATOM     76  F   UNL A   1      38.303  31.651  37.243  1.00  0.00    -0.206 F 
ATOM     77  C   UNL A   1      39.700  34.647  38.726  1.00  0.00     0.006 A 
ENDBRANCH  49  70
BRANCH  61  78
ATOM     78  C   UNL A   1      44.527  28.261  34.383  1.00  0.00     0.057 A 
ATOM     79  C   UNL A   1      45.790  28.853  34.259  1.00  0.00     0.134 A 
ATOM     80  C   UNL A   1      44.425  27.118  35.188  1.00  0.00     0.134 A 
ATOM     81  F   UNL A   1      45.959  29.942  33.494  1.00  0.00    -0.206 F 
ATOM     82  C   UNL A   1      46.913  28.316  34.892  1.00  0.00     0.040 A 
ATOM     83  C   UNL A   1      45.535  26.588  35.848  1.00  0.00     0.040 A 
ATOM     84  F   UNL A   1      43.244  26.506  35.356  1.00  0.00    -0.206 F 
ATOM     85  C   UNL A   1      46.784  27.184  35.696  1.00  0.00     0.006 A 
ENDBRANCH  61  78
ENDBRANCH  35  36
ENDBRANCH  27  30
ENDBRANCH  25  26
ENDBRANCH  24  25
ENDBRANCH   1  24
TORSDOF 14
ENDMDL
