MODEL 1
REMARK VINA RESULT:     -11.2      0.000      0.000
REMARK SMILES CCCCNC(=O)c1c(Cl)c(Cl)c(Cl)c(Cl)c1C(=O)NCCCNC(=O)c1ccc(-c2c3nc(c(-c4c(F)cccc4F)c4ccc([nH]4)c(-c4c(F)cccc4F)c4nc(c(-c5c(F)cccc5F)c5ccc2[nH]5)C=C4)C=C3)cc1
REMARK SMILES IDX 21 1 20 2 18 3 19 4 17 6 8 7 9 8 10 9 11 10 15 11 12 12
REMARK SMILES IDX 13 13 16 14 14 15 6 16 5 17 7 19 4 20 3 21 2 22 1 23 22 24
REMARK SMILES IDX 23 25 24 26 25 27 26 29 27 30 28 31 80 32 29 33 79 34 30 35
REMARK SMILES IDX 31 36 32 37 73 38 33 39 78 40 72 41 74 42 34 43 77 44 71 45
REMARK SMILES IDX 70 46 35 48 61 49 44 50 60 51 45 52 48 53 59 54 75 55 46 56
REMARK SMILES IDX 47 57 58 59 76 60 49 61 36 62 37 63 42 64 38 65 39 66 41 67
REMARK SMILES IDX 43 68 40 69 62 70 63 71 68 72 64 73 65 74 67 75 69 76 66 77
REMARK SMILES IDX 50 78 51 79 56 80 52 81 53 82 55 83 57 84 54 85
REMARK H PARENT 20 5 5 18 24 28 74 47 48 58
REMARK Flexibility Score: inf
ROOT
ATOM      1  C   UNL A   1      35.984  20.653  24.961  1.00  0.00     0.118 C 
ENDROOT
BRANCH   1   2
ATOM      2  N   UNL A   1      36.328  21.827  24.176  1.00  0.00    -0.352 N 
ATOM      3  C   UNL A   1      35.517  22.725  23.532  1.00  0.00     0.253 C 
ATOM      4  O   UNL A   1      35.891  23.153  22.439  1.00  0.00    -0.269 OA
ATOM      5  H   UNL A   1      37.292  22.004  24.093  1.00  0.00     0.163 HD
BRANCH   3   6
ATOM      6  C   UNL A   1      34.291  23.347  24.098  1.00  0.00     0.074 A 
ATOM      7  C   UNL A   1      33.004  23.197  23.553  1.00  0.00     0.074 A 
ATOM      8  C   UNL A   1      31.956  24.076  23.902  1.00  0.00     0.074 A 
ATOM      9  Cl  UNL A   1      30.354  23.829  23.255  1.00  0.00    -0.082 Cl
ATOM     10  C   UNL A   1      32.208  25.169  24.743  1.00  0.00     0.080 A 
ATOM     11  C   UNL A   1      34.507  24.404  25.016  1.00  0.00     0.074 A 
ATOM     12  Cl  UNL A   1      30.948  26.329  25.064  1.00  0.00    -0.081 Cl
ATOM     13  C   UNL A   1      33.482  25.330  25.309  1.00  0.00     0.080 A 
ATOM     14  Cl  UNL A   1      36.046  24.556  25.832  1.00  0.00    -0.082 Cl
ATOM     15  Cl  UNL A   1      33.804  26.701  26.337  1.00  0.00    -0.081 Cl
BRANCH   7  16
ATOM     16  C   UNL A   1      32.661  22.087  22.671  1.00  0.00     0.253 C 
ATOM     17  N   UNL A   1      32.264  20.886  23.180  1.00  0.00    -0.352 N 
ATOM     18  H   UNL A   1      31.875  20.258  22.530  1.00  0.00     0.163 HD
ATOM     19  O   UNL A   1      32.810  22.244  21.461  1.00  0.00    -0.269 OA
BRANCH  17  20
ATOM     20  C   UNL A   1      32.336  20.408  24.547  1.00  0.00     0.116 C 
BRANCH  20  21
ATOM     21  C   UNL A   1      32.792  18.957  24.648  1.00  0.00     0.021 C 
BRANCH  21  22
ATOM     22  C   UNL A   1      32.673  18.124  23.367  1.00  0.00    -0.002 C 
ATOM     23  C   UNL A   1      33.814  17.141  23.152  1.00  0.00     0.004 C 
ENDBRANCH  21  22
ENDBRANCH  20  21
ENDBRANCH  17  20
ENDBRANCH   7  16
ENDBRANCH   3   6
ENDBRANCH   1   2
BRANCH   1  24
ATOM     24  C   UNL A   1      37.180  19.688  24.990  1.00  0.00     0.042 C 
BRANCH  24  25
ATOM     25  C   UNL A   1      38.514  20.352  25.316  1.00  0.00     0.118 C 
BRANCH  25  26
ATOM     26  N   UNL A   1      39.542  19.367  25.608  1.00  0.00    -0.352 N 
ATOM     27  C   UNL A   1      40.831  19.545  26.048  1.00  0.00     0.251 C 
ATOM     28  H   UNL A   1      39.273  18.430  25.470  1.00  0.00     0.163 HD
ATOM     29  O   UNL A   1      41.618  18.602  26.000  1.00  0.00    -0.269 OA
BRANCH  27  30
ATOM     30  C   UNL A   1      41.294  20.852  26.574  1.00  0.00     0.039 A 
ATOM     31  C   UNL A   1      41.163  21.109  27.944  1.00  0.00     0.014 A 
ATOM     32  C   UNL A   1      41.783  21.851  25.727  1.00  0.00     0.014 A 
ATOM     33  C   UNL A   1      41.554  22.346  28.468  1.00  0.00     0.010 A 
ATOM     34  C   UNL A   1      42.233  23.060  26.259  1.00  0.00     0.010 A 
ATOM     35  C   UNL A   1      42.110  23.325  27.632  1.00  0.00    -0.014 A 
BRANCH  35  36
ATOM     36  C   UNL A   1      42.547  24.641  28.169  1.00  0.00     0.031 A 
ATOM     37  C   UNL A   1      41.537  25.729  28.418  1.00  0.00     0.074 A 
ATOM     38  C   UNL A   1      43.857  24.880  28.370  1.00  0.00     0.049 A 
ATOM     39  N   UNL A   1      41.729  26.968  28.796  1.00  0.00    -0.248 NA
ATOM     40  C   UNL A   1      40.126  25.387  28.181  1.00  0.00     0.031 C 
ATOM     41  C   UNL A   1      44.939  23.925  28.125  1.00  0.00     0.029 A 
ATOM     42  N   UNL A   1      44.503  26.007  28.815  1.00  0.00    -0.354 N 
ATOM     43  C   UNL A   1      40.471  27.558  28.816  1.00  0.00     0.074 A 
ATOM     44  C   UNL A   1      39.528  26.554  28.371  1.00  0.00     0.031 C 
ATOM     45  C   UNL A   1      46.111  24.499  28.438  1.00  0.00     0.029 A 
ATOM     46  C   UNL A   1      45.868  25.871  28.874  1.00  0.00     0.049 A 
ATOM     47  H   UNL A   1      44.032  26.833  29.067  1.00  0.00     0.167 HD
ATOM     48  C   UNL A   1      40.130  28.816  29.186  1.00  0.00     0.037 A 
ATOM     49  C   UNL A   1      46.818  26.755  29.233  1.00  0.00     0.037 A 
ATOM     50  C   UNL A   1      41.064  29.799  29.667  1.00  0.00     0.049 A 
ATOM     51  C   UNL A   1      46.413  28.135  29.667  1.00  0.00     0.074 A 
ATOM     52  C   UNL A   1      40.809  31.076  30.135  1.00  0.00     0.029 A 
ATOM     53  N   UNL A   1      42.435  29.609  29.747  1.00  0.00    -0.354 N 
ATOM     54  N   UNL A   1      45.213  28.661  29.736  1.00  0.00    -0.248 NA
ATOM     55  C   UNL A   1      47.491  29.044  30.083  1.00  0.00     0.031 C 
ATOM     56  C   UNL A   1      42.031  31.673  30.465  1.00  0.00     0.029 A 
ATOM     57  C   UNL A   1      43.042  30.753  30.241  1.00  0.00     0.049 A 
ATOM     58  H   UNL A   1      42.908  28.785  29.490  1.00  0.00     0.167 HD
ATOM     59  C   UNL A   1      45.389  29.949  30.221  1.00  0.00     0.074 A 
ATOM     60  C   UNL A   1      46.810  30.123  30.444  1.00  0.00     0.031 C 
ATOM     61  C   UNL A   1      44.458  30.904  30.461  1.00  0.00     0.037 A 
BRANCH  48  62
ATOM     62  C   UNL A   1      38.680  29.196  29.088  1.00  0.00     0.057 A 
ATOM     63  C   UNL A   1      37.821  29.131  30.194  1.00  0.00     0.134 A 
ATOM     64  C   UNL A   1      38.142  29.656  27.880  1.00  0.00     0.134 A 
ATOM     65  F   UNL A   1      38.270  28.687  31.378  1.00  0.00    -0.206 F 
ATOM     66  C   UNL A   1      36.473  29.479  30.093  1.00  0.00     0.040 A 
ATOM     67  C   UNL A   1      36.802  30.033  27.773  1.00  0.00     0.040 A 
ATOM     68  F   UNL A   1      38.911  29.752  26.784  1.00  0.00    -0.206 F 
ATOM     69  C   UNL A   1      35.961  29.937  28.880  1.00  0.00     0.006 A 
ENDBRANCH  48  62
BRANCH  49  70
ATOM     70  C   UNL A   1      48.246  26.349  29.224  1.00  0.00     0.057 A 
ATOM     71  C   UNL A   1      48.828  25.741  30.341  1.00  0.00     0.134 A 
ATOM     72  C   UNL A   1      49.057  26.548  28.100  1.00  0.00     0.134 A 
ATOM     73  F   UNL A   1      48.105  25.540  31.453  1.00  0.00    -0.206 F 
ATOM     74  C   UNL A   1      50.170  25.356  30.349  1.00  0.00     0.040 A 
ATOM     75  C   UNL A   1      50.395  26.149  28.086  1.00  0.00     0.040 A 
ATOM     76  F   UNL A   1      48.556  27.118  26.995  1.00  0.00    -0.206 F 
ATOM     77  C   UNL A   1      50.955  25.555  29.216  1.00  0.00     0.006 A 
ENDBRANCH  49  70
BRANCH  61  78
ATOM     78  C   UNL A   1      44.943  32.209  31.019  1.00  0.00     0.057 A 
ATOM     79  C   UNL A   1      45.078  32.417  32.396  1.00  0.00     0.134 A 
ATOM     80  C   UNL A   1      45.316  33.253  30.164  1.00  0.00     0.134 A 
ATOM     81  F   UNL A   1      44.724  31.460  33.267  1.00  0.00    -0.206 F 
ATOM     82  C   UNL A   1      45.550  33.628  32.906  1.00  0.00     0.040 A 
ATOM     83  C   UNL A   1      45.811  34.460  30.660  1.00  0.00     0.040 A 
ATOM     84  F   UNL A   1      45.218  33.114  28.833  1.00  0.00    -0.206 F 
ATOM     85  C   UNL A   1      45.925  34.651  32.036  1.00  0.00     0.006 A 
ENDBRANCH  61  78
ENDBRANCH  35  36
ENDBRANCH  27  30
ENDBRANCH  25  26
ENDBRANCH  24  25
ENDBRANCH   1  24
TORSDOF 14
ENDMDL
MODEL 2
REMARK VINA RESULT:     -11.1      4.407      9.062
REMARK SMILES CCCCNC(=O)c1c(Cl)c(Cl)c(Cl)c(Cl)c1C(=O)NCCCNC(=O)c1ccc(-c2c3nc(c(-c4c(F)cccc4F)c4ccc([nH]4)c(-c4c(F)cccc4F)c4nc(c(-c5c(F)cccc5F)c5ccc2[nH]5)C=C4)C=C3)cc1
REMARK SMILES IDX 21 1 20 2 18 3 19 4 17 6 8 7 9 8 10 9 11 10 15 11 12 12
REMARK SMILES IDX 13 13 16 14 14 15 6 16 5 17 7 19 4 20 3 21 2 22 1 23 22 24
REMARK SMILES IDX 23 25 24 26 25 27 26 29 27 30 28 31 80 32 29 33 79 34 30 35
REMARK SMILES IDX 31 36 32 37 73 38 33 39 78 40 72 41 74 42 34 43 77 44 71 45
REMARK SMILES IDX 70 46 35 48 61 49 44 50 60 51 45 52 48 53 59 54 75 55 46 56
REMARK SMILES IDX 47 57 58 59 76 60 49 61 36 62 37 63 42 64 38 65 39 66 41 67
REMARK SMILES IDX 43 68 40 69 62 70 63 71 68 72 64 73 65 74 67 75 69 76 66 77
REMARK SMILES IDX 50 78 51 79 56 80 52 81 53 82 55 83 57 84 54 85
REMARK H PARENT 20 5 5 18 24 28 74 47 48 58
REMARK Flexibility Score: inf
ROOT
ATOM      1  C   UNL A   1      31.365  30.110  25.367  1.00  0.00     0.118 C 
ENDROOT
BRANCH   1   2
ATOM      2  N   UNL A   1      31.601  29.218  26.491  1.00  0.00    -0.352 N 
ATOM      3  C   UNL A   1      31.474  27.856  26.576  1.00  0.00     0.253 C 
ATOM      4  O   UNL A   1      31.027  27.387  27.624  1.00  0.00    -0.269 OA
ATOM      5  H   UNL A   1      31.898  29.660  27.318  1.00  0.00     0.163 HD
BRANCH   3   6
ATOM      6  C   UNL A   1      31.963  26.874  25.573  1.00  0.00     0.074 A 
ATOM      7  C   UNL A   1      31.127  26.053  24.797  1.00  0.00     0.074 A 
ATOM      8  C   UNL A   1      31.632  24.911  24.138  1.00  0.00     0.074 A 
ATOM      9  Cl  UNL A   1      30.583  23.943  23.134  1.00  0.00    -0.082 Cl
ATOM     10  C   UNL A   1      32.971  24.534  24.315  1.00  0.00     0.080 A 
ATOM     11  C   UNL A   1      33.333  26.529  25.670  1.00  0.00     0.074 A 
ATOM     12  Cl  UNL A   1      33.558  23.051  23.611  1.00  0.00    -0.081 Cl
ATOM     13  C   UNL A   1      33.826  25.347  25.074  1.00  0.00     0.080 A 
ATOM     14  Cl  UNL A   1      34.447  27.588  26.502  1.00  0.00    -0.082 Cl
ATOM     15  Cl  UNL A   1      35.486  24.868  25.315  1.00  0.00    -0.081 Cl
BRANCH   7  16
ATOM     16  C   UNL A   1      29.724  26.375  24.563  1.00  0.00     0.253 C 
ATOM     17  N   UNL A   1      29.355  27.187  23.532  1.00  0.00    -0.352 N 
ATOM     18  H   UNL A   1      28.392  27.204  23.329  1.00  0.00     0.163 HD
ATOM     19  O   UNL A   1      28.893  25.954  25.367  1.00  0.00    -0.269 OA
BRANCH  17  20
ATOM     20  C   UNL A   1      30.186  28.026  22.692  1.00  0.00     0.116 C 
BRANCH  20  21
ATOM     21  C   UNL A   1      29.548  29.374  22.378  1.00  0.00     0.021 C 
BRANCH  21  22
ATOM     22  C   UNL A   1      28.063  29.513  22.730  1.00  0.00    -0.002 C 
ATOM     23  C   UNL A   1      27.718  30.778  23.500  1.00  0.00     0.004 C 
ENDBRANCH  21  22
ENDBRANCH  20  21
ENDBRANCH  17  20
ENDBRANCH   7  16
ENDBRANCH   3   6
ENDBRANCH   1   2
BRANCH   1  24
ATOM     24  C   UNL A   1      31.210  31.550  25.882  1.00  0.00     0.042 C 
BRANCH  24  25
ATOM     25  C   UNL A   1      32.235  31.953  26.937  1.00  0.00     0.118 C 
BRANCH  25  26
ATOM     26  N   UNL A   1      32.152  33.372  27.245  1.00  0.00    -0.352 N 
ATOM     27  C   UNL A   1      32.912  34.131  28.100  1.00  0.00     0.251 C 
ATOM     28  H   UNL A   1      31.444  33.861  26.768  1.00  0.00     0.163 HD
ATOM     29  O   UNL A   1      32.528  35.258  28.406  1.00  0.00    -0.269 OA
BRANCH  27  30
ATOM     30  C   UNL A   1      34.183  33.618  28.666  1.00  0.00     0.039 A 
ATOM     31  C   UNL A   1      35.384  33.944  28.024  1.00  0.00     0.014 A 
ATOM     32  C   UNL A   1      34.201  32.763  29.771  1.00  0.00     0.014 A 
ATOM     33  C   UNL A   1      36.598  33.446  28.508  1.00  0.00     0.010 A 
ATOM     34  C   UNL A   1      35.417  32.319  30.292  1.00  0.00     0.010 A 
ATOM     35  C   UNL A   1      36.626  32.644  29.659  1.00  0.00    -0.014 A 
BRANCH  35  36
ATOM     36  C   UNL A   1      37.906  32.115  30.201  1.00  0.00     0.031 A 
ATOM     37  C   UNL A   1      38.495  30.847  29.646  1.00  0.00     0.074 A 
ATOM     38  C   UNL A   1      38.502  32.739  31.235  1.00  0.00     0.049 A 
ATOM     39  N   UNL A   1      39.550  30.180  30.043  1.00  0.00    -0.248 NA
ATOM     40  C   UNL A   1      37.788  30.230  28.513  1.00  0.00     0.031 C 
ATOM     41  C   UNL A   1      38.009  33.950  31.892  1.00  0.00     0.029 A 
ATOM     42  N   UNL A   1      39.649  32.431  31.924  1.00  0.00    -0.354 N 
ATOM     43  C   UNL A   1      39.616  29.056  29.228  1.00  0.00     0.074 A 
ATOM     44  C   UNL A   1      38.472  29.109  28.344  1.00  0.00     0.031 C 
ATOM     45  C   UNL A   1      38.855  34.292  32.876  1.00  0.00     0.029 A 
ATOM     46  C   UNL A   1      39.931  33.309  32.943  1.00  0.00     0.049 A 
ATOM     47  H   UNL A   1      40.215  31.655  31.709  1.00  0.00     0.167 HD
ATOM     48  C   UNL A   1      40.554  28.077  29.208  1.00  0.00     0.037 A 
ATOM     49  C   UNL A   1      40.941  33.315  33.833  1.00  0.00     0.037 A 
ATOM     50  C   UNL A   1      41.712  28.049  30.062  1.00  0.00     0.049 A 
ATOM     51  C   UNL A   1      41.983  32.235  33.773  1.00  0.00     0.074 A 
ATOM     52  C   UNL A   1      42.756  27.140  30.070  1.00  0.00     0.029 A 
ATOM     53  N   UNL A   1      41.980  28.977  31.056  1.00  0.00    -0.354 N 
ATOM     54  N   UNL A   1      42.064  31.209  32.960  1.00  0.00    -0.248 NA
ATOM     55  C   UNL A   1      43.081  32.316  34.748  1.00  0.00     0.031 C 
ATOM     56  C   UNL A   1      43.640  27.499  31.094  1.00  0.00     0.029 A 
ATOM     57  C   UNL A   1      43.166  28.654  31.696  1.00  0.00     0.049 A 
ATOM     58  H   UNL A   1      41.413  29.750  31.276  1.00  0.00     0.167 HD
ATOM     59  C   UNL A   1      43.228  30.538  33.308  1.00  0.00     0.074 A 
ATOM     60  C   UNL A   1      43.829  31.279  34.398  1.00  0.00     0.031 C 
ATOM     61  C   UNL A   1      43.752  29.408  32.775  1.00  0.00     0.037 A 
BRANCH  48  62
ATOM     62  C   UNL A   1      40.362  26.957  28.226  1.00  0.00     0.057 A 
ATOM     63  C   UNL A   1      41.007  26.945  26.982  1.00  0.00     0.134 A 
ATOM     64  C   UNL A   1      39.543  25.865  28.538  1.00  0.00     0.134 A 
ATOM     65  F   UNL A   1      41.796  27.967  26.616  1.00  0.00    -0.206 F 
ATOM     66  C   UNL A   1      40.818  25.904  26.071  1.00  0.00     0.040 A 
ATOM     67  C   UNL A   1      39.367  24.805  27.647  1.00  0.00     0.040 A 
ATOM     68  F   UNL A   1      38.902  25.807  29.716  1.00  0.00    -0.206 F 
ATOM     69  C   UNL A   1      40.000  24.827  26.405  1.00  0.00     0.006 A 
ENDBRANCH  48  62
BRANCH  49  70
ATOM     70  C   UNL A   1      41.028  34.401  34.841  1.00  0.00     0.057 A 
ATOM     71  C   UNL A   1      40.392  34.285  36.082  1.00  0.00     0.134 A 
ATOM     72  C   UNL A   1      41.755  35.573  34.595  1.00  0.00     0.134 A 
ATOM     73  F   UNL A   1      39.667  33.193  36.368  1.00  0.00    -0.206 F 
ATOM     74  C   UNL A   1      40.463  35.299  37.038  1.00  0.00     0.040 A 
ATOM     75  C   UNL A   1      41.852  36.586  35.551  1.00  0.00     0.040 A 
ATOM     76  F   UNL A   1      42.395  35.740  33.428  1.00  0.00    -0.206 F 
ATOM     77  C   UNL A   1      41.200  36.452  36.775  1.00  0.00     0.006 A 
ENDBRANCH  49  70
BRANCH  61  78
ATOM     78  C   UNL A   1      45.052  28.922  33.341  1.00  0.00     0.057 A 
ATOM     79  C   UNL A   1      46.284  29.365  32.845  1.00  0.00     0.134 A 
ATOM     80  C   UNL A   1      45.070  28.033  34.422  1.00  0.00     0.134 A 
ATOM     81  F   UNL A   1      46.334  30.206  31.801  1.00  0.00    -0.206 F 
ATOM     82  C   UNL A   1      47.490  28.923  33.392  1.00  0.00     0.040 A 
ATOM     83  C   UNL A   1      46.268  27.602  34.993  1.00  0.00     0.040 A 
ATOM     84  F   UNL A   1      43.923  27.577  34.949  1.00  0.00    -0.206 F 
ATOM     85  C   UNL A   1      47.484  28.045  34.474  1.00  0.00     0.006 A 
ENDBRANCH  61  78
ENDBRANCH  35  36
ENDBRANCH  27  30
ENDBRANCH  25  26
ENDBRANCH  24  25
ENDBRANCH   1  24
TORSDOF 14
ENDMDL
MODEL 3
REMARK VINA RESULT:     -11.0      2.948      7.102
REMARK SMILES CCCCNC(=O)c1c(Cl)c(Cl)c(Cl)c(Cl)c1C(=O)NCCCNC(=O)c1ccc(-c2c3nc(c(-c4c(F)cccc4F)c4ccc([nH]4)c(-c4c(F)cccc4F)c4nc(c(-c5c(F)cccc5F)c5ccc2[nH]5)C=C4)C=C3)cc1
REMARK SMILES IDX 21 1 20 2 18 3 19 4 17 6 8 7 9 8 10 9 11 10 15 11 12 12
REMARK SMILES IDX 13 13 16 14 14 15 6 16 5 17 7 19 4 20 3 21 2 22 1 23 22 24
REMARK SMILES IDX 23 25 24 26 25 27 26 29 27 30 28 31 80 32 29 33 79 34 30 35
REMARK SMILES IDX 31 36 32 37 73 38 33 39 78 40 72 41 74 42 34 43 77 44 71 45
REMARK SMILES IDX 70 46 35 48 61 49 44 50 60 51 45 52 48 53 59 54 75 55 46 56
REMARK SMILES IDX 47 57 58 59 76 60 49 61 36 62 37 63 42 64 38 65 39 66 41 67
REMARK SMILES IDX 43 68 40 69 62 70 63 71 68 72 64 73 65 74 67 75 69 76 66 77
REMARK SMILES IDX 50 78 51 79 56 80 52 81 53 82 55 83 57 84 54 85
REMARK H PARENT 20 5 5 18 24 28 74 47 48 58
REMARK Flexibility Score: inf
ROOT
ATOM      1  C   UNL A   1      31.688  27.653  26.316  1.00  0.00     0.118 C 
ENDROOT
BRANCH   1   2
ATOM      2  N   UNL A   1      30.854  26.567  26.804  1.00  0.00    -0.352 N 
ATOM      3  C   UNL A   1      30.133  25.630  26.111  1.00  0.00     0.253 C 
ATOM      4  O   UNL A   1      29.033  25.305  26.562  1.00  0.00    -0.269 OA
ATOM      5  H   UNL A   1      30.798  26.494  27.784  1.00  0.00     0.163 HD
BRANCH   3   6
ATOM      6  C   UNL A   1      30.618  24.855  24.939  1.00  0.00     0.074 A 
ATOM      7  C   UNL A   1      31.226  23.591  25.023  1.00  0.00     0.074 A 
ATOM      8  C   UNL A   1      31.977  23.068  23.948  1.00  0.00     0.074 A 
ATOM      9  Cl  UNL A   1      32.671  21.471  24.059  1.00  0.00    -0.082 Cl
ATOM     10  C   UNL A   1      32.195  23.846  22.801  1.00  0.00     0.080 A 
ATOM     11  C   UNL A   1      30.773  25.591  23.739  1.00  0.00     0.074 A 
ATOM     12  Cl  UNL A   1      33.234  23.254  21.533  1.00  0.00    -0.081 Cl
ATOM     13  C   UNL A   1      31.586  25.105  22.691  1.00  0.00     0.080 A 
ATOM     14  Cl  UNL A   1      29.926  27.104  23.523  1.00  0.00    -0.082 Cl
ATOM     15  Cl  UNL A   1      31.874  26.083  21.277  1.00  0.00    -0.081 Cl
BRANCH   7  16
ATOM     16  C   UNL A   1      31.048  22.720  26.180  1.00  0.00     0.253 C 
ATOM     17  N   UNL A   1      31.928  22.751  27.221  1.00  0.00    -0.352 N 
ATOM     18  H   UNL A   1      31.640  22.278  28.034  1.00  0.00     0.163 HD
ATOM     19  O   UNL A   1      30.125  21.908  26.155  1.00  0.00    -0.269 OA
BRANCH  17  20
ATOM     20  C   UNL A   1      33.229  23.387  27.295  1.00  0.00     0.116 C 
BRANCH  20  21
ATOM     21  C   UNL A   1      34.382  22.412  27.085  1.00  0.00     0.021 C 
BRANCH  21  22
ATOM     22  C   UNL A   1      35.438  22.832  26.058  1.00  0.00    -0.002 C 
ATOM     23  C   UNL A   1      35.209  24.208  25.450  1.00  0.00     0.004 C 
ENDBRANCH  21  22
ENDBRANCH  20  21
ENDBRANCH  17  20
ENDBRANCH   7  16
ENDBRANCH   3   6
ENDBRANCH   1   2
BRANCH   1  24
ATOM     24  C   UNL A   1      33.123  27.469  26.836  1.00  0.00     0.042 C 
BRANCH  24  25
ATOM     25  C   UNL A   1      34.110  28.520  26.339  1.00  0.00     0.118 C 
BRANCH  25  26
ATOM     26  N   UNL A   1      33.913  29.795  27.009  1.00  0.00    -0.352 N 
ATOM     27  C   UNL A   1      34.706  30.434  27.931  1.00  0.00     0.251 C 
ATOM     28  H   UNL A   1      33.088  30.271  26.765  1.00  0.00     0.163 HD
ATOM     29  O   UNL A   1      34.247  31.385  28.562  1.00  0.00    -0.269 OA
BRANCH  27  30
ATOM     30  C   UNL A   1      36.100  29.999  28.185  1.00  0.00     0.039 A 
ATOM     31  C   UNL A   1      36.417  29.455  29.437  1.00  0.00     0.014 A 
ATOM     32  C   UNL A   1      37.111  30.187  27.239  1.00  0.00     0.014 A 
ATOM     33  C   UNL A   1      37.730  29.070  29.724  1.00  0.00     0.010 A 
ATOM     34  C   UNL A   1      38.407  29.743  27.502  1.00  0.00     0.010 A 
ATOM     35  C   UNL A   1      38.733  29.193  28.751  1.00  0.00    -0.014 A 
BRANCH  35  36
ATOM     36  C   UNL A   1      40.133  28.776  29.028  1.00  0.00     0.031 A 
ATOM     37  C   UNL A   1      41.084  29.723  29.709  1.00  0.00     0.074 A 
ATOM     38  C   UNL A   1      40.568  27.572  28.609  1.00  0.00     0.049 A 
ATOM     39  N   UNL A   1      42.361  29.580  29.957  1.00  0.00    -0.248 NA
ATOM     40  C   UNL A   1      40.531  31.016  30.142  1.00  0.00     0.031 C 
ATOM     41  C   UNL A   1      39.758  26.580  27.899  1.00  0.00     0.029 A 
ATOM     42  N   UNL A   1      41.803  26.982  28.710  1.00  0.00    -0.354 N 
ATOM     43  C   UNL A   1      42.769  30.770  30.548  1.00  0.00     0.074 A 
ATOM     44  C   UNL A   1      41.613  31.640  30.583  1.00  0.00     0.031 C 
ATOM     45  C   UNL A   1      40.512  25.500  27.643  1.00  0.00     0.029 A 
ATOM     46  C   UNL A   1      41.865  25.734  28.140  1.00  0.00     0.049 A 
ATOM     47  H   UNL A   1      42.572  27.413  29.149  1.00  0.00     0.167 HD
ATOM     48  C   UNL A   1      43.990  31.102  31.032  1.00  0.00     0.037 A 
ATOM     49  C   UNL A   1      42.898  24.878  28.026  1.00  0.00     0.037 A 
ATOM     50  C   UNL A   1      45.127  30.220  31.033  1.00  0.00     0.049 A 
ATOM     51  C   UNL A   1      44.235  25.257  28.596  1.00  0.00     0.074 A 
ATOM     52  C   UNL A   1      46.387  30.436  31.564  1.00  0.00     0.029 A 
ATOM     53  N   UNL A   1      45.138  28.950  30.478  1.00  0.00    -0.354 N 
ATOM     54  N   UNL A   1      44.591  26.363  29.203  1.00  0.00    -0.248 NA
ATOM     55  C   UNL A   1      45.314  24.265  28.473  1.00  0.00     0.031 C 
ATOM     56  C   UNL A   1      47.172  29.308  31.300  1.00  0.00     0.029 A 
ATOM     57  C   UNL A   1      46.388  28.374  30.640  1.00  0.00     0.049 A 
ATOM     58  H   UNL A   1      44.372  28.519  30.035  1.00  0.00     0.167 HD
ATOM     59  C   UNL A   1      45.923  26.194  29.554  1.00  0.00     0.074 A 
ATOM     60  C   UNL A   1      46.310  24.872  29.104  1.00  0.00     0.031 C 
ATOM     61  C   UNL A   1      46.752  27.055  30.191  1.00  0.00     0.037 A 
BRANCH  48  62
ATOM     62  C   UNL A   1      44.155  32.481  31.605  1.00  0.00     0.057 A 
ATOM     63  C   UNL A   1      44.517  33.575  30.808  1.00  0.00     0.134 A 
ATOM     64  C   UNL A   1      43.926  32.721  32.966  1.00  0.00     0.134 A 
ATOM     65  F   UNL A   1      44.762  33.411  29.499  1.00  0.00    -0.206 F 
ATOM     66  C   UNL A   1      44.675  34.853  31.349  1.00  0.00     0.040 A 
ATOM     67  C   UNL A   1      44.056  33.999  33.514  1.00  0.00     0.040 A 
ATOM     68  F   UNL A   1      43.569  31.720  33.785  1.00  0.00    -0.206 F 
ATOM     69  C   UNL A   1      44.439  35.068  32.706  1.00  0.00     0.006 A 
ENDBRANCH  48  62
BRANCH  49  70
ATOM     70  C   UNL A   1      42.696  23.563  27.367  1.00  0.00     0.057 A 
ATOM     71  C   UNL A   1      42.939  23.398  26.000  1.00  0.00     0.134 A 
ATOM     72  C   UNL A   1      42.268  22.440  28.088  1.00  0.00     0.134 A 
ATOM     73  F   UNL A   1      43.334  24.441  25.254  1.00  0.00    -0.206 F 
ATOM     74  C   UNL A   1      42.751  22.168  25.366  1.00  0.00     0.040 A 
ATOM     75  C   UNL A   1      42.097  21.200  27.472  1.00  0.00     0.040 A 
ATOM     76  F   UNL A   1      42.028  22.532  29.404  1.00  0.00    -0.206 F 
ATOM     77  C   UNL A   1      42.334  21.063  26.105  1.00  0.00     0.006 A 
ENDBRANCH  49  70
BRANCH  61  78
ATOM     78  C   UNL A   1      48.150  26.585  30.464  1.00  0.00     0.057 A 
ATOM     79  C   UNL A   1      48.472  25.863  31.620  1.00  0.00     0.134 A 
ATOM     80  C   UNL A   1      49.175  26.823  29.541  1.00  0.00     0.134 A 
ATOM     81  F   UNL A   1      47.537  25.616  32.550  1.00  0.00    -0.206 F 
ATOM     82  C   UNL A   1      49.771  25.411  31.857  1.00  0.00     0.040 A 
ATOM     83  C   UNL A   1      50.472  26.355  29.755  1.00  0.00     0.040 A 
ATOM     84  F   UNL A   1      48.930  27.501  28.410  1.00  0.00    -0.206 F 
ATOM     85  C   UNL A   1      50.774  25.651  30.919  1.00  0.00     0.006 A 
ENDBRANCH  61  78
ENDBRANCH  35  36
ENDBRANCH  27  30
ENDBRANCH  25  26
ENDBRANCH  24  25
ENDBRANCH   1  24
TORSDOF 14
ENDMDL
