MODEL 1
REMARK VINA RESULT:     -13.0      0.000      0.000
REMARK SMILES COc1ccc(-c2cc([C@@H]3CC[N@@H+](CC(=O)NCCCNC(=O)c4ccc(-c5c6nc(c(-c7c(F)cccc7F)c7ccc([nH]7)c(-c7c(F)cccc7F)c7nc(c(-c8c(F)cccc8F)c8ccc5[nH]8)C=C7)C=C6)cc4)C3)ccn2)c2ccc(C)nc12
REMARK SMILES IDX 18 1 17 2 15 3 16 4 14 6 13 7 10 8 11 9 78 10 12 11 9 13
REMARK SMILES IDX 7 14 8 15 81 16 80 17 79 18 6 19 3 20 4 21 88 22 5 23 82 24
REMARK SMILES IDX 87 25 83 26 85 27 84 28 86 29 2 30 1 31 19 32 20 33 21 34
REMARK SMILES IDX 22 35 23 37 24 38 25 39 77 40 26 41 76 42 27 43 28 44 29 45
REMARK SMILES IDX 70 46 30 47 75 48 69 49 71 50 31 51 74 52 68 53 67 54 32 56
REMARK SMILES IDX 58 57 41 58 57 59 42 60 45 61 56 62 72 63 43 64 44 65 55 67
REMARK SMILES IDX 73 68 46 69 33 70 34 71 39 72 35 73 36 74 38 75 40 76 37 77
REMARK SMILES IDX 59 78 60 79 65 80 61 81 62 82 64 83 66 84 63 85 47 86 48 87
REMARK SMILES IDX 53 88 49 89 50 90 52 91 54 92 51 93
REMARK H PARENT 17 5 13 12 21 36 71 55 45 66
REMARK Flexibility Score: inf
ROOT
ATOM      1  C   UNL A   1      34.145  34.641  27.873  1.00  0.00     0.118 C 
ENDROOT
BRANCH   1   2
ATOM      2  N   UNL A   1      35.289  33.741  27.938  1.00  0.00    -0.351 N 
ATOM      3  C   UNL A   1      35.404  32.381  28.000  1.00  0.00     0.275 C 
ATOM      4  O   UNL A   1      36.551  31.925  28.067  1.00  0.00    -0.269 OA
ATOM      5  H   UNL A   1      36.155  34.208  27.936  1.00  0.00     0.163 HD
BRANCH   3   6
ATOM      6  C   UNL A   1      34.184  31.452  28.018  1.00  0.00     0.363 C 
BRANCH   6   7
ATOM      7  N   UNL A   1      33.971  30.654  26.786  1.00  0.00    -0.327 N 
ATOM      8  C   UNL A   1      33.698  28.224  26.871  1.00  0.00     0.080 C 
ATOM      9  C   UNL A   1      32.383  28.945  27.184  1.00  0.00     0.075 C 
ATOM     10  C   UNL A   1      34.716  29.378  26.714  1.00  0.00     0.271 C 
ATOM     11  C   UNL A   1      32.568  30.327  26.574  1.00  0.00     0.263 C 
ATOM     12  H   UNL A   1      34.330  31.278  26.064  1.00  0.00     0.348 HD
BRANCH   8  13
ATOM     13  C   UNL A   1      33.453  27.329  25.667  1.00  0.00    -0.035 A 
ATOM     14  C   UNL A   1      33.525  25.111  24.689  1.00  0.00     0.071 A 
ATOM     15  C   UNL A   1      33.406  25.941  25.804  1.00  0.00     0.033 A 
ATOM     16  N   UNL A   1      33.606  25.610  23.436  1.00  0.00    -0.256 NA
ATOM     17  C   UNL A   1      33.573  26.957  23.305  1.00  0.00     0.112 A 
ATOM     18  C   UNL A   1      33.512  27.844  24.372  1.00  0.00     0.024 A 
BRANCH  14  19
ATOM     19  C   UNL A   1      33.784  23.667  24.866  1.00  0.00     0.010 A 
ATOM     20  C   UNL A   1      34.250  20.906  24.792  1.00  0.00     0.145 A 
ATOM     21  C   UNL A   1      32.983  21.407  24.491  1.00  0.00     0.049 A 
ATOM     22  C   UNL A   1      35.325  21.751  25.115  1.00  0.00     0.113 A 
ATOM     23  C   UNL A   1      32.752  22.774  24.530  1.00  0.00     0.015 A 
ATOM     24  C   UNL A   1      35.073  23.143  25.197  1.00  0.00     0.013 A 
ATOM     25  N   UNL A   1      36.571  21.253  25.313  1.00  0.00    -0.249 NA
ATOM     26  C   UNL A   1      36.154  23.957  25.600  1.00  0.00     0.013 A 
ATOM     27  C   UNL A   1      37.598  22.078  25.619  1.00  0.00     0.038 A 
ATOM     28  C   UNL A   1      37.421  23.432  25.803  1.00  0.00     0.024 A 
ATOM     29  C   UNL A   1      38.946  21.449  25.790  1.00  0.00     0.067 C 
BRANCH  20  30
ATOM     30  O   UNL A   1      34.336  19.532  24.682  1.00  0.00    -0.494 OA
ATOM     31  C   UNL A   1      33.199  18.848  25.202  1.00  0.00     0.278 C 
ENDBRANCH  20  30
ENDBRANCH  14  19
ENDBRANCH   8  13
ENDBRANCH   6   7
ENDBRANCH   3   6
ENDBRANCH   1   2
BRANCH   1  32
ATOM     32  C   UNL A   1      33.379  34.827  29.196  1.00  0.00     0.042 C 
BRANCH  32  33
ATOM     33  C   UNL A   1      33.411  36.222  29.823  1.00  0.00     0.118 C 
BRANCH  33  34
ATOM     34  N   UNL A   1      32.488  36.330  30.933  1.00  0.00    -0.352 N 
ATOM     35  C   UNL A   1      32.510  35.698  32.151  1.00  0.00     0.251 C 
ATOM     36  H   UNL A   1      31.733  36.947  30.793  1.00  0.00     0.163 HD
ATOM     37  O   UNL A   1      31.501  35.719  32.850  1.00  0.00    -0.269 OA
BRANCH  35  38
ATOM     38  C   UNL A   1      33.722  34.997  32.653  1.00  0.00     0.039 A 
ATOM     39  C   UNL A   1      34.964  35.621  32.480  1.00  0.00     0.014 A 
ATOM     40  C   UNL A   1      33.674  33.695  33.163  1.00  0.00     0.014 A 
ATOM     41  C   UNL A   1      36.147  34.950  32.811  1.00  0.00     0.010 A 
ATOM     42  C   UNL A   1      34.857  33.037  33.528  1.00  0.00     0.010 A 
ATOM     43  C   UNL A   1      36.105  33.648  33.332  1.00  0.00    -0.014 A 
BRANCH  43  44
ATOM     44  C   UNL A   1      37.367  32.912  33.619  1.00  0.00     0.031 A 
ATOM     45  C   UNL A   1      38.152  33.203  34.871  1.00  0.00     0.074 A 
ATOM     46  C   UNL A   1      37.818  31.979  32.759  1.00  0.00     0.049 A 
ATOM     47  N   UNL A   1      39.273  32.668  35.289  1.00  0.00    -0.248 NA
ATOM     48  C   UNL A   1      37.611  34.238  35.766  1.00  0.00     0.031 C 
ATOM     49  C   UNL A   1      37.172  31.607  31.501  1.00  0.00     0.029 A 
ATOM     50  N   UNL A   1      38.932  31.176  32.814  1.00  0.00    -0.354 N 
ATOM     51  C   UNL A   1      39.576  33.305  36.486  1.00  0.00     0.074 A 
ATOM     52  C   UNL A   1      38.539  34.290  36.711  1.00  0.00     0.031 C 
ATOM     53  C   UNL A   1      37.894  30.642  30.908  1.00  0.00     0.029 A 
ATOM     54  C   UNL A   1      39.063  30.343  31.731  1.00  0.00     0.049 A 
ATOM     55  H   UNL A   1      39.574  31.197  33.560  1.00  0.00     0.167 HD
ATOM     56  C   UNL A   1      40.611  33.080  37.333  1.00  0.00     0.037 A 
ATOM     57  C   UNL A   1      40.017  29.441  31.432  1.00  0.00     0.037 A 
ATOM     58  C   UNL A   1      41.635  32.088  37.132  1.00  0.00     0.049 A 
ATOM     59  C   UNL A   1      41.159  29.213  32.382  1.00  0.00     0.074 A 
ATOM     60  C   UNL A   1      42.695  31.763  37.962  1.00  0.00     0.029 A 
ATOM     61  N   UNL A   1      41.728  31.262  36.024  1.00  0.00    -0.354 N 
ATOM     62  N   UNL A   1      41.403  29.789  33.534  1.00  0.00    -0.248 NA
ATOM     63  C   UNL A   1      42.154  28.202  31.994  1.00  0.00     0.031 C 
ATOM     64  C   UNL A   1      43.447  30.758  37.342  1.00  0.00     0.029 A 
ATOM     65  C   UNL A   1      42.837  30.437  36.141  1.00  0.00     0.049 A 
ATOM     66  H   UNL A   1      41.100  31.260  35.266  1.00  0.00     0.167 HD
ATOM     67  C   UNL A   1      42.563  29.199  34.016  1.00  0.00     0.074 A 
ATOM     68  C   UNL A   1      42.970  28.210  33.039  1.00  0.00     0.031 C 
ATOM     69  C   UNL A   1      43.232  29.455  35.166  1.00  0.00     0.037 A 
BRANCH  56  70
ATOM     70  C   UNL A   1      40.688  33.929  38.568  1.00  0.00     0.057 A 
ATOM     71  C   UNL A   1      41.456  35.099  38.608  1.00  0.00     0.134 A 
ATOM     72  C   UNL A   1      39.951  33.596  39.711  1.00  0.00     0.134 A 
ATOM     73  F   UNL A   1      42.191  35.467  37.548  1.00  0.00    -0.206 F 
ATOM     74  C   UNL A   1      41.504  35.899  39.751  1.00  0.00     0.040 A 
ATOM     75  C   UNL A   1      39.976  34.398  40.852  1.00  0.00     0.040 A 
ATOM     76  F   UNL A   1      39.189  32.491  39.734  1.00  0.00    -0.206 F 
ATOM     77  C   UNL A   1      40.758  35.551  40.876  1.00  0.00     0.006 A 
ENDBRANCH  56  70
BRANCH  57  78
ATOM     78  C   UNL A   1      39.926  28.665  30.171  1.00  0.00     0.057 A 
ATOM     79  C   UNL A   1      39.214  27.462  30.115  1.00  0.00     0.134 A 
ATOM     80  C   UNL A   1      40.550  29.105  28.999  1.00  0.00     0.134 A 
ATOM     81  F   UNL A   1      38.614  26.980  31.212  1.00  0.00    -0.206 F 
ATOM     82  C   UNL A   1      39.136  26.716  28.937  1.00  0.00     0.040 A 
ATOM     83  C   UNL A   1      40.464  28.380  27.810  1.00  0.00     0.040 A 
ATOM     84  F   UNL A   1      41.245  30.252  28.992  1.00  0.00    -0.206 F 
ATOM     85  C   UNL A   1      39.758  27.178  27.779  1.00  0.00     0.006 A 
ENDBRANCH  57  78
BRANCH  69  86
ATOM     86  C   UNL A   1      44.458  28.639  35.444  1.00  0.00     0.057 A 
ATOM     87  C   UNL A   1      45.730  29.061  35.038  1.00  0.00     0.134 A 
ATOM     88  C   UNL A   1      44.370  27.434  36.153  1.00  0.00     0.134 A 
ATOM     89  F   UNL A   1      45.878  30.199  34.345  1.00  0.00    -0.206 F 
ATOM     90  C   UNL A   1      46.870  28.303  35.310  1.00  0.00     0.040 A 
ATOM     91  C   UNL A   1      45.506  26.678  36.448  1.00  0.00     0.040 A 
ATOM     92  F   UNL A   1      43.182  26.978  36.576  1.00  0.00    -0.206 F 
ATOM     93  C   UNL A   1      46.761  27.111  36.022  1.00  0.00     0.006 A 
ENDBRANCH  69  86
ENDBRANCH  43  44
ENDBRANCH  35  38
ENDBRANCH  33  34
ENDBRANCH  32  33
ENDBRANCH   1  32
TORSDOF 14
ENDMDL
MODEL 2
REMARK VINA RESULT:     -12.8      2.923      9.079
REMARK SMILES COc1ccc(-c2cc([C@@H]3CC[N@@H+](CC(=O)NCCCNC(=O)c4ccc(-c5c6nc(c(-c7c(F)cccc7F)c7ccc([nH]7)c(-c7c(F)cccc7F)c7nc(c(-c8c(F)cccc8F)c8ccc5[nH]8)C=C7)C=C6)cc4)C3)ccn2)c2ccc(C)nc12
REMARK SMILES IDX 18 1 17 2 15 3 16 4 14 6 13 7 10 8 11 9 78 10 12 11 9 13
REMARK SMILES IDX 7 14 8 15 81 16 80 17 79 18 6 19 3 20 4 21 88 22 5 23 82 24
REMARK SMILES IDX 87 25 83 26 85 27 84 28 86 29 2 30 1 31 19 32 20 33 21 34
REMARK SMILES IDX 22 35 23 37 24 38 25 39 77 40 26 41 76 42 27 43 28 44 29 45
REMARK SMILES IDX 70 46 30 47 75 48 69 49 71 50 31 51 74 52 68 53 67 54 32 56
REMARK SMILES IDX 58 57 41 58 57 59 42 60 45 61 56 62 72 63 43 64 44 65 55 67
REMARK SMILES IDX 73 68 46 69 33 70 34 71 39 72 35 73 36 74 38 75 40 76 37 77
REMARK SMILES IDX 59 78 60 79 65 80 61 81 62 82 64 83 66 84 63 85 47 86 48 87
REMARK SMILES IDX 53 88 49 89 50 90 52 91 54 92 51 93
REMARK H PARENT 17 5 13 12 21 36 71 55 45 66
REMARK Flexibility Score: inf
ROOT
ATOM      1  C   UNL A   1      42.110  21.081  26.537  1.00  0.00     0.118 C 
ENDROOT
BRANCH   1   2
ATOM      2  N   UNL A   1      41.317  22.136  27.156  1.00  0.00    -0.351 N 
ATOM      3  C   UNL A   1      40.028  22.555  26.987  1.00  0.00     0.275 C 
ATOM      4  O   UNL A   1      39.664  23.516  27.674  1.00  0.00    -0.269 OA
ATOM      5  H   UNL A   1      41.811  22.650  27.835  1.00  0.00     0.163 HD
BRANCH   3   6
ATOM      6  C   UNL A   1      39.075  21.901  25.979  1.00  0.00     0.363 C 
BRANCH   6   7
ATOM      7  N   UNL A   1      37.651  22.294  26.098  1.00  0.00    -0.327 N 
ATOM      8  C   UNL A   1      36.337  22.946  24.140  1.00  0.00     0.080 C 
ATOM      9  C   UNL A   1      36.407  21.423  24.284  1.00  0.00     0.075 C 
ATOM     10  C   UNL A   1      37.239  23.460  25.287  1.00  0.00     0.271 C 
ATOM     11  C   UNL A   1      36.746  21.208  25.752  1.00  0.00     0.263 C 
ATOM     12  H   UNL A   1      37.582  22.547  27.084  1.00  0.00     0.348 HD
BRANCH   8  13
ATOM     13  C   UNL A   1      34.869  23.340  24.163  1.00  0.00    -0.035 A 
ATOM     14  C   UNL A   1      33.190  25.034  24.600  1.00  0.00     0.071 A 
ATOM     15  C   UNL A   1      34.490  24.681  24.237  1.00  0.00     0.033 A 
ATOM     16  N   UNL A   1      32.233  24.103  24.812  1.00  0.00    -0.256 NA
ATOM     17  C   UNL A   1      32.590  22.806  24.663  1.00  0.00     0.112 A 
ATOM     18  C   UNL A   1      33.876  22.380  24.358  1.00  0.00     0.024 A 
BRANCH  14  19
ATOM     19  C   UNL A   1      32.879  26.429  24.975  1.00  0.00     0.010 A 
ATOM     20  C   UNL A   1      32.637  29.171  25.493  1.00  0.00     0.145 A 
ATOM     21  C   UNL A   1      33.621  28.424  26.142  1.00  0.00     0.049 A 
ATOM     22  C   UNL A   1      31.763  28.594  24.556  1.00  0.00     0.113 A 
ATOM     23  C   UNL A   1      33.738  27.066  25.887  1.00  0.00     0.015 A 
ATOM     24  C   UNL A   1      31.858  27.198  24.333  1.00  0.00     0.013 A 
ATOM     25  N   UNL A   1      30.876  29.353  23.866  1.00  0.00    -0.249 NA
ATOM     26  C   UNL A   1      30.916  26.635  23.446  1.00  0.00     0.013 A 
ATOM     27  C   UNL A   1      30.044  28.786  22.964  1.00  0.00     0.038 A 
ATOM     28  C   UNL A   1      30.012  27.425  22.751  1.00  0.00     0.024 A 
ATOM     29  C   UNL A   1      29.119  29.702  22.224  1.00  0.00     0.067 C 
BRANCH  20  30
ATOM     30  O   UNL A   1      32.661  30.512  25.822  1.00  0.00    -0.494 OA
ATOM     31  C   UNL A   1      31.761  30.855  26.874  1.00  0.00     0.278 C 
ENDBRANCH  20  30
ENDBRANCH  14  19
ENDBRANCH   8  13
ENDBRANCH   6   7
ENDBRANCH   3   6
ENDBRANCH   1   2
BRANCH   1  32
ATOM     32  C   UNL A   1      43.264  21.569  25.640  1.00  0.00     0.042 C 
BRANCH  32  33
ATOM     33  C   UNL A   1      43.057  22.895  24.907  1.00  0.00     0.118 C 
BRANCH  33  34
ATOM     34  N   UNL A   1      44.308  23.595  24.706  1.00  0.00    -0.352 N 
ATOM     35  C   UNL A   1      44.682  24.849  25.122  1.00  0.00     0.251 C 
ATOM     36  H   UNL A   1      44.988  23.101  24.195  1.00  0.00     0.163 HD
ATOM     37  O   UNL A   1      45.680  25.365  24.627  1.00  0.00    -0.269 OA
BRANCH  35  38
ATOM     38  C   UNL A   1      43.922  25.595  26.159  1.00  0.00     0.039 A 
ATOM     39  C   UNL A   1      44.160  26.968  26.292  1.00  0.00     0.014 A 
ATOM     40  C   UNL A   1      43.088  24.951  27.081  1.00  0.00     0.014 A 
ATOM     41  C   UNL A   1      43.574  27.692  27.336  1.00  0.00     0.010 A 
ATOM     42  C   UNL A   1      42.472  25.684  28.105  1.00  0.00     0.010 A 
ATOM     43  C   UNL A   1      42.729  27.056  28.258  1.00  0.00    -0.014 A 
BRANCH  43  44
ATOM     44  C   UNL A   1      42.161  27.813  29.407  1.00  0.00     0.031 A 
ATOM     45  C   UNL A   1      42.817  27.749  30.761  1.00  0.00     0.074 A 
ATOM     46  C   UNL A   1      41.053  28.560  29.245  1.00  0.00     0.049 A 
ATOM     47  N   UNL A   1      42.467  28.335  31.880  1.00  0.00    -0.248 NA
ATOM     48  C   UNL A   1      44.019  26.909  30.876  1.00  0.00     0.031 C 
ATOM     49  C   UNL A   1      40.304  28.700  27.997  1.00  0.00     0.029 A 
ATOM     50  N   UNL A   1      40.363  29.342  30.139  1.00  0.00    -0.354 N 
ATOM     51  C   UNL A   1      43.395  27.930  32.830  1.00  0.00     0.074 A 
ATOM     52  C   UNL A   1      44.306  27.020  32.165  1.00  0.00     0.031 C 
ATOM     53  C   UNL A   1      39.264  29.525  28.202  1.00  0.00     0.029 A 
ATOM     54  C   UNL A   1      39.260  29.955  29.598  1.00  0.00     0.049 A 
ATOM     55  H   UNL A   1      40.633  29.451  31.080  1.00  0.00     0.167 HD
ATOM     56  C   UNL A   1      43.496  28.292  34.132  1.00  0.00     0.037 A 
ATOM     57  C   UNL A   1      38.348  30.770  30.161  1.00  0.00     0.037 A 
ATOM     58  C   UNL A   1      42.612  29.214  34.799  1.00  0.00     0.049 A 
ATOM     59  C   UNL A   1      38.476  31.154  31.608  1.00  0.00     0.074 A 
ATOM     60  C   UNL A   1      42.669  29.672  36.104  1.00  0.00     0.029 A 
ATOM     61  N   UNL A   1      41.511  29.816  34.213  1.00  0.00    -0.354 N 
ATOM     62  N   UNL A   1      39.389  30.801  32.479  1.00  0.00    -0.248 NA
ATOM     63  C   UNL A   1      37.450  32.059  32.148  1.00  0.00     0.031 C 
ATOM     64  C   UNL A   1      41.584  30.531  36.316  1.00  0.00     0.029 A 
ATOM     65  C   UNL A   1      40.871  30.630  35.134  1.00  0.00     0.049 A 
ATOM     66  H   UNL A   1      41.226  29.685  33.279  1.00  0.00     0.167 HD
ATOM     67  C   UNL A   1      39.061  31.452  33.660  1.00  0.00     0.074 A 
ATOM     68  C   UNL A   1      37.871  32.234  33.393  1.00  0.00     0.031 C 
ATOM     69  C   UNL A   1      39.690  31.406  34.859  1.00  0.00     0.037 A 
BRANCH  56  70
ATOM     70  C   UNL A   1      44.614  27.690  34.931  1.00  0.00     0.057 A 
ATOM     71  C   UNL A   1      45.862  28.316  35.037  1.00  0.00     0.134 A 
ATOM     72  C   UNL A   1      44.426  26.495  35.638  1.00  0.00     0.134 A 
ATOM     73  F   UNL A   1      46.107  29.458  34.377  1.00  0.00    -0.206 F 
ATOM     74  C   UNL A   1      46.891  27.765  35.802  1.00  0.00     0.040 A 
ATOM     75  C   UNL A   1      45.440  25.945  36.421  1.00  0.00     0.040 A 
ATOM     76  F   UNL A   1      43.250  25.849  35.584  1.00  0.00    -0.206 F 
ATOM     77  C   UNL A   1      46.679  26.578  36.501  1.00  0.00     0.006 A 
ENDBRANCH  56  70
BRANCH  57  78
ATOM     78  C   UNL A   1      37.229  31.297  29.342  1.00  0.00     0.057 A 
ATOM     79  C   UNL A   1      37.291  32.573  28.772  1.00  0.00     0.134 A 
ATOM     80  C   UNL A   1      36.074  30.541  29.116  1.00  0.00     0.134 A 
ATOM     81  F   UNL A   1      38.364  33.351  28.974  1.00  0.00    -0.206 F 
ATOM     82  C   UNL A   1      36.237  33.084  28.014  1.00  0.00     0.040 A 
ATOM     83  C   UNL A   1      35.020  31.032  28.344  1.00  0.00     0.040 A 
ATOM     84  F   UNL A   1      35.958  29.310  29.635  1.00  0.00    -0.206 F 
ATOM     85  C   UNL A   1      35.099  32.310  27.794  1.00  0.00     0.006 A 
ENDBRANCH  57  78
BRANCH  69  86
ATOM     86  C   UNL A   1      39.121  32.241  35.966  1.00  0.00     0.057 A 
ATOM     87  C   UNL A   1      38.204  31.716  36.885  1.00  0.00     0.134 A 
ATOM     88  C   UNL A   1      39.517  33.573  36.134  1.00  0.00     0.134 A 
ATOM     89  F   UNL A   1      37.776  30.450  36.770  1.00  0.00    -0.206 F 
ATOM     90  C   UNL A   1      37.686  32.494  37.922  1.00  0.00     0.040 A 
ATOM     91  C   UNL A   1      39.020  34.354  37.179  1.00  0.00     0.040 A 
ATOM     92  F   UNL A   1      40.397  34.134  35.292  1.00  0.00    -0.206 F 
ATOM     93  C   UNL A   1      38.098  33.815  38.075  1.00  0.00     0.006 A 
ENDBRANCH  69  86
ENDBRANCH  43  44
ENDBRANCH  35  38
ENDBRANCH  33  34
ENDBRANCH  32  33
ENDBRANCH   1  32
TORSDOF 14
ENDMDL
MODEL 3
REMARK VINA RESULT:     -12.7      0.356      6.031
REMARK SMILES COc1ccc(-c2cc([C@@H]3CC[N@@H+](CC(=O)NCCCNC(=O)c4ccc(-c5c6nc(c(-c7c(F)cccc7F)c7ccc([nH]7)c(-c7c(F)cccc7F)c7nc(c(-c8c(F)cccc8F)c8ccc5[nH]8)C=C7)C=C6)cc4)C3)ccn2)c2ccc(C)nc12
REMARK SMILES IDX 18 1 17 2 15 3 16 4 14 6 13 7 10 8 11 9 78 10 12 11 9 13
REMARK SMILES IDX 7 14 8 15 81 16 80 17 79 18 6 19 3 20 4 21 88 22 5 23 82 24
REMARK SMILES IDX 87 25 83 26 85 27 84 28 86 29 2 30 1 31 19 32 20 33 21 34
REMARK SMILES IDX 22 35 23 37 24 38 25 39 77 40 26 41 76 42 27 43 28 44 29 45
REMARK SMILES IDX 70 46 30 47 75 48 69 49 71 50 31 51 74 52 68 53 67 54 32 56
REMARK SMILES IDX 58 57 41 58 57 59 42 60 45 61 56 62 72 63 43 64 44 65 55 67
REMARK SMILES IDX 73 68 46 69 33 70 34 71 39 72 35 73 36 74 38 75 40 76 37 77
REMARK SMILES IDX 59 78 60 79 65 80 61 81 62 82 64 83 66 84 63 85 47 86 48 87
REMARK SMILES IDX 53 88 49 89 50 90 52 91 54 92 51 93
REMARK H PARENT 17 5 13 12 21 36 71 55 45 66
REMARK Flexibility Score: inf
ROOT
ATOM      1  C   UNL A   1      34.195  34.588  27.666  1.00  0.00     0.118 C 
ENDROOT
BRANCH   1   2
ATOM      2  N   UNL A   1      35.373  33.766  27.912  1.00  0.00    -0.351 N 
ATOM      3  C   UNL A   1      35.551  32.427  28.117  1.00  0.00     0.275 C 
ATOM      4  O   UNL A   1      36.710  32.047  28.321  1.00  0.00    -0.269 OA
ATOM      5  H   UNL A   1      36.212  34.281  27.935  1.00  0.00     0.163 HD
BRANCH   3   6
ATOM      6  C   UNL A   1      34.383  31.434  28.127  1.00  0.00     0.363 C 
BRANCH   6   7
ATOM      7  N   UNL A   1      34.214  30.634  26.890  1.00  0.00    -0.327 N 
ATOM      8  C   UNL A   1      33.765  28.230  26.976  1.00  0.00     0.080 C 
ATOM      9  C   UNL A   1      32.483  29.046  27.173  1.00  0.00     0.075 C 
ATOM     10  C   UNL A   1      34.871  29.309  26.891  1.00  0.00     0.271 C 
ATOM     11  C   UNL A   1      32.814  30.402  26.567  1.00  0.00     0.263 C 
ATOM     12  H   UNL A   1      34.673  31.220  26.193  1.00  0.00     0.348 HD
BRANCH   8  13
ATOM     13  C   UNL A   1      33.555  27.336  25.764  1.00  0.00    -0.035 A 
ATOM     14  C   UNL A   1      33.684  25.124  24.779  1.00  0.00     0.071 A 
ATOM     15  C   UNL A   1      33.532  25.947  25.895  1.00  0.00     0.033 A 
ATOM     16  N   UNL A   1      33.776  25.630  23.529  1.00  0.00    -0.256 NA
ATOM     17  C   UNL A   1      33.720  26.977  23.403  1.00  0.00     0.112 A 
ATOM     18  C   UNL A   1      33.625  27.858  24.472  1.00  0.00     0.024 A 
BRANCH  14  19
ATOM     19  C   UNL A   1      33.968  23.684  24.954  1.00  0.00     0.010 A 
ATOM     20  C   UNL A   1      34.478  20.932  24.877  1.00  0.00     0.145 A 
ATOM     21  C   UNL A   1      33.203  21.412  24.579  1.00  0.00     0.049 A 
ATOM     22  C   UNL A   1      35.540  21.794  25.198  1.00  0.00     0.113 A 
ATOM     23  C   UNL A   1      32.950  22.775  24.620  1.00  0.00     0.015 A 
ATOM     24  C   UNL A   1      35.265  23.181  25.282  1.00  0.00     0.013 A 
ATOM     25  N   UNL A   1      36.795  21.316  25.393  1.00  0.00    -0.249 NA
ATOM     26  C   UNL A   1      36.334  24.013  25.682  1.00  0.00     0.013 A 
ATOM     27  C   UNL A   1      37.809  22.158  25.697  1.00  0.00     0.038 A 
ATOM     28  C   UNL A   1      37.610  23.508  25.883  1.00  0.00     0.024 A 
ATOM     29  C   UNL A   1      39.167  21.551  25.864  1.00  0.00     0.067 C 
BRANCH  20  30
ATOM     30  O   UNL A   1      34.587  19.560  24.765  1.00  0.00    -0.494 OA
ATOM     31  C   UNL A   1      33.365  18.920  24.403  1.00  0.00     0.278 C 
ENDBRANCH  20  30
ENDBRANCH  14  19
ENDBRANCH   8  13
ENDBRANCH   6   7
ENDBRANCH   3   6
ENDBRANCH   1   2
BRANCH   1  32
ATOM     32  C   UNL A   1      33.273  34.794  28.883  1.00  0.00     0.042 C 
BRANCH  32  33
ATOM     33  C   UNL A   1      33.514  36.045  29.729  1.00  0.00     0.118 C 
BRANCH  33  34
ATOM     34  N   UNL A   1      32.535  36.171  30.788  1.00  0.00    -0.352 N 
ATOM     35  C   UNL A   1      32.512  35.585  32.029  1.00  0.00     0.251 C 
ATOM     36  H   UNL A   1      31.774  36.763  30.588  1.00  0.00     0.163 HD
ATOM     37  O   UNL A   1      31.469  35.607  32.677  1.00  0.00    -0.269 OA
BRANCH  35  38
ATOM     38  C   UNL A   1      33.714  34.934  32.615  1.00  0.00     0.039 A 
ATOM     39  C   UNL A   1      34.947  35.584  32.484  1.00  0.00     0.014 A 
ATOM     40  C   UNL A   1      33.672  33.648  33.167  1.00  0.00     0.014 A 
ATOM     41  C   UNL A   1      36.127  34.956  32.897  1.00  0.00     0.010 A 
ATOM     42  C   UNL A   1      34.851  33.035  33.614  1.00  0.00     0.010 A 
ATOM     43  C   UNL A   1      36.092  33.672  33.460  1.00  0.00    -0.014 A 
BRANCH  43  44
ATOM     44  C   UNL A   1      37.355  32.979  33.836  1.00  0.00     0.031 A 
ATOM     45  C   UNL A   1      37.955  31.940  32.925  1.00  0.00     0.074 A 
ATOM     46  C   UNL A   1      37.970  33.275  34.996  1.00  0.00     0.049 A 
ATOM     47  N   UNL A   1      39.044  31.229  33.084  1.00  0.00    -0.248 NA
ATOM     48  C   UNL A   1      37.230  31.656  31.677  1.00  0.00     0.031 C 
ATOM     49  C   UNL A   1      37.495  34.245  35.981  1.00  0.00     0.029 A 
ATOM     50  N   UNL A   1      39.131  32.783  35.543  1.00  0.00    -0.354 N 
ATOM     51  C   UNL A   1      39.131  30.410  31.966  1.00  0.00     0.074 A 
ATOM     52  C   UNL A   1      37.966  30.687  31.151  1.00  0.00     0.031 C 
ATOM     53  C   UNL A   1      38.360  34.284  37.008  1.00  0.00     0.029 A 
ATOM     54  C   UNL A   1      39.439  33.330  36.764  1.00  0.00     0.049 A 
ATOM     55  H   UNL A   1      39.689  32.103  35.101  1.00  0.00     0.167 HD
ATOM     56  C   UNL A   1      40.099  29.521  31.634  1.00  0.00     0.037 A 
ATOM     57  C   UNL A   1      40.471  33.090  37.595  1.00  0.00     0.037 A 
ATOM     58  C   UNL A   1      41.274  29.253  32.423  1.00  0.00     0.049 A 
ATOM     59  C   UNL A   1      41.529  32.096  37.209  1.00  0.00     0.074 A 
ATOM     60  C   UNL A   1      42.328  28.402  32.138  1.00  0.00     0.029 A 
ATOM     61  N   UNL A   1      41.549  29.832  33.650  1.00  0.00    -0.354 N 
ATOM     62  N   UNL A   1      41.622  31.366  36.125  1.00  0.00    -0.248 NA
ATOM     63  C   UNL A   1      42.633  31.898  38.161  1.00  0.00     0.031 C 
ATOM     64  C   UNL A   1      43.229  28.444  33.210  1.00  0.00     0.029 A 
ATOM     65  C   UNL A   1      42.749  29.345  34.145  1.00  0.00     0.049 A 
ATOM     66  H   UNL A   1      40.977  30.493  34.105  1.00  0.00     0.167 HD
ATOM     67  C   UNL A   1      42.798  30.641  36.253  1.00  0.00     0.074 A 
ATOM     68  C   UNL A   1      43.394  31.025  37.516  1.00  0.00     0.031 C 
ATOM     69  C   UNL A   1      43.336  29.736  35.400  1.00  0.00     0.037 A 
BRANCH  56  70
ATOM     70  C   UNL A   1      39.931  28.766  30.348  1.00  0.00     0.057 A 
ATOM     71  C   UNL A   1      39.217  27.563  30.291  1.00  0.00     0.134 A 
ATOM     72  C   UNL A   1      40.448  29.271  29.149  1.00  0.00     0.134 A 
ATOM     73  F   UNL A   1      38.705  27.023  31.407  1.00  0.00    -0.206 F 
ATOM     74  C   UNL A   1      39.041  26.877  29.088  1.00  0.00     0.040 A 
ATOM     75  C   UNL A   1      40.261  28.605  27.937  1.00  0.00     0.040 A 
ATOM     76  F   UNL A   1      41.136  30.424  29.134  1.00  0.00    -0.206 F 
ATOM     77  C   UNL A   1      39.560  27.401  27.906  1.00  0.00     0.006 A 
ENDBRANCH  56  70
BRANCH  57  78
ATOM     78  C   UNL A   1      40.564  33.823  38.881  1.00  0.00     0.057 A 
ATOM     79  C   UNL A   1      41.351  34.974  39.000  1.00  0.00     0.134 A 
ATOM     80  C   UNL A   1      39.875  33.387  40.018  1.00  0.00     0.134 A 
ATOM     81  F   UNL A   1      42.051  35.424  37.950  1.00  0.00    -0.206 F 
ATOM     82  C   UNL A   1      41.458  35.660  40.211  1.00  0.00     0.040 A 
ATOM     83  C   UNL A   1      39.958  34.075  41.229  1.00  0.00     0.040 A 
ATOM     84  F   UNL A   1      39.104  32.291  39.964  1.00  0.00    -0.206 F 
ATOM     85  C   UNL A   1      40.756  35.214  41.328  1.00  0.00     0.006 A 
ENDBRANCH  57  78
BRANCH  69  86
ATOM     86  C   UNL A   1      44.644  29.117  35.790  1.00  0.00     0.057 A 
ATOM     87  C   UNL A   1      44.704  27.927  36.527  1.00  0.00     0.134 A 
ATOM     88  C   UNL A   1      45.856  29.698  35.398  1.00  0.00     0.134 A 
ATOM     89  F   UNL A   1      43.578  27.328  36.942  1.00  0.00    -0.206 F 
ATOM     90  C   UNL A   1      45.925  27.348  36.877  1.00  0.00     0.040 A 
ATOM     91  C   UNL A   1      47.083  29.117  35.726  1.00  0.00     0.040 A 
ATOM     92  F   UNL A   1      45.867  30.834  34.686  1.00  0.00    -0.206 F 
ATOM     93  C   UNL A   1      47.119  27.940  36.471  1.00  0.00     0.006 A 
ENDBRANCH  69  86
ENDBRANCH  43  44
ENDBRANCH  35  38
ENDBRANCH  33  34
ENDBRANCH  32  33
ENDBRANCH   1  32
TORSDOF 14
ENDMDL
