MODEL 1
REMARK VINA RESULT:     -11.6      0.000      0.000
REMARK SMILES O=C(CCc1cccnc1)Nc1cccc(F)c1C(=O)NCCCNC(=O)c1ccc(-c2c3nc(c(-c4c(F)cccc4F)c4ccc([nH]4)c(-c4c(F)cccc4F)c4nc(c(-c5c(F)cccc5F)c5ccc2[nH]5)C=C4)C=C3)cc1
REMARK SMILES IDX 22 1 21 2 19 3 20 4 18 6 12 7 13 8 14 9 16 10 15 11 17 12
REMARK SMILES IDX 11 13 1 14 2 15 3 17 4 18 5 19 6 20 10 21 7 22 9 23 8 24
REMARK SMILES IDX 23 25 24 26 25 27 26 28 27 30 28 31 29 32 81 33 30 34 80 35
REMARK SMILES IDX 31 36 32 37 33 38 74 39 34 40 79 41 73 42 75 43 35 44 78 45
REMARK SMILES IDX 72 46 71 47 36 49 62 50 45 51 61 52 46 53 49 54 60 55 76 56
REMARK SMILES IDX 47 57 48 58 59 60 77 61 50 62 37 63 38 64 43 65 39 66 40 67
REMARK SMILES IDX 42 68 44 69 41 70 63 71 64 72 69 73 65 74 66 75 68 76 70 77
REMARK SMILES IDX 67 78 51 79 52 80 57 81 53 82 54 83 56 84 58 85 55 86
REMARK H PARENT 21 5 11 16 25 29 75 48 49 59
REMARK Flexibility Score: inf
ROOT
ATOM      1  C   UNL A   1      31.773  30.324  26.882  1.00  0.00     0.118 C 
ENDROOT
BRANCH   1   2
ATOM      2  N   UNL A   1      32.885  29.997  25.999  1.00  0.00    -0.352 N 
ATOM      3  C   UNL A   1      32.859  29.049  24.984  1.00  0.00     0.256 C 
ATOM      4  O   UNL A   1      33.226  29.397  23.864  1.00  0.00    -0.269 OA
ATOM      5  H   UNL A   1      33.727  30.489  26.133  1.00  0.00     0.163 HD
BRANCH   3   6
ATOM      6  C   UNL A   1      32.599  27.612  25.248  1.00  0.00     0.099 A 
ATOM      7  C   UNL A   1      31.320  27.043  25.029  1.00  0.00     0.056 A 
ATOM      8  C   UNL A   1      31.081  25.699  25.359  1.00  0.00     0.027 A 
ATOM      9  C   UNL A   1      32.096  24.909  25.892  1.00  0.00     0.005 A 
ATOM     10  C   UNL A   1      33.558  26.827  25.888  1.00  0.00     0.138 A 
ATOM     11  C   UNL A   1      33.335  25.478  26.163  1.00  0.00     0.040 A 
ATOM     12  F   UNL A   1      34.707  27.352  26.336  1.00  0.00    -0.206 F 
BRANCH   7  13
ATOM     13  N   UNL A   1      30.249  27.724  24.408  1.00  0.00    -0.325 N 
ATOM     14  O   UNL A   1      30.810  27.177  22.234  1.00  0.00    -0.275 OA
ATOM     15  C   UNL A   1      30.061  27.730  23.036  1.00  0.00     0.224 C 
ATOM     16  H   UNL A   1      29.609  28.214  24.975  1.00  0.00     0.169 HD
BRANCH  15  17
ATOM     17  C   UNL A   1      28.845  28.523  22.564  1.00  0.00     0.105 C 
BRANCH  17  18
ATOM     18  C   UNL A   1      28.645  29.878  23.259  1.00  0.00     0.047 C 
BRANCH  18  19
ATOM     19  C   UNL A   1      28.355  31.026  22.320  1.00  0.00    -0.029 A 
ATOM     20  C   UNL A   1      28.112  30.811  20.968  1.00  0.00     0.007 A 
ATOM     21  C   UNL A   1      28.333  32.350  22.736  1.00  0.00     0.114 A 
ATOM     22  C   UNL A   1      27.746  31.844  20.118  1.00  0.00     0.020 A 
ATOM     23  N   UNL A   1      28.017  33.395  21.931  1.00  0.00    -0.264 NA
ATOM     24  C   UNL A   1      27.713  33.116  20.645  1.00  0.00     0.111 A 
ENDBRANCH  18  19
ENDBRANCH  17  18
ENDBRANCH  15  17
ENDBRANCH   7  13
ENDBRANCH   3   6
ENDBRANCH   1   2
BRANCH   1  25
ATOM     25  C   UNL A   1      31.342  31.784  26.877  1.00  0.00     0.042 C 
BRANCH  25  26
ATOM     26  C   UNL A   1      32.412  32.802  26.497  1.00  0.00     0.118 C 
BRANCH  26  27
ATOM     27  N   UNL A   1      32.372  34.022  27.298  1.00  0.00    -0.352 N 
ATOM     28  C   UNL A   1      33.097  34.420  28.396  1.00  0.00     0.251 C 
ATOM     29  H   UNL A   1      31.704  34.679  26.996  1.00  0.00     0.163 HD
ATOM     30  O   UNL A   1      32.757  35.445  28.995  1.00  0.00    -0.269 OA
BRANCH  28  31
ATOM     31  C   UNL A   1      34.257  33.648  28.895  1.00  0.00     0.039 A 
ATOM     32  C   UNL A   1      35.535  34.218  28.826  1.00  0.00     0.014 A 
ATOM     33  C   UNL A   1      34.114  32.350  29.384  1.00  0.00     0.014 A 
ATOM     34  C   UNL A   1      36.643  33.521  29.320  1.00  0.00     0.010 A 
ATOM     35  C   UNL A   1      35.198  31.697  29.967  1.00  0.00     0.010 A 
ATOM     36  C   UNL A   1      36.478  32.272  29.938  1.00  0.00    -0.014 A 
BRANCH  36  37
ATOM     37  C   UNL A   1      37.621  31.540  30.546  1.00  0.00     0.031 A 
ATOM     38  C   UNL A   1      38.022  31.816  31.972  1.00  0.00     0.074 A 
ATOM     39  C   UNL A   1      38.340  30.677  29.801  1.00  0.00     0.049 A 
ATOM     40  N   UNL A   1      39.049  31.361  32.645  1.00  0.00    -0.248 NA
ATOM     41  C   UNL A   1      37.174  32.747  32.735  1.00  0.00     0.031 C 
ATOM     42  C   UNL A   1      38.077  30.345  28.400  1.00  0.00     0.029 A 
ATOM     43  N   UNL A   1      39.446  29.925  30.116  1.00  0.00    -0.354 N 
ATOM     44  C   UNL A   1      38.974  31.958  33.897  1.00  0.00     0.074 A 
ATOM     45  C   UNL A   1      37.841  32.855  33.873  1.00  0.00     0.031 C 
ATOM     46  C   UNL A   1      38.970  29.432  27.987  1.00  0.00     0.029 A 
ATOM     47  C   UNL A   1      39.901  29.149  29.076  1.00  0.00     0.049 A 
ATOM     48  H   UNL A   1      39.874  29.941  31.002  1.00  0.00     0.167 HD
ATOM     49  C   UNL A   1      39.759  31.752  34.981  1.00  0.00     0.037 A 
ATOM     50  C   UNL A   1      40.951  28.308  29.004  1.00  0.00     0.037 A 
ATOM     51  C   UNL A   1      40.867  30.835  35.014  1.00  0.00     0.049 A 
ATOM     52  C   UNL A   1      41.825  28.119  30.214  1.00  0.00     0.074 A 
ATOM     53  C   UNL A   1      41.698  30.530  36.077  1.00  0.00     0.029 A 
ATOM     54  N   UNL A   1      41.291  30.069  33.940  1.00  0.00    -0.354 N 
ATOM     55  N   UNL A   1      41.720  28.664  31.401  1.00  0.00    -0.248 NA
ATOM     56  C   UNL A   1      42.964  27.199  30.076  1.00  0.00     0.031 C 
ATOM     57  C   UNL A   1      42.655  29.613  35.634  1.00  0.00     0.029 A 
ATOM     58  C   UNL A   1      42.383  29.303  34.311  1.00  0.00     0.049 A 
ATOM     59  H   UNL A   1      40.878  30.069  33.046  1.00  0.00     0.167 HD
ATOM     60  C   UNL A   1      42.753  28.128  32.160  1.00  0.00     0.074 A 
ATOM     61  C   UNL A   1      43.470  27.210  31.301  1.00  0.00     0.031 C 
ATOM     62  C   UNL A   1      43.076  28.377  33.452  1.00  0.00     0.037 A 
BRANCH  49  63
ATOM     63  C   UNL A   1      39.436  32.511  36.237  1.00  0.00     0.057 A 
ATOM     64  C   UNL A   1      38.458  32.047  37.126  1.00  0.00     0.134 A 
ATOM     65  C   UNL A   1      40.038  33.744  36.524  1.00  0.00     0.134 A 
ATOM     66  F   UNL A   1      37.838  30.878  36.908  1.00  0.00    -0.206 F 
ATOM     67  C   UNL A   1      38.080  32.789  38.247  1.00  0.00     0.040 A 
ATOM     68  C   UNL A   1      39.688  34.481  37.656  1.00  0.00     0.040 A 
ATOM     69  F   UNL A   1      40.989  34.240  35.720  1.00  0.00    -0.206 F 
ATOM     70  C   UNL A   1      38.697  34.009  38.515  1.00  0.00     0.006 A 
ENDBRANCH  49  63
BRANCH  50  71
ATOM     71  C   UNL A   1      41.211  27.550  27.752  1.00  0.00     0.057 A 
ATOM     72  C   UNL A   1      40.625  26.302  27.508  1.00  0.00     0.134 A 
ATOM     73  C   UNL A   1      42.070  28.059  26.770  1.00  0.00     0.134 A 
ATOM     74  F   UNL A   1      39.799  25.754  28.411  1.00  0.00    -0.206 F 
ATOM     75  C   UNL A   1      40.893  25.583  26.342  1.00  0.00     0.040 A 
ATOM     76  C   UNL A   1      42.326  27.363  25.587  1.00  0.00     0.040 A 
ATOM     77  F   UNL A   1      42.649  29.258  26.936  1.00  0.00    -0.206 F 
ATOM     78  C   UNL A   1      41.742  26.116  25.374  1.00  0.00     0.006 A 
ENDBRANCH  50  71
BRANCH  62  79
ATOM     79  C   UNL A   1      44.230  27.622  34.044  1.00  0.00     0.057 A 
ATOM     80  C   UNL A   1      44.020  26.386  34.674  1.00  0.00     0.134 A 
ATOM     81  C   UNL A   1      45.524  28.153  34.076  1.00  0.00     0.134 A 
ATOM     82  F   UNL A   1      42.801  25.827  34.690  1.00  0.00    -0.206 F 
ATOM     83  C   UNL A   1      45.054  25.719  35.331  1.00  0.00     0.040 A 
ATOM     84  C   UNL A   1      46.572  27.481  34.706  1.00  0.00     0.040 A 
ATOM     85  F   UNL A   1      45.792  29.327  33.483  1.00  0.00    -0.206 F 
ATOM     86  C   UNL A   1      46.335  26.266  35.347  1.00  0.00     0.006 A 
ENDBRANCH  62  79
ENDBRANCH  36  37
ENDBRANCH  28  31
ENDBRANCH  26  27
ENDBRANCH  25  26
ENDBRANCH   1  25
TORSDOF 14
ENDMDL
MODEL 2
REMARK VINA RESULT:     -11.5      0.418      6.104
REMARK SMILES O=C(CCc1cccnc1)Nc1cccc(F)c1C(=O)NCCCNC(=O)c1ccc(-c2c3nc(c(-c4c(F)cccc4F)c4ccc([nH]4)c(-c4c(F)cccc4F)c4nc(c(-c5c(F)cccc5F)c5ccc2[nH]5)C=C4)C=C3)cc1
REMARK SMILES IDX 22 1 21 2 19 3 20 4 18 6 12 7 13 8 14 9 16 10 15 11 17 12
REMARK SMILES IDX 11 13 1 14 2 15 3 17 4 18 5 19 6 20 10 21 7 22 9 23 8 24
REMARK SMILES IDX 23 25 24 26 25 27 26 28 27 30 28 31 29 32 81 33 30 34 80 35
REMARK SMILES IDX 31 36 32 37 33 38 74 39 34 40 79 41 73 42 75 43 35 44 78 45
REMARK SMILES IDX 72 46 71 47 36 49 62 50 45 51 61 52 46 53 49 54 60 55 76 56
REMARK SMILES IDX 47 57 48 58 59 60 77 61 50 62 37 63 38 64 43 65 39 66 40 67
REMARK SMILES IDX 42 68 44 69 41 70 63 71 64 72 69 73 65 74 66 75 68 76 70 77
REMARK SMILES IDX 67 78 51 79 52 80 57 81 53 82 54 83 56 84 58 85 55 86
REMARK H PARENT 21 5 11 16 25 29 75 48 49 59
REMARK Flexibility Score: inf
ROOT
ATOM      1  C   UNL A   1      31.792  30.239  26.884  1.00  0.00     0.118 C 
ENDROOT
BRANCH   1   2
ATOM      2  N   UNL A   1      32.885  29.920  25.976  1.00  0.00    -0.352 N 
ATOM      3  C   UNL A   1      32.842  28.971  24.961  1.00  0.00     0.256 C 
ATOM      4  O   UNL A   1      33.180  29.322  23.832  1.00  0.00    -0.269 OA
ATOM      5  H   UNL A   1      33.727  30.418  26.090  1.00  0.00     0.163 HD
BRANCH   3   6
ATOM      6  C   UNL A   1      32.598  27.533  25.231  1.00  0.00     0.099 A 
ATOM      7  C   UNL A   1      31.312  26.961  25.068  1.00  0.00     0.056 A 
ATOM      8  C   UNL A   1      31.091  25.616  25.403  1.00  0.00     0.027 A 
ATOM      9  C   UNL A   1      32.132  24.826  25.887  1.00  0.00     0.005 A 
ATOM     10  C   UNL A   1      33.587  26.748  25.825  1.00  0.00     0.138 A 
ATOM     11  C   UNL A   1      33.379  25.398  26.104  1.00  0.00     0.040 A 
ATOM     12  F   UNL A   1      34.753  27.275  26.223  1.00  0.00    -0.206 F 
BRANCH   7  13
ATOM     13  N   UNL A   1      30.212  27.641  24.498  1.00  0.00    -0.325 N 
ATOM     14  O   UNL A   1      30.787  27.275  22.290  1.00  0.00    -0.275 OA
ATOM     15  C   UNL A   1      30.020  27.739  23.130  1.00  0.00     0.224 C 
ATOM     16  H   UNL A   1      29.555  28.063  25.099  1.00  0.00     0.169 HD
BRANCH  15  17
ATOM     17  C   UNL A   1      28.771  28.513  22.717  1.00  0.00     0.105 C 
BRANCH  17  18
ATOM     18  C   UNL A   1      28.621  29.896  23.370  1.00  0.00     0.047 C 
BRANCH  18  19
ATOM     19  C   UNL A   1      28.355  31.021  22.397  1.00  0.00    -0.029 A 
ATOM     20  C   UNL A   1      28.167  30.776  21.041  1.00  0.00     0.007 A 
ATOM     21  C   UNL A   1      28.301  32.353  22.784  1.00  0.00     0.114 A 
ATOM     22  C   UNL A   1      27.824  31.788  20.156  1.00  0.00     0.020 A 
ATOM     23  N   UNL A   1      28.006  33.378  21.946  1.00  0.00    -0.264 NA
ATOM     24  C   UNL A   1      27.756  33.070  20.656  1.00  0.00     0.111 A 
ENDBRANCH  18  19
ENDBRANCH  17  18
ENDBRANCH  15  17
ENDBRANCH   7  13
ENDBRANCH   3   6
ENDBRANCH   1   2
BRANCH   1  25
ATOM     25  C   UNL A   1      31.353  31.698  26.892  1.00  0.00     0.042 C 
BRANCH  25  26
ATOM     26  C   UNL A   1      32.428  32.727  26.554  1.00  0.00     0.118 C 
BRANCH  26  27
ATOM     27  N   UNL A   1      32.307  33.970  27.308  1.00  0.00    -0.352 N 
ATOM     28  C   UNL A   1      32.996  34.453  28.394  1.00  0.00     0.251 C 
ATOM     29  H   UNL A   1      31.603  34.574  26.977  1.00  0.00     0.163 HD
ATOM     30  O   UNL A   1      32.591  35.476  28.953  1.00  0.00    -0.269 OA
BRANCH  28  31
ATOM     31  C   UNL A   1      34.197  33.771  28.929  1.00  0.00     0.039 A 
ATOM     32  C   UNL A   1      35.452  34.371  28.761  1.00  0.00     0.014 A 
ATOM     33  C   UNL A   1      34.113  32.525  29.551  1.00  0.00     0.014 A 
ATOM     34  C   UNL A   1      36.598  33.763  29.286  1.00  0.00     0.010 A 
ATOM     35  C   UNL A   1      35.237  31.969  30.159  1.00  0.00     0.010 A 
ATOM     36  C   UNL A   1      36.494  32.578  30.030  1.00  0.00    -0.014 A 
BRANCH  36  37
ATOM     37  C   UNL A   1      37.680  31.947  30.671  1.00  0.00     0.031 A 
ATOM     38  C   UNL A   1      38.452  30.879  29.942  1.00  0.00     0.074 A 
ATOM     39  C   UNL A   1      38.023  32.285  31.929  1.00  0.00     0.049 A 
ATOM     40  N   UNL A   1      39.444  30.138  30.370  1.00  0.00    -0.248 NA
ATOM     41  C   UNL A   1      38.039  30.582  28.560  1.00  0.00     0.031 C 
ATOM     42  C   UNL A   1      37.339  33.281  32.755  1.00  0.00     0.029 A 
ATOM     43  N   UNL A   1      39.032  31.822  32.739  1.00  0.00    -0.354 N 
ATOM     44  C   UNL A   1      39.761  29.287  29.319  1.00  0.00     0.074 A 
ATOM     45  C   UNL A   1      38.818  29.555  28.256  1.00  0.00     0.031 C 
ATOM     46  C   UNL A   1      37.967  33.381  33.938  1.00  0.00     0.029 A 
ATOM     47  C   UNL A   1      39.067  32.422  33.976  1.00  0.00     0.049 A 
ATOM     48  H   UNL A   1      39.669  31.125  32.461  1.00  0.00     0.167 HD
ATOM     49  C   UNL A   1      40.768  28.386  29.234  1.00  0.00     0.037 A 
ATOM     50  C   UNL A   1      39.889  32.221  35.024  1.00  0.00     0.037 A 
ATOM     51  C   UNL A   1      41.725  28.143  30.280  1.00  0.00     0.049 A 
ATOM     52  C   UNL A   1      40.982  31.192  34.915  1.00  0.00     0.074 A 
ATOM     53  C   UNL A   1      42.803  27.276  30.273  1.00  0.00     0.029 A 
ATOM     54  N   UNL A   1      41.724  28.773  31.515  1.00  0.00    -0.354 N 
ATOM     55  N   UNL A   1      41.291  30.421  33.901  1.00  0.00    -0.248 NA
ATOM     56  C   UNL A   1      41.842  31.006  36.093  1.00  0.00     0.031 C 
ATOM     57  C   UNL A   1      43.430  27.348  31.520  1.00  0.00     0.029 A 
ATOM     58  C   UNL A   1      42.775  28.302  32.283  1.00  0.00     0.049 A 
ATOM     59  H   UNL A   1      41.074  29.454  31.802  1.00  0.00     0.167 HD
ATOM     60  C   UNL A   1      42.398  29.686  34.305  1.00  0.00     0.074 A 
ATOM     61  C   UNL A   1      42.711  30.107  35.653  1.00  0.00     0.031 C 
ATOM     62  C   UNL A   1      43.090  28.745  33.617  1.00  0.00     0.037 A 
BRANCH  49  63
ATOM     63  C   UNL A   1      40.910  27.610  27.956  1.00  0.00     0.057 A 
ATOM     64  C   UNL A   1      40.358  26.328  27.828  1.00  0.00     0.134 A 
ATOM     65  C   UNL A   1      41.664  28.098  26.881  1.00  0.00     0.134 A 
ATOM     66  F   UNL A   1      39.630  25.797  28.821  1.00  0.00    -0.206 F 
ATOM     67  C   UNL A   1      40.564  25.557  26.682  1.00  0.00     0.040 A 
ATOM     68  C   UNL A   1      41.853  27.348  25.719  1.00  0.00     0.040 A 
ATOM     69  F   UNL A   1      42.211  29.322  26.935  1.00  0.00    -0.206 F 
ATOM     70  C   UNL A   1      41.312  26.067  25.624  1.00  0.00     0.006 A 
ENDBRANCH  49  63
BRANCH  50  71
ATOM     71  C   UNL A   1      39.735  33.038  36.257  1.00  0.00     0.057 A 
ATOM     72  C   UNL A   1      38.889  32.646  37.302  1.00  0.00     0.134 A 
ATOM     73  C   UNL A   1      40.429  34.244  36.410  1.00  0.00     0.134 A 
ATOM     74  F   UNL A   1      38.189  31.506  37.216  1.00  0.00    -0.206 F 
ATOM     75  C   UNL A   1      38.728  33.430  38.446  1.00  0.00     0.040 A 
ATOM     76  C   UNL A   1      40.298  35.025  37.560  1.00  0.00     0.040 A 
ATOM     77  F   UNL A   1      41.268  34.665  35.452  1.00  0.00    -0.206 F 
ATOM     78  C   UNL A   1      39.439  34.621  38.580  1.00  0.00     0.006 A 
ENDBRANCH  50  71
BRANCH  62  79
ATOM     79  C   UNL A   1      44.285  28.128  34.283  1.00  0.00     0.057 A 
ATOM     80  C   UNL A   1      44.143  26.974  35.067  1.00  0.00     0.134 A 
ATOM     81  C   UNL A   1      45.551  28.722  34.228  1.00  0.00     0.134 A 
ATOM     82  F   UNL A   1      42.953  26.363  35.172  1.00  0.00    -0.206 F 
ATOM     83  C   UNL A   1      45.214  26.447  35.788  1.00  0.00     0.040 A 
ATOM     84  C   UNL A   1      46.637  28.187  34.922  1.00  0.00     0.040 A 
ATOM     85  F   UNL A   1      45.755  29.822  33.487  1.00  0.00    -0.206 F 
ATOM     86  C   UNL A   1      46.466  27.053  35.716  1.00  0.00     0.006 A 
ENDBRANCH  62  79
ENDBRANCH  36  37
ENDBRANCH  28  31
ENDBRANCH  26  27
ENDBRANCH  25  26
ENDBRANCH   1  25
TORSDOF 14
ENDMDL
MODEL 3
REMARK VINA RESULT:     -11.5      1.694      6.549
REMARK SMILES O=C(CCc1cccnc1)Nc1cccc(F)c1C(=O)NCCCNC(=O)c1ccc(-c2c3nc(c(-c4c(F)cccc4F)c4ccc([nH]4)c(-c4c(F)cccc4F)c4nc(c(-c5c(F)cccc5F)c5ccc2[nH]5)C=C4)C=C3)cc1
REMARK SMILES IDX 22 1 21 2 19 3 20 4 18 6 12 7 13 8 14 9 16 10 15 11 17 12
REMARK SMILES IDX 11 13 1 14 2 15 3 17 4 18 5 19 6 20 10 21 7 22 9 23 8 24
REMARK SMILES IDX 23 25 24 26 25 27 26 28 27 30 28 31 29 32 81 33 30 34 80 35
REMARK SMILES IDX 31 36 32 37 33 38 74 39 34 40 79 41 73 42 75 43 35 44 78 45
REMARK SMILES IDX 72 46 71 47 36 49 62 50 45 51 61 52 46 53 49 54 60 55 76 56
REMARK SMILES IDX 47 57 48 58 59 60 77 61 50 62 37 63 38 64 43 65 39 66 40 67
REMARK SMILES IDX 42 68 44 69 41 70 63 71 64 72 69 73 65 74 66 75 68 76 70 77
REMARK SMILES IDX 67 78 51 79 52 80 57 81 53 82 54 83 56 84 58 85 55 86
REMARK H PARENT 21 5 11 16 25 29 75 48 49 59
REMARK Flexibility Score: inf
ROOT
ATOM      1  C   UNL A   1      32.162  27.325  26.855  1.00  0.00     0.118 C 
ENDROOT
BRANCH   1   2
ATOM      2  N   UNL A   1      31.455  26.097  26.515  1.00  0.00    -0.352 N 
ATOM      3  C   UNL A   1      31.996  24.818  26.550  1.00  0.00     0.256 C 
ATOM      4  O   UNL A   1      31.384  23.952  27.173  1.00  0.00    -0.269 OA
ATOM      5  H   UNL A   1      30.514  26.180  26.237  1.00  0.00     0.163 HD
BRANCH   3   6
ATOM      6  C   UNL A   1      33.156  24.424  25.712  1.00  0.00     0.099 A 
ATOM      7  C   UNL A   1      33.144  24.608  24.307  1.00  0.00     0.056 A 
ATOM      8  C   UNL A   1      34.222  24.158  23.529  1.00  0.00     0.027 A 
ATOM      9  C   UNL A   1      35.317  23.539  24.126  1.00  0.00     0.005 A 
ATOM     10  C   UNL A   1      34.212  23.700  26.264  1.00  0.00     0.138 A 
ATOM     11  C   UNL A   1      35.307  23.304  25.496  1.00  0.00     0.040 A 
ATOM     12  F   UNL A   1      34.187  23.286  27.538  1.00  0.00    -0.206 F 
BRANCH   7  13
ATOM     13  N   UNL A   1      32.131  25.305  23.610  1.00  0.00    -0.325 N 
ATOM     14  O   UNL A   1      33.318  27.265  23.307  1.00  0.00    -0.275 OA
ATOM     15  C   UNL A   1      32.299  26.598  23.142  1.00  0.00     0.224 C 
ATOM     16  H   UNL A   1      31.271  24.853  23.451  1.00  0.00     0.169 HD
BRANCH  15  17
ATOM     17  C   UNL A   1      31.087  27.173  22.414  1.00  0.00     0.105 C 
BRANCH  17  18
ATOM     18  C   UNL A   1      29.782  27.169  23.225  1.00  0.00     0.047 C 
BRANCH  18  19
ATOM     19  C   UNL A   1      29.058  28.494  23.251  1.00  0.00    -0.029 A 
ATOM     20  C   UNL A   1      29.743  29.691  23.429  1.00  0.00     0.007 A 
ATOM     21  C   UNL A   1      27.680  28.600  23.120  1.00  0.00     0.114 A 
ATOM     22  C   UNL A   1      29.102  30.919  23.354  1.00  0.00     0.020 A 
ATOM     23  N   UNL A   1      27.007  29.778  23.079  1.00  0.00    -0.264 NA
ATOM     24  C   UNL A   1      27.736  30.910  23.178  1.00  0.00     0.111 A 
ENDBRANCH  18  19
ENDBRANCH  17  18
ENDBRANCH  15  17
ENDBRANCH   7  13
ENDBRANCH   3   6
ENDBRANCH   1   2
BRANCH   1  25
ATOM     25  C   UNL A   1      31.525  28.610  26.342  1.00  0.00     0.042 C 
BRANCH  25  26
ATOM     26  C   UNL A   1      32.473  29.628  25.717  1.00  0.00     0.118 C 
BRANCH  26  27
ATOM     27  N   UNL A   1      32.197  31.006  26.111  1.00  0.00    -0.352 N 
ATOM     28  C   UNL A   1      32.822  31.846  27.002  1.00  0.00     0.251 C 
ATOM     29  H   UNL A   1      31.421  31.407  25.656  1.00  0.00     0.163 HD
ATOM     30  O   UNL A   1      32.290  32.925  27.278  1.00  0.00    -0.269 OA
BRANCH  28  31
ATOM     31  C   UNL A   1      34.100  31.488  27.657  1.00  0.00     0.039 A 
ATOM     32  C   UNL A   1      35.037  32.496  27.919  1.00  0.00     0.014 A 
ATOM     33  C   UNL A   1      34.414  30.165  27.971  1.00  0.00     0.014 A 
ATOM     34  C   UNL A   1      36.239  32.187  28.566  1.00  0.00     0.010 A 
ATOM     35  C   UNL A   1      35.563  29.873  28.702  1.00  0.00     0.010 A 
ATOM     36  C   UNL A   1      36.493  30.879  29.005  1.00  0.00    -0.014 A 
BRANCH  36  37
ATOM     37  C   UNL A   1      37.723  30.532  29.767  1.00  0.00     0.031 A 
ATOM     38  C   UNL A   1      38.772  29.649  29.144  1.00  0.00     0.074 A 
ATOM     39  C   UNL A   1      37.867  30.953  31.038  1.00  0.00     0.049 A 
ATOM     40  N   UNL A   1      39.857  29.149  29.681  1.00  0.00    -0.248 NA
ATOM     41  C   UNL A   1      38.562  29.250  27.742  1.00  0.00     0.031 C 
ATOM     42  C   UNL A   1      36.911  31.786  31.769  1.00  0.00     0.029 A 
ATOM     43  N   UNL A   1      38.874  30.733  31.948  1.00  0.00    -0.354 N 
ATOM     44  C   UNL A   1      40.446  28.374  28.690  1.00  0.00     0.074 A 
ATOM     45  C   UNL A   1      39.570  28.415  27.541  1.00  0.00     0.031 C 
ATOM     46  C   UNL A   1      37.391  32.037  32.997  1.00  0.00     0.029 A 
ATOM     47  C   UNL A   1      38.664  31.343  33.162  1.00  0.00     0.049 A 
ATOM     48  H   UNL A   1      39.670  30.189  31.749  1.00  0.00     0.167 HD
ATOM     49  C   UNL A   1      41.628  27.714  28.722  1.00  0.00     0.037 A 
ATOM     50  C   UNL A   1      39.410  31.340  34.284  1.00  0.00     0.037 A 
ATOM     51  C   UNL A   1      42.515  27.700  29.855  1.00  0.00     0.049 A 
ATOM     52  C   UNL A   1      40.705  30.575  34.304  1.00  0.00     0.074 A 
ATOM     53  C   UNL A   1      43.751  27.090  29.970  1.00  0.00     0.029 A 
ATOM     54  N   UNL A   1      42.264  28.331  31.063  1.00  0.00    -0.354 N 
ATOM     55  N   UNL A   1      41.265  29.877  33.347  1.00  0.00    -0.248 NA
ATOM     56  C   UNL A   1      41.473  30.597  35.558  1.00  0.00     0.031 C 
ATOM     57  C   UNL A   1      44.229  27.314  31.264  1.00  0.00     0.029 A 
ATOM     58  C   UNL A   1      43.317  28.112  31.935  1.00  0.00     0.049 A 
ATOM     59  H   UNL A   1      41.458  28.857  31.271  1.00  0.00     0.167 HD
ATOM     60  C   UNL A   1      42.464  29.406  33.869  1.00  0.00     0.074 A 
ATOM     61  C   UNL A   1      42.553  29.904  35.225  1.00  0.00     0.031 C 
ATOM     62  C   UNL A   1      43.404  28.631  33.276  1.00  0.00     0.037 A 
BRANCH  49  63
ATOM     63  C   UNL A   1      42.052  26.970  27.488  1.00  0.00     0.057 A 
ATOM     64  C   UNL A   1      41.813  25.596  27.358  1.00  0.00     0.134 A 
ATOM     65  C   UNL A   1      42.770  27.600  26.463  1.00  0.00     0.134 A 
ATOM     66  F   UNL A   1      41.136  24.929  28.306  1.00  0.00    -0.206 F 
ATOM     67  C   UNL A   1      42.285  24.873  26.261  1.00  0.00     0.040 A 
ATOM     68  C   UNL A   1      43.223  26.894  25.348  1.00  0.00     0.040 A 
ATOM     69  F   UNL A   1      43.024  28.916  26.520  1.00  0.00    -0.206 F 
ATOM     70  C   UNL A   1      42.992  25.523  25.252  1.00  0.00     0.006 A 
ENDBRANCH  49  63
BRANCH  50  71
ATOM     71  C   UNL A   1      38.970  32.120  35.471  1.00  0.00     0.057 A 
ATOM     72  C   UNL A   1      38.239  31.534  36.512  1.00  0.00     0.134 A 
ATOM     73  C   UNL A   1      39.264  33.485  35.582  1.00  0.00     0.134 A 
ATOM     74  F   UNL A   1      37.917  30.233  36.463  1.00  0.00    -0.206 F 
ATOM     75  C   UNL A   1      37.806  32.276  37.611  1.00  0.00     0.040 A 
ATOM     76  C   UNL A   1      38.860  34.234  36.690  1.00  0.00     0.040 A 
ATOM     77  F   UNL A   1      39.976  34.101  34.628  1.00  0.00    -0.206 F 
ATOM     78  C   UNL A   1      38.122  33.630  37.705  1.00  0.00     0.006 A 
ENDBRANCH  50  71
BRANCH  62  79
ATOM     79  C   UNL A   1      44.637  28.299  34.063  1.00  0.00     0.057 A 
ATOM     80  C   UNL A   1      45.761  29.136  34.007  1.00  0.00     0.134 A 
ATOM     81  C   UNL A   1      44.750  27.113  34.798  1.00  0.00     0.134 A 
ATOM     82  F   UNL A   1      45.724  30.282  33.310  1.00  0.00    -0.206 F 
ATOM     83  C   UNL A   1      46.958  28.793  34.636  1.00  0.00     0.040 A 
ATOM     84  C   UNL A   1      45.933  26.773  35.455  1.00  0.00     0.040 A 
ATOM     85  F   UNL A   1      43.707  26.274  34.899  1.00  0.00    -0.206 F 
ATOM     86  C   UNL A   1      47.045  27.608  35.364  1.00  0.00     0.006 A 
ENDBRANCH  62  79
ENDBRANCH  36  37
ENDBRANCH  28  31
ENDBRANCH  26  27
ENDBRANCH  25  26
ENDBRANCH   1  25
TORSDOF 14
ENDMDL
