MODEL 1
REMARK VINA RESULT:     -12.1      0.000      0.000
REMARK SMILES O=C(NCCCNC(=O)[C@H]1CCC(=O)N(C2CCCCC2)[C@H]1c1ccccc1)c1ccc(-c2c3nc(c(-c4c(F)cccc4F)c4ccc([nH]4)c(-c4c(F)cccc4F)c4nc(c(-c5c(F)cccc5F)c5ccc2[nH]5)C=C4)C=C3)cc1
REMARK SMILES IDX 4 1 3 2 1 3 2 4 29 6 30 7 82 8 31 9 81 10 32 11 33 12 34 13
REMARK SMILES IDX 75 14 35 15 80 16 74 17 76 18 36 19 79 20 73 21 72 22 37 24
REMARK SMILES IDX 63 25 46 26 62 27 47 28 50 29 61 30 77 31 48 32 49 33 60 35
REMARK SMILES IDX 78 36 51 37 38 38 39 39 44 40 40 41 41 42 43 43 45 44 42 45
REMARK SMILES IDX 64 46 65 47 70 48 66 49 67 50 69 51 71 52 68 53 52 54 53 55
REMARK SMILES IDX 58 56 54 57 55 58 57 59 59 60 56 61 5 62 6 63 7 64 8 65 9 67
REMARK SMILES IDX 10 68 11 69 22 70 12 71 15 72 13 73 14 74 23 75 24 76 28 77
REMARK SMILES IDX 25 78 27 79 26 80 16 81 17 82 21 83 18 84 20 85 19 86
REMARK H PARENT 3 5 76 23 50 34 7 66
REMARK Flexibility Score: inf
ROOT
ATOM      1  C   UNL A   1      38.185  24.287  26.319  1.00  0.00     0.118 C 
ENDROOT
BRANCH   1   2
ATOM      2  N   UNL A   1      39.590  23.930  26.150  1.00  0.00    -0.352 N 
ATOM      3  O   UNL A   1      41.810  24.314  26.074  1.00  0.00    -0.269 OA
ATOM      4  C   UNL A   1      40.716  24.616  26.532  1.00  0.00     0.251 C 
ATOM      5  H   UNL A   1      39.755  23.072  25.694  1.00  0.00     0.163 HD
BRANCH   4   6
ATOM      6  C   UNL A   1      40.590  25.718  27.505  1.00  0.00     0.039 A 
ATOM      7  C   UNL A   1      39.730  25.584  28.595  1.00  0.00     0.014 A 
ATOM      8  C   UNL A   1      41.348  26.881  27.343  1.00  0.00     0.014 A 
ATOM      9  C   UNL A   1      39.504  26.663  29.429  1.00  0.00     0.010 A 
ATOM     10  C   UNL A   1      41.216  27.923  28.263  1.00  0.00     0.010 A 
ATOM     11  C   UNL A   1      40.280  27.825  29.305  1.00  0.00    -0.014 A 
BRANCH  11  12
ATOM     12  C   UNL A   1      40.163  28.858  30.360  1.00  0.00     0.031 A 
ATOM     13  C   UNL A   1      39.129  29.942  30.288  1.00  0.00     0.074 A 
ATOM     14  C   UNL A   1      40.988  28.761  31.422  1.00  0.00     0.049 A 
ATOM     15  N   UNL A   1      38.881  30.893  31.152  1.00  0.00    -0.248 NA
ATOM     16  C   UNL A   1      38.267  29.971  29.097  1.00  0.00     0.031 C 
ATOM     17  C   UNL A   1      42.039  27.749  31.583  1.00  0.00     0.029 A 
ATOM     18  N   UNL A   1      41.059  29.492  32.578  1.00  0.00    -0.354 N 
ATOM     19  C   UNL A   1      37.846  31.641  30.608  1.00  0.00     0.074 A 
ATOM     20  C   UNL A   1      37.531  31.052  29.324  1.00  0.00     0.031 C 
ATOM     21  C   UNL A   1      42.601  27.882  32.790  1.00  0.00     0.029 A 
ATOM     22  C   UNL A   1      42.018  29.040  33.452  1.00  0.00     0.049 A 
ATOM     23  H   UNL A   1      40.480  30.266  32.764  1.00  0.00     0.167 HD
ATOM     24  C   UNL A   1      37.216  32.715  31.140  1.00  0.00     0.037 A 
ATOM     25  C   UNL A   1      42.407  29.520  34.644  1.00  0.00     0.037 A 
ATOM     26  C   UNL A   1      37.542  33.287  32.424  1.00  0.00     0.049 A 
ATOM     27  C   UNL A   1      41.717  30.737  35.184  1.00  0.00     0.074 A 
ATOM     28  C   UNL A   1      36.953  34.365  33.062  1.00  0.00     0.029 A 
ATOM     29  N   UNL A   1      38.550  32.830  33.262  1.00  0.00    -0.354 N 
ATOM     30  N   UNL A   1      40.720  31.417  34.670  1.00  0.00    -0.248 NA
ATOM     31  C   UNL A   1      42.208  31.258  36.465  1.00  0.00     0.031 C 
ATOM     32  C   UNL A   1      37.637  34.593  34.260  1.00  0.00     0.029 A 
ATOM     33  C   UNL A   1      38.614  33.621  34.400  1.00  0.00     0.049 A 
ATOM     34  H   UNL A   1      39.133  32.059  33.077  1.00  0.00     0.167 HD
ATOM     35  C   UNL A   1      40.454  32.435  35.573  1.00  0.00     0.074 A 
ATOM     36  C   UNL A   1      41.373  32.262  36.680  1.00  0.00     0.031 C 
ATOM     37  C   UNL A   1      39.537  33.432  35.490  1.00  0.00     0.037 A 
BRANCH  24  38
ATOM     38  C   UNL A   1      36.123  33.359  30.336  1.00  0.00     0.057 A 
ATOM     39  C   UNL A   1      36.400  34.188  29.241  1.00  0.00     0.134 A 
ATOM     40  C   UNL A   1      34.778  33.092  30.619  1.00  0.00     0.134 A 
ATOM     41  F   UNL A   1      37.666  34.496  28.923  1.00  0.00    -0.206 F 
ATOM     42  C   UNL A   1      35.377  34.739  28.466  1.00  0.00     0.040 A 
ATOM     43  C   UNL A   1      33.747  33.615  29.835  1.00  0.00     0.040 A 
ATOM     44  F   UNL A   1      34.442  32.301  31.649  1.00  0.00    -0.206 F 
ATOM     45  C   UNL A   1      34.046  34.445  28.756  1.00  0.00     0.006 A 
ENDBRANCH  24  38
BRANCH  25  46
ATOM     46  C   UNL A   1      43.521  28.874  35.384  1.00  0.00     0.057 A 
ATOM     47  C   UNL A   1      44.855  29.202  35.124  1.00  0.00     0.134 A 
ATOM     48  C   UNL A   1      43.275  27.900  36.361  1.00  0.00     0.134 A 
ATOM     49  F   UNL A   1      45.157  30.118  34.193  1.00  0.00    -0.206 F 
ATOM     50  C   UNL A   1      45.906  28.564  35.786  1.00  0.00     0.040 A 
ATOM     51  C   UNL A   1      44.314  27.279  37.055  1.00  0.00     0.040 A 
ATOM     52  F   UNL A   1      42.017  27.548  36.667  1.00  0.00    -0.206 F 
ATOM     53  C   UNL A   1      45.635  27.603  36.758  1.00  0.00     0.006 A 
ENDBRANCH  25  46
BRANCH  37  54
ATOM     54  C   UNL A   1      39.473  34.384  36.647  1.00  0.00     0.057 A 
ATOM     55  C   UNL A   1      40.117  35.629  36.620  1.00  0.00     0.134 A 
ATOM     56  C   UNL A   1      38.756  34.052  37.803  1.00  0.00     0.134 A 
ATOM     57  F   UNL A   1      40.835  35.999  35.549  1.00  0.00    -0.206 F 
ATOM     58  C   UNL A   1      40.080  36.492  37.715  1.00  0.00     0.040 A 
ATOM     59  C   UNL A   1      38.685  34.921  38.892  1.00  0.00     0.040 A 
ATOM     60  F   UNL A   1      38.111  32.879  37.893  1.00  0.00    -0.206 F 
ATOM     61  C   UNL A   1      39.357  36.141  38.853  1.00  0.00     0.006 A 
ENDBRANCH  37  54
ENDBRANCH  11  12
ENDBRANCH   4   6
ENDBRANCH   1   2
BRANCH   1  62
ATOM     62  C   UNL A   1      37.269  23.174  25.835  1.00  0.00     0.042 C 
BRANCH  62  63
ATOM     63  C   UNL A   1      36.792  23.440  24.414  1.00  0.00     0.117 C 
BRANCH  63  64
ATOM     64  N   UNL A   1      35.722  22.527  24.073  1.00  0.00    -0.356 N 
ATOM     65  C   UNL A   1      34.461  22.724  23.620  1.00  0.00     0.225 C 
ATOM     66  H   UNL A   1      35.955  21.578  24.192  1.00  0.00     0.163 HD
ATOM     67  O   UNL A   1      33.748  21.717  23.540  1.00  0.00    -0.275 OA
BRANCH  65  68
ATOM     68  C   UNL A   1      33.918  24.057  23.121  1.00  0.00     0.106 C 
ATOM     69  C   UNL A   1      32.887  24.087  22.009  1.00  0.00     0.026 C 
ATOM     70  C   UNL A   1      33.458  24.954  24.290  1.00  0.00     0.128 C 
ATOM     71  C   UNL A   1      32.804  25.488  21.457  1.00  0.00     0.101 C 
ATOM     72  N   UNL A   1      33.001  26.294  23.814  1.00  0.00    -0.332 N 
ATOM     73  C   UNL A   1      32.568  26.545  22.513  1.00  0.00     0.223 C 
ATOM     74  O   UNL A   1      32.088  27.621  22.153  1.00  0.00    -0.275 OA
BRANCH  70  75
ATOM     75  C   UNL A   1      32.451  24.273  25.226  1.00  0.00    -0.025 A 
ATOM     76  C   UNL A   1      31.099  24.104  24.895  1.00  0.00     0.006 A 
ATOM     77  C   UNL A   1      32.886  23.781  26.473  1.00  0.00     0.006 A 
ATOM     78  C   UNL A   1      30.210  23.500  25.790  1.00  0.00     0.000 A 
ATOM     79  C   UNL A   1      32.008  23.134  27.346  1.00  0.00     0.000 A 
ATOM     80  C   UNL A   1      30.665  23.007  27.010  1.00  0.00     0.000 A 
ENDBRANCH  70  75
BRANCH  72  81
ATOM     81  C   UNL A   1      33.005  27.406  24.798  1.00  0.00     0.085 C 
ATOM     82  C   UNL A   1      31.593  27.638  25.372  1.00  0.00     0.025 C 
ATOM     83  C   UNL A   1      34.072  27.238  25.900  1.00  0.00     0.025 C 
ATOM     84  C   UNL A   1      31.566  28.715  26.452  1.00  0.00     0.002 C 
ATOM     85  C   UNL A   1      33.991  28.328  26.964  1.00  0.00     0.002 C 
ATOM     86  C   UNL A   1      32.588  28.433  27.546  1.00  0.00     0.000 C 
ENDBRANCH  72  81
ENDBRANCH  65  68
ENDBRANCH  63  64
ENDBRANCH  62  63
ENDBRANCH   1  62
TORSDOF 12
ENDMDL
MODEL 2
REMARK VINA RESULT:     -12.1      0.440      1.453
REMARK SMILES O=C(NCCCNC(=O)[C@H]1CCC(=O)N(C2CCCCC2)[C@H]1c1ccccc1)c1ccc(-c2c3nc(c(-c4c(F)cccc4F)c4ccc([nH]4)c(-c4c(F)cccc4F)c4nc(c(-c5c(F)cccc5F)c5ccc2[nH]5)C=C4)C=C3)cc1
REMARK SMILES IDX 4 1 3 2 1 3 2 4 29 6 30 7 82 8 31 9 81 10 32 11 33 12 34 13
REMARK SMILES IDX 75 14 35 15 80 16 74 17 76 18 36 19 79 20 73 21 72 22 37 24
REMARK SMILES IDX 63 25 46 26 62 27 47 28 50 29 61 30 77 31 48 32 49 33 60 35
REMARK SMILES IDX 78 36 51 37 38 38 39 39 44 40 40 41 41 42 43 43 45 44 42 45
REMARK SMILES IDX 64 46 65 47 70 48 66 49 67 50 69 51 71 52 68 53 52 54 53 55
REMARK SMILES IDX 58 56 54 57 55 58 57 59 59 60 56 61 5 62 6 63 7 64 8 65 9 67
REMARK SMILES IDX 10 68 11 69 22 70 12 71 15 72 13 73 14 74 23 75 24 76 28 77
REMARK SMILES IDX 25 78 27 79 26 80 16 81 17 82 21 83 18 84 20 85 19 86
REMARK H PARENT 3 5 76 23 50 34 7 66
REMARK Flexibility Score: inf
ROOT
ATOM      1  C   UNL A   1      38.084  24.146  26.324  1.00  0.00     0.118 C 
ENDROOT
BRANCH   1   2
ATOM      2  N   UNL A   1      39.485  23.783  26.140  1.00  0.00    -0.352 N 
ATOM      3  O   UNL A   1      41.705  24.160  26.029  1.00  0.00    -0.269 OA
ATOM      4  C   UNL A   1      40.618  24.470  26.499  1.00  0.00     0.251 C 
ATOM      5  H   UNL A   1      39.642  22.920  25.691  1.00  0.00     0.163 HD
BRANCH   4   6
ATOM      6  C   UNL A   1      40.509  25.583  27.462  1.00  0.00     0.039 A 
ATOM      7  C   UNL A   1      39.678  25.455  28.575  1.00  0.00     0.014 A 
ATOM      8  C   UNL A   1      41.253  26.749  27.267  1.00  0.00     0.014 A 
ATOM      9  C   UNL A   1      39.465  26.543  29.402  1.00  0.00     0.010 A 
ATOM     10  C   UNL A   1      41.137  27.801  28.178  1.00  0.00     0.010 A 
ATOM     11  C   UNL A   1      40.229  27.709  29.244  1.00  0.00    -0.014 A 
BRANCH  11  12
ATOM     12  C   UNL A   1      40.130  28.753  30.290  1.00  0.00     0.031 A 
ATOM     13  C   UNL A   1      39.104  29.844  30.217  1.00  0.00     0.074 A 
ATOM     14  C   UNL A   1      40.965  28.661  31.345  1.00  0.00     0.049 A 
ATOM     15  N   UNL A   1      38.872  30.806  31.073  1.00  0.00    -0.248 NA
ATOM     16  C   UNL A   1      38.231  29.869  29.035  1.00  0.00     0.031 C 
ATOM     17  C   UNL A   1      42.009  27.642  31.505  1.00  0.00     0.029 A 
ATOM     18  N   UNL A   1      41.053  29.402  32.492  1.00  0.00    -0.354 N 
ATOM     19  C   UNL A   1      37.838  31.557  30.532  1.00  0.00     0.074 A 
ATOM     20  C   UNL A   1      37.505  30.958  29.258  1.00  0.00     0.031 C 
ATOM     21  C   UNL A   1      42.585  27.783  32.705  1.00  0.00     0.029 A 
ATOM     22  C   UNL A   1      42.018  28.952  33.361  1.00  0.00     0.049 A 
ATOM     23  H   UNL A   1      40.482  30.183  32.676  1.00  0.00     0.167 HD
ATOM     24  C   UNL A   1      37.222  32.642  31.060  1.00  0.00     0.037 A 
ATOM     25  C   UNL A   1      42.423  29.441  34.544  1.00  0.00     0.037 A 
ATOM     26  C   UNL A   1      37.566  33.224  32.334  1.00  0.00     0.049 A 
ATOM     27  C   UNL A   1      41.747  30.669  35.079  1.00  0.00     0.074 A 
ATOM     28  C   UNL A   1      36.991  34.313  32.967  1.00  0.00     0.029 A 
ATOM     29  N   UNL A   1      38.578  32.768  33.167  1.00  0.00    -0.354 N 
ATOM     30  N   UNL A   1      40.751  31.351  34.568  1.00  0.00    -0.248 NA
ATOM     31  C   UNL A   1      42.256  31.199  36.349  1.00  0.00     0.031 C 
ATOM     32  C   UNL A   1      37.689  34.548  34.156  1.00  0.00     0.029 A 
ATOM     33  C   UNL A   1      38.660  33.569  34.296  1.00  0.00     0.049 A 
ATOM     34  H   UNL A   1      39.153  31.990  32.984  1.00  0.00     0.167 HD
ATOM     35  C   UNL A   1      40.502  32.381  35.463  1.00  0.00     0.074 A 
ATOM     36  C   UNL A   1      41.430  32.212  36.562  1.00  0.00     0.031 C 
ATOM     37  C   UNL A   1      39.593  33.384  35.379  1.00  0.00     0.037 A 
BRANCH  24  38
ATOM     38  C   UNL A   1      36.126  33.286  30.261  1.00  0.00     0.057 A 
ATOM     39  C   UNL A   1      36.396  34.075  29.135  1.00  0.00     0.134 A 
ATOM     40  C   UNL A   1      34.781  33.059  30.580  1.00  0.00     0.134 A 
ATOM     41  F   UNL A   1      37.661  34.343  28.779  1.00  0.00    -0.206 F 
ATOM     42  C   UNL A   1      35.369  34.625  28.365  1.00  0.00     0.040 A 
ATOM     43  C   UNL A   1      33.745  33.582  29.804  1.00  0.00     0.040 A 
ATOM     44  F   UNL A   1      34.451  32.308  31.641  1.00  0.00    -0.206 F 
ATOM     45  C   UNL A   1      34.039  34.371  28.693  1.00  0.00     0.006 A 
ENDBRANCH  24  38
BRANCH  25  46
ATOM     46  C   UNL A   1      43.538  28.794  35.280  1.00  0.00     0.057 A 
ATOM     47  C   UNL A   1      43.298  27.838  36.273  1.00  0.00     0.134 A 
ATOM     48  C   UNL A   1      44.873  29.127  35.015  1.00  0.00     0.134 A 
ATOM     49  F   UNL A   1      42.043  27.486  36.582  1.00  0.00    -0.206 F 
ATOM     50  C   UNL A   1      44.343  27.260  36.998  1.00  0.00     0.040 A 
ATOM     51  C   UNL A   1      45.928  28.531  35.706  1.00  0.00     0.040 A 
ATOM     52  F   UNL A   1      45.173  30.026  34.065  1.00  0.00    -0.206 F 
ATOM     53  C   UNL A   1      45.663  27.604  36.710  1.00  0.00     0.006 A 
ENDBRANCH  25  46
BRANCH  37  54
ATOM     54  C   UNL A   1      39.547  34.348  36.527  1.00  0.00     0.057 A 
ATOM     55  C   UNL A   1      38.852  34.060  37.709  1.00  0.00     0.134 A 
ATOM     56  C   UNL A   1      40.210  35.579  36.449  1.00  0.00     0.134 A 
ATOM     57  F   UNL A   1      38.182  32.905  37.840  1.00  0.00    -0.206 F 
ATOM     58  C   UNL A   1      38.787  34.978  38.757  1.00  0.00     0.040 A 
ATOM     59  C   UNL A   1      40.179  36.491  37.504  1.00  0.00     0.040 A 
ATOM     60  F   UNL A   1      40.900  35.914  35.349  1.00  0.00    -0.206 F 
ATOM     61  C   UNL A   1      39.457  36.196  38.659  1.00  0.00     0.006 A 
ENDBRANCH  37  54
ENDBRANCH  11  12
ENDBRANCH   4   6
ENDBRANCH   1   2
BRANCH   1  62
ATOM     62  C   UNL A   1      37.159  23.130  25.674  1.00  0.00     0.042 C 
BRANCH  62  63
ATOM     63  C   UNL A   1      36.861  23.511  24.230  1.00  0.00     0.117 C 
BRANCH  63  64
ATOM     64  N   UNL A   1      35.725  22.756  23.744  1.00  0.00    -0.356 N 
ATOM     65  C   UNL A   1      34.460  23.114  23.421  1.00  0.00     0.225 C 
ATOM     66  H   UNL A   1      35.908  21.796  23.623  1.00  0.00     0.163 HD
ATOM     67  O   UNL A   1      33.686  22.189  23.147  1.00  0.00    -0.275 OA
BRANCH  65  68
ATOM     68  C   UNL A   1      33.975  24.551  23.280  1.00  0.00     0.106 C 
ATOM     69  C   UNL A   1      32.941  24.903  22.229  1.00  0.00     0.026 C 
ATOM     70  C   UNL A   1      33.562  25.146  24.644  1.00  0.00     0.128 C 
ATOM     71  C   UNL A   1      32.919  26.400  22.046  1.00  0.00     0.101 C 
ATOM     72  N   UNL A   1      33.163  26.580  24.526  1.00  0.00    -0.332 N 
ATOM     73  C   UNL A   1      32.735  27.167  23.337  1.00  0.00     0.223 C 
ATOM     74  O   UNL A   1      32.303  28.318  23.265  1.00  0.00    -0.275 OA
BRANCH  70  75
ATOM     75  C   UNL A   1      32.530  24.295  25.396  1.00  0.00    -0.025 A 
ATOM     76  C   UNL A   1      31.189  24.199  24.999  1.00  0.00     0.006 A 
ATOM     77  C   UNL A   1      32.930  23.563  26.533  1.00  0.00     0.006 A 
ATOM     78  C   UNL A   1      30.275  23.432  25.729  1.00  0.00     0.000 A 
ATOM     79  C   UNL A   1      32.028  22.758  27.234  1.00  0.00     0.000 A 
ATOM     80  C   UNL A   1      30.696  22.704  26.840  1.00  0.00     0.000 A 
ENDBRANCH  70  75
BRANCH  72  81
ATOM     81  C   UNL A   1      33.223  27.408  25.757  1.00  0.00     0.085 C 
ATOM     82  C   UNL A   1      34.097  28.659  25.535  1.00  0.00     0.025 C 
ATOM     83  C   UNL A   1      31.831  27.753  26.326  1.00  0.00     0.025 C 
ATOM     84  C   UNL A   1      34.117  29.586  26.746  1.00  0.00     0.002 C 
ATOM     85  C   UNL A   1      31.904  28.696  27.523  1.00  0.00     0.002 C 
ATOM     86  C   UNL A   1      32.707  29.947  27.196  1.00  0.00     0.000 C 
ENDBRANCH  72  81
ENDBRANCH  65  68
ENDBRANCH  63  64
ENDBRANCH  62  63
ENDBRANCH   1  62
TORSDOF 12
ENDMDL
MODEL 3
REMARK VINA RESULT:     -12.0      0.198      1.305
REMARK SMILES O=C(NCCCNC(=O)[C@H]1CCC(=O)N(C2CCCCC2)[C@H]1c1ccccc1)c1ccc(-c2c3nc(c(-c4c(F)cccc4F)c4ccc([nH]4)c(-c4c(F)cccc4F)c4nc(c(-c5c(F)cccc5F)c5ccc2[nH]5)C=C4)C=C3)cc1
REMARK SMILES IDX 4 1 3 2 1 3 2 4 29 6 30 7 82 8 31 9 81 10 32 11 33 12 34 13
REMARK SMILES IDX 75 14 35 15 80 16 74 17 76 18 36 19 79 20 73 21 72 22 37 24
REMARK SMILES IDX 63 25 46 26 62 27 47 28 50 29 61 30 77 31 48 32 49 33 60 35
REMARK SMILES IDX 78 36 51 37 38 38 39 39 44 40 40 41 41 42 43 43 45 44 42 45
REMARK SMILES IDX 64 46 65 47 70 48 66 49 67 50 69 51 71 52 68 53 52 54 53 55
REMARK SMILES IDX 58 56 54 57 55 58 57 59 59 60 56 61 5 62 6 63 7 64 8 65 9 67
REMARK SMILES IDX 10 68 11 69 22 70 12 71 15 72 13 73 14 74 23 75 24 76 28 77
REMARK SMILES IDX 25 78 27 79 26 80 16 81 17 82 21 83 18 84 20 85 19 86
REMARK H PARENT 3 5 76 23 50 34 7 66
REMARK Flexibility Score: inf
ROOT
ATOM      1  C   UNL A   1      38.495  24.094  26.391  1.00  0.00     0.118 C 
ENDROOT
BRANCH   1   2
ATOM      2  N   UNL A   1      39.911  23.849  26.135  1.00  0.00    -0.352 N 
ATOM      3  O   UNL A   1      42.084  24.410  25.915  1.00  0.00    -0.269 OA
ATOM      4  C   UNL A   1      40.999  24.628  26.440  1.00  0.00     0.251 C 
ATOM      5  H   UNL A   1      40.116  23.003  25.675  1.00  0.00     0.163 HD
BRANCH   4   6
ATOM      6  C   UNL A   1      40.847  25.727  27.413  1.00  0.00     0.039 A 
ATOM      7  C   UNL A   1      40.011  25.562  28.517  1.00  0.00     0.014 A 
ATOM      8  C   UNL A   1      41.556  26.918  27.236  1.00  0.00     0.014 A 
ATOM      9  C   UNL A   1      39.757  26.634  29.353  1.00  0.00     0.010 A 
ATOM     10  C   UNL A   1      41.398  27.957  28.156  1.00  0.00     0.010 A 
ATOM     11  C   UNL A   1      40.484  27.825  29.213  1.00  0.00    -0.014 A 
BRANCH  11  12
ATOM     12  C   UNL A   1      40.344  28.855  30.268  1.00  0.00     0.031 A 
ATOM     13  C   UNL A   1      39.275  29.905  30.205  1.00  0.00     0.074 A 
ATOM     14  C   UNL A   1      41.181  28.787  31.323  1.00  0.00     0.049 A 
ATOM     15  N   UNL A   1      39.005  30.850  31.069  1.00  0.00    -0.248 NA
ATOM     16  C   UNL A   1      38.402  29.905  29.022  1.00  0.00     0.031 C 
ATOM     17  C   UNL A   1      42.265  27.809  31.475  1.00  0.00     0.029 A 
ATOM     18  N   UNL A   1      41.240  29.521  32.477  1.00  0.00    -0.354 N 
ATOM     19  C   UNL A   1      37.942  31.564  30.534  1.00  0.00     0.074 A 
ATOM     20  C   UNL A   1      37.633  30.963  29.254  1.00  0.00     0.031 C 
ATOM     21  C   UNL A   1      42.835  27.962  32.676  1.00  0.00     0.029 A 
ATOM     22  C   UNL A   1      42.222  29.101  33.342  1.00  0.00     0.049 A 
ATOM     23  H   UNL A   1      40.638  30.277  32.667  1.00  0.00     0.167 HD
ATOM     24  C   UNL A   1      37.283  32.618  31.071  1.00  0.00     0.037 A 
ATOM     25  C   UNL A   1      42.606  29.596  34.530  1.00  0.00     0.037 A 
ATOM     26  C   UNL A   1      37.602  33.202  32.351  1.00  0.00     0.049 A 
ATOM     27  C   UNL A   1      41.882  30.791  35.075  1.00  0.00     0.074 A 
ATOM     28  C   UNL A   1      36.984  34.261  32.993  1.00  0.00     0.029 A 
ATOM     29  N   UNL A   1      38.632  32.779  33.180  1.00  0.00    -0.354 N 
ATOM     30  N   UNL A   1      40.860  31.438  34.569  1.00  0.00    -0.248 NA
ATOM     31  C   UNL A   1      42.368  31.330  36.350  1.00  0.00     0.031 C 
ATOM     32  C   UNL A   1      37.672  34.513  34.185  1.00  0.00     0.029 A 
ATOM     33  C   UNL A   1      38.681  33.573  34.316  1.00  0.00     0.049 A 
ATOM     34  H   UNL A   1      39.238  32.026  32.990  1.00  0.00     0.167 HD
ATOM     35  C   UNL A   1      40.569  32.449  35.473  1.00  0.00     0.074 A 
ATOM     36  C   UNL A   1      41.503  32.307  36.572  1.00  0.00     0.031 C 
ATOM     37  C   UNL A   1      39.620  33.415  35.398  1.00  0.00     0.037 A 
BRANCH  24  38
ATOM     38  C   UNL A   1      36.162  33.225  30.277  1.00  0.00     0.057 A 
ATOM     39  C   UNL A   1      34.819  33.031  30.624  1.00  0.00     0.134 A 
ATOM     40  C   UNL A   1      36.432  34.068  29.192  1.00  0.00     0.134 A 
ATOM     41  F   UNL A   1      34.488  32.226  31.644  1.00  0.00    -0.206 F 
ATOM     42  C   UNL A   1      33.785  33.644  29.912  1.00  0.00     0.040 A 
ATOM     43  C   UNL A   1      35.409  34.708  28.489  1.00  0.00     0.040 A 
ATOM     44  F   UNL A   1      37.696  34.303  28.809  1.00  0.00    -0.206 F 
ATOM     45  C   UNL A   1      34.079  34.493  28.847  1.00  0.00     0.006 A 
ENDBRANCH  24  38
BRANCH  25  46
ATOM     46  C   UNL A   1      43.746  28.987  35.260  1.00  0.00     0.057 A 
ATOM     47  C   UNL A   1      43.548  27.983  36.213  1.00  0.00     0.134 A 
ATOM     48  C   UNL A   1      45.063  29.407  35.031  1.00  0.00     0.134 A 
ATOM     49  F   UNL A   1      42.310  27.546  36.487  1.00  0.00    -0.206 F 
ATOM     50  C   UNL A   1      44.613  27.439  36.934  1.00  0.00     0.040 A 
ATOM     51  C   UNL A   1      46.141  28.848  35.719  1.00  0.00     0.040 A 
ATOM     52  F   UNL A   1      45.324  30.357  34.121  1.00  0.00    -0.206 F 
ATOM     53  C   UNL A   1      45.915  27.869  36.683  1.00  0.00     0.006 A 
ENDBRANCH  25  46
BRANCH  37  54
ATOM     54  C   UNL A   1      39.536  34.366  36.554  1.00  0.00     0.057 A 
ATOM     55  C   UNL A   1      40.154  35.625  36.525  1.00  0.00     0.134 A 
ATOM     56  C   UNL A   1      38.827  34.020  37.711  1.00  0.00     0.134 A 
ATOM     57  F   UNL A   1      40.863  36.009  35.454  1.00  0.00    -0.206 F 
ATOM     58  C   UNL A   1      40.099  36.488  37.620  1.00  0.00     0.040 A 
ATOM     59  C   UNL A   1      38.738  34.889  38.799  1.00  0.00     0.040 A 
ATOM     60  F   UNL A   1      38.207  32.834  37.801  1.00  0.00    -0.206 F 
ATOM     61  C   UNL A   1      39.384  36.123  38.759  1.00  0.00     0.006 A 
ENDBRANCH  37  54
ENDBRANCH  11  12
ENDBRANCH   4   6
ENDBRANCH   1   2
BRANCH   1  62
ATOM     62  C   UNL A   1      37.625  23.026  25.750  1.00  0.00     0.042 C 
BRANCH  62  63
ATOM     63  C   UNL A   1      36.832  23.599  24.582  1.00  0.00     0.117 C 
BRANCH  63  64
ATOM     64  N   UNL A   1      35.827  22.649  24.153  1.00  0.00    -0.356 N 
ATOM     65  C   UNL A   1      34.590  22.803  23.626  1.00  0.00     0.225 C 
ATOM     66  H   UNL A   1      36.096  21.709  24.265  1.00  0.00     0.163 HD
ATOM     67  O   UNL A   1      33.929  21.767  23.479  1.00  0.00    -0.275 OA
BRANCH  65  68
ATOM     68  C   UNL A   1      34.019  24.123  23.124  1.00  0.00     0.106 C 
ATOM     69  C   UNL A   1      32.998  24.130  22.003  1.00  0.00     0.026 C 
ATOM     70  C   UNL A   1      33.528  25.007  24.290  1.00  0.00     0.128 C 
ATOM     71  C   UNL A   1      32.886  25.529  21.452  1.00  0.00     0.101 C 
ATOM     72  N   UNL A   1      33.042  26.336  23.812  1.00  0.00    -0.332 N 
ATOM     73  C   UNL A   1      32.615  26.578  22.508  1.00  0.00     0.223 C 
ATOM     74  O   UNL A   1      32.113  27.643  22.144  1.00  0.00    -0.275 OA
BRANCH  70  75
ATOM     75  C   UNL A   1      32.529  24.300  25.216  1.00  0.00    -0.025 A 
ATOM     76  C   UNL A   1      31.187  24.089  24.868  1.00  0.00     0.006 A 
ATOM     77  C   UNL A   1      32.962  23.827  26.471  1.00  0.00     0.006 A 
ATOM     78  C   UNL A   1      30.304  23.463  25.754  1.00  0.00     0.000 A 
ATOM     79  C   UNL A   1      32.092  23.157  27.336  1.00  0.00     0.000 A 
ATOM     80  C   UNL A   1      30.758  22.989  26.983  1.00  0.00     0.000 A 
ENDBRANCH  70  75
BRANCH  72  81
ATOM     81  C   UNL A   1      33.011  27.446  24.797  1.00  0.00     0.085 C 
ATOM     82  C   UNL A   1      31.606  27.595  25.414  1.00  0.00     0.025 C 
ATOM     83  C   UNL A   1      34.118  27.341  25.867  1.00  0.00     0.025 C 
ATOM     84  C   UNL A   1      31.548  28.668  26.496  1.00  0.00     0.002 C 
ATOM     85  C   UNL A   1      34.006  28.424  26.935  1.00  0.00     0.002 C 
ATOM     86  C   UNL A   1      32.618  28.447  27.559  1.00  0.00     0.000 C 
ENDBRANCH  72  81
ENDBRANCH  65  68
ENDBRANCH  63  64
ENDBRANCH  62  63
ENDBRANCH   1  62
TORSDOF 12
ENDMDL
