MODEL 1
REMARK VINA RESULT:     -10.8      0.000      0.000
REMARK SMILES CCc1nc(NCC2CC2)nc(OCC(=O)NCCCNC(=O)c2ccc(-c3c4nc(c(-c5c(F)cccc5F)c5ccc([nH]5)c(-c5c(F)cccc5F)c5nc(c(-c6c(F)cccc6F)c6ccc3[nH]6)C=C5)C=C4)cc2)c1C
REMARK SMILES IDX 15 1 16 2 17 3 14 5 13 6 12 7 3 8 4 9 78 10 5 11 79 12 11 13
REMARK SMILES IDX 2 14 1 15 6 16 7 18 8 19 9 20 10 21 18 22 19 23 20 24 21 25
REMARK SMILES IDX 22 26 23 28 24 29 25 30 77 31 26 32 76 33 27 34 28 35 29 36
REMARK SMILES IDX 70 37 30 38 75 39 69 40 71 41 31 42 74 43 68 44 67 45 32 47
REMARK SMILES IDX 58 48 41 49 57 50 42 51 45 52 56 53 72 54 43 55 44 56 55 58
REMARK SMILES IDX 73 59 46 60 33 61 34 62 39 63 35 64 36 65 38 66 40 67 37 68
REMARK SMILES IDX 59 69 60 70 65 71 61 72 62 73 64 74 66 75 63 76 47 77 48 78
REMARK SMILES IDX 53 79 49 80 50 81 52 82 54 83 51 84
REMARK H PARENT 17 4 6 17 21 27 71 46 45 57
REMARK Flexibility Score: inf
ROOT
ATOM      1  C   UNL A   1      37.008  23.050  24.946  1.00  0.00     0.258 C 
ATOM      2  O   UNL A   1      37.247  24.055  25.618  1.00  0.00    -0.271 OA
ATOM      3  N   UNL A   1      37.120  21.831  25.543  1.00  0.00    -0.353 N 
ATOM      4  H   UNL A   1      37.481  21.835  26.459  1.00  0.00     0.163 HD
ENDROOT
BRANCH   1   5
ATOM      5  C   UNL A   1      36.545  23.142  23.491  1.00  0.00     0.331 C 
BRANCH   5   6
ATOM      6  O   UNL A   1      35.226  23.523  23.197  1.00  0.00    -0.467 OA
BRANCH   6   7
ATOM      7  C   UNL A   1      34.138  23.246  23.957  1.00  0.00     0.221 A 
ATOM      8  C   UNL A   1      32.348  23.444  25.474  1.00  0.00     0.052 A 
ATOM      9  N   UNL A   1      32.022  22.154  25.230  1.00  0.00    -0.218 NA
ATOM     10  C   UNL A   1      33.479  24.035  24.898  1.00  0.00     0.033 A 
ATOM     11  C   UNL A   1      32.777  21.440  24.406  1.00  0.00     0.226 A 
ATOM     12  C   UNL A   1      33.918  25.388  25.344  1.00  0.00     0.052 C 
ATOM     13  N   UNL A   1      33.793  21.961  23.730  1.00  0.00    -0.177 NA
BRANCH   8  14
ATOM     14  C   UNL A   1      31.415  24.046  26.504  1.00  0.00     0.053 C 
ATOM     15  C   UNL A   1      30.338  25.050  26.117  1.00  0.00     0.011 C 
ENDBRANCH   8  14
BRANCH  11  16
ATOM     16  N   UNL A   1      32.558  20.102  24.251  1.00  0.00    -0.354 N 
ATOM     17  H   UNL A   1      31.923  19.813  23.557  1.00  0.00     0.163 HD
BRANCH  16  18
ATOM     18  C   UNL A   1      33.205  19.095  25.044  1.00  0.00     0.119 C 
BRANCH  18  19
ATOM     19  C   UNL A   1      33.987  18.136  24.188  1.00  0.00     0.008 C 
ATOM     20  C   UNL A   1      33.892  16.629  24.302  1.00  0.00     0.006 C 
ATOM     21  C   UNL A   1      33.277  17.326  23.125  1.00  0.00     0.006 C 
ENDBRANCH  18  19
ENDBRANCH  16  18
ENDBRANCH  11  16
ENDBRANCH   6   7
ENDBRANCH   5   6
ENDBRANCH   1   5
BRANCH   3  22
ATOM     22  C   UNL A   1      36.776  20.528  25.007  1.00  0.00     0.117 C 
BRANCH  22  23
ATOM     23  C   UNL A   1      37.956  19.568  24.999  1.00  0.00     0.042 C 
BRANCH  23  24
ATOM     24  C   UNL A   1      39.182  20.074  25.751  1.00  0.00     0.118 C 
BRANCH  24  25
ATOM     25  N   UNL A   1      40.211  19.055  25.925  1.00  0.00    -0.352 N 
ATOM     26  C   UNL A   1      41.560  19.175  26.140  1.00  0.00     0.251 C 
ATOM     27  H   UNL A   1      39.884  18.128  25.879  1.00  0.00     0.163 HD
ATOM     28  O   UNL A   1      42.278  18.178  26.074  1.00  0.00    -0.269 OA
BRANCH  26  29
ATOM     29  C   UNL A   1      42.162  20.491  26.432  1.00  0.00     0.039 A 
ATOM     30  C   UNL A   1      42.666  21.255  25.376  1.00  0.00     0.014 A 
ATOM     31  C   UNL A   1      42.247  20.969  27.742  1.00  0.00     0.014 A 
ATOM     32  C   UNL A   1      43.188  22.525  25.627  1.00  0.00     0.010 A 
ATOM     33  C   UNL A   1      42.675  22.271  27.978  1.00  0.00     0.010 A 
ATOM     34  C   UNL A   1      43.159  23.060  26.925  1.00  0.00    -0.014 A 
BRANCH  34  35
ATOM     35  C   UNL A   1      43.632  24.440  27.202  1.00  0.00     0.031 A 
ATOM     36  C   UNL A   1      42.662  25.500  27.647  1.00  0.00     0.074 A 
ATOM     37  C   UNL A   1      44.924  24.754  26.994  1.00  0.00     0.049 A 
ATOM     38  N   UNL A   1      42.879  26.765  27.903  1.00  0.00    -0.248 NA
ATOM     39  C   UNL A   1      41.257  25.090  27.796  1.00  0.00     0.031 C 
ATOM     40  C   UNL A   1      45.954  23.830  26.517  1.00  0.00     0.029 A 
ATOM     41  N   UNL A   1      45.594  25.940  27.159  1.00  0.00    -0.354 N 
ATOM     42  C   UNL A   1      41.641  27.301  28.232  1.00  0.00     0.074 A 
ATOM     43  C   UNL A   1      40.667  26.242  28.071  1.00  0.00     0.031 C 
ATOM     44  C   UNL A   1      47.132  24.471  26.469  1.00  0.00     0.029 A 
ATOM     45  C   UNL A   1      46.934  25.860  26.871  1.00  0.00     0.049 A 
ATOM     46  H   UNL A   1      45.155  26.770  27.456  1.00  0.00     0.167 HD
ATOM     47  C   UNL A   1      41.341  28.552  28.659  1.00  0.00     0.037 A 
ATOM     48  C   UNL A   1      47.896  26.800  26.927  1.00  0.00     0.037 A 
ATOM     49  C   UNL A   1      42.313  29.601  28.821  1.00  0.00     0.049 A 
ATOM     50  C   UNL A   1      47.538  28.191  27.368  1.00  0.00     0.074 A 
ATOM     51  C   UNL A   1      42.125  30.888  29.292  1.00  0.00     0.029 A 
ATOM     52  N   UNL A   1      43.660  29.484  28.505  1.00  0.00    -0.354 N 
ATOM     53  N   UNL A   1      46.376  28.666  27.746  1.00  0.00    -0.248 NA
ATOM     54  C   UNL A   1      48.628  29.176  27.392  1.00  0.00     0.031 C 
ATOM     55  C   UNL A   1      43.346  31.567  29.208  1.00  0.00     0.029 A 
ATOM     56  C   UNL A   1      44.309  30.686  28.743  1.00  0.00     0.049 A 
ATOM     57  H   UNL A   1      44.091  28.668  28.164  1.00  0.00     0.167 HD
ATOM     58  C   UNL A   1      46.599  29.995  28.085  1.00  0.00     0.074 A 
ATOM     59  C   UNL A   1      48.011  30.245  27.877  1.00  0.00     0.031 C 
ATOM     60  C   UNL A   1      45.715  30.922  28.531  1.00  0.00     0.037 A 
BRANCH  47  61
ATOM     61  C   UNL A   1      39.900  28.842  28.969  1.00  0.00     0.057 A 
ATOM     62  C   UNL A   1      39.380  28.722  30.267  1.00  0.00     0.134 A 
ATOM     63  C   UNL A   1      39.014  29.240  27.960  1.00  0.00     0.134 A 
ATOM     64  F   UNL A   1      40.170  28.335  31.281  1.00  0.00    -0.206 F 
ATOM     65  C   UNL A   1      38.028  28.936  30.539  1.00  0.00     0.040 A 
ATOM     66  C   UNL A   1      37.666  29.492  28.226  1.00  0.00     0.040 A 
ATOM     67  F   UNL A   1      39.440  29.387  26.696  1.00  0.00    -0.206 F 
ATOM     68  C   UNL A   1      37.168  29.327  29.516  1.00  0.00     0.006 A 
ENDBRANCH  47  61
BRANCH  48  69
ATOM     69  C   UNL A   1      49.299  26.440  26.601  1.00  0.00     0.057 A 
ATOM     70  C   UNL A   1      49.812  26.654  25.315  1.00  0.00     0.134 A 
ATOM     71  C   UNL A   1      50.163  25.891  27.556  1.00  0.00     0.134 A 
ATOM     72  F   UNL A   1      49.028  27.161  24.352  1.00  0.00    -0.206 F 
ATOM     73  C   UNL A   1      51.128  26.325  24.988  1.00  0.00     0.040 A 
ATOM     74  C   UNL A   1      51.489  25.582  27.250  1.00  0.00     0.040 A 
ATOM     75  F   UNL A   1      49.735  25.669  28.807  1.00  0.00    -0.206 F 
ATOM     76  C   UNL A   1      51.972  25.793  25.961  1.00  0.00     0.006 A 
ENDBRANCH  48  69
BRANCH  60  77
ATOM     77  C   UNL A   1      46.256  32.284  28.860  1.00  0.00     0.057 A 
ATOM     78  C   UNL A   1      46.760  32.597  30.130  1.00  0.00     0.134 A 
ATOM     79  C   UNL A   1      46.307  33.284  27.881  1.00  0.00     0.134 A 
ATOM     80  F   UNL A   1      46.729  31.690  31.117  1.00  0.00    -0.206 F 
ATOM     81  C   UNL A   1      47.271  33.864  30.419  1.00  0.00     0.040 A 
ATOM     82  C   UNL A   1      46.845  34.544  28.149  1.00  0.00     0.040 A 
ATOM     83  F   UNL A   1      45.851  33.050  26.641  1.00  0.00    -0.206 F 
ATOM     84  C   UNL A   1      47.322  34.839  29.425  1.00  0.00     0.006 A 
ENDBRANCH  60  77
ENDBRANCH  34  35
ENDBRANCH  26  29
ENDBRANCH  24  25
ENDBRANCH  23  24
ENDBRANCH  22  23
ENDBRANCH   3  22
TORSDOF 16
ENDMDL
MODEL 2
REMARK VINA RESULT:     -10.8      0.604      6.411
REMARK SMILES CCc1nc(NCC2CC2)nc(OCC(=O)NCCCNC(=O)c2ccc(-c3c4nc(c(-c5c(F)cccc5F)c5ccc([nH]5)c(-c5c(F)cccc5F)c5nc(c(-c6c(F)cccc6F)c6ccc3[nH]6)C=C5)C=C4)cc2)c1C
REMARK SMILES IDX 15 1 16 2 17 3 14 5 13 6 12 7 3 8 4 9 78 10 5 11 79 12 11 13
REMARK SMILES IDX 2 14 1 15 6 16 7 18 8 19 9 20 10 21 18 22 19 23 20 24 21 25
REMARK SMILES IDX 22 26 23 28 24 29 25 30 77 31 26 32 76 33 27 34 28 35 29 36
REMARK SMILES IDX 70 37 30 38 75 39 69 40 71 41 31 42 74 43 68 44 67 45 32 47
REMARK SMILES IDX 58 48 41 49 57 50 42 51 45 52 56 53 72 54 43 55 44 56 55 58
REMARK SMILES IDX 73 59 46 60 33 61 34 62 39 63 35 64 36 65 38 66 40 67 37 68
REMARK SMILES IDX 59 69 60 70 65 71 61 72 62 73 64 74 66 75 63 76 47 77 48 78
REMARK SMILES IDX 53 79 49 80 50 81 52 82 54 83 51 84
REMARK H PARENT 17 4 6 17 21 27 71 46 45 57
REMARK Flexibility Score: inf
ROOT
ATOM      1  C   UNL A   1      36.897  22.996  25.000  1.00  0.00     0.258 C 
ATOM      2  O   UNL A   1      37.099  23.992  25.696  1.00  0.00    -0.271 OA
ATOM      3  N   UNL A   1      37.062  21.768  25.565  1.00  0.00    -0.353 N 
ATOM      4  H   UNL A   1      37.428  21.763  26.479  1.00  0.00     0.163 HD
ENDROOT
BRANCH   1   5
ATOM      5  C   UNL A   1      36.421  23.106  23.550  1.00  0.00     0.331 C 
BRANCH   5   6
ATOM      6  O   UNL A   1      35.095  23.476  23.273  1.00  0.00    -0.467 OA
BRANCH   6   7
ATOM      7  C   UNL A   1      34.009  23.123  24.005  1.00  0.00     0.221 A 
ATOM      8  C   UNL A   1      32.196  23.182  25.505  1.00  0.00     0.052 A 
ATOM      9  N   UNL A   1      31.920  21.894  25.197  1.00  0.00    -0.218 NA
ATOM     10  C   UNL A   1      33.310  23.842  24.972  1.00  0.00     0.033 A 
ATOM     11  C   UNL A   1      32.712  21.248  24.350  1.00  0.00     0.226 A 
ATOM     12  C   UNL A   1      33.692  25.187  25.488  1.00  0.00     0.052 C 
ATOM     13  N   UNL A   1      33.716  21.838  23.713  1.00  0.00    -0.177 NA
BRANCH   8  14
ATOM     14  C   UNL A   1      31.228  23.699  26.549  1.00  0.00     0.053 C 
ATOM     15  C   UNL A   1      29.942  22.957  26.885  1.00  0.00     0.011 C 
ENDBRANCH   8  14
BRANCH  11  16
ATOM     16  N   UNL A   1      32.546  19.912  24.129  1.00  0.00    -0.354 N 
ATOM     17  H   UNL A   1      31.769  19.622  23.599  1.00  0.00     0.163 HD
BRANCH  16  18
ATOM     18  C   UNL A   1      33.442  18.908  24.628  1.00  0.00     0.119 C 
BRANCH  18  19
ATOM     19  C   UNL A   1      33.035  17.532  24.175  1.00  0.00     0.008 C 
ATOM     20  C   UNL A   1      33.941  16.592  23.407  1.00  0.00     0.006 C 
ATOM     21  C   UNL A   1      33.628  16.313  24.848  1.00  0.00     0.006 C 
ENDBRANCH  18  19
ENDBRANCH  16  18
ENDBRANCH  11  16
ENDBRANCH   6   7
ENDBRANCH   5   6
ENDBRANCH   1   5
BRANCH   3  22
ATOM     22  C   UNL A   1      36.767  20.466  24.998  1.00  0.00     0.117 C 
BRANCH  22  23
ATOM     23  C   UNL A   1      37.975  19.541  24.994  1.00  0.00     0.042 C 
BRANCH  23  24
ATOM     24  C   UNL A   1      39.181  20.082  25.753  1.00  0.00     0.118 C 
BRANCH  24  25
ATOM     25  N   UNL A   1      40.279  19.126  25.844  1.00  0.00    -0.352 N 
ATOM     26  C   UNL A   1      41.622  19.322  26.039  1.00  0.00     0.251 C 
ATOM     27  H   UNL A   1      40.012  18.183  25.750  1.00  0.00     0.163 HD
ATOM     28  O   UNL A   1      42.402  18.381  25.898  1.00  0.00    -0.269 OA
BRANCH  26  29
ATOM     29  C   UNL A   1      42.143  20.657  26.396  1.00  0.00     0.039 A 
ATOM     30  C   UNL A   1      42.526  21.531  25.375  1.00  0.00     0.014 A 
ATOM     31  C   UNL A   1      42.271  21.045  27.732  1.00  0.00     0.014 A 
ATOM     32  C   UNL A   1      42.969  22.816  25.694  1.00  0.00     0.010 A 
ATOM     33  C   UNL A   1      42.617  22.355  28.043  1.00  0.00     0.010 A 
ATOM     34  C   UNL A   1      42.978  23.252  27.029  1.00  0.00    -0.014 A 
BRANCH  34  35
ATOM     35  C   UNL A   1      43.366  24.642  27.383  1.00  0.00     0.031 A 
ATOM     36  C   UNL A   1      44.809  25.062  27.340  1.00  0.00     0.074 A 
ATOM     37  C   UNL A   1      42.424  25.509  27.800  1.00  0.00     0.049 A 
ATOM     38  N   UNL A   1      45.345  26.216  27.646  1.00  0.00    -0.248 NA
ATOM     39  C   UNL A   1      45.784  24.039  26.928  1.00  0.00     0.031 C 
ATOM     40  C   UNL A   1      40.997  25.210  27.932  1.00  0.00     0.029 A 
ATOM     41  N   UNL A   1      42.526  26.819  28.190  1.00  0.00    -0.354 N 
ATOM     42  C   UNL A   1      46.713  26.055  27.472  1.00  0.00     0.074 A 
ATOM     43  C   UNL A   1      46.932  24.672  27.107  1.00  0.00     0.031 C 
ATOM     44  C   UNL A   1      40.352  26.317  28.330  1.00  0.00     0.029 A 
ATOM     45  C   UNL A   1      41.322  27.390  28.523  1.00  0.00     0.049 A 
ATOM     46  H   UNL A   1      43.382  27.305  28.229  1.00  0.00     0.167 HD
ATOM     47  C   UNL A   1      47.699  26.979  27.577  1.00  0.00     0.037 A 
ATOM     48  C   UNL A   1      41.032  28.639  28.933  1.00  0.00     0.037 A 
ATOM     49  C   UNL A   1      47.476  28.355  27.937  1.00  0.00     0.049 A 
ATOM     50  C   UNL A   1      42.143  29.640  29.078  1.00  0.00     0.074 A 
ATOM     51  C   UNL A   1      48.396  29.384  28.025  1.00  0.00     0.029 A 
ATOM     52  N   UNL A   1      46.243  28.891  28.279  1.00  0.00    -0.354 N 
ATOM     53  N   UNL A   1      43.425  29.495  28.841  1.00  0.00    -0.248 NA
ATOM     54  C   UNL A   1      41.766  30.980  29.546  1.00  0.00     0.031 C 
ATOM     55  C   UNL A   1      47.729  30.530  28.475  1.00  0.00     0.029 A 
ATOM     56  C   UNL A   1      46.383  30.231  28.608  1.00  0.00     0.049 A 
ATOM     57  H   UNL A   1      45.393  28.394  28.286  1.00  0.00     0.167 HD
ATOM     58  C   UNL A   1      44.003  30.732  29.098  1.00  0.00     0.074 A 
ATOM     59  C   UNL A   1      42.928  31.618  29.499  1.00  0.00     0.031 C 
ATOM     60  C   UNL A   1      45.304  31.101  29.006  1.00  0.00     0.037 A 
BRANCH  47  61
ATOM     61  C   UNL A   1      49.102  26.517  27.304  1.00  0.00     0.057 A 
ATOM     62  C   UNL A   1      49.643  26.510  26.009  1.00  0.00     0.134 A 
ATOM     63  C   UNL A   1      49.925  26.065  28.344  1.00  0.00     0.134 A 
ATOM     64  F   UNL A   1      48.908  26.920  24.964  1.00  0.00    -0.206 F 
ATOM     65  C   UNL A   1      50.927  26.025  25.752  1.00  0.00     0.040 A 
ATOM     66  C   UNL A   1      51.223  25.610  28.105  1.00  0.00     0.040 A 
ATOM     67  F   UNL A   1      49.480  26.052  29.610  1.00  0.00    -0.206 F 
ATOM     68  C   UNL A   1      51.723  25.577  26.804  1.00  0.00     0.006 A 
ENDBRANCH  47  61
BRANCH  48  69
ATOM     69  C   UNL A   1      39.621  29.023  29.190  1.00  0.00     0.057 A 
ATOM     70  C   UNL A   1      39.085  28.957  30.482  1.00  0.00     0.134 A 
ATOM     71  C   UNL A   1      38.780  29.474  28.165  1.00  0.00     0.134 A 
ATOM     72  F   UNL A   1      39.836  28.515  31.502  1.00  0.00    -0.206 F 
ATOM     73  C   UNL A   1      37.762  29.313  30.744  1.00  0.00     0.040 A 
ATOM     74  C   UNL A   1      37.463  29.859  28.418  1.00  0.00     0.040 A 
ATOM     75  F   UNL A   1      39.235  29.568  26.907  1.00  0.00    -0.206 F 
ATOM     76  C   UNL A   1      36.949  29.774  29.710  1.00  0.00     0.006 A 
ENDBRANCH  48  69
BRANCH  60  77
ATOM     77  C   UNL A   1      45.635  32.535  29.311  1.00  0.00     0.057 A 
ATOM     78  C   UNL A   1      45.582  33.534  28.330  1.00  0.00     0.134 A 
ATOM     79  C   UNL A   1      45.975  32.925  30.612  1.00  0.00     0.134 A 
ATOM     80  F   UNL A   1      45.276  33.226  27.061  1.00  0.00    -0.206 F 
ATOM     81  C   UNL A   1      45.879  34.865  28.628  1.00  0.00     0.040 A 
ATOM     82  C   UNL A   1      46.244  34.257  30.929  1.00  0.00     0.040 A 
ATOM     83  F   UNL A   1      46.035  32.021  31.602  1.00  0.00    -0.206 F 
ATOM     84  C   UNL A   1      46.203  35.230  29.934  1.00  0.00     0.006 A 
ENDBRANCH  60  77
ENDBRANCH  34  35
ENDBRANCH  26  29
ENDBRANCH  24  25
ENDBRANCH  23  24
ENDBRANCH  22  23
ENDBRANCH   3  22
TORSDOF 16
ENDMDL
MODEL 3
REMARK VINA RESULT:     -10.7      4.184      7.520
REMARK SMILES CCc1nc(NCC2CC2)nc(OCC(=O)NCCCNC(=O)c2ccc(-c3c4nc(c(-c5c(F)cccc5F)c5ccc([nH]5)c(-c5c(F)cccc5F)c5nc(c(-c6c(F)cccc6F)c6ccc3[nH]6)C=C5)C=C4)cc2)c1C
REMARK SMILES IDX 15 1 16 2 17 3 14 5 13 6 12 7 3 8 4 9 78 10 5 11 79 12 11 13
REMARK SMILES IDX 2 14 1 15 6 16 7 18 8 19 9 20 10 21 18 22 19 23 20 24 21 25
REMARK SMILES IDX 22 26 23 28 24 29 25 30 77 31 26 32 76 33 27 34 28 35 29 36
REMARK SMILES IDX 70 37 30 38 75 39 69 40 71 41 31 42 74 43 68 44 67 45 32 47
REMARK SMILES IDX 58 48 41 49 57 50 42 51 45 52 56 53 72 54 43 55 44 56 55 58
REMARK SMILES IDX 73 59 46 60 33 61 34 62 39 63 35 64 36 65 38 66 40 67 37 68
REMARK SMILES IDX 59 69 60 70 65 71 61 72 62 73 64 74 66 75 63 76 47 77 48 78
REMARK SMILES IDX 53 79 49 80 50 81 52 82 54 83 51 84
REMARK H PARENT 17 4 6 17 21 27 71 46 45 57
REMARK Flexibility Score: inf
ROOT
ATOM      1  C   UNL A   1      31.173  24.728  26.409  1.00  0.00     0.258 C 
ATOM      2  O   UNL A   1      30.801  23.905  27.247  1.00  0.00    -0.271 OA
ATOM      3  N   UNL A   1      31.749  25.882  26.847  1.00  0.00    -0.353 N 
ATOM      4  H   UNL A   1      31.743  26.020  27.822  1.00  0.00     0.163 HD
ENDROOT
BRANCH   1   5
ATOM      5  C   UNL A   1      31.050  24.465  24.907  1.00  0.00     0.331 C 
BRANCH   5   6
ATOM      6  O   UNL A   1      31.492  23.245  24.370  1.00  0.00    -0.467 OA
BRANCH   6   7
ATOM      7  C   UNL A   1      32.689  22.661  24.624  1.00  0.00     0.221 A 
ATOM      8  C   UNL A   1      34.999  22.215  24.702  1.00  0.00     0.052 A 
ATOM      9  N   UNL A   1      34.741  21.081  25.391  1.00  0.00    -0.218 NA
ATOM     10  C   UNL A   1      33.969  23.030  24.216  1.00  0.00     0.033 A 
ATOM     11  C   UNL A   1      33.480  20.745  25.634  1.00  0.00     0.226 A 
ATOM     12  C   UNL A   1      34.287  24.156  23.294  1.00  0.00     0.052 C 
ATOM     13  N   UNL A   1      32.454  21.523  25.313  1.00  0.00    -0.177 NA
BRANCH   8  14
ATOM     14  C   UNL A   1      36.487  22.363  24.458  1.00  0.00     0.053 C 
ATOM     15  C   UNL A   1      37.469  21.255  24.808  1.00  0.00     0.011 C 
ENDBRANCH   8  14
BRANCH  11  16
ATOM     16  N   UNL A   1      33.181  19.540  26.200  1.00  0.00    -0.354 N 
ATOM     17  H   UNL A   1      33.254  19.455  27.178  1.00  0.00     0.163 HD
BRANCH  16  18
ATOM     18  C   UNL A   1      32.768  18.390  25.447  1.00  0.00     0.119 C 
BRANCH  18  19
ATOM     19  C   UNL A   1      33.669  18.150  24.266  1.00  0.00     0.008 C 
ATOM     20  C   UNL A   1      34.447  16.870  24.042  1.00  0.00     0.006 C 
ATOM     21  C   UNL A   1      33.252  17.175  23.188  1.00  0.00     0.006 C 
ENDBRANCH  18  19
ENDBRANCH  16  18
ENDBRANCH  11  16
ENDBRANCH   6   7
ENDBRANCH   5   6
ENDBRANCH   1   5
BRANCH   3  22
ATOM     22  C   UNL A   1      32.373  26.933  26.067  1.00  0.00     0.117 C 
BRANCH  22  23
ATOM     23  C   UNL A   1      33.390  27.732  26.867  1.00  0.00     0.042 C 
BRANCH  23  24
ATOM     24  C   UNL A   1      34.106  28.815  26.068  1.00  0.00     0.118 C 
BRANCH  24  25
ATOM     25  N   UNL A   1      33.814  30.164  26.539  1.00  0.00    -0.352 N 
ATOM     26  C   UNL A   1      34.419  30.925  27.506  1.00  0.00     0.251 C 
ATOM     27  H   UNL A   1      33.055  30.602  26.088  1.00  0.00     0.163 HD
ATOM     28  O   UNL A   1      33.893  31.975  27.873  1.00  0.00    -0.269 OA
BRANCH  26  29
ATOM     29  C   UNL A   1      35.687  30.486  28.124  1.00  0.00     0.039 A 
ATOM     30  C   UNL A   1      35.641  29.675  29.261  1.00  0.00     0.014 A 
ATOM     31  C   UNL A   1      36.919  30.884  27.599  1.00  0.00     0.014 A 
ATOM     32  C   UNL A   1      36.829  29.206  29.825  1.00  0.00     0.010 A 
ATOM     33  C   UNL A   1      38.094  30.339  28.101  1.00  0.00     0.010 A 
ATOM     34  C   UNL A   1      38.064  29.501  29.225  1.00  0.00    -0.014 A 
BRANCH  34  35
ATOM     35  C   UNL A   1      39.333  28.945  29.759  1.00  0.00     0.031 A 
ATOM     36  C   UNL A   1      39.964  29.538  30.988  1.00  0.00     0.074 A 
ATOM     37  C   UNL A   1      39.949  27.943  29.103  1.00  0.00     0.049 A 
ATOM     38  N   UNL A   1      41.084  29.213  31.583  1.00  0.00    -0.248 NA
ATOM     39  C   UNL A   1      39.258  30.667  31.614  1.00  0.00     0.031 C 
ATOM     40  C   UNL A   1      39.465  27.314  27.873  1.00  0.00     0.029 A 
ATOM     41  N   UNL A   1      41.115  27.277  29.379  1.00  0.00    -0.354 N 
ATOM     42  C   UNL A   1      41.219  30.100  32.643  1.00  0.00     0.074 A 
ATOM     43  C   UNL A   1      40.107  31.023  32.565  1.00  0.00     0.031 C 
ATOM     44  C   UNL A   1      40.304  26.326  27.526  1.00  0.00     0.029 A 
ATOM     45  C   UNL A   1      41.406  26.279  28.481  1.00  0.00     0.049 A 
ATOM     46  H   UNL A   1      41.691  27.495  30.148  1.00  0.00     0.167 HD
ATOM     47  C   UNL A   1      42.165  30.129  33.613  1.00  0.00     0.037 A 
ATOM     48  C   UNL A   1      42.442  25.421  28.436  1.00  0.00     0.037 A 
ATOM     49  C   UNL A   1      43.267  29.206  33.689  1.00  0.00     0.049 A 
ATOM     50  C   UNL A   1      43.500  25.491  29.501  1.00  0.00     0.074 A 
ATOM     51  C   UNL A   1      44.253  29.116  34.655  1.00  0.00     0.029 A 
ATOM     52  N   UNL A   1      43.534  28.217  32.753  1.00  0.00    -0.354 N 
ATOM     53  N   UNL A   1      43.578  26.289  30.539  1.00  0.00    -0.248 NA
ATOM     54  C   UNL A   1      44.613  24.540  29.387  1.00  0.00     0.031 C 
ATOM     55  C   UNL A   1      45.149  28.110  34.274  1.00  0.00     0.029 A 
ATOM     56  C   UNL A   1      44.687  27.531  33.102  1.00  0.00     0.049 A 
ATOM     57  H   UNL A   1      42.985  28.029  31.957  1.00  0.00     0.167 HD
ATOM     58  C   UNL A   1      44.729  25.914  31.221  1.00  0.00     0.074 A 
ATOM     59  C   UNL A   1      45.310  24.811  30.482  1.00  0.00     0.031 C 
ATOM     60  C   UNL A   1      45.255  26.435  32.358  1.00  0.00     0.037 A 
BRANCH  47  61
ATOM     61  C   UNL A   1      42.041  31.201  34.658  1.00  0.00     0.057 A 
ATOM     62  C   UNL A   1      41.245  31.035  35.802  1.00  0.00     0.134 A 
ATOM     63  C   UNL A   1      42.718  32.420  34.522  1.00  0.00     0.134 A 
ATOM     64  F   UNL A   1      40.561  29.897  35.993  1.00  0.00    -0.206 F 
ATOM     65  C   UNL A   1      41.087  32.055  36.741  1.00  0.00     0.040 A 
ATOM     66  C   UNL A   1      42.596  33.436  35.471  1.00  0.00     0.040 A 
ATOM     67  F   UNL A   1      43.506  32.647  33.459  1.00  0.00    -0.206 F 
ATOM     68  C   UNL A   1      41.768  33.260  36.578  1.00  0.00     0.006 A 
ENDBRANCH  47  61
BRANCH  48  69
ATOM     69  C   UNL A   1      42.500  24.390  27.369  1.00  0.00     0.057 A 
ATOM     70  C   UNL A   1      43.106  24.669  26.138  1.00  0.00     0.134 A 
ATOM     71  C   UNL A   1      41.970  23.108  27.551  1.00  0.00     0.134 A 
ATOM     72  F   UNL A   1      43.617  25.886  25.897  1.00  0.00    -0.206 F 
ATOM     73  C   UNL A   1      43.173  23.714  25.122  1.00  0.00     0.040 A 
ATOM     74  C   UNL A   1      42.053  22.135  26.554  1.00  0.00     0.040 A 
ATOM     75  F   UNL A   1      41.383  22.775  28.710  1.00  0.00    -0.206 F 
ATOM     76  C   UNL A   1      42.650  22.440  25.333  1.00  0.00     0.006 A 
ENDBRANCH  48  69
BRANCH  60  77
ATOM     77  C   UNL A   1      46.503  25.793  32.894  1.00  0.00     0.057 A 
ATOM     78  C   UNL A   1      47.782  26.238  32.532  1.00  0.00     0.134 A 
ATOM     79  C   UNL A   1      46.422  24.740  33.813  1.00  0.00     0.134 A 
ATOM     80  F   UNL A   1      47.931  27.235  31.647  1.00  0.00    -0.206 F 
ATOM     81  C   UNL A   1      48.934  25.641  33.047  1.00  0.00     0.040 A 
ATOM     82  C   UNL A   1      47.566  24.155  34.358  1.00  0.00     0.040 A 
ATOM     83  F   UNL A   1      45.229  24.270  34.209  1.00  0.00    -0.206 F 
ATOM     84  C   UNL A   1      48.827  24.602  33.969  1.00  0.00     0.006 A 
ENDBRANCH  60  77
ENDBRANCH  34  35
ENDBRANCH  26  29
ENDBRANCH  24  25
ENDBRANCH  23  24
ENDBRANCH  22  23
ENDBRANCH   3  22
TORSDOF 16
ENDMDL
