MODEL 1
REMARK VINA RESULT:     -11.2      0.000      0.000
REMARK SMILES CC(C)C[C@H](NC(=O)[C@H](C)NC(=O)[C@@H](NC(=O)CNC(=O)OCc1ccccc1)C(C)C)C(=O)NCCCNC(=O)c1ccc(-c2c3nc(c(-c4c(F)cccc4F)c4ccc([nH]4)c(-c4c(F)cccc4F)c4nc(c(-c5c(F)cccc5F)c5ccc2[nH]5)C=C4)C=C3)cc1
REMARK SMILES IDX 6 1 7 2 8 3 5 5 4 6 2 7 1 8 3 9 33 10 34 11 35 12 36 14
REMARK SMILES IDX 37 15 38 16 39 17 40 18 41 20 42 21 43 22 95 23 44 24 94 25
REMARK SMILES IDX 45 26 46 27 47 28 88 29 48 30 93 31 87 32 89 33 49 34 92 35
REMARK SMILES IDX 86 36 85 37 50 39 76 40 59 41 75 42 60 43 63 44 74 45 90 46
REMARK SMILES IDX 61 47 62 48 73 50 91 51 64 52 51 53 52 54 57 55 53 56 54 57
REMARK SMILES IDX 56 58 58 59 55 60 77 61 78 62 83 63 79 64 80 65 82 66 84 67
REMARK SMILES IDX 81 68 65 69 66 70 71 71 67 72 68 73 70 74 72 75 69 76 9 77
REMARK SMILES IDX 10 78 11 79 12 80 13 82 14 83 15 84 16 85 17 87 18 88 19 89
REMARK SMILES IDX 20 90 21 92 22 93 23 94 24 95 25 96 29 97 26 98 28 99 27 100
REMARK SMILES IDX 30 101 31 102 32 103
REMARK H PARENT 6 4 35 13 39 19 89 38 63 49 11 81 15 86 19 91
REMARK Flexibility Score: inf
ROOT
ATOM      1  N   UNL A   1      31.407  28.465  26.130  1.00  0.00    -0.343 N 
ATOM      2  C   UNL A   1      31.081  27.186  25.692  1.00  0.00     0.242 C 
ATOM      3  O   UNL A   1      30.815  26.353  26.566  1.00  0.00    -0.273 OA
ATOM      4  H   UNL A   1      31.450  28.634  27.099  1.00  0.00     0.164 HD
ENDROOT
BRANCH   1   5
ATOM      5  C   UNL A   1      31.683  29.547  25.235  1.00  0.00     0.171 C 
BRANCH   5   6
ATOM      6  C   UNL A   1      30.657  30.403  24.471  1.00  0.00     0.038 C 
BRANCH   6   7
ATOM      7  C   UNL A   1      29.527  30.087  23.506  1.00  0.00    -0.015 C 
ATOM      8  C   UNL A   1      28.615  31.285  23.295  1.00  0.00     0.007 C 
ATOM      9  C   UNL A   1      30.217  29.752  22.147  1.00  0.00     0.007 C 
ENDBRANCH   6   7
ENDBRANCH   5   6
BRANCH   5  10
ATOM     10  C   UNL A   1      32.180  30.639  26.171  1.00  0.00     0.242 C 
ATOM     11  O   UNL A   1      31.362  31.528  26.439  1.00  0.00    -0.273 OA
ATOM     12  N   UNL A   1      33.380  30.621  26.842  1.00  0.00    -0.354 N 
ATOM     13  H   UNL A   1      33.500  31.447  27.363  1.00  0.00     0.163 HD
BRANCH  12  14
ATOM     14  C   UNL A   1      34.548  29.721  27.014  1.00  0.00     0.117 C 
BRANCH  14  15
ATOM     15  C   UNL A   1      35.582  29.875  28.196  1.00  0.00     0.042 C 
BRANCH  15  16
ATOM     16  C   UNL A   1      35.497  29.975  29.775  1.00  0.00     0.118 C 
BRANCH  16  17
ATOM     17  N   UNL A   1      35.322  31.214  30.525  1.00  0.00    -0.352 N 
ATOM     18  C   UNL A   1      36.174  31.918  31.352  1.00  0.00     0.251 C 
ATOM     19  H   UNL A   1      34.433  31.624  30.420  1.00  0.00     0.163 HD
ATOM     20  O   UNL A   1      35.847  32.886  32.022  1.00  0.00    -0.269 OA
BRANCH  18  21
ATOM     21  C   UNL A   1      37.572  31.642  31.175  1.00  0.00     0.039 A 
ATOM     22  C   UNL A   1      38.308  30.941  32.121  1.00  0.00     0.014 A 
ATOM     23  C   UNL A   1      38.038  32.008  29.915  1.00  0.00     0.014 A 
ATOM     24  C   UNL A   1      39.550  30.481  31.731  1.00  0.00     0.010 A 
ATOM     25  C   UNL A   1      39.213  31.462  29.499  1.00  0.00     0.010 A 
ATOM     26  C   UNL A   1      39.960  30.694  30.404  1.00  0.00    -0.014 A 
BRANCH  26  27
ATOM     27  C   UNL A   1      41.182  30.107  29.862  1.00  0.00     0.031 A 
ATOM     28  C   UNL A   1      42.328  31.027  29.610  1.00  0.00     0.074 A 
ATOM     29  C   UNL A   1      41.122  28.841  29.418  1.00  0.00     0.049 A 
ATOM     30  N   UNL A   1      43.399  30.825  28.900  1.00  0.00    -0.248 NA
ATOM     31  C   UNL A   1      42.206  32.394  30.156  1.00  0.00     0.031 C 
ATOM     32  C   UNL A   1      39.967  27.944  29.545  1.00  0.00     0.029 A 
ATOM     33  N   UNL A   1      42.044  28.102  28.739  1.00  0.00    -0.354 N 
ATOM     34  C   UNL A   1      44.055  32.047  28.880  1.00  0.00     0.074 A 
ATOM     35  C   UNL A   1      43.227  33.002  29.576  1.00  0.00     0.031 C 
ATOM     36  C   UNL A   1      40.266  26.761  28.987  1.00  0.00     0.029 A 
ATOM     37  C   UNL A   1      41.611  26.837  28.433  1.00  0.00     0.049 A 
ATOM     38  H   UNL A   1      42.933  28.443  28.490  1.00  0.00     0.167 HD
ATOM     39  C   UNL A   1      45.266  32.320  28.349  1.00  0.00     0.037 A 
ATOM     40  C   UNL A   1      42.255  25.859  27.777  1.00  0.00     0.037 A 
ATOM     41  C   UNL A   1      46.068  31.314  27.716  1.00  0.00     0.049 A 
ATOM     42  C   UNL A   1      43.642  26.160  27.285  1.00  0.00     0.074 A 
ATOM     43  C   UNL A   1      47.348  31.415  27.211  1.00  0.00     0.029 A 
ATOM     44  N   UNL A   1      45.654  30.000  27.525  1.00  0.00    -0.354 N 
ATOM     45  N   UNL A   1      44.305  27.292  27.335  1.00  0.00    -0.248 NA
ATOM     46  C   UNL A   1      44.377  25.056  26.661  1.00  0.00     0.031 C 
ATOM     47  C   UNL A   1      47.702  30.162  26.699  1.00  0.00     0.029 A 
ATOM     48  C   UNL A   1      46.657  29.274  26.916  1.00  0.00     0.049 A 
ATOM     49  H   UNL A   1      44.776  29.640  27.786  1.00  0.00     0.167 HD
ATOM     50  C   UNL A   1      45.547  27.034  26.780  1.00  0.00     0.074 A 
ATOM     51  C   UNL A   1      45.545  25.631  26.405  1.00  0.00     0.031 C 
ATOM     52  C   UNL A   1      46.598  27.870  26.592  1.00  0.00     0.037 A 
BRANCH  39  53
ATOM     53  C   UNL A   1      45.765  33.727  28.470  1.00  0.00     0.057 A 
ATOM     54  C   UNL A   1      45.529  34.683  27.471  1.00  0.00     0.134 A 
ATOM     55  C   UNL A   1      46.520  34.130  29.578  1.00  0.00     0.134 A 
ATOM     56  F   UNL A   1      44.833  34.358  26.370  1.00  0.00    -0.206 F 
ATOM     57  C   UNL A   1      46.057  35.973  27.549  1.00  0.00     0.040 A 
ATOM     58  C   UNL A   1      47.028  35.426  29.683  1.00  0.00     0.040 A 
ATOM     59  F   UNL A   1      46.791  33.267  30.569  1.00  0.00    -0.206 F 
ATOM     60  C   UNL A   1      46.806  36.348  28.661  1.00  0.00     0.006 A 
ENDBRANCH  39  53
BRANCH  40  61
ATOM     61  C   UNL A   1      41.634  24.522  27.632  1.00  0.00     0.057 A 
ATOM     62  C   UNL A   1      42.001  23.470  28.479  1.00  0.00     0.134 A 
ATOM     63  C   UNL A   1      40.634  24.266  26.685  1.00  0.00     0.134 A 
ATOM     64  F   UNL A   1      42.949  23.656  29.410  1.00  0.00    -0.206 F 
ATOM     65  C   UNL A   1      41.418  22.206  28.376  1.00  0.00     0.040 A 
ATOM     66  C   UNL A   1      40.027  23.013  26.584  1.00  0.00     0.040 A 
ATOM     67  F   UNL A   1      40.216  25.238  25.862  1.00  0.00    -0.206 F 
ATOM     68  C   UNL A   1      40.425  21.975  27.427  1.00  0.00     0.006 A 
ENDBRANCH  40  61
BRANCH  52  69
ATOM     69  C   UNL A   1      47.833  27.270  25.999  1.00  0.00     0.057 A 
ATOM     70  C   UNL A   1      48.043  27.247  24.617  1.00  0.00     0.134 A 
ATOM     71  C   UNL A   1      48.853  26.793  26.830  1.00  0.00     0.134 A 
ATOM     72  F   UNL A   1      47.093  27.683  23.775  1.00  0.00    -0.206 F 
ATOM     73  C   UNL A   1      49.231  26.758  24.077  1.00  0.00     0.040 A 
ATOM     74  C   UNL A   1      50.053  26.324  26.303  1.00  0.00     0.040 A 
ATOM     75  F   UNL A   1      48.707  26.802  28.164  1.00  0.00    -0.206 F 
ATOM     76  C   UNL A   1      50.245  26.304  24.922  1.00  0.00     0.006 A 
ENDBRANCH  52  69
ENDBRANCH  26  27
ENDBRANCH  18  21
ENDBRANCH  16  17
ENDBRANCH  15  16
ENDBRANCH  14  15
ENDBRANCH  12  14
ENDBRANCH   5  10
ENDBRANCH   1   5
BRANCH   2  77
ATOM     77  C   UNL A   1      31.147  26.766  24.115  1.00  0.00     0.168 C 
ATOM     78  C   UNL A   1      29.868  25.905  23.965  1.00  0.00     0.041 C 
BRANCH  77  79
ATOM     79  N   UNL A   1      32.326  25.941  23.559  1.00  0.00    -0.343 N 
ATOM     80  C   UNL A   1      33.435  25.183  23.802  1.00  0.00     0.243 C 
ATOM     81  H   UNL A   1      32.238  25.979  22.579  1.00  0.00     0.164 HD
ATOM     82  O   UNL A   1      34.035  25.008  22.712  1.00  0.00    -0.273 OA
BRANCH  80  83
ATOM     83  C   UNL A   1      34.170  24.354  25.083  1.00  0.00     0.174 C 
BRANCH  83  84
ATOM     84  N   UNL A   1      33.307  24.224  26.280  1.00  0.00    -0.343 N 
ATOM     85  C   UNL A   1      32.214  23.462  26.622  1.00  0.00     0.240 C 
ATOM     86  H   UNL A   1      33.582  24.830  27.006  1.00  0.00     0.164 HD
ATOM     87  O   UNL A   1      32.157  23.147  27.821  1.00  0.00    -0.273 OA
BRANCH  85  88
ATOM     88  C   UNL A   1      31.088  22.918  25.648  1.00  0.00     0.219 C 
BRANCH  88  89
ATOM     89  N   UNL A   1      31.542  22.592  24.294  1.00  0.00    -0.312 N 
ATOM     90  C   UNL A   1      32.135  21.509  23.720  1.00  0.00     0.407 C 
ATOM     91  H   UNL A   1      31.383  23.323  23.653  1.00  0.00     0.167 HD
ATOM     92  O   UNL A   1      32.632  21.633  22.596  1.00  0.00    -0.225 OA
BRANCH  90  93
ATOM     93  O   UNL A   1      32.226  20.362  24.423  1.00  0.00    -0.445 OA
BRANCH  93  94
ATOM     94  C   UNL A   1      32.510  19.158  23.638  1.00  0.00     0.270 C 
BRANCH  94  95
ATOM     95  C   UNL A   1      33.147  17.942  24.303  1.00  0.00    -0.011 A 
ATOM     96  C   UNL A   1      32.362  16.960  24.917  1.00  0.00     0.007 A 
ATOM     97  C   UNL A   1      34.546  17.758  24.266  1.00  0.00     0.007 A 
ATOM     98  C   UNL A   1      32.953  15.810  25.449  1.00  0.00     0.000 A 
ATOM     99  C   UNL A   1      35.133  16.605  24.798  1.00  0.00     0.000 A 
ATOM    100  C   UNL A   1      34.335  15.628  25.385  1.00  0.00     0.000 A 
ENDBRANCH  94  95
ENDBRANCH  93  94
ENDBRANCH  90  93
ENDBRANCH  88  89
ENDBRANCH  85  88
ENDBRANCH  83  84
BRANCH  83 101
ATOM    101  C   UNL A   1      35.303  23.187  25.115  1.00  0.00     0.015 C 
ATOM    102  C   UNL A   1      35.908  22.187  24.118  1.00  0.00     0.010 C 
ATOM    103  C   UNL A   1      36.495  23.628  25.990  1.00  0.00     0.010 C 
ENDBRANCH  83 101
ENDBRANCH  80  83
ENDBRANCH  77  79
ENDBRANCH   2  77
TORSDOF 23
ENDMDL
MODEL 2
REMARK VINA RESULT:     -10.9      1.391      6.042
REMARK SMILES CC(C)C[C@H](NC(=O)[C@H](C)NC(=O)[C@@H](NC(=O)CNC(=O)OCc1ccccc1)C(C)C)C(=O)NCCCNC(=O)c1ccc(-c2c3nc(c(-c4c(F)cccc4F)c4ccc([nH]4)c(-c4c(F)cccc4F)c4nc(c(-c5c(F)cccc5F)c5ccc2[nH]5)C=C4)C=C3)cc1
REMARK SMILES IDX 6 1 7 2 8 3 5 5 4 6 2 7 1 8 3 9 33 10 34 11 35 12 36 14
REMARK SMILES IDX 37 15 38 16 39 17 40 18 41 20 42 21 43 22 95 23 44 24 94 25
REMARK SMILES IDX 45 26 46 27 47 28 88 29 48 30 93 31 87 32 89 33 49 34 92 35
REMARK SMILES IDX 86 36 85 37 50 39 76 40 59 41 75 42 60 43 63 44 74 45 90 46
REMARK SMILES IDX 61 47 62 48 73 50 91 51 64 52 51 53 52 54 57 55 53 56 54 57
REMARK SMILES IDX 56 58 58 59 55 60 77 61 78 62 83 63 79 64 80 65 82 66 84 67
REMARK SMILES IDX 81 68 65 69 66 70 71 71 67 72 68 73 70 74 72 75 69 76 9 77
REMARK SMILES IDX 10 78 11 79 12 80 13 82 14 83 15 84 16 85 17 87 18 88 19 89
REMARK SMILES IDX 20 90 21 92 22 93 23 94 24 95 25 96 29 97 26 98 28 99 27 100
REMARK SMILES IDX 30 101 31 102 32 103
REMARK H PARENT 6 4 35 13 39 19 89 38 63 49 11 81 15 86 19 91
REMARK Flexibility Score: inf
ROOT
ATOM      1  N   UNL A   1      31.128  28.569  25.835  1.00  0.00    -0.343 N 
ATOM      2  C   UNL A   1      30.926  27.261  25.407  1.00  0.00     0.242 C 
ATOM      3  O   UNL A   1      30.791  26.404  26.288  1.00  0.00    -0.273 OA
ATOM      4  H   UNL A   1      31.193  28.742  26.802  1.00  0.00     0.164 HD
ENDROOT
BRANCH   1   5
ATOM      5  C   UNL A   1      31.246  29.673  24.934  1.00  0.00     0.171 C 
BRANCH   5   6
ATOM      6  C   UNL A   1      30.103  30.386  24.186  1.00  0.00     0.038 C 
BRANCH   6   7
ATOM      7  C   UNL A   1      29.009  29.923  23.241  1.00  0.00    -0.015 C 
ATOM      8  C   UNL A   1      27.766  30.790  23.350  1.00  0.00     0.007 C 
ATOM      9  C   UNL A   1      29.597  30.089  21.805  1.00  0.00     0.007 C 
ENDBRANCH   6   7
ENDBRANCH   5   6
BRANCH   5  10
ATOM     10  C   UNL A   1      31.612  30.825  25.858  1.00  0.00     0.242 C 
ATOM     11  O   UNL A   1      30.844  31.793  25.839  1.00  0.00    -0.273 OA
ATOM     12  N   UNL A   1      32.616  30.795  26.798  1.00  0.00    -0.354 N 
ATOM     13  H   UNL A   1      32.690  31.664  27.255  1.00  0.00     0.163 HD
BRANCH  12  14
ATOM     14  C   UNL A   1      33.621  29.840  27.327  1.00  0.00     0.117 C 
BRANCH  14  15
ATOM     15  C   UNL A   1      35.058  30.284  27.805  1.00  0.00     0.042 C 
BRANCH  15  16
ATOM     16  C   UNL A   1      35.637  31.231  28.937  1.00  0.00     0.118 C 
BRANCH  16  17
ATOM     17  N   UNL A   1      35.827  30.846  30.331  1.00  0.00    -0.352 N 
ATOM     18  C   UNL A   1      36.580  29.849  30.917  1.00  0.00     0.251 C 
ATOM     19  H   UNL A   1      35.326  31.400  30.972  1.00  0.00     0.163 HD
ATOM     20  O   UNL A   1      36.545  29.559  32.103  1.00  0.00    -0.269 OA
BRANCH  18  21
ATOM     21  C   UNL A   1      37.654  29.336  30.114  1.00  0.00     0.039 A 
ATOM     22  C   UNL A   1      37.909  29.814  28.834  1.00  0.00     0.014 A 
ATOM     23  C   UNL A   1      38.474  28.453  30.811  1.00  0.00     0.014 A 
ATOM     24  C   UNL A   1      39.120  29.469  28.268  1.00  0.00     0.010 A 
ATOM     25  C   UNL A   1      39.709  28.207  30.296  1.00  0.00     0.010 A 
ATOM     26  C   UNL A   1      40.032  28.723  29.032  1.00  0.00    -0.014 A 
BRANCH  26  27
ATOM     27  C   UNL A   1      41.392  28.451  28.576  1.00  0.00     0.031 A 
ATOM     28  C   UNL A   1      41.694  27.065  28.118  1.00  0.00     0.074 A 
ATOM     29  C   UNL A   1      42.326  29.387  28.810  1.00  0.00     0.049 A 
ATOM     30  N   UNL A   1      42.851  26.499  27.929  1.00  0.00    -0.248 NA
ATOM     31  C   UNL A   1      40.538  26.165  27.938  1.00  0.00     0.031 C 
ATOM     32  C   UNL A   1      42.079  30.721  29.371  1.00  0.00     0.029 A 
ATOM     33  N   UNL A   1      43.677  29.344  28.637  1.00  0.00    -0.354 N 
ATOM     34  C   UNL A   1      42.562  25.172  27.650  1.00  0.00     0.074 A 
ATOM     35  C   UNL A   1      41.135  24.997  27.773  1.00  0.00     0.031 C 
ATOM     36  C   UNL A   1      43.243  31.381  29.465  1.00  0.00     0.029 A 
ATOM     37  C   UNL A   1      44.312  30.502  29.011  1.00  0.00     0.049 A 
ATOM     38  H   UNL A   1      44.152  28.559  28.281  1.00  0.00     0.167 HD
ATOM     39  C   UNL A   1      43.429  24.202  27.288  1.00  0.00     0.037 A 
ATOM     40  C   UNL A   1      45.621  30.796  28.975  1.00  0.00     0.037 A 
ATOM     41  C   UNL A   1      44.832  24.451  27.129  1.00  0.00     0.049 A 
ATOM     42  C   UNL A   1      46.552  29.731  28.471  1.00  0.00     0.074 A 
ATOM     43  C   UNL A   1      45.820  23.597  26.683  1.00  0.00     0.029 A 
ATOM     44  N   UNL A   1      45.438  25.674  27.398  1.00  0.00    -0.354 N 
ATOM     45  N   UNL A   1      46.276  28.494  28.125  1.00  0.00    -0.248 NA
ATOM     46  C   UNL A   1      47.965  30.095  28.339  1.00  0.00     0.031 C 
ATOM     47  C   UNL A   1      47.029  24.301  26.699  1.00  0.00     0.029 A 
ATOM     48  C   UNL A   1      46.788  25.602  27.121  1.00  0.00     0.049 A 
ATOM     49  H   UNL A   1      44.973  26.473  27.737  1.00  0.00     0.167 HD
ATOM     50  C   UNL A   1      47.472  27.939  27.702  1.00  0.00     0.074 A 
ATOM     51  C   UNL A   1      48.475  28.981  27.832  1.00  0.00     0.031 C 
ATOM     52  C   UNL A   1      47.729  26.687  27.249  1.00  0.00     0.037 A 
BRANCH  39  53
ATOM     53  C   UNL A   1      42.862  22.841  27.025  1.00  0.00     0.057 A 
ATOM     54  C   UNL A   1      42.647  22.370  25.721  1.00  0.00     0.134 A 
ATOM     55  C   UNL A   1      42.494  21.999  28.080  1.00  0.00     0.134 A 
ATOM     56  F   UNL A   1      42.955  23.136  24.662  1.00  0.00    -0.206 F 
ATOM     57  C   UNL A   1      42.051  21.132  25.476  1.00  0.00     0.040 A 
ATOM     58  C   UNL A   1      41.925  20.744  27.848  1.00  0.00     0.040 A 
ATOM     59  F   UNL A   1      42.665  22.385  29.353  1.00  0.00    -0.206 F 
ATOM     60  C   UNL A   1      41.692  20.313  26.543  1.00  0.00     0.006 A 
ENDBRANCH  39  53
BRANCH  40  61
ATOM     61  C   UNL A   1      46.091  32.152  29.343  1.00  0.00     0.057 A 
ATOM     62  C   UNL A   1      46.179  33.162  28.378  1.00  0.00     0.134 A 
ATOM     63  C   UNL A   1      46.419  32.492  30.661  1.00  0.00     0.134 A 
ATOM     64  F   UNL A   1      45.873  32.898  27.099  1.00  0.00    -0.206 F 
ATOM     65  C   UNL A   1      46.601  34.452  28.701  1.00  0.00     0.040 A 
ATOM     66  C   UNL A   1      46.824  33.784  31.004  1.00  0.00     0.040 A 
ATOM     67  F   UNL A   1      46.329  31.579  31.639  1.00  0.00    -0.206 F 
ATOM     68  C   UNL A   1      46.923  34.768  30.019  1.00  0.00     0.006 A 
ENDBRANCH  40  61
BRANCH  52  69
ATOM     69  C   UNL A   1      49.134  26.405  26.822  1.00  0.00     0.057 A 
ATOM     70  C   UNL A   1      50.037  25.752  27.666  1.00  0.00     0.134 A 
ATOM     71  C   UNL A   1      49.551  26.714  25.523  1.00  0.00     0.134 A 
ATOM     72  F   UNL A   1      49.692  25.443  28.925  1.00  0.00    -0.206 F 
ATOM     73  C   UNL A   1      51.320  25.423  27.233  1.00  0.00     0.040 A 
ATOM     74  C   UNL A   1      50.822  26.369  25.070  1.00  0.00     0.040 A 
ATOM     75  F   UNL A   1      48.719  27.331  24.668  1.00  0.00    -0.206 F 
ATOM     76  C   UNL A   1      51.711  25.722  25.927  1.00  0.00     0.006 A 
ENDBRANCH  52  69
ENDBRANCH  26  27
ENDBRANCH  18  21
ENDBRANCH  16  17
ENDBRANCH  15  16
ENDBRANCH  14  15
ENDBRANCH  12  14
ENDBRANCH   5  10
ENDBRANCH   1   5
BRANCH   2  77
ATOM     77  C   UNL A   1      30.971  26.849  23.827  1.00  0.00     0.168 C 
ATOM     78  C   UNL A   1      29.746  25.909  23.712  1.00  0.00     0.041 C 
BRANCH  77  79
ATOM     79  N   UNL A   1      32.183  26.103  23.232  1.00  0.00    -0.343 N 
ATOM     80  C   UNL A   1      33.335  25.400  23.439  1.00  0.00     0.243 C 
ATOM     81  H   UNL A   1      32.077  26.160  22.255  1.00  0.00     0.164 HD
ATOM     82  O   UNL A   1      33.925  25.283  22.336  1.00  0.00    -0.273 OA
BRANCH  80  83
ATOM     83  C   UNL A   1      34.133  24.579  24.687  1.00  0.00     0.174 C 
BRANCH  83  84
ATOM     84  N   UNL A   1      33.323  24.438  25.919  1.00  0.00    -0.343 N 
ATOM     85  C   UNL A   1      32.282  23.632  26.321  1.00  0.00     0.240 C 
ATOM     86  H   UNL A   1      33.594  25.074  26.620  1.00  0.00     0.164 HD
ATOM     87  O   UNL A   1      32.286  23.345  27.527  1.00  0.00    -0.273 OA
BRANCH  85  88
ATOM     88  C   UNL A   1      31.149  23.009  25.403  1.00  0.00     0.219 C 
BRANCH  88  89
ATOM     89  N   UNL A   1      31.547  22.742  24.019  1.00  0.00    -0.312 N 
ATOM     90  C   UNL A   1      32.036  21.655  23.359  1.00  0.00     0.407 C 
ATOM     91  H   UNL A   1      31.437  23.525  23.434  1.00  0.00     0.167 HD
ATOM     92  O   UNL A   1      32.519  21.816  22.234  1.00  0.00    -0.225 OA
BRANCH  90  93
ATOM     93  O   UNL A   1      32.046  20.460  23.981  1.00  0.00    -0.445 OA
BRANCH  93  94
ATOM     94  C   UNL A   1      32.454  19.319  23.157  1.00  0.00     0.270 C 
BRANCH  94  95
ATOM     95  C   UNL A   1      32.923  18.026  23.816  1.00  0.00    -0.011 A 
ATOM     96  C   UNL A   1      33.847  17.187  23.183  1.00  0.00     0.007 A 
ATOM     97  C   UNL A   1      32.470  17.675  25.105  1.00  0.00     0.007 A 
ATOM     98  C   UNL A   1      34.332  16.048  23.833  1.00  0.00     0.000 A 
ATOM     99  C   UNL A   1      32.959  16.536  25.753  1.00  0.00     0.000 A 
ATOM    100  C   UNL A   1      33.894  15.725  25.118  1.00  0.00     0.000 A 
ENDBRANCH  94  95
ENDBRANCH  93  94
ENDBRANCH  90  93
ENDBRANCH  88  89
ENDBRANCH  85  88
ENDBRANCH  83  84
BRANCH  83 101
ATOM    101  C   UNL A   1      35.282  23.427  24.671  1.00  0.00     0.015 C 
ATOM    102  C   UNL A   1      36.503  23.077  23.807  1.00  0.00     0.010 C 
ATOM    103  C   UNL A   1      35.719  23.092  26.112  1.00  0.00     0.010 C 
ENDBRANCH  83 101
ENDBRANCH  80  83
ENDBRANCH  77  79
ENDBRANCH   2  77
TORSDOF 23
ENDMDL
MODEL 3
REMARK VINA RESULT:     -10.9      1.335      2.116
REMARK SMILES CC(C)C[C@H](NC(=O)[C@H](C)NC(=O)[C@@H](NC(=O)CNC(=O)OCc1ccccc1)C(C)C)C(=O)NCCCNC(=O)c1ccc(-c2c3nc(c(-c4c(F)cccc4F)c4ccc([nH]4)c(-c4c(F)cccc4F)c4nc(c(-c5c(F)cccc5F)c5ccc2[nH]5)C=C4)C=C3)cc1
REMARK SMILES IDX 6 1 7 2 8 3 5 5 4 6 2 7 1 8 3 9 33 10 34 11 35 12 36 14
REMARK SMILES IDX 37 15 38 16 39 17 40 18 41 20 42 21 43 22 95 23 44 24 94 25
REMARK SMILES IDX 45 26 46 27 47 28 88 29 48 30 93 31 87 32 89 33 49 34 92 35
REMARK SMILES IDX 86 36 85 37 50 39 76 40 59 41 75 42 60 43 63 44 74 45 90 46
REMARK SMILES IDX 61 47 62 48 73 50 91 51 64 52 51 53 52 54 57 55 53 56 54 57
REMARK SMILES IDX 56 58 58 59 55 60 77 61 78 62 83 63 79 64 80 65 82 66 84 67
REMARK SMILES IDX 81 68 65 69 66 70 71 71 67 72 68 73 70 74 72 75 69 76 9 77
REMARK SMILES IDX 10 78 11 79 12 80 13 82 14 83 15 84 16 85 17 87 18 88 19 89
REMARK SMILES IDX 20 90 21 92 22 93 23 94 24 95 25 96 29 97 26 98 28 99 27 100
REMARK SMILES IDX 30 101 31 102 32 103
REMARK H PARENT 6 4 35 13 39 19 89 38 63 49 11 81 15 86 19 91
REMARK Flexibility Score: inf
ROOT
ATOM      1  N   UNL A   1      31.072  28.595  25.819  1.00  0.00    -0.343 N 
ATOM      2  C   UNL A   1      30.923  27.271  25.417  1.00  0.00     0.242 C 
ATOM      3  O   UNL A   1      30.867  26.423  26.315  1.00  0.00    -0.273 OA
ATOM      4  H   UNL A   1      31.166  28.787  26.780  1.00  0.00     0.164 HD
ENDROOT
BRANCH   1   5
ATOM      5  C   UNL A   1      31.097  29.689  24.898  1.00  0.00     0.171 C 
BRANCH   5   6
ATOM      6  C   UNL A   1      29.886  30.369  24.233  1.00  0.00     0.038 C 
BRANCH   6   7
ATOM      7  C   UNL A   1      29.188  30.207  22.894  1.00  0.00    -0.015 C 
ATOM      8  C   UNL A   1      30.139  29.703  21.821  1.00  0.00     0.007 C 
ATOM      9  C   UNL A   1      28.088  29.124  23.121  1.00  0.00     0.007 C 
ENDBRANCH   6   7
ENDBRANCH   5   6
BRANCH   5  10
ATOM     10  C   UNL A   1      31.509  30.860  25.778  1.00  0.00     0.242 C 
ATOM     11  O   UNL A   1      30.763  31.846  25.743  1.00  0.00    -0.273 OA
ATOM     12  N   UNL A   1      32.530  30.836  26.699  1.00  0.00    -0.354 N 
ATOM     13  H   UNL A   1      32.634  31.717  27.127  1.00  0.00     0.163 HD
BRANCH  12  14
ATOM     14  C   UNL A   1      33.523  29.874  27.239  1.00  0.00     0.117 C 
BRANCH  14  15
ATOM     15  C   UNL A   1      35.011  30.277  27.578  1.00  0.00     0.042 C 
BRANCH  15  16
ATOM     16  C   UNL A   1      35.717  31.248  28.612  1.00  0.00     0.118 C 
BRANCH  16  17
ATOM     17  N   UNL A   1      35.781  31.030  30.053  1.00  0.00    -0.352 N 
ATOM     18  C   UNL A   1      36.421  30.072  30.812  1.00  0.00     0.251 C 
ATOM     19  H   UNL A   1      35.275  31.689  30.581  1.00  0.00     0.163 HD
ATOM     20  O   UNL A   1      36.282  29.935  32.018  1.00  0.00    -0.269 OA
BRANCH  18  21
ATOM     21  C   UNL A   1      37.512  29.400  30.163  1.00  0.00     0.039 A 
ATOM     22  C   UNL A   1      37.886  29.695  28.858  1.00  0.00     0.014 A 
ATOM     23  C   UNL A   1      38.222  28.568  31.025  1.00  0.00     0.014 A 
ATOM     24  C   UNL A   1      39.108  29.213  28.434  1.00  0.00     0.010 A 
ATOM     25  C   UNL A   1      39.470  28.188  30.642  1.00  0.00     0.010 A 
ATOM     26  C   UNL A   1      39.913  28.519  29.352  1.00  0.00    -0.014 A 
BRANCH  26  27
ATOM     27  C   UNL A   1      41.281  28.114  29.040  1.00  0.00     0.031 A 
ATOM     28  C   UNL A   1      42.317  29.185  28.994  1.00  0.00     0.074 A 
ATOM     29  C   UNL A   1      41.473  26.861  28.597  1.00  0.00     0.049 A 
ATOM     30  N   UNL A   1      43.514  29.144  28.487  1.00  0.00    -0.248 NA
ATOM     31  C   UNL A   1      41.915  30.511  29.504  1.00  0.00     0.031 C 
ATOM     32  C   UNL A   1      40.447  25.814  28.519  1.00  0.00     0.029 A 
ATOM     33  N   UNL A   1      42.593  26.267  28.096  1.00  0.00    -0.354 N 
ATOM     34  C   UNL A   1      43.990  30.443  28.580  1.00  0.00     0.074 A 
ATOM     35  C   UNL A   1      42.930  31.263  29.114  1.00  0.00     0.031 C 
ATOM     36  C   UNL A   1      40.999  24.694  28.027  1.00  0.00     0.029 A 
ATOM     37  C   UNL A   1      42.397  24.962  27.722  1.00  0.00     0.049 A 
ATOM     38  H   UNL A   1      43.457  26.730  28.009  1.00  0.00     0.167 HD
ATOM     39  C   UNL A   1      45.227  30.888  28.273  1.00  0.00     0.037 A 
ATOM     40  C   UNL A   1      43.275  24.094  27.195  1.00  0.00     0.037 A 
ATOM     41  C   UNL A   1      46.259  30.012  27.797  1.00  0.00     0.049 A 
ATOM     42  C   UNL A   1      44.673  24.588  26.958  1.00  0.00     0.074 A 
ATOM     43  C   UNL A   1      47.582  30.295  27.528  1.00  0.00     0.029 A 
ATOM     44  N   UNL A   1      46.069  28.659  27.540  1.00  0.00    -0.354 N 
ATOM     45  N   UNL A   1      45.156  25.799  27.122  1.00  0.00    -0.248 NA
ATOM     46  C   UNL A   1      45.650  23.607  26.479  1.00  0.00     0.031 C 
ATOM     47  C   UNL A   1      48.189  29.113  27.092  1.00  0.00     0.029 A 
ATOM     48  C   UNL A   1      47.253  28.088  27.122  1.00  0.00     0.049 A 
ATOM     49  H   UNL A   1      45.215  28.178  27.641  1.00  0.00     0.167 HD
ATOM     50  C   UNL A   1      46.500  25.722  26.798  1.00  0.00     0.074 A 
ATOM     51  C   UNL A   1      46.755  24.340  26.434  1.00  0.00     0.031 C 
ATOM     52  C   UNL A   1      47.445  26.695  26.798  1.00  0.00     0.037 A 
BRANCH  39  53
ATOM     53  C   UNL A   1      45.501  32.347  28.477  1.00  0.00     0.057 A 
ATOM     54  C   UNL A   1      46.014  32.840  29.686  1.00  0.00     0.134 A 
ATOM     55  C   UNL A   1      45.220  33.278  27.471  1.00  0.00     0.134 A 
ATOM     56  F   UNL A   1      46.284  32.004  30.701  1.00  0.00    -0.206 F 
ATOM     57  C   UNL A   1      46.200  34.206  29.902  1.00  0.00     0.040 A 
ATOM     58  C   UNL A   1      45.431  34.646  27.664  1.00  0.00     0.040 A 
ATOM     59  F   UNL A   1      44.721  32.880  26.291  1.00  0.00    -0.206 F 
ATOM     60  C   UNL A   1      45.911  35.113  28.886  1.00  0.00     0.006 A 
ENDBRANCH  39  53
BRANCH  40  61
ATOM     61  C   UNL A   1      42.877  22.689  26.946  1.00  0.00     0.057 A 
ATOM     62  C   UNL A   1      42.786  22.195  25.639  1.00  0.00     0.134 A 
ATOM     63  C   UNL A   1      42.622  21.792  27.990  1.00  0.00     0.134 A 
ATOM     64  F   UNL A   1      43.024  23.005  24.596  1.00  0.00    -0.206 F 
ATOM     65  C   UNL A   1      42.431  20.871  25.377  1.00  0.00     0.040 A 
ATOM     66  C   UNL A   1      42.286  20.459  27.744  1.00  0.00     0.040 A 
ATOM     67  F   UNL A   1      42.719  22.193  29.266  1.00  0.00    -0.206 F 
ATOM     68  C   UNL A   1      42.182  19.997  26.432  1.00  0.00     0.006 A 
ENDBRANCH  40  61
BRANCH  52  69
ATOM     69  C   UNL A   1      48.835  26.280  26.437  1.00  0.00     0.057 A 
ATOM     70  C   UNL A   1      49.347  26.481  25.152  1.00  0.00     0.134 A 
ATOM     71  C   UNL A   1      49.689  25.755  27.414  1.00  0.00     0.134 A 
ATOM     72  F   UNL A   1      48.568  26.970  24.176  1.00  0.00    -0.206 F 
ATOM     73  C   UNL A   1      50.669  26.162  24.846  1.00  0.00     0.040 A 
ATOM     74  C   UNL A   1      51.018  25.456  27.125  1.00  0.00     0.040 A 
ATOM     75  F   UNL A   1      49.250  25.553  28.666  1.00  0.00    -0.206 F 
ATOM     76  C   UNL A   1      51.511  25.659  25.838  1.00  0.00     0.006 A 
ENDBRANCH  52  69
ENDBRANCH  26  27
ENDBRANCH  18  21
ENDBRANCH  16  17
ENDBRANCH  15  16
ENDBRANCH  14  15
ENDBRANCH  12  14
ENDBRANCH   5  10
ENDBRANCH   1   5
BRANCH   2  77
ATOM     77  C   UNL A   1      30.928  26.837  23.842  1.00  0.00     0.168 C 
ATOM     78  C   UNL A   1      29.643  25.977  23.750  1.00  0.00     0.041 C 
BRANCH  77  79
ATOM     79  N   UNL A   1      32.084  26.006  23.249  1.00  0.00    -0.343 N 
ATOM     80  C   UNL A   1      33.233  25.299  23.449  1.00  0.00     0.243 C 
ATOM     81  H   UNL A   1      31.913  25.969  22.280  1.00  0.00     0.164 HD
ATOM     82  O   UNL A   1      33.746  25.060  22.328  1.00  0.00    -0.273 OA
BRANCH  80  83
ATOM     83  C   UNL A   1      34.099  24.588  24.720  1.00  0.00     0.174 C 
BRANCH  83  84
ATOM     84  N   UNL A   1      33.307  24.424  25.961  1.00  0.00    -0.343 N 
ATOM     85  C   UNL A   1      32.221  23.668  26.337  1.00  0.00     0.240 C 
ATOM     86  H   UNL A   1      33.638  24.993  26.693  1.00  0.00     0.164 HD
ATOM     87  O   UNL A   1      32.230  23.304  27.523  1.00  0.00    -0.273 OA
BRANCH  85  88
ATOM     88  C   UNL A   1      31.028  23.185  25.412  1.00  0.00     0.219 C 
BRANCH  88  89
ATOM     89  N   UNL A   1      31.431  22.450  24.211  1.00  0.00    -0.312 N 
ATOM     90  C   UNL A   1      32.337  21.466  23.952  1.00  0.00     0.407 C 
ATOM     91  H   UNL A   1      30.935  22.731  23.408  1.00  0.00     0.167 HD
ATOM     92  O   UNL A   1      32.628  21.225  22.776  1.00  0.00    -0.225 OA
BRANCH  90  93
ATOM     93  O   UNL A   1      32.940  20.842  24.983  1.00  0.00    -0.445 OA
BRANCH  93  94
ATOM     94  C   UNL A   1      34.023  19.924  24.623  1.00  0.00     0.270 C 
BRANCH  94  95
ATOM     95  C   UNL A   1      33.826  18.417  24.755  1.00  0.00    -0.011 A 
ATOM     96  C   UNL A   1      34.844  17.522  24.408  1.00  0.00     0.007 A 
ATOM     97  C   UNL A   1      32.625  17.896  25.281  1.00  0.00     0.007 A 
ATOM     98  C   UNL A   1      34.681  16.149  24.611  1.00  0.00     0.000 A 
ATOM     99  C   UNL A   1      32.466  16.522  25.485  1.00  0.00     0.000 A 
ATOM    100  C   UNL A   1      33.498  15.648  25.155  1.00  0.00     0.000 A 
ENDBRANCH  94  95
ENDBRANCH  93  94
ENDBRANCH  90  93
ENDBRANCH  88  89
ENDBRANCH  85  88
ENDBRANCH  83  84
BRANCH  83 101
ATOM    101  C   UNL A   1      35.336  23.531  24.734  1.00  0.00     0.015 C 
ATOM    102  C   UNL A   1      36.172  22.772  23.693  1.00  0.00     0.010 C 
ATOM    103  C   UNL A   1      36.346  23.911  25.838  1.00  0.00     0.010 C 
ENDBRANCH  83 101
ENDBRANCH  80  83
ENDBRANCH  77  79
ENDBRANCH   2  77
TORSDOF 23
ENDMDL
