MODEL 1
REMARK VINA RESULT:     -12.5      0.000      0.000
REMARK SMILES O=C(NCCCNC(=O)[C@H]1CC(=O)N(Cc2ccccc2CN2CCCC2=O)C1)c1ccc(-c2c3nc(c(-c4c(F)cccc4F)c4ccc([nH]4)c(-c4c(F)cccc4F)c4nc(c(-c5c(F)cccc5F)c5ccc2[nH]5)C=C4)C=C3)cc1
REMARK SMILES IDX 6 1 5 2 4 3 3 4 1 5 2 6 30 8 31 9 83 10 32 11 82 12 33 13
REMARK SMILES IDX 34 14 35 15 76 16 36 17 81 18 75 19 77 20 37 21 80 22 74 23
REMARK SMILES IDX 73 24 38 26 64 27 47 28 63 29 48 30 51 31 62 32 78 33 49 34
REMARK SMILES IDX 50 35 61 37 79 38 52 39 39 40 40 41 45 42 41 43 42 44 44 45
REMARK SMILES IDX 46 46 43 47 65 48 66 49 71 50 67 51 68 52 70 53 72 54 69 55
REMARK SMILES IDX 53 56 54 57 59 58 55 59 56 60 58 61 60 62 57 63 7 64 8 65
REMARK SMILES IDX 9 67 10 68 11 69 29 70 12 71 14 72 13 73 15 74 16 75 17 76
REMARK SMILES IDX 21 77 18 78 20 79 19 80 22 81 23 82 24 83 27 84 25 85 26 86
REMARK SMILES IDX 28 87
REMARK H PARENT 3 7 77 25 51 36 7 66
REMARK Flexibility Score: inf
ROOT
ATOM      1  C   UNL A   1      36.142  20.637  25.064  1.00  0.00     0.117 C 
ENDROOT
BRANCH   1   2
ATOM      2  C   UNL A   1      37.422  19.854  24.802  1.00  0.00     0.042 C 
BRANCH   2   3
ATOM      3  C   UNL A   1      38.604  20.374  25.610  1.00  0.00     0.118 C 
BRANCH   3   4
ATOM      4  N   UNL A   1      39.681  19.400  25.701  1.00  0.00    -0.352 N 
ATOM      5  O   UNL A   1      41.812  18.684  25.848  1.00  0.00    -0.269 OA
ATOM      6  C   UNL A   1      41.000  19.585  26.033  1.00  0.00     0.251 C 
ATOM      7  H   UNL A   1      39.427  18.472  25.493  1.00  0.00     0.163 HD
BRANCH   6   8
ATOM      8  C   UNL A   1      41.444  20.879  26.595  1.00  0.00     0.039 A 
ATOM      9  C   UNL A   1      41.365  21.125  27.967  1.00  0.00     0.014 A 
ATOM     10  C   UNL A   1      41.955  21.856  25.737  1.00  0.00     0.014 A 
ATOM     11  C   UNL A   1      41.626  22.397  28.456  1.00  0.00     0.010 A 
ATOM     12  C   UNL A   1      42.323  23.103  26.248  1.00  0.00     0.010 A 
ATOM     13  C   UNL A   1      42.122  23.398  27.606  1.00  0.00    -0.014 A 
BRANCH  13  14
ATOM     14  C   UNL A   1      42.456  24.730  28.172  1.00  0.00     0.031 A 
ATOM     15  C   UNL A   1      43.872  25.089  28.529  1.00  0.00     0.074 A 
ATOM     16  C   UNL A   1      41.469  25.633  28.333  1.00  0.00     0.049 A 
ATOM     17  N   UNL A   1      44.342  26.216  29.002  1.00  0.00    -0.248 NA
ATOM     18  C   UNL A   1      44.893  24.047  28.343  1.00  0.00     0.031 C 
ATOM     19  C   UNL A   1      40.055  25.398  28.027  1.00  0.00     0.029 A 
ATOM     20  N   UNL A   1      41.502  26.930  28.770  1.00  0.00    -0.354 N 
ATOM     21  C   UNL A   1      45.703  26.013  29.192  1.00  0.00     0.074 A 
ATOM     22  C   UNL A   1      45.979  24.643  28.812  1.00  0.00     0.031 C 
ATOM     23  C   UNL A   1      39.368  26.530  28.231  1.00  0.00     0.029 A 
ATOM     24  C   UNL A   1      40.274  27.547  28.748  1.00  0.00     0.049 A 
ATOM     25  H   UNL A   1      42.326  27.378  29.071  1.00  0.00     0.167 HD
ATOM     26  C   UNL A   1      46.638  26.889  29.635  1.00  0.00     0.037 A 
ATOM     27  C   UNL A   1      39.915  28.790  29.113  1.00  0.00     0.037 A 
ATOM     28  C   UNL A   1      46.355  28.255  30.001  1.00  0.00     0.049 A 
ATOM     29  C   UNL A   1      40.964  29.729  29.633  1.00  0.00     0.074 A 
ATOM     30  C   UNL A   1      47.238  29.235  30.422  1.00  0.00     0.029 A 
ATOM     31  N   UNL A   1      45.093  28.831  30.001  1.00  0.00    -0.354 N 
ATOM     32  N   UNL A   1      42.255  29.536  29.766  1.00  0.00    -0.248 NA
ATOM     33  C   UNL A   1      40.506  31.059  30.052  1.00  0.00     0.031 C 
ATOM     34  C   UNL A   1      46.503  30.383  30.735  1.00  0.00     0.029 A 
ATOM     35  C   UNL A   1      45.170  30.143  30.442  1.00  0.00     0.049 A 
ATOM     36  H   UNL A   1      44.265  28.375  29.727  1.00  0.00     0.167 HD
ATOM     37  C   UNL A   1      42.768  30.732  30.249  1.00  0.00     0.074 A 
ATOM     38  C   UNL A   1      41.650  31.645  30.375  1.00  0.00     0.031 C 
ATOM     39  C   UNL A   1      44.051  31.046  30.555  1.00  0.00     0.037 A 
BRANCH  26  40
ATOM     40  C   UNL A   1      48.048  26.387  29.783  1.00  0.00     0.057 A 
ATOM     41  C   UNL A   1      48.985  26.469  28.745  1.00  0.00     0.134 A 
ATOM     42  C   UNL A   1      48.480  25.833  30.996  1.00  0.00     0.134 A 
ATOM     43  F   UNL A   1      48.639  26.980  27.554  1.00  0.00    -0.206 F 
ATOM     44  C   UNL A   1      50.288  25.987  28.896  1.00  0.00     0.040 A 
ATOM     45  C   UNL A   1      49.787  25.376  31.168  1.00  0.00     0.040 A 
ATOM     46  F   UNL A   1      47.640  25.730  32.037  1.00  0.00    -0.206 F 
ATOM     47  C   UNL A   1      50.694  25.443  30.113  1.00  0.00     0.006 A 
ENDBRANCH  26  40
BRANCH  27  48
ATOM     48  C   UNL A   1      38.499  29.219  28.987  1.00  0.00     0.057 A 
ATOM     49  C   UNL A   1      37.986  29.664  27.763  1.00  0.00     0.134 A 
ATOM     50  C   UNL A   1      37.624  29.189  30.080  1.00  0.00     0.134 A 
ATOM     51  F   UNL A   1      38.779  29.728  26.683  1.00  0.00    -0.206 F 
ATOM     52  C   UNL A   1      36.662  30.083  27.635  1.00  0.00     0.040 A 
ATOM     53  C   UNL A   1      36.289  29.577  29.959  1.00  0.00     0.040 A 
ATOM     54  F   UNL A   1      38.051  28.763  31.278  1.00  0.00    -0.206 F 
ATOM     55  C   UNL A   1      35.807  30.034  28.735  1.00  0.00     0.006 A 
ENDBRANCH  27  48
BRANCH  39  56
ATOM     56  C   UNL A   1      44.323  32.456  30.997  1.00  0.00     0.057 A 
ATOM     57  C   UNL A   1      44.602  33.485  30.089  1.00  0.00     0.134 A 
ATOM     58  C   UNL A   1      44.287  32.789  32.358  1.00  0.00     0.134 A 
ATOM     59  F   UNL A   1      44.667  33.233  28.773  1.00  0.00    -0.206 F 
ATOM     60  C   UNL A   1      44.871  34.786  30.521  1.00  0.00     0.040 A 
ATOM     61  C   UNL A   1      44.520  34.091  32.800  1.00  0.00     0.040 A 
ATOM     62  F   UNL A   1      44.016  31.854  33.282  1.00  0.00    -0.206 F 
ATOM     63  C   UNL A   1      44.823  35.093  31.880  1.00  0.00     0.006 A 
ENDBRANCH  39  56
ENDBRANCH  13  14
ENDBRANCH   6   8
ENDBRANCH   3   4
ENDBRANCH   2   3
ENDBRANCH   1   2
BRANCH   1  64
ATOM     64  N   UNL A   1      36.469  21.935  25.623  1.00  0.00    -0.356 N 
ATOM     65  C   UNL A   1      35.730  23.069  25.721  1.00  0.00     0.225 C 
ATOM     66  H   UNL A   1      37.378  22.006  25.993  1.00  0.00     0.163 HD
ATOM     67  O   UNL A   1      36.326  24.097  26.056  1.00  0.00    -0.275 OA
BRANCH  65  68
ATOM     68  C   UNL A   1      34.217  23.077  25.626  1.00  0.00     0.107 C 
ATOM     69  C   UNL A   1      33.315  22.939  26.840  1.00  0.00     0.115 C 
ATOM     70  C   UNL A   1      33.840  24.399  25.003  1.00  0.00     0.133 C 
ATOM     71  C   UNL A   1      32.225  23.972  26.624  1.00  0.00     0.223 C 
ATOM     72  N   UNL A   1      32.587  24.791  25.570  1.00  0.00    -0.338 N 
ATOM     73  O   UNL A   1      31.198  24.037  27.278  1.00  0.00    -0.275 OA
BRANCH  72  74
ATOM     74  C   UNL A   1      31.733  25.810  24.957  1.00  0.00     0.155 C 
BRANCH  74  75
ATOM     75  C   UNL A   1      31.854  27.244  25.461  1.00  0.00    -0.024 A 
ATOM     76  C   UNL A   1      32.320  27.408  26.788  1.00  0.00     0.006 A 
ATOM     77  C   UNL A   1      31.445  28.406  24.752  1.00  0.00    -0.024 A 
ATOM     78  C   UNL A   1      32.379  28.663  27.402  1.00  0.00     0.000 A 
ATOM     79  C   UNL A   1      31.544  29.663  25.387  1.00  0.00     0.006 A 
ATOM     80  C   UNL A   1      31.993  29.792  26.698  1.00  0.00     0.000 A 
BRANCH  77  81
ATOM     81  C   UNL A   1      30.989  28.419  23.312  1.00  0.00     0.155 C 
BRANCH  81  82
ATOM     82  N   UNL A   1      29.619  28.784  23.039  1.00  0.00    -0.338 N 
ATOM     83  C   UNL A   1      29.247  30.143  22.720  1.00  0.00     0.120 C 
ATOM     84  C   UNL A   1      28.518  27.988  23.313  1.00  0.00     0.222 C 
ATOM     85  C   UNL A   1      27.804  30.232  23.176  1.00  0.00     0.031 C 
ATOM     86  C   UNL A   1      27.290  28.810  23.008  1.00  0.00     0.102 C 
ATOM     87  O   UNL A   1      28.516  26.842  23.718  1.00  0.00    -0.275 OA
ENDBRANCH  81  82
ENDBRANCH  77  81
ENDBRANCH  74  75
ENDBRANCH  72  74
ENDBRANCH  65  68
ENDBRANCH   1  64
TORSDOF 14
ENDMDL
MODEL 2
REMARK VINA RESULT:     -12.3      0.323      6.103
REMARK SMILES O=C(NCCCNC(=O)[C@H]1CC(=O)N(Cc2ccccc2CN2CCCC2=O)C1)c1ccc(-c2c3nc(c(-c4c(F)cccc4F)c4ccc([nH]4)c(-c4c(F)cccc4F)c4nc(c(-c5c(F)cccc5F)c5ccc2[nH]5)C=C4)C=C3)cc1
REMARK SMILES IDX 6 1 5 2 4 3 3 4 1 5 2 6 30 8 31 9 83 10 32 11 82 12 33 13
REMARK SMILES IDX 34 14 35 15 76 16 36 17 81 18 75 19 77 20 37 21 80 22 74 23
REMARK SMILES IDX 73 24 38 26 64 27 47 28 63 29 48 30 51 31 62 32 78 33 49 34
REMARK SMILES IDX 50 35 61 37 79 38 52 39 39 40 40 41 45 42 41 43 42 44 44 45
REMARK SMILES IDX 46 46 43 47 65 48 66 49 71 50 67 51 68 52 70 53 72 54 69 55
REMARK SMILES IDX 53 56 54 57 59 58 55 59 56 60 58 61 60 62 57 63 7 64 8 65
REMARK SMILES IDX 9 67 10 68 11 69 29 70 12 71 14 72 13 73 15 74 16 75 17 76
REMARK SMILES IDX 21 77 18 78 20 79 19 80 22 81 23 82 24 83 27 84 25 85 26 86
REMARK SMILES IDX 28 87
REMARK H PARENT 3 7 77 25 51 36 7 66
REMARK Flexibility Score: inf
ROOT
ATOM      1  C   UNL A   1      36.324  20.646  24.998  1.00  0.00     0.117 C 
ENDROOT
BRANCH   1   2
ATOM      2  C   UNL A   1      37.591  19.821  24.818  1.00  0.00     0.042 C 
BRANCH   2   3
ATOM      3  C   UNL A   1      38.749  20.334  25.665  1.00  0.00     0.118 C 
BRANCH   3   4
ATOM      4  N   UNL A   1      39.816  19.352  25.792  1.00  0.00    -0.352 N 
ATOM      5  O   UNL A   1      41.939  18.620  25.961  1.00  0.00    -0.269 OA
ATOM      6  C   UNL A   1      41.138  19.536  26.113  1.00  0.00     0.251 C 
ATOM      7  H   UNL A   1      39.551  18.419  25.622  1.00  0.00     0.163 HD
BRANCH   6   8
ATOM      8  C   UNL A   1      41.598  20.846  26.620  1.00  0.00     0.039 A 
ATOM      9  C   UNL A   1      41.535  21.144  27.983  1.00  0.00     0.014 A 
ATOM     10  C   UNL A   1      42.107  21.786  25.721  1.00  0.00     0.014 A 
ATOM     11  C   UNL A   1      41.812  22.431  28.421  1.00  0.00     0.010 A 
ATOM     12  C   UNL A   1      42.490  23.049  26.182  1.00  0.00     0.010 A 
ATOM     13  C   UNL A   1      42.306  23.396  27.530  1.00  0.00    -0.014 A 
BRANCH  13  14
ATOM     14  C   UNL A   1      42.657  24.745  28.042  1.00  0.00     0.031 A 
ATOM     15  C   UNL A   1      41.598  25.785  28.280  1.00  0.00     0.074 A 
ATOM     16  C   UNL A   1      43.946  25.017  28.325  1.00  0.00     0.049 A 
ATOM     17  N   UNL A   1      41.726  26.999  28.754  1.00  0.00    -0.248 NA
ATOM     18  C   UNL A   1      40.215  25.422  27.932  1.00  0.00     0.031 C 
ATOM     19  C   UNL A   1      45.064  24.089  28.130  1.00  0.00     0.029 A 
ATOM     20  N   UNL A   1      44.532  26.136  28.853  1.00  0.00    -0.354 N 
ATOM     21  C   UNL A   1      40.452  27.553  28.739  1.00  0.00     0.074 A 
ATOM     22  C   UNL A   1      39.567  26.552  28.179  1.00  0.00     0.031 C 
ATOM     23  C   UNL A   1      46.189  24.656  28.586  1.00  0.00     0.029 A 
ATOM     24  C   UNL A   1      45.888  26.008  29.039  1.00  0.00     0.049 A 
ATOM     25  H   UNL A   1      44.031  26.953  29.078  1.00  0.00     0.167 HD
ATOM     26  C   UNL A   1      40.054  28.779  29.159  1.00  0.00     0.037 A 
ATOM     27  C   UNL A   1      46.791  26.886  29.511  1.00  0.00     0.037 A 
ATOM     28  C   UNL A   1      40.941  29.765  29.724  1.00  0.00     0.049 A 
ATOM     29  C   UNL A   1      46.329  28.249  29.936  1.00  0.00     0.074 A 
ATOM     30  C   UNL A   1      40.631  31.021  30.218  1.00  0.00     0.029 A 
ATOM     31  N   UNL A   1      42.314  29.612  29.861  1.00  0.00    -0.354 N 
ATOM     32  N   UNL A   1      45.114  28.742  29.957  1.00  0.00    -0.248 NA
ATOM     33  C   UNL A   1      47.366  29.176  30.407  1.00  0.00     0.031 C 
ATOM     34  C   UNL A   1      41.822  31.650  30.596  1.00  0.00     0.029 A 
ATOM     35  C   UNL A   1      42.868  30.761  30.403  1.00  0.00     0.049 A 
ATOM     36  H   UNL A   1      42.819  28.806  29.609  1.00  0.00     0.167 HD
ATOM     37  C   UNL A   1      45.235  30.024  30.476  1.00  0.00     0.074 A 
ATOM     38  C   UNL A   1      46.640  30.225  30.765  1.00  0.00     0.031 C 
ATOM     39  C   UNL A   1      44.268  30.948  30.697  1.00  0.00     0.037 A 
BRANCH  26  40
ATOM     40  C   UNL A   1      38.603  29.136  28.989  1.00  0.00     0.057 A 
ATOM     41  C   UNL A   1      37.682  29.051  30.042  1.00  0.00     0.134 A 
ATOM     42  C   UNL A   1      38.126  29.596  27.754  1.00  0.00     0.134 A 
ATOM     43  F   UNL A   1      38.068  28.610  31.249  1.00  0.00    -0.206 F 
ATOM     44  C   UNL A   1      36.335  29.376  29.864  1.00  0.00     0.040 A 
ATOM     45  C   UNL A   1      36.788  29.952  27.572  1.00  0.00     0.040 A 
ATOM     46  F   UNL A   1      38.952  29.711  26.703  1.00  0.00    -0.206 F 
ATOM     47  C   UNL A   1      35.886  29.834  28.627  1.00  0.00     0.006 A 
ENDBRANCH  26  40
BRANCH  27  48
ATOM     48  C   UNL A   1      48.220  26.494  29.615  1.00  0.00     0.057 A 
ATOM     49  C   UNL A   1      49.110  26.727  28.561  1.00  0.00     0.134 A 
ATOM     50  C   UNL A   1      48.729  25.887  30.769  1.00  0.00     0.134 A 
ATOM     51  F   UNL A   1      48.678  27.293  27.425  1.00  0.00    -0.206 F 
ATOM     52  C   UNL A   1      50.451  26.350  28.643  1.00  0.00     0.040 A 
ATOM     53  C   UNL A   1      50.075  25.533  30.876  1.00  0.00     0.040 A 
ATOM     54  F   UNL A   1      47.930  25.647  31.819  1.00  0.00    -0.206 F 
ATOM     55  C   UNL A   1      50.938  25.757  29.805  1.00  0.00     0.006 A 
ENDBRANCH  27  48
BRANCH  39  56
ATOM     56  C   UNL A   1      44.689  32.239  31.339  1.00  0.00     0.057 A 
ATOM     57  C   UNL A   1      45.058  33.363  30.590  1.00  0.00     0.134 A 
ATOM     58  C   UNL A   1      44.708  32.360  32.735  1.00  0.00     0.134 A 
ATOM     59  F   UNL A   1      45.076  33.311  29.249  1.00  0.00    -0.206 F 
ATOM     60  C   UNL A   1      45.464  34.549  31.204  1.00  0.00     0.040 A 
ATOM     61  C   UNL A   1      45.079  33.550  33.362  1.00  0.00     0.040 A 
ATOM     62  F   UNL A   1      44.358  31.325  33.515  1.00  0.00    -0.206 F 
ATOM     63  C   UNL A   1      45.469  34.647  32.595  1.00  0.00     0.006 A 
ENDBRANCH  39  56
ENDBRANCH  13  14
ENDBRANCH   6   8
ENDBRANCH   3   4
ENDBRANCH   2   3
ENDBRANCH   1   2
BRANCH   1  64
ATOM     64  N   UNL A   1      36.649  21.914  25.623  1.00  0.00    -0.356 N 
ATOM     65  C   UNL A   1      35.912  23.043  25.772  1.00  0.00     0.225 C 
ATOM     66  H   UNL A   1      37.556  21.964  26.002  1.00  0.00     0.163 HD
ATOM     67  O   UNL A   1      36.508  24.052  26.162  1.00  0.00    -0.275 OA
BRANCH  65  68
ATOM     68  C   UNL A   1      34.399  23.060  25.667  1.00  0.00     0.107 C 
ATOM     69  C   UNL A   1      33.489  22.973  26.879  1.00  0.00     0.115 C 
ATOM     70  C   UNL A   1      34.037  24.360  24.992  1.00  0.00     0.133 C 
ATOM     71  C   UNL A   1      32.409  24.006  26.618  1.00  0.00     0.223 C 
ATOM     72  N   UNL A   1      32.784  24.783  25.537  1.00  0.00    -0.338 N 
ATOM     73  O   UNL A   1      31.378  24.104  27.263  1.00  0.00    -0.275 OA
BRANCH  72  74
ATOM     74  C   UNL A   1      31.942  25.785  24.880  1.00  0.00     0.155 C 
BRANCH  74  75
ATOM     75  C   UNL A   1      32.012  27.222  25.386  1.00  0.00    -0.024 A 
ATOM     76  C   UNL A   1      32.501  27.403  26.703  1.00  0.00     0.006 A 
ATOM     77  C   UNL A   1      31.536  28.366  24.690  1.00  0.00    -0.024 A 
ATOM     78  C   UNL A   1      32.519  28.657  27.319  1.00  0.00     0.000 A 
ATOM     79  C   UNL A   1      31.595  29.625  25.327  1.00  0.00     0.006 A 
ATOM     80  C   UNL A   1      32.069  29.771  26.628  1.00  0.00     0.000 A 
BRANCH  77  81
ATOM     81  C   UNL A   1      31.047  28.363  23.261  1.00  0.00     0.155 C 
BRANCH  81  82
ATOM     82  N   UNL A   1      29.657  28.669  23.021  1.00  0.00    -0.338 N 
ATOM     83  C   UNL A   1      29.230  29.993  22.631  1.00  0.00     0.120 C 
ATOM     84  C   UNL A   1      28.593  27.861  23.390  1.00  0.00     0.222 C 
ATOM     85  C   UNL A   1      27.804  30.069  23.138  1.00  0.00     0.031 C 
ATOM     86  C   UNL A   1      27.329  28.625  23.083  1.00  0.00     0.102 C 
ATOM     87  O   UNL A   1      28.642  26.744  23.867  1.00  0.00    -0.275 OA
ENDBRANCH  81  82
ENDBRANCH  77  81
ENDBRANCH  74  75
ENDBRANCH  72  74
ENDBRANCH  65  68
ENDBRANCH   1  64
TORSDOF 14
ENDMDL
MODEL 3
REMARK VINA RESULT:     -12.2      1.626      2.733
REMARK SMILES O=C(NCCCNC(=O)[C@H]1CC(=O)N(Cc2ccccc2CN2CCCC2=O)C1)c1ccc(-c2c3nc(c(-c4c(F)cccc4F)c4ccc([nH]4)c(-c4c(F)cccc4F)c4nc(c(-c5c(F)cccc5F)c5ccc2[nH]5)C=C4)C=C3)cc1
REMARK SMILES IDX 6 1 5 2 4 3 3 4 1 5 2 6 30 8 31 9 83 10 32 11 82 12 33 13
REMARK SMILES IDX 34 14 35 15 76 16 36 17 81 18 75 19 77 20 37 21 80 22 74 23
REMARK SMILES IDX 73 24 38 26 64 27 47 28 63 29 48 30 51 31 62 32 78 33 49 34
REMARK SMILES IDX 50 35 61 37 79 38 52 39 39 40 40 41 45 42 41 43 42 44 44 45
REMARK SMILES IDX 46 46 43 47 65 48 66 49 71 50 67 51 68 52 70 53 72 54 69 55
REMARK SMILES IDX 53 56 54 57 59 58 55 59 56 60 58 61 60 62 57 63 7 64 8 65
REMARK SMILES IDX 9 67 10 68 11 69 29 70 12 71 14 72 13 73 15 74 16 75 17 76
REMARK SMILES IDX 21 77 18 78 20 79 19 80 22 81 23 82 24 83 27 84 25 85 26 86
REMARK SMILES IDX 28 87
REMARK H PARENT 3 7 77 25 51 36 7 66
REMARK Flexibility Score: inf
ROOT
ATOM      1  C   UNL A   1      37.315  21.101  24.471  1.00  0.00     0.117 C 
ENDROOT
BRANCH   1   2
ATOM      2  C   UNL A   1      37.998  19.843  24.992  1.00  0.00     0.042 C 
BRANCH   2   3
ATOM      3  C   UNL A   1      39.057  20.144  26.044  1.00  0.00     0.118 C 
BRANCH   3   4
ATOM      4  N   UNL A   1      40.196  19.243  25.953  1.00  0.00    -0.352 N 
ATOM      5  O   UNL A   1      42.364  18.668  25.748  1.00  0.00    -0.269 OA
ATOM      6  C   UNL A   1      41.537  19.515  26.068  1.00  0.00     0.251 C 
ATOM      7  H   UNL A   1      39.973  18.299  25.786  1.00  0.00     0.163 HD
BRANCH   6   8
ATOM      8  C   UNL A   1      41.981  20.838  26.555  1.00  0.00     0.039 A 
ATOM      9  C   UNL A   1      42.095  21.091  27.924  1.00  0.00     0.014 A 
ATOM     10  C   UNL A   1      42.296  21.836  25.630  1.00  0.00     0.014 A 
ATOM     11  C   UNL A   1      42.350  22.381  28.367  1.00  0.00     0.010 A 
ATOM     12  C   UNL A   1      42.661  23.108  26.080  1.00  0.00     0.010 A 
ATOM     13  C   UNL A   1      42.650  23.403  27.453  1.00  0.00    -0.014 A 
BRANCH  13  14
ATOM     14  C   UNL A   1      42.985  24.757  27.961  1.00  0.00     0.031 A 
ATOM     15  C   UNL A   1      44.413  25.190  28.137  1.00  0.00     0.074 A 
ATOM     16  C   UNL A   1      41.981  25.613  28.236  1.00  0.00     0.049 A 
ATOM     17  N   UNL A   1      44.882  26.346  28.538  1.00  0.00    -0.248 NA
ATOM     18  C   UNL A   1      45.454  24.196  27.834  1.00  0.00     0.031 C 
ATOM     19  C   UNL A   1      40.554  25.305  28.110  1.00  0.00     0.029 A 
ATOM     20  N   UNL A   1      42.002  26.917  28.654  1.00  0.00    -0.354 N 
ATOM     21  C   UNL A   1      46.264  26.212  28.559  1.00  0.00     0.074 A 
ATOM     22  C   UNL A   1      46.559  24.851  28.160  1.00  0.00     0.031 C 
ATOM     23  C   UNL A   1      39.841  26.405  28.388  1.00  0.00     0.029 A 
ATOM     24  C   UNL A   1      40.752  27.473  28.779  1.00  0.00     0.049 A 
ATOM     25  H   UNL A   1      42.833  27.409  28.847  1.00  0.00     0.167 HD
ATOM     26  C   UNL A   1      47.202  27.139  28.875  1.00  0.00     0.037 A 
ATOM     27  C   UNL A   1      40.379  28.702  29.176  1.00  0.00     0.037 A 
ATOM     28  C   UNL A   1      46.898  28.494  29.262  1.00  0.00     0.049 A 
ATOM     29  C   UNL A   1      41.436  29.699  29.554  1.00  0.00     0.074 A 
ATOM     30  C   UNL A   1      47.776  29.522  29.562  1.00  0.00     0.029 A 
ATOM     31  N   UNL A   1      45.618  29.008  29.414  1.00  0.00    -0.354 N 
ATOM     32  N   UNL A   1      42.741  29.571  29.527  1.00  0.00    -0.248 NA
ATOM     33  C   UNL A   1      40.967  31.011  30.016  1.00  0.00     0.031 C 
ATOM     34  C   UNL A   1      47.028  30.637  29.954  1.00  0.00     0.029 A 
ATOM     35  C   UNL A   1      45.683  30.328  29.831  1.00  0.00     0.049 A 
ATOM     36  H   UNL A   1      44.786  28.508  29.249  1.00  0.00     0.167 HD
ATOM     37  C   UNL A   1      43.249  30.797  29.933  1.00  0.00     0.074 A 
ATOM     38  C   UNL A   1      42.111  31.656  30.189  1.00  0.00     0.031 C 
ATOM     39  C   UNL A   1      44.542  31.178  30.074  1.00  0.00     0.037 A 
BRANCH  26  40
ATOM     40  C   UNL A   1      48.642  26.707  28.851  1.00  0.00     0.057 A 
ATOM     41  C   UNL A   1      49.264  26.112  29.957  1.00  0.00     0.134 A 
ATOM     42  C   UNL A   1      49.412  26.870  27.692  1.00  0.00     0.134 A 
ATOM     43  F   UNL A   1      48.590  25.933  31.102  1.00  0.00    -0.206 F 
ATOM     44  C   UNL A   1      50.607  25.727  29.921  1.00  0.00     0.040 A 
ATOM     45  C   UNL A   1      50.746  26.461  27.634  1.00  0.00     0.040 A 
ATOM     46  F   UNL A   1      48.880  27.424  26.592  1.00  0.00    -0.206 F 
ATOM     47  C   UNL A   1      51.350  25.896  28.755  1.00  0.00     0.006 A 
ENDBRANCH  26  40
BRANCH  27  48
ATOM     48  C   UNL A   1      38.938  29.060  29.223  1.00  0.00     0.057 A 
ATOM     49  C   UNL A   1      38.203  28.941  30.409  1.00  0.00     0.134 A 
ATOM     50  C   UNL A   1      38.264  29.534  28.091  1.00  0.00     0.134 A 
ATOM     51  F   UNL A   1      38.790  28.479  31.523  1.00  0.00    -0.206 F 
ATOM     52  C   UNL A   1      36.846  29.260  30.461  1.00  0.00     0.040 A 
ATOM     53  C   UNL A   1      36.915  29.886  28.137  1.00  0.00     0.040 A 
ATOM     54  F   UNL A   1      38.914  29.682  26.927  1.00  0.00    -0.206 F 
ATOM     55  C   UNL A   1      36.200  29.740  29.324  1.00  0.00     0.006 A 
ENDBRANCH  27  48
BRANCH  39  56
ATOM     56  C   UNL A   1      44.796  32.605  30.468  1.00  0.00     0.057 A 
ATOM     57  C   UNL A   1      44.948  32.999  31.804  1.00  0.00     0.134 A 
ATOM     58  C   UNL A   1      44.907  33.600  29.487  1.00  0.00     0.134 A 
ATOM     59  F   UNL A   1      44.839  32.100  32.794  1.00  0.00    -0.206 F 
ATOM     60  C   UNL A   1      45.166  34.333  32.151  1.00  0.00     0.040 A 
ATOM     61  C   UNL A   1      45.157  34.931  29.819  1.00  0.00     0.040 A 
ATOM     62  F   UNL A   1      44.781  33.292  28.186  1.00  0.00    -0.206 F 
ATOM     63  C   UNL A   1      45.277  35.303  31.156  1.00  0.00     0.006 A 
ENDBRANCH  39  56
ENDBRANCH  13  14
ENDBRANCH   6   8
ENDBRANCH   3   4
ENDBRANCH   2   3
ENDBRANCH   1   2
BRANCH   1  64
ATOM     64  N   UNL A   1      36.445  21.646  25.496  1.00  0.00    -0.356 N 
ATOM     65  C   UNL A   1      35.816  22.845  25.579  1.00  0.00     0.225 C 
ATOM     66  H   UNL A   1      36.285  21.046  26.261  1.00  0.00     0.163 HD
ATOM     67  O   UNL A   1      35.301  23.132  26.663  1.00  0.00    -0.275 OA
BRANCH  65  68
ATOM     68  C   UNL A   1      35.563  23.727  24.372  1.00  0.00     0.107 C 
ATOM     69  C   UNL A   1      34.802  23.250  23.148  1.00  0.00     0.115 C 
ATOM     70  C   UNL A   1      34.791  24.922  24.876  1.00  0.00     0.133 C 
ATOM     71  C   UNL A   1      33.886  24.407  22.795  1.00  0.00     0.223 C 
ATOM     72  N   UNL A   1      33.906  25.326  23.829  1.00  0.00    -0.338 N 
ATOM     73  O   UNL A   1      33.256  24.495  21.754  1.00  0.00    -0.275 OA
BRANCH  72  74
ATOM     74  C   UNL A   1      33.275  26.647  23.801  1.00  0.00     0.155 C 
BRANCH  74  75
ATOM     75  C   UNL A   1      32.875  27.278  25.130  1.00  0.00    -0.024 A 
ATOM     76  C   UNL A   1      33.794  28.196  25.693  1.00  0.00     0.006 A 
ATOM     77  C   UNL A   1      31.719  26.945  25.888  1.00  0.00    -0.024 A 
ATOM     78  C   UNL A   1      33.593  28.765  26.954  1.00  0.00     0.000 A 
ATOM     79  C   UNL A   1      31.528  27.559  27.145  1.00  0.00     0.006 A 
ATOM     80  C   UNL A   1      32.456  28.448  27.679  1.00  0.00     0.000 A 
BRANCH  77  81
ATOM     81  C   UNL A   1      30.609  26.040  25.410  1.00  0.00     0.155 C 
BRANCH  81  82
ATOM     82  N   UNL A   1      30.828  24.614  25.462  1.00  0.00    -0.338 N 
ATOM     83  C   UNL A   1      31.457  23.986  26.601  1.00  0.00     0.120 C 
ATOM     84  C   UNL A   1      30.733  23.758  24.375  1.00  0.00     0.222 C 
ATOM     85  C   UNL A   1      32.091  22.741  26.013  1.00  0.00     0.031 C 
ATOM     86  C   UNL A   1      31.181  22.396  24.843  1.00  0.00     0.102 C 
ATOM     87  O   UNL A   1      30.358  24.028  23.251  1.00  0.00    -0.275 OA
ENDBRANCH  81  82
ENDBRANCH  77  81
ENDBRANCH  74  75
ENDBRANCH  72  74
ENDBRANCH  65  68
ENDBRANCH   1  64
TORSDOF 14
ENDMDL
