MODEL 1
REMARK VINA RESULT:     -11.3      0.000      0.000
REMARK SMILES C[C@@H](C(=O)NCCCNC(=O)c1ccc(-c2c3nc(c(-c4c(F)cccc4F)c4ccc([nH]4)c(-c4c(F)cccc4F)c4nc(c(-c5c(F)cccc5F)c5ccc2[nH]5)C=C4)C=C3)cc1)c1ccc(C[C@@H]2CCC[C@@H]2O)cc1Br
REMARK SMILES IDX 6 1 5 2 3 3 4 4 2 6 1 7 66 8 67 9 78 10 68 11 77 12 79 13
REMARK SMILES IDX 69 14 70 15 71 16 72 17 75 18 73 19 74 20 76 21 7 23 8 24
REMARK SMILES IDX 9 25 10 26 11 28 12 29 13 30 65 31 14 32 64 33 15 34 16 35
REMARK SMILES IDX 17 36 58 37 18 38 63 39 57 40 59 41 19 42 62 43 56 44 55 45
REMARK SMILES IDX 20 47 46 48 29 49 45 50 30 51 33 52 44 53 60 54 31 55 32 56
REMARK SMILES IDX 43 58 61 59 34 60 21 61 22 62 27 63 23 64 24 65 26 66 28 67
REMARK SMILES IDX 25 68 47 69 48 70 53 71 49 72 50 73 52 74 54 75 51 76 35 77
REMARK SMILES IDX 36 78 41 79 37 80 38 81 40 82 42 83 39 84
REMARK H PARENT 5 5 76 22 9 27 59 46 33 57
REMARK Flexibility Score: inf
ROOT
ATOM      1  C   UNL A   1      36.307  20.517  25.338  1.00  0.00     0.117 C 
ENDROOT
BRANCH   1   2
ATOM      2  N   UNL A   1      36.483  21.858  25.859  1.00  0.00    -0.356 N 
ATOM      3  C   UNL A   1      36.015  23.053  25.396  1.00  0.00     0.227 C 
ATOM      4  O   UNL A   1      36.423  24.064  25.969  1.00  0.00    -0.274 OA
ATOM      5  H   UNL A   1      37.028  21.916  26.676  1.00  0.00     0.163 HD
BRANCH   3   6
ATOM      6  C   UNL A   1      34.975  23.082  24.268  1.00  0.00     0.106 C 
ATOM      7  C   UNL A   1      35.581  23.233  22.868  1.00  0.00     0.023 C 
BRANCH   6   8
ATOM      8  C   UNL A   1      33.846  24.069  24.562  1.00  0.00    -0.022 A 
ATOM      9  C   UNL A   1      33.603  25.058  23.588  1.00  0.00     0.006 A 
ATOM     10  C   UNL A   1      33.019  24.058  25.697  1.00  0.00     0.022 A 
ATOM     11  C   UNL A   1      32.640  26.050  23.778  1.00  0.00     0.004 A 
ATOM     12  C   UNL A   1      32.092  25.088  25.906  1.00  0.00     0.019 A 
ATOM     13  Br  UNL A   1      33.028  22.685  27.011  1.00  0.00    -0.051 Br
ATOM     14  C   UNL A   1      31.921  26.116  24.969  1.00  0.00    -0.047 A 
BRANCH  14  15
ATOM     15  C   UNL A   1      30.982  27.258  25.263  1.00  0.00     0.041 C 
BRANCH  15  16
ATOM     16  C   UNL A   1      31.596  28.596  25.737  1.00  0.00     0.022 C 
ATOM     17  C   UNL A   1      32.895  28.998  25.029  1.00  0.00     0.007 C 
ATOM     18  C   UNL A   1      31.967  28.718  27.219  1.00  0.00     0.117 C 
ATOM     19  C   UNL A   1      34.044  28.665  25.985  1.00  0.00     0.003 C 
ATOM     20  C   UNL A   1      33.410  28.239  27.304  1.00  0.00     0.032 C 
BRANCH  18  21
ATOM     21  O   UNL A   1      31.100  28.001  28.073  1.00  0.00    -0.393 OA
ATOM     22  H   UNL A   1      31.595  27.296  28.519  1.00  0.00     0.210 HD
ENDBRANCH  18  21
ENDBRANCH  15  16
ENDBRANCH  14  15
ENDBRANCH   6   8
ENDBRANCH   3   6
ENDBRANCH   1   2
BRANCH   1  23
ATOM     23  C   UNL A   1      37.644  19.905  24.925  1.00  0.00     0.042 C 
BRANCH  23  24
ATOM     24  C   UNL A   1      38.828  20.410  25.743  1.00  0.00     0.118 C 
BRANCH  24  25
ATOM     25  N   UNL A   1      39.921  19.445  25.792  1.00  0.00    -0.352 N 
ATOM     26  C   UNL A   1      41.243  19.635  26.088  1.00  0.00     0.251 C 
ATOM     27  H   UNL A   1      39.670  18.518  25.579  1.00  0.00     0.163 HD
ATOM     28  O   UNL A   1      42.048  18.722  25.886  1.00  0.00    -0.269 OA
BRANCH  26  29
ATOM     29  C   UNL A   1      41.721  20.923  26.629  1.00  0.00     0.039 A 
ATOM     30  C   UNL A   1      42.181  21.898  25.738  1.00  0.00     0.014 A 
ATOM     31  C   UNL A   1      41.748  21.167  28.006  1.00  0.00     0.014 A 
ATOM     32  C   UNL A   1      42.610  23.134  26.222  1.00  0.00     0.010 A 
ATOM     33  C   UNL A   1      42.112  22.423  28.482  1.00  0.00     0.010 A 
ATOM     34  C   UNL A   1      42.549  23.419  27.595  1.00  0.00    -0.014 A 
BRANCH  34  35
ATOM     35  C   UNL A   1      42.930  24.756  28.119  1.00  0.00     0.031 A 
ATOM     36  C   UNL A   1      41.880  25.803  28.364  1.00  0.00     0.074 A 
ATOM     37  C   UNL A   1      44.230  25.045  28.317  1.00  0.00     0.049 A 
ATOM     38  N   UNL A   1      42.025  27.044  28.755  1.00  0.00    -0.248 NA
ATOM     39  C   UNL A   1      40.483  25.412  28.116  1.00  0.00     0.031 C 
ATOM     40  C   UNL A   1      45.347  24.130  28.074  1.00  0.00     0.029 A 
ATOM     41  N   UNL A   1      44.834  26.197  28.756  1.00  0.00    -0.354 N 
ATOM     42  C   UNL A   1      40.746  27.584  28.784  1.00  0.00     0.074 A 
ATOM     43  C   UNL A   1      39.841  26.551  28.328  1.00  0.00     0.031 C 
ATOM     44  C   UNL A   1      46.497  24.747  28.384  1.00  0.00     0.029 A 
ATOM     45  C   UNL A   1      46.204  26.112  28.811  1.00  0.00     0.049 A 
ATOM     46  H   UNL A   1      44.333  27.006  29.006  1.00  0.00     0.167 HD
ATOM     47  C   UNL A   1      40.359  28.822  29.177  1.00  0.00     0.037 A 
ATOM     48  C   UNL A   1      47.121  27.035  29.158  1.00  0.00     0.037 A 
ATOM     49  C   UNL A   1      41.257  29.840  29.651  1.00  0.00     0.049 A 
ATOM     50  C   UNL A   1      46.665  28.402  29.583  1.00  0.00     0.074 A 
ATOM     51  C   UNL A   1      40.956  31.105  30.126  1.00  0.00     0.029 A 
ATOM     52  N   UNL A   1      42.637  29.710  29.710  1.00  0.00    -0.354 N 
ATOM     53  N   UNL A   1      45.447  28.878  29.669  1.00  0.00    -0.248 NA
ATOM     54  C   UNL A   1      47.712  29.361  29.963  1.00  0.00     0.031 C 
ATOM     55  C   UNL A   1      42.155  31.756  30.432  1.00  0.00     0.029 A 
ATOM     56  C   UNL A   1      43.201  30.880  30.194  1.00  0.00     0.049 A 
ATOM     57  H   UNL A   1      43.141  28.907  29.447  1.00  0.00     0.167 HD
ATOM     58  C   UNL A   1      45.578  30.177  30.140  1.00  0.00     0.074 A 
ATOM     59  C   UNL A   1      46.994  30.411  30.334  1.00  0.00     0.031 C 
ATOM     60  C   UNL A   1      44.612  31.095  30.389  1.00  0.00     0.037 A 
BRANCH  47  61
ATOM     61  C   UNL A   1      38.893  29.142  29.113  1.00  0.00     0.057 A 
ATOM     62  C   UNL A   1      38.067  29.046  30.241  1.00  0.00     0.134 A 
ATOM     63  C   UNL A   1      38.309  29.591  27.921  1.00  0.00     0.134 A 
ATOM     64  F   UNL A   1      38.561  28.612  31.410  1.00  0.00    -0.206 F 
ATOM     65  C   UNL A   1      36.708  29.361  30.180  1.00  0.00     0.040 A 
ATOM     66  C   UNL A   1      36.957  29.935  27.855  1.00  0.00     0.040 A 
ATOM     67  F   UNL A   1      39.044  29.713  26.805  1.00  0.00    -0.206 F 
ATOM     68  C   UNL A   1      36.152  29.814  28.985  1.00  0.00     0.006 A 
ENDBRANCH  47  61
BRANCH  48  69
ATOM     69  C   UNL A   1      48.566  26.690  29.138  1.00  0.00     0.057 A 
ATOM     70  C   UNL A   1      49.340  26.894  27.991  1.00  0.00     0.134 A 
ATOM     71  C   UNL A   1      49.202  26.140  30.257  1.00  0.00     0.134 A 
ATOM     72  F   UNL A   1      48.781  27.399  26.880  1.00  0.00    -0.206 F 
ATOM     73  C   UNL A   1      50.690  26.545  27.948  1.00  0.00     0.040 A 
ATOM     74  C   UNL A   1      50.558  25.811  30.237  1.00  0.00     0.040 A 
ATOM     75  F   UNL A   1      48.517  25.928  31.390  1.00  0.00    -0.206 F 
ATOM     76  C   UNL A   1      51.305  26.005  29.077  1.00  0.00     0.006 A 
ENDBRANCH  48  69
BRANCH  60  77
ATOM     77  C   UNL A   1      45.051  32.421  30.935  1.00  0.00     0.057 A 
ATOM     78  C   UNL A   1      45.195  32.645  32.310  1.00  0.00     0.134 A 
ATOM     79  C   UNL A   1      45.369  33.476  30.072  1.00  0.00     0.134 A 
ATOM     80  F   UNL A   1      44.892  31.678  33.192  1.00  0.00    -0.206 F 
ATOM     81  C   UNL A   1      45.618  33.878  32.808  1.00  0.00     0.040 A 
ATOM     82  C   UNL A   1      45.819  34.706  30.555  1.00  0.00     0.040 A 
ATOM     83  F   UNL A   1      45.262  33.326  28.743  1.00  0.00    -0.206 F 
ATOM     84  C   UNL A   1      45.939  34.910  31.929  1.00  0.00     0.006 A 
ENDBRANCH  60  77
ENDBRANCH  34  35
ENDBRANCH  26  29
ENDBRANCH  24  25
ENDBRANCH  23  24
ENDBRANCH   1  23
TORSDOF 14
ENDMDL
MODEL 2
REMARK VINA RESULT:     -11.2      1.355      6.516
REMARK SMILES C[C@@H](C(=O)NCCCNC(=O)c1ccc(-c2c3nc(c(-c4c(F)cccc4F)c4ccc([nH]4)c(-c4c(F)cccc4F)c4nc(c(-c5c(F)cccc5F)c5ccc2[nH]5)C=C4)C=C3)cc1)c1ccc(C[C@@H]2CCC[C@@H]2O)cc1Br
REMARK SMILES IDX 6 1 5 2 3 3 4 4 2 6 1 7 66 8 67 9 78 10 68 11 77 12 79 13
REMARK SMILES IDX 69 14 70 15 71 16 72 17 75 18 73 19 74 20 76 21 7 23 8 24
REMARK SMILES IDX 9 25 10 26 11 28 12 29 13 30 65 31 14 32 64 33 15 34 16 35
REMARK SMILES IDX 17 36 58 37 18 38 63 39 57 40 59 41 19 42 62 43 56 44 55 45
REMARK SMILES IDX 20 47 46 48 29 49 45 50 30 51 33 52 44 53 60 54 31 55 32 56
REMARK SMILES IDX 43 58 61 59 34 60 21 61 22 62 27 63 23 64 24 65 26 66 28 67
REMARK SMILES IDX 25 68 47 69 48 70 53 71 49 72 50 73 52 74 54 75 51 76 35 77
REMARK SMILES IDX 36 78 41 79 37 80 38 81 40 82 42 83 39 84
REMARK H PARENT 5 5 76 22 9 27 59 46 33 57
REMARK Flexibility Score: inf
ROOT
ATOM      1  C   UNL A   1      36.345  20.436  24.625  1.00  0.00     0.117 C 
ENDROOT
BRANCH   1   2
ATOM      2  N   UNL A   1      35.513  20.921  25.707  1.00  0.00    -0.356 N 
ATOM      3  C   UNL A   1      35.265  22.196  26.126  1.00  0.00     0.227 C 
ATOM      4  O   UNL A   1      34.607  22.318  27.161  1.00  0.00    -0.274 OA
ATOM      5  H   UNL A   1      35.055  20.220  26.224  1.00  0.00     0.163 HD
BRANCH   3   6
ATOM      6  C   UNL A   1      35.733  23.385  25.277  1.00  0.00     0.106 C 
ATOM      7  C   UNL A   1      36.986  24.081  25.820  1.00  0.00     0.023 C 
BRANCH   6   8
ATOM      8  C   UNL A   1      34.585  24.341  24.958  1.00  0.00    -0.022 A 
ATOM      9  C   UNL A   1      34.662  25.631  25.521  1.00  0.00     0.006 A 
ATOM     10  C   UNL A   1      33.483  24.058  24.135  1.00  0.00     0.022 A 
ATOM     11  C   UNL A   1      33.641  26.566  25.350  1.00  0.00     0.004 A 
ATOM     12  C   UNL A   1      32.437  24.982  24.011  1.00  0.00     0.019 A 
ATOM     13  Br  UNL A   1      33.302  22.472  23.103  1.00  0.00    -0.051 Br
ATOM     14  C   UNL A   1      32.485  26.228  24.649  1.00  0.00    -0.047 A 
BRANCH  14  15
ATOM     15  C   UNL A   1      31.306  27.164  24.571  1.00  0.00     0.041 C 
BRANCH  15  16
ATOM     16  C   UNL A   1      31.484  28.489  23.795  1.00  0.00     0.022 C 
ATOM     17  C   UNL A   1      30.827  29.713  24.446  1.00  0.00     0.007 C 
ATOM     18  C   UNL A   1      30.955  28.545  22.359  1.00  0.00     0.117 C 
ATOM     19  C   UNL A   1      29.527  29.978  23.681  1.00  0.00     0.003 C 
ATOM     20  C   UNL A   1      29.517  29.030  22.487  1.00  0.00     0.032 C 
BRANCH  18  21
ATOM     21  O   UNL A   1      31.060  27.313  21.677  1.00  0.00    -0.393 OA
ATOM     22  H   UNL A   1      30.325  27.227  21.050  1.00  0.00     0.210 HD
ENDBRANCH  18  21
ENDBRANCH  15  16
ENDBRANCH  14  15
ENDBRANCH   6   8
ENDBRANCH   3   6
ENDBRANCH   1   2
BRANCH   1  23
ATOM     23  C   UNL A   1      37.417  19.477  25.141  1.00  0.00     0.042 C 
BRANCH  23  24
ATOM     24  C   UNL A   1      38.702  20.172  25.579  1.00  0.00     0.118 C 
BRANCH  24  25
ATOM     25  N   UNL A   1      39.820  19.243  25.708  1.00  0.00    -0.352 N 
ATOM     26  C   UNL A   1      41.119  19.481  26.063  1.00  0.00     0.251 C 
ATOM     27  H   UNL A   1      39.607  18.303  25.509  1.00  0.00     0.163 HD
ATOM     28  O   UNL A   1      41.959  18.589  25.926  1.00  0.00    -0.269 OA
BRANCH  26  29
ATOM     29  C   UNL A   1      41.531  20.798  26.590  1.00  0.00     0.039 A 
ATOM     30  C   UNL A   1      41.960  21.779  25.691  1.00  0.00     0.014 A 
ATOM     31  C   UNL A   1      41.526  21.063  27.964  1.00  0.00     0.014 A 
ATOM     32  C   UNL A   1      42.327  23.040  26.162  1.00  0.00     0.010 A 
ATOM     33  C   UNL A   1      41.826  22.342  28.425  1.00  0.00     0.010 A 
ATOM     34  C   UNL A   1      42.232  23.343  27.529  1.00  0.00    -0.014 A 
BRANCH  34  35
ATOM     35  C   UNL A   1      42.545  24.703  28.038  1.00  0.00     0.031 A 
ATOM     36  C   UNL A   1      43.944  25.052  28.462  1.00  0.00     0.074 A 
ATOM     37  C   UNL A   1      41.553  25.604  28.174  1.00  0.00     0.049 A 
ATOM     38  N   UNL A   1      44.394  26.162  28.992  1.00  0.00    -0.248 NA
ATOM     39  C   UNL A   1      44.969  24.010  28.291  1.00  0.00     0.031 C 
ATOM     40  C   UNL A   1      40.147  25.372  27.839  1.00  0.00     0.029 A 
ATOM     41  N   UNL A   1      41.574  26.894  28.642  1.00  0.00    -0.354 N 
ATOM     42  C   UNL A   1      45.746  25.946  29.230  1.00  0.00     0.074 A 
ATOM     43  C   UNL A   1      46.033  24.586  28.830  1.00  0.00     0.031 C 
ATOM     44  C   UNL A   1      39.444  26.486  28.094  1.00  0.00     0.029 A 
ATOM     45  C   UNL A   1      40.341  27.499  28.645  1.00  0.00     0.049 A 
ATOM     46  H   UNL A   1      42.396  27.343  28.946  1.00  0.00     0.167 HD
ATOM     47  C   UNL A   1      46.667  26.812  29.716  1.00  0.00     0.037 A 
ATOM     48  C   UNL A   1      39.972  28.726  29.055  1.00  0.00     0.037 A 
ATOM     49  C   UNL A   1      46.384  28.172  30.092  1.00  0.00     0.049 A 
ATOM     50  C   UNL A   1      41.013  29.664  29.598  1.00  0.00     0.074 A 
ATOM     51  C   UNL A   1      47.261  29.144  30.541  1.00  0.00     0.029 A 
ATOM     52  N   UNL A   1      45.125  28.753  30.064  1.00  0.00    -0.354 N 
ATOM     53  N   UNL A   1      42.300  29.469  29.755  1.00  0.00    -0.248 NA
ATOM     54  C   UNL A   1      40.552  30.995  30.016  1.00  0.00     0.031 C 
ATOM     55  C   UNL A   1      46.527  30.299  30.824  1.00  0.00     0.029 A 
ATOM     56  C   UNL A   1      45.200  30.064  30.507  1.00  0.00     0.049 A 
ATOM     57  H   UNL A   1      44.301  28.301  29.772  1.00  0.00     0.167 HD
ATOM     58  C   UNL A   1      42.806  30.659  30.261  1.00  0.00     0.074 A 
ATOM     59  C   UNL A   1      41.690  31.575  30.372  1.00  0.00     0.031 C 
ATOM     60  C   UNL A   1      44.081  30.966  30.604  1.00  0.00     0.037 A 
BRANCH  47  61
ATOM     61  C   UNL A   1      48.076  26.312  29.867  1.00  0.00     0.057 A 
ATOM     62  C   UNL A   1      49.011  26.421  28.830  1.00  0.00     0.134 A 
ATOM     63  C   UNL A   1      48.512  25.754  31.075  1.00  0.00     0.134 A 
ATOM     64  F   UNL A   1      48.655  26.935  27.643  1.00  0.00    -0.206 F 
ATOM     65  C   UNL A   1      50.324  25.969  28.981  1.00  0.00     0.040 A 
ATOM     66  C   UNL A   1      49.829  25.325  31.247  1.00  0.00     0.040 A 
ATOM     67  F   UNL A   1      47.670  25.627  32.112  1.00  0.00    -0.206 F 
ATOM     68  C   UNL A   1      50.737  25.426  30.195  1.00  0.00     0.006 A 
ENDBRANCH  47  61
BRANCH  48  69
ATOM     69  C   UNL A   1      38.553  29.149  28.951  1.00  0.00     0.057 A 
ATOM     70  C   UNL A   1      37.694  29.074  30.053  1.00  0.00     0.134 A 
ATOM     71  C   UNL A   1      38.019  29.627  27.748  1.00  0.00     0.134 A 
ATOM     72  F   UNL A   1      38.143  28.606  31.227  1.00  0.00    -0.206 F 
ATOM     73  C   UNL A   1      36.350  29.438  29.960  1.00  0.00     0.040 A 
ATOM     74  C   UNL A   1      36.683  30.019  27.647  1.00  0.00     0.040 A 
ATOM     75  F   UNL A   1      38.791  29.732  26.657  1.00  0.00    -0.206 F 
ATOM     76  C   UNL A   1      35.842  29.917  28.753  1.00  0.00     0.006 A 
ENDBRANCH  48  69
BRANCH  60  77
ATOM     77  C   UNL A   1      44.344  32.359  31.093  1.00  0.00     0.057 A 
ATOM     78  C   UNL A   1      44.313  32.683  32.455  1.00  0.00     0.134 A 
ATOM     79  C   UNL A   1      44.668  33.381  30.192  1.00  0.00     0.134 A 
ATOM     80  F   UNL A   1      43.994  31.752  33.369  1.00  0.00    -0.206 F 
ATOM     81  C   UNL A   1      44.573  33.979  32.903  1.00  0.00     0.040 A 
ATOM     82  C   UNL A   1      44.957  34.674  30.629  1.00  0.00     0.040 A 
ATOM     83  F   UNL A   1      44.724  33.136  28.875  1.00  0.00    -0.206 F 
ATOM     84  C   UNL A   1      44.904  34.977  31.988  1.00  0.00     0.006 A 
ENDBRANCH  60  77
ENDBRANCH  34  35
ENDBRANCH  26  29
ENDBRANCH  24  25
ENDBRANCH  23  24
ENDBRANCH   1  23
TORSDOF 14
ENDMDL
MODEL 3
REMARK VINA RESULT:     -11.2      2.592      7.757
REMARK SMILES C[C@@H](C(=O)NCCCNC(=O)c1ccc(-c2c3nc(c(-c4c(F)cccc4F)c4ccc([nH]4)c(-c4c(F)cccc4F)c4nc(c(-c5c(F)cccc5F)c5ccc2[nH]5)C=C4)C=C3)cc1)c1ccc(C[C@@H]2CCC[C@@H]2O)cc1Br
REMARK SMILES IDX 6 1 5 2 3 3 4 4 2 6 1 7 66 8 67 9 78 10 68 11 77 12 79 13
REMARK SMILES IDX 69 14 70 15 71 16 72 17 75 18 73 19 74 20 76 21 7 23 8 24
REMARK SMILES IDX 9 25 10 26 11 28 12 29 13 30 65 31 14 32 64 33 15 34 16 35
REMARK SMILES IDX 17 36 58 37 18 38 63 39 57 40 59 41 19 42 62 43 56 44 55 45
REMARK SMILES IDX 20 47 46 48 29 49 45 50 30 51 33 52 44 53 60 54 31 55 32 56
REMARK SMILES IDX 43 58 61 59 34 60 21 61 22 62 27 63 23 64 24 65 26 66 28 67
REMARK SMILES IDX 25 68 47 69 48 70 53 71 49 72 50 73 52 74 54 75 51 76 35 77
REMARK SMILES IDX 36 78 41 79 37 80 38 81 40 82 42 83 39 84
REMARK H PARENT 5 5 76 22 9 27 59 46 33 57
REMARK Flexibility Score: inf
ROOT
ATOM      1  C   UNL A   1      32.431  26.581  26.254  1.00  0.00     0.117 C 
ENDROOT
BRANCH   1   2
ATOM      2  N   UNL A   1      31.411  26.277  25.272  1.00  0.00    -0.356 N 
ATOM      3  C   UNL A   1      31.522  25.753  24.016  1.00  0.00     0.227 C 
ATOM      4  O   UNL A   1      30.491  25.712  23.343  1.00  0.00    -0.274 OA
ATOM      5  H   UNL A   1      30.490  26.481  25.554  1.00  0.00     0.163 HD
BRANCH   3   6
ATOM      6  C   UNL A   1      32.866  25.185  23.541  1.00  0.00     0.106 C 
ATOM      7  C   UNL A   1      33.328  25.734  22.187  1.00  0.00     0.023 C 
BRANCH   6   8
ATOM      8  C   UNL A   1      32.903  23.661  23.635  1.00  0.00    -0.022 A 
ATOM      9  C   UNL A   1      32.251  22.949  22.607  1.00  0.00     0.006 A 
ATOM     10  C   UNL A   1      33.548  22.912  24.633  1.00  0.00     0.022 A 
ATOM     11  C   UNL A   1      32.166  21.557  22.622  1.00  0.00     0.004 A 
ATOM     12  C   UNL A   1      33.412  21.518  24.671  1.00  0.00     0.019 A 
ATOM     13  Br  UNL A   1      34.667  23.664  25.973  1.00  0.00    -0.051 Br
ATOM     14  C   UNL A   1      32.687  20.830  23.690  1.00  0.00    -0.047 A 
BRANCH  14  15
ATOM     15  C   UNL A   1      32.483  19.340  23.807  1.00  0.00     0.041 C 
BRANCH  15  16
ATOM     16  C   UNL A   1      33.637  18.496  24.395  1.00  0.00     0.022 C 
ATOM     17  C   UNL A   1      34.147  17.373  23.484  1.00  0.00     0.007 C 
ATOM     18  C   UNL A   1      33.377  17.767  25.718  1.00  0.00     0.117 C 
ATOM     19  C   UNL A   1      33.543  16.067  24.007  1.00  0.00     0.003 C 
ATOM     20  C   UNL A   1      32.833  16.402  25.315  1.00  0.00     0.032 C 
BRANCH  18  21
ATOM     21  O   UNL A   1      32.510  18.470  26.582  1.00  0.00    -0.393 OA
ATOM     22  H   UNL A   1      32.838  19.375  26.703  1.00  0.00     0.210 HD
ENDBRANCH  18  21
ENDBRANCH  15  16
ENDBRANCH  14  15
ENDBRANCH   6   8
ENDBRANCH   3   6
ENDBRANCH   1   2
BRANCH   1  23
ATOM     23  C   UNL A   1      32.524  28.085  26.505  1.00  0.00     0.042 C 
BRANCH  23  24
ATOM     24  C   UNL A   1      33.770  28.502  27.281  1.00  0.00     0.118 C 
BRANCH  24  25
ATOM     25  N   UNL A   1      33.734  29.904  27.679  1.00  0.00    -0.352 N 
ATOM     26  C   UNL A   1      34.681  30.658  28.316  1.00  0.00     0.251 C 
ATOM     27  H   UNL A   1      32.902  30.380  27.456  1.00  0.00     0.163 HD
ATOM     28  O   UNL A   1      34.383  31.778  28.737  1.00  0.00    -0.269 OA
BRANCH  26  29
ATOM     29  C   UNL A   1      36.049  30.141  28.519  1.00  0.00     0.039 A 
ATOM     30  C   UNL A   1      36.934  30.135  27.436  1.00  0.00     0.014 A 
ATOM     31  C   UNL A   1      36.457  29.635  29.758  1.00  0.00     0.014 A 
ATOM     32  C   UNL A   1      38.241  29.677  27.610  1.00  0.00     0.010 A 
ATOM     33  C   UNL A   1      37.780  29.242  29.946  1.00  0.00     0.010 A 
ATOM     34  C   UNL A   1      38.684  29.258  28.874  1.00  0.00    -0.014 A 
BRANCH  34  35
ATOM     35  C   UNL A   1      40.093  28.841  29.094  1.00  0.00     0.031 A 
ATOM     36  C   UNL A   1      41.081  29.793  29.707  1.00  0.00     0.074 A 
ATOM     37  C   UNL A   1      40.496  27.623  28.683  1.00  0.00     0.049 A 
ATOM     38  N   UNL A   1      42.363  29.634  29.916  1.00  0.00    -0.248 NA
ATOM     39  C   UNL A   1      40.565  31.109  30.120  1.00  0.00     0.031 C 
ATOM     40  C   UNL A   1      39.644  26.624  28.034  1.00  0.00     0.029 A 
ATOM     41  N   UNL A   1      41.728  27.021  28.741  1.00  0.00    -0.354 N 
ATOM     42  C   UNL A   1      42.809  30.828  30.467  1.00  0.00     0.074 A 
ATOM     43  C   UNL A   1      41.670  31.720  30.520  1.00  0.00     0.031 C 
ATOM     44  C   UNL A   1      40.373  25.529  27.771  1.00  0.00     0.029 A 
ATOM     45  C   UNL A   1      41.751  25.760  28.196  1.00  0.00     0.049 A 
ATOM     46  H   UNL A   1      42.520  27.453  29.134  1.00  0.00     0.167 HD
ATOM     47  C   UNL A   1      44.049  31.145  30.911  1.00  0.00     0.037 A 
ATOM     48  C   UNL A   1      42.769  24.892  28.048  1.00  0.00     0.037 A 
ATOM     49  C   UNL A   1      45.175  30.249  30.880  1.00  0.00     0.049 A 
ATOM     50  C   UNL A   1      44.136  25.271  28.543  1.00  0.00     0.074 A 
ATOM     51  C   UNL A   1      46.457  30.456  31.358  1.00  0.00     0.029 A 
ATOM     52  N   UNL A   1      45.152  28.972  30.337  1.00  0.00    -0.354 N 
ATOM     53  N   UNL A   1      44.528  26.379  29.123  1.00  0.00    -0.248 NA
ATOM     54  C   UNL A   1      45.203  24.276  28.366  1.00  0.00     0.031 C 
ATOM     55  C   UNL A   1      47.222  29.323  31.067  1.00  0.00     0.029 A 
ATOM     56  C   UNL A   1      46.405  28.390  30.451  1.00  0.00     0.049 A 
ATOM     57  H   UNL A   1      44.365  28.544  29.931  1.00  0.00     0.167 HD
ATOM     58  C   UNL A   1      45.875  26.204  29.407  1.00  0.00     0.074 A 
ATOM     59  C   UNL A   1      46.231  24.878  28.946  1.00  0.00     0.031 C 
ATOM     60  C   UNL A   1      46.742  27.065  29.995  1.00  0.00     0.037 A 
BRANCH  47  61
ATOM     61  C   UNL A   1      44.253  32.521  31.475  1.00  0.00     0.057 A 
ATOM     62  C   UNL A   1      44.068  32.796  32.837  1.00  0.00     0.134 A 
ATOM     63  C   UNL A   1      44.678  33.575  30.656  1.00  0.00     0.134 A 
ATOM     64  F   UNL A   1      43.650  31.834  33.674  1.00  0.00    -0.206 F 
ATOM     65  C   UNL A   1      44.275  34.074  33.358  1.00  0.00     0.040 A 
ATOM     66  C   UNL A   1      44.915  34.851  31.171  1.00  0.00     0.040 A 
ATOM     67  F   UNL A   1      44.882  33.380  29.344  1.00  0.00    -0.206 F 
ATOM     68  C   UNL A   1      44.707  35.104  32.525  1.00  0.00     0.006 A 
ENDBRANCH  47  61
BRANCH  48  69
ATOM     69  C   UNL A   1      42.530  23.568  27.420  1.00  0.00     0.057 A 
ATOM     70  C   UNL A   1      42.201  22.451  28.195  1.00  0.00     0.134 A 
ATOM     71  C   UNL A   1      42.637  23.385  26.036  1.00  0.00     0.134 A 
ATOM     72  F   UNL A   1      42.103  22.560  29.529  1.00  0.00    -0.206 F 
ATOM     73  C   UNL A   1      42.006  21.194  27.621  1.00  0.00     0.040 A 
ATOM     74  C   UNL A   1      42.419  22.139  25.446  1.00  0.00     0.040 A 
ATOM     75  F   UNL A   1      42.941  24.418  25.237  1.00  0.00    -0.206 F 
ATOM     76  C   UNL A   1      42.111  21.037  26.240  1.00  0.00     0.006 A 
ENDBRANCH  48  69
BRANCH  60  77
ATOM     77  C   UNL A   1      48.146  26.585  30.210  1.00  0.00     0.057 A 
ATOM     78  C   UNL A   1      49.155  26.802  29.263  1.00  0.00     0.134 A 
ATOM     79  C   UNL A   1      48.502  25.931  31.396  1.00  0.00     0.134 A 
ATOM     80  F   UNL A   1      48.876  27.411  28.100  1.00  0.00    -0.206 F 
ATOM     81  C   UNL A   1      50.463  26.365  29.478  1.00  0.00     0.040 A 
ATOM     82  C   UNL A   1      49.811  25.513  31.635  1.00  0.00     0.040 A 
ATOM     83  F   UNL A   1      47.586  25.699  32.348  1.00  0.00    -0.206 F 
ATOM     84  C   UNL A   1      50.795  25.725  30.671  1.00  0.00     0.006 A 
ENDBRANCH  60  77
ENDBRANCH  34  35
ENDBRANCH  26  29
ENDBRANCH  24  25
ENDBRANCH  23  24
ENDBRANCH   1  23
TORSDOF 14
ENDMDL
