MODEL 1
REMARK VINA RESULT:     -12.8      0.000      0.000
REMARK SMILES O=C(NCCCNC(=O)c1cccnc1C(=O)Nc1ccc([N+](=O)[O-])cc1)c1ccc(-c2c3nc(c(-c4c(F)cccc4F)c4ccc([nH]4)c(-c4c(F)cccc4F)c4nc(c(-c5c(F)cccc5F)c5ccc2[nH]5)C=C4)C=C3)cc1
REMARK SMILES IDX 5 1 4 2 3 3 1 4 2 5 28 7 29 8 81 9 30 10 80 11 31 12 32 13
REMARK SMILES IDX 33 14 74 15 34 16 79 17 73 18 75 19 35 20 78 21 72 22 71 23
REMARK SMILES IDX 36 25 62 26 45 27 61 28 46 29 49 30 60 31 76 32 47 33 48 34
REMARK SMILES IDX 59 36 77 37 50 38 37 39 38 40 43 41 39 42 40 43 42 44 44 45
REMARK SMILES IDX 41 46 63 47 64 48 69 49 65 50 66 51 68 52 70 53 67 54 51 55
REMARK SMILES IDX 52 56 57 57 53 58 54 59 56 60 58 61 55 62 6 63 7 64 8 65
REMARK SMILES IDX 9 67 10 68 11 69 15 70 12 71 14 72 13 73 16 74 17 75 18 76
REMARK SMILES IDX 19 78 20 79 27 80 21 81 26 82 22 83 23 84 24 85 25 86
REMARK H PARENT 3 6 75 24 49 35 7 66 18 77
REMARK Flexibility Score: inf
ROOT
ATOM      1  C   UNL A   1      37.831  19.972  24.988  1.00  0.00     0.042 C 
ENDROOT
BRANCH   1   2
ATOM      2  C   UNL A   1      39.132  20.216  25.763  1.00  0.00     0.118 C 
BRANCH   2   3
ATOM      3  N   UNL A   1      40.120  19.158  25.770  1.00  0.00    -0.352 N 
ATOM      4  O   UNL A   1      42.226  18.325  25.908  1.00  0.00    -0.269 OA
ATOM      5  C   UNL A   1      41.464  19.276  26.048  1.00  0.00     0.251 C 
ATOM      6  H   UNL A   1      39.796  18.254  25.552  1.00  0.00     0.163 HD
BRANCH   5   7
ATOM      7  C   UNL A   1      41.996  20.578  26.501  1.00  0.00     0.039 A 
ATOM      8  C   UNL A   1      42.089  20.874  27.865  1.00  0.00     0.014 A 
ATOM      9  C   UNL A   1      42.423  21.504  25.547  1.00  0.00     0.014 A 
ATOM     10  C   UNL A   1      42.528  22.134  28.275  1.00  0.00     0.010 A 
ATOM     11  C   UNL A   1      42.892  22.753  25.960  1.00  0.00     0.010 A 
ATOM     12  C   UNL A   1      42.924  23.087  27.325  1.00  0.00    -0.014 A 
BRANCH  12  13
ATOM     13  C   UNL A   1      43.381  24.437  27.739  1.00  0.00     0.031 A 
ATOM     14  C   UNL A   1      42.380  25.487  28.133  1.00  0.00     0.074 A 
ATOM     15  C   UNL A   1      44.693  24.741  27.708  1.00  0.00     0.049 A 
ATOM     16  N   UNL A   1      42.568  26.756  28.394  1.00  0.00    -0.248 NA
ATOM     17  C   UNL A   1      40.980  25.051  28.233  1.00  0.00     0.031 C 
ATOM     18  C   UNL A   1      45.763  23.812  27.350  1.00  0.00     0.029 A 
ATOM     19  N   UNL A   1      45.341  25.926  27.954  1.00  0.00    -0.354 N 
ATOM     20  C   UNL A   1      41.310  27.277  28.667  1.00  0.00     0.074 A 
ATOM     21  C   UNL A   1      40.364  26.189  28.519  1.00  0.00     0.031 C 
ATOM     22  C   UNL A   1      46.936  24.464  27.385  1.00  0.00     0.029 A 
ATOM     23  C   UNL A   1      46.692  25.866  27.718  1.00  0.00     0.049 A 
ATOM     24  H   UNL A   1      44.882  26.738  28.268  1.00  0.00     0.167 HD
ATOM     25  C   UNL A   1      40.974  28.545  29.008  1.00  0.00     0.037 A 
ATOM     26  C   UNL A   1      47.626  26.835  27.729  1.00  0.00     0.037 A 
ATOM     27  C   UNL A   1      41.918  29.622  29.156  1.00  0.00     0.049 A 
ATOM     28  C   UNL A   1      47.229  28.245  28.066  1.00  0.00     0.074 A 
ATOM     29  C   UNL A   1      41.680  30.931  29.538  1.00  0.00     0.029 A 
ATOM     30  N   UNL A   1      43.280  29.518  28.917  1.00  0.00    -0.354 N 
ATOM     31  N   UNL A   1      46.042  28.720  28.354  1.00  0.00    -0.248 NA
ATOM     32  C   UNL A   1      48.299  29.252  28.080  1.00  0.00     0.031 C 
ATOM     33  C   UNL A   1      42.891  31.631  29.483  1.00  0.00     0.029 A 
ATOM     34  C   UNL A   1      43.892  30.745  29.119  1.00  0.00     0.049 A 
ATOM     35  H   UNL A   1      43.744  28.693  28.646  1.00  0.00     0.167 HD
ATOM     36  C   UNL A   1      46.224  30.072  28.612  1.00  0.00     0.074 A 
ATOM     37  C   UNL A   1      47.638  30.343  28.445  1.00  0.00     0.031 C 
ATOM     38  C   UNL A   1      45.301  31.001  28.961  1.00  0.00     0.037 A 
BRANCH  25  39
ATOM     39  C   UNL A   1      39.516  28.842  29.210  1.00  0.00     0.057 A 
ATOM     40  C   UNL A   1      38.891  28.693  30.455  1.00  0.00     0.134 A 
ATOM     41  C   UNL A   1      38.729  29.300  28.145  1.00  0.00     0.134 A 
ATOM     42  F   UNL A   1      39.585  28.247  31.515  1.00  0.00    -0.206 F 
ATOM     43  C   UNL A   1      37.532  28.959  30.627  1.00  0.00     0.040 A 
ATOM     44  C   UNL A   1      37.374  29.594  28.310  1.00  0.00     0.040 A 
ATOM     45  F   UNL A   1      39.264  29.473  26.927  1.00  0.00    -0.206 F 
ATOM     46  C   UNL A   1      36.770  29.415  29.553  1.00  0.00     0.006 A 
ENDBRANCH  25  39
BRANCH  26  47
ATOM     47  C   UNL A   1      49.030  26.493  27.393  1.00  0.00     0.057 A 
ATOM     48  C   UNL A   1      49.901  25.985  28.361  1.00  0.00     0.134 A 
ATOM     49  C   UNL A   1      49.516  26.622  26.086  1.00  0.00     0.134 A 
ATOM     50  F   UNL A   1      49.496  25.856  29.633  1.00  0.00    -0.206 F 
ATOM     51  C   UNL A   1      51.209  25.617  28.043  1.00  0.00     0.040 A 
ATOM     52  C   UNL A   1      50.813  26.236  25.749  1.00  0.00     0.040 A 
ATOM     53  F   UNL A   1      48.725  27.097  25.113  1.00  0.00    -0.206 F 
ATOM     54  C   UNL A   1      51.665  25.732  26.731  1.00  0.00     0.006 A 
ENDBRANCH  26  47
BRANCH  38  55
ATOM     55  C   UNL A   1      45.789  32.393  29.237  1.00  0.00     0.057 A 
ATOM     56  C   UNL A   1      46.233  32.785  30.506  1.00  0.00     0.134 A 
ATOM     57  C   UNL A   1      45.879  33.331  28.200  1.00  0.00     0.134 A 
ATOM     58  F   UNL A   1      46.161  31.938  31.544  1.00  0.00    -0.206 F 
ATOM     59  C   UNL A   1      46.743  34.065  30.734  1.00  0.00     0.040 A 
ATOM     60  C   UNL A   1      46.407  34.605  28.412  1.00  0.00     0.040 A 
ATOM     61  F   UNL A   1      45.477  33.015  26.960  1.00  0.00    -0.206 F 
ATOM     62  C   UNL A   1      46.839  34.976  29.683  1.00  0.00     0.006 A 
ENDBRANCH  38  55
ENDBRANCH  12  13
ENDBRANCH   5   7
ENDBRANCH   2   3
ENDBRANCH   1   2
BRANCH   1  63
ATOM     63  C   UNL A   1      36.633  20.893  25.201  1.00  0.00     0.118 C 
BRANCH  63  64
ATOM     64  N   UNL A   1      36.335  21.828  24.119  1.00  0.00    -0.352 N 
ATOM     65  C   UNL A   1      35.278  22.710  23.944  1.00  0.00     0.253 C 
ATOM     66  H   UNL A   1      36.995  21.834  23.389  1.00  0.00     0.163 HD
ATOM     67  O   UNL A   1      35.335  23.583  23.086  1.00  0.00    -0.269 OA
BRANCH  65  68
ATOM     68  C   UNL A   1      34.137  22.694  24.863  1.00  0.00     0.071 A 
ATOM     69  C   UNL A   1      34.328  23.521  25.996  1.00  0.00     0.018 A 
ATOM     70  C   UNL A   1      32.894  22.082  24.689  1.00  0.00     0.141 A 
ATOM     71  C   UNL A   1      33.351  23.650  26.968  1.00  0.00     0.021 A 
ATOM     72  N   UNL A   1      31.961  22.177  25.699  1.00  0.00    -0.250 NA
ATOM     73  C   UNL A   1      32.189  22.944  26.784  1.00  0.00     0.112 A 
BRANCH  70  74
ATOM     74  C   UNL A   1      32.223  21.422  23.479  1.00  0.00     0.275 C 
ATOM     75  O   UNL A   1      31.565  22.146  22.716  1.00  0.00    -0.267 OA
ATOM     76  N   UNL A   1      32.398  20.148  22.999  1.00  0.00    -0.321 N 
ATOM     77  H   UNL A   1      32.382  20.097  22.016  1.00  0.00     0.170 HD
BRANCH  76  78
ATOM     78  C   UNL A   1      32.592  18.917  23.605  1.00  0.00     0.042 A 
ATOM     79  C   UNL A   1      32.917  17.838  22.768  1.00  0.00     0.033 A 
ATOM     80  C   UNL A   1      32.494  18.744  24.982  1.00  0.00     0.033 A 
ATOM     81  C   UNL A   1      33.403  16.655  23.321  1.00  0.00     0.088 A 
ATOM     82  C   UNL A   1      32.923  17.541  25.535  1.00  0.00     0.088 A 
ATOM     83  C   UNL A   1      33.466  16.555  24.708  1.00  0.00     0.269 A 
BRANCH  83  84
ATOM     84  N   UNL A   1      34.281  15.511  25.314  1.00  0.00     0.062 N 
ATOM     85  O   UNL A   1      33.765  14.401  25.485  1.00  0.00    -0.258 OA
ATOM     86  O   UNL A   1      35.455  15.815  25.585  1.00  0.00    -0.258 OA
ENDBRANCH  83  84
ENDBRANCH  76  78
ENDBRANCH  70  74
ENDBRANCH  65  68
ENDBRANCH  63  64
ENDBRANCH   1  63
TORSDOF 13
ENDMDL
MODEL 2
REMARK VINA RESULT:     -12.6      5.970     10.765
REMARK SMILES O=C(NCCCNC(=O)c1cccnc1C(=O)Nc1ccc([N+](=O)[O-])cc1)c1ccc(-c2c3nc(c(-c4c(F)cccc4F)c4ccc([nH]4)c(-c4c(F)cccc4F)c4nc(c(-c5c(F)cccc5F)c5ccc2[nH]5)C=C4)C=C3)cc1
REMARK SMILES IDX 5 1 4 2 3 3 1 4 2 5 28 7 29 8 81 9 30 10 80 11 31 12 32 13
REMARK SMILES IDX 33 14 74 15 34 16 79 17 73 18 75 19 35 20 78 21 72 22 71 23
REMARK SMILES IDX 36 25 62 26 45 27 61 28 46 29 49 30 60 31 76 32 47 33 48 34
REMARK SMILES IDX 59 36 77 37 50 38 37 39 38 40 43 41 39 42 40 43 42 44 44 45
REMARK SMILES IDX 41 46 63 47 64 48 69 49 65 50 66 51 68 52 70 53 67 54 51 55
REMARK SMILES IDX 52 56 57 57 53 58 54 59 56 60 58 61 55 62 6 63 7 64 8 65
REMARK SMILES IDX 9 67 10 68 11 69 15 70 12 71 14 72 13 73 16 74 17 75 18 76
REMARK SMILES IDX 19 78 20 79 27 80 21 81 26 82 22 83 23 84 24 85 25 86
REMARK H PARENT 3 6 75 24 49 35 7 66 18 77
REMARK Flexibility Score: inf
ROOT
ATOM      1  C   UNL A   1      31.530  31.018  26.198  1.00  0.00     0.042 C 
ENDROOT
BRANCH   1   2
ATOM      2  C   UNL A   1      32.581  31.830  26.964  1.00  0.00     0.118 C 
BRANCH   2   3
ATOM      3  N   UNL A   1      32.291  33.224  27.231  1.00  0.00    -0.352 N 
ATOM      4  O   UNL A   1      32.559  35.198  28.316  1.00  0.00    -0.269 OA
ATOM      5  C   UNL A   1      32.971  34.066  28.083  1.00  0.00     0.251 C 
ATOM      6  H   UNL A   1      31.525  33.612  26.751  1.00  0.00     0.163 HD
BRANCH   5   7
ATOM      7  C   UNL A   1      34.203  33.586  28.743  1.00  0.00     0.039 A 
ATOM      8  C   UNL A   1      35.461  33.981  28.277  1.00  0.00     0.014 A 
ATOM      9  C   UNL A   1      34.093  32.745  29.852  1.00  0.00     0.014 A 
ATOM     10  C   UNL A   1      36.616  33.463  28.866  1.00  0.00     0.010 A 
ATOM     11  C   UNL A   1      35.250  32.254  30.462  1.00  0.00     0.010 A 
ATOM     12  C   UNL A   1      36.519  32.588  29.958  1.00  0.00    -0.014 A 
BRANCH  12  13
ATOM     13  C   UNL A   1      37.734  32.016  30.592  1.00  0.00     0.031 A 
ATOM     14  C   UNL A   1      38.504  30.925  29.902  1.00  0.00     0.074 A 
ATOM     15  C   UNL A   1      38.115  32.435  31.813  1.00  0.00     0.049 A 
ATOM     16  N   UNL A   1      39.505  30.208  30.346  1.00  0.00    -0.248 NA
ATOM     17  C   UNL A   1      38.082  30.590  28.534  1.00  0.00     0.031 C 
ATOM     18  C   UNL A   1      37.457  33.488  32.584  1.00  0.00     0.029 A 
ATOM     19  N   UNL A   1      39.131  32.003  32.628  1.00  0.00    -0.354 N 
ATOM     20  C   UNL A   1      39.818  29.321  29.324  1.00  0.00     0.074 A 
ATOM     21  C   UNL A   1      38.887  29.578  28.245  1.00  0.00     0.031 C 
ATOM     22  C   UNL A   1      38.076  33.613  33.768  1.00  0.00     0.029 A 
ATOM     23  C   UNL A   1      39.140  32.615  33.857  1.00  0.00     0.049 A 
ATOM     24  H   UNL A   1      39.788  31.322  32.359  1.00  0.00     0.167 HD
ATOM     25  C   UNL A   1      40.792  28.379  29.290  1.00  0.00     0.037 A 
ATOM     26  C   UNL A   1      39.891  32.376  34.949  1.00  0.00     0.037 A 
ATOM     27  C   UNL A   1      41.718  28.129  30.365  1.00  0.00     0.049 A 
ATOM     28  C   UNL A   1      40.937  31.298  34.908  1.00  0.00     0.074 A 
ATOM     29  C   UNL A   1      42.764  27.224  30.409  1.00  0.00     0.029 A 
ATOM     30  N   UNL A   1      41.699  28.778  31.590  1.00  0.00    -0.354 N 
ATOM     31  N   UNL A   1      41.246  30.488  33.926  1.00  0.00    -0.248 NA
ATOM     32  C   UNL A   1      41.737  31.101  36.125  1.00  0.00     0.031 C 
ATOM     33  C   UNL A   1      43.348  27.292  31.678  1.00  0.00     0.029 A 
ATOM     34  C   UNL A   1      42.700  28.276  32.407  1.00  0.00     0.049 A 
ATOM     35  H   UNL A   1      41.068  29.491  31.843  1.00  0.00     0.167 HD
ATOM     36  C   UNL A   1      42.294  29.704  34.393  1.00  0.00     0.074 A 
ATOM     37  C   UNL A   1      42.567  30.137  35.748  1.00  0.00     0.031 C 
ATOM     38  C   UNL A   1      42.971  28.721  33.751  1.00  0.00     0.037 A 
BRANCH  25  39
ATOM     39  C   UNL A   1      40.881  27.524  28.059  1.00  0.00     0.057 A 
ATOM     40  C   UNL A   1      41.657  27.891  26.951  1.00  0.00     0.134 A 
ATOM     41  C   UNL A   1      40.194  26.306  27.987  1.00  0.00     0.134 A 
ATOM     42  F   UNL A   1      42.333  29.052  26.950  1.00  0.00    -0.206 F 
ATOM     43  C   UNL A   1      41.721  27.095  25.807  1.00  0.00     0.040 A 
ATOM     44  C   UNL A   1      40.270  25.487  26.858  1.00  0.00     0.040 A 
ATOM     45  F   UNL A   1      39.438  25.888  29.014  1.00  0.00    -0.206 F 
ATOM     46  C   UNL A   1      41.029  25.886  25.760  1.00  0.00     0.006 A 
ENDBRANCH  25  39
BRANCH  26  47
ATOM     47  C   UNL A   1      39.661  33.176  36.176  1.00  0.00     0.057 A 
ATOM     48  C   UNL A   1      40.359  34.365  36.406  1.00  0.00     0.134 A 
ATOM     49  C   UNL A   1      38.703  32.793  37.124  1.00  0.00     0.134 A 
ATOM     50  F   UNL A   1      41.301  34.772  35.542  1.00  0.00    -0.206 F 
ATOM     51  C   UNL A   1      40.115  35.147  37.536  1.00  0.00     0.040 A 
ATOM     52  C   UNL A   1      38.432  33.577  38.245  1.00  0.00     0.040 A 
ATOM     53  F   UNL A   1      37.997  31.665  36.955  1.00  0.00    -0.206 F 
ATOM     54  C   UNL A   1      39.141  34.758  38.454  1.00  0.00     0.006 A 
ENDBRANCH  26  47
BRANCH  38  55
ATOM     55  C   UNL A   1      44.108  28.071  34.482  1.00  0.00     0.057 A 
ATOM     56  C   UNL A   1      45.397  28.617  34.484  1.00  0.00     0.134 A 
ATOM     57  C   UNL A   1      43.890  26.919  35.250  1.00  0.00     0.134 A 
ATOM     58  F   UNL A   1      45.674  29.711  33.759  1.00  0.00    -0.206 F 
ATOM     59  C   UNL A   1      46.432  28.035  35.220  1.00  0.00     0.040 A 
ATOM     60  C   UNL A   1      44.911  26.342  36.005  1.00  0.00     0.040 A 
ATOM     61  F   UNL A   1      42.676  26.351  35.295  1.00  0.00    -0.206 F 
ATOM     62  C   UNL A   1      46.187  26.899  35.991  1.00  0.00     0.006 A 
ENDBRANCH  38  55
ENDBRANCH  12  13
ENDBRANCH   5   7
ENDBRANCH   2   3
ENDBRANCH   1   2
BRANCH   1  63
ATOM     63  C   UNL A   1      31.913  29.687  25.558  1.00  0.00     0.118 C 
BRANCH  63  64
ATOM     64  N   UNL A   1      33.090  29.700  24.692  1.00  0.00    -0.352 N 
ATOM     65  C   UNL A   1      33.758  28.669  24.048  1.00  0.00     0.253 C 
ATOM     66  H   UNL A   1      33.476  30.592  24.540  1.00  0.00     0.163 HD
ATOM     67  O   UNL A   1      34.579  28.913  23.172  1.00  0.00    -0.269 OA
BRANCH  65  68
ATOM     68  C   UNL A   1      33.400  27.272  24.312  1.00  0.00     0.071 A 
ATOM     69  C   UNL A   1      33.644  26.884  25.651  1.00  0.00     0.018 A 
ATOM     70  C   UNL A   1      32.762  26.367  23.462  1.00  0.00     0.141 A 
ATOM     71  C   UNL A   1      33.351  25.605  26.095  1.00  0.00     0.021 A 
ATOM     72  N   UNL A   1      32.536  25.083  23.911  1.00  0.00    -0.250 NA
ATOM     73  C   UNL A   1      32.814  24.734  25.183  1.00  0.00     0.112 A 
BRANCH  70  74
ATOM     74  C   UNL A   1      32.055  26.532  22.112  1.00  0.00     0.275 C 
ATOM     75  O   UNL A   1      32.540  25.949  21.130  1.00  0.00    -0.267 OA
ATOM     76  N   UNL A   1      30.830  27.096  21.856  1.00  0.00    -0.321 N 
ATOM     77  H   UNL A   1      30.329  26.631  21.148  1.00  0.00     0.170 HD
BRANCH  76  78
ATOM     78  C   UNL A   1      30.148  28.181  22.383  1.00  0.00     0.042 A 
ATOM     79  C   UNL A   1      30.687  29.454  22.140  1.00  0.00     0.033 A 
ATOM     80  C   UNL A   1      28.970  28.035  23.108  1.00  0.00     0.033 A 
ATOM     81  C   UNL A   1      29.919  30.589  22.384  1.00  0.00     0.088 A 
ATOM     82  C   UNL A   1      28.226  29.173  23.408  1.00  0.00     0.088 A 
ATOM     83  C   UNL A   1      28.660  30.421  22.953  1.00  0.00     0.269 A 
BRANCH  83  84
ATOM     84  N   UNL A   1      27.697  31.512  22.897  1.00  0.00     0.062 N 
ATOM     85  O   UNL A   1      27.688  32.224  21.887  1.00  0.00    -0.258 OA
ATOM     86  O   UNL A   1      26.929  31.621  23.867  1.00  0.00    -0.258 OA
ENDBRANCH  83  84
ENDBRANCH  76  78
ENDBRANCH  70  74
ENDBRANCH  65  68
ENDBRANCH  63  64
ENDBRANCH   1  63
TORSDOF 13
ENDMDL
MODEL 3
REMARK VINA RESULT:     -12.5      6.432     11.210
REMARK SMILES O=C(NCCCNC(=O)c1cccnc1C(=O)Nc1ccc([N+](=O)[O-])cc1)c1ccc(-c2c3nc(c(-c4c(F)cccc4F)c4ccc([nH]4)c(-c4c(F)cccc4F)c4nc(c(-c5c(F)cccc5F)c5ccc2[nH]5)C=C4)C=C3)cc1
REMARK SMILES IDX 5 1 4 2 3 3 1 4 2 5 28 7 29 8 81 9 30 10 80 11 31 12 32 13
REMARK SMILES IDX 33 14 74 15 34 16 79 17 73 18 75 19 35 20 78 21 72 22 71 23
REMARK SMILES IDX 36 25 62 26 45 27 61 28 46 29 49 30 60 31 76 32 47 33 48 34
REMARK SMILES IDX 59 36 77 37 50 38 37 39 38 40 43 41 39 42 40 43 42 44 44 45
REMARK SMILES IDX 41 46 63 47 64 48 69 49 65 50 66 51 68 52 70 53 67 54 51 55
REMARK SMILES IDX 52 56 57 57 53 58 54 59 56 60 58 61 55 62 6 63 7 64 8 65
REMARK SMILES IDX 9 67 10 68 11 69 15 70 12 71 14 72 13 73 16 74 17 75 18 76
REMARK SMILES IDX 19 78 20 79 27 80 21 81 26 82 22 83 23 84 24 85 25 86
REMARK H PARENT 3 6 75 24 49 35 7 66 18 77
REMARK Flexibility Score: inf
ROOT
ATOM      1  C   UNL A   1      31.520  31.615  26.520  1.00  0.00     0.042 C 
ENDROOT
BRANCH   1   2
ATOM      2  C   UNL A   1      32.624  32.437  27.195  1.00  0.00     0.118 C 
BRANCH   2   3
ATOM      3  N   UNL A   1      32.324  33.811  27.541  1.00  0.00    -0.352 N 
ATOM      4  O   UNL A   1      32.559  35.714  28.753  1.00  0.00    -0.269 OA
ATOM      5  C   UNL A   1      32.979  34.599  28.461  1.00  0.00     0.251 C 
ATOM      6  H   UNL A   1      31.569  34.228  27.067  1.00  0.00     0.163 HD
BRANCH   5   7
ATOM      7  C   UNL A   1      34.196  34.081  29.121  1.00  0.00     0.039 A 
ATOM      8  C   UNL A   1      35.465  34.456  28.671  1.00  0.00     0.014 A 
ATOM      9  C   UNL A   1      34.059  33.223  30.215  1.00  0.00     0.014 A 
ATOM     10  C   UNL A   1      36.604  33.902  29.259  1.00  0.00     0.010 A 
ATOM     11  C   UNL A   1      35.200  32.696  30.824  1.00  0.00     0.010 A 
ATOM     12  C   UNL A   1      36.480  33.010  30.335  1.00  0.00    -0.014 A 
BRANCH  12  13
ATOM     13  C   UNL A   1      37.677  32.401  30.967  1.00  0.00     0.031 A 
ATOM     14  C   UNL A   1      38.405  31.279  30.281  1.00  0.00     0.074 A 
ATOM     15  C   UNL A   1      38.077  32.814  32.184  1.00  0.00     0.049 A 
ATOM     16  N   UNL A   1      39.383  30.530  30.726  1.00  0.00    -0.248 NA
ATOM     17  C   UNL A   1      37.965  30.950  28.917  1.00  0.00     0.031 C 
ATOM     18  C   UNL A   1      37.460  33.894  32.951  1.00  0.00     0.029 A 
ATOM     19  N   UNL A   1      39.081  32.352  32.998  1.00  0.00    -0.354 N 
ATOM     20  C   UNL A   1      39.660  29.626  29.709  1.00  0.00     0.074 A 
ATOM     21  C   UNL A   1      38.734  29.909  28.631  1.00  0.00     0.031 C 
ATOM     22  C   UNL A   1      38.089  34.005  34.132  1.00  0.00     0.029 A 
ATOM     23  C   UNL A   1      39.117  32.971  34.223  1.00  0.00     0.049 A 
ATOM     24  H   UNL A   1      39.713  31.646  32.730  1.00  0.00     0.167 HD
ATOM     25  C   UNL A   1      40.600  28.651  29.676  1.00  0.00     0.037 A 
ATOM     26  C   UNL A   1      39.865  32.713  35.312  1.00  0.00     0.037 A 
ATOM     27  C   UNL A   1      41.522  28.376  30.749  1.00  0.00     0.049 A 
ATOM     28  C   UNL A   1      40.872  31.599  35.274  1.00  0.00     0.074 A 
ATOM     29  C   UNL A   1      42.536  27.435  30.794  1.00  0.00     0.029 A 
ATOM     30  N   UNL A   1      41.531  29.033  31.970  1.00  0.00    -0.354 N 
ATOM     31  N   UNL A   1      41.149  30.772  34.296  1.00  0.00    -0.248 NA
ATOM     32  C   UNL A   1      41.671  31.382  36.489  1.00  0.00     0.031 C 
ATOM     33  C   UNL A   1      43.128  27.491  32.061  1.00  0.00     0.029 A 
ATOM     34  C   UNL A   1      42.518  28.501  32.785  1.00  0.00     0.049 A 
ATOM     35  H   UNL A   1      40.927  29.769  32.220  1.00  0.00     0.167 HD
ATOM     36  C   UNL A   1      42.171  29.956  34.764  1.00  0.00     0.074 A 
ATOM     37  C   UNL A   1      42.465  30.387  36.115  1.00  0.00     0.031 C 
ATOM     38  C   UNL A   1      42.810  28.945  34.125  1.00  0.00     0.037 A 
BRANCH  25  39
ATOM     39  C   UNL A   1      40.654  27.785  28.451  1.00  0.00     0.057 A 
ATOM     40  C   UNL A   1      39.957  26.573  28.363  1.00  0.00     0.134 A 
ATOM     41  C   UNL A   1      41.404  28.178  27.334  1.00  0.00     0.134 A 
ATOM     42  F   UNL A   1      39.229  26.131  29.401  1.00  0.00    -0.206 F 
ATOM     43  C   UNL A   1      40.027  25.770  27.224  1.00  0.00     0.040 A 
ATOM     44  C   UNL A   1      41.461  27.397  26.179  1.00  0.00     0.040 A 
ATOM     45  F   UNL A   1      42.090  29.331  27.346  1.00  0.00    -0.206 F 
ATOM     46  C   UNL A   1      40.778  26.184  26.125  1.00  0.00     0.006 A 
ENDBRANCH  25  39
BRANCH  26  47
ATOM     47  C   UNL A   1      39.668  33.529  36.535  1.00  0.00     0.057 A 
ATOM     48  C   UNL A   1      40.348  34.737  36.716  1.00  0.00     0.134 A 
ATOM     49  C   UNL A   1      38.761  33.140  37.529  1.00  0.00     0.134 A 
ATOM     50  F   UNL A   1      41.242  35.151  35.806  1.00  0.00    -0.206 F 
ATOM     51  C   UNL A   1      40.133  35.533  37.842  1.00  0.00     0.040 A 
ATOM     52  C   UNL A   1      38.520  33.937  38.648  1.00  0.00     0.040 A 
ATOM     53  F   UNL A   1      38.075  31.994  37.409  1.00  0.00    -0.206 F 
ATOM     54  C   UNL A   1      39.209  35.137  38.807  1.00  0.00     0.006 A 
ENDBRANCH  26  47
BRANCH  38  55
ATOM     55  C   UNL A   1      43.928  28.260  34.856  1.00  0.00     0.057 A 
ATOM     56  C   UNL A   1      45.243  28.737  34.813  1.00  0.00     0.134 A 
ATOM     57  C   UNL A   1      43.666  27.149  35.668  1.00  0.00     0.134 A 
ATOM     58  F   UNL A   1      45.561  29.790  34.044  1.00  0.00    -0.206 F 
ATOM     59  C   UNL A   1      46.262  28.126  35.547  1.00  0.00     0.040 A 
ATOM     60  C   UNL A   1      44.672  26.544  36.422  1.00  0.00     0.040 A 
ATOM     61  F   UNL A   1      42.425  26.648  35.757  1.00  0.00    -0.206 F 
ATOM     62  C   UNL A   1      45.975  27.032  36.362  1.00  0.00     0.006 A 
ENDBRANCH  38  55
ENDBRANCH  12  13
ENDBRANCH   5   7
ENDBRANCH   2   3
ENDBRANCH   1   2
BRANCH   1  63
ATOM     63  C   UNL A   1      31.864  30.295  25.835  1.00  0.00     0.118 C 
BRANCH  63  64
ATOM     64  N   UNL A   1      31.470  29.078  26.541  1.00  0.00    -0.352 N 
ATOM     65  C   UNL A   1      31.585  27.742  26.185  1.00  0.00     0.253 C 
ATOM     66  H   UNL A   1      31.051  29.231  27.418  1.00  0.00     0.163 HD
ATOM     67  O   UNL A   1      31.416  26.861  27.020  1.00  0.00    -0.269 OA
BRANCH  65  68
ATOM     68  C   UNL A   1      32.036  27.367  24.842  1.00  0.00     0.071 A 
ATOM     69  C   UNL A   1      33.443  27.261  24.741  1.00  0.00     0.018 A 
ATOM     70  C   UNL A   1      31.260  26.998  23.741  1.00  0.00     0.141 A 
ATOM     71  C   UNL A   1      34.056  26.898  23.553  1.00  0.00     0.021 A 
ATOM     72  N   UNL A   1      31.895  26.699  22.554  1.00  0.00    -0.250 NA
ATOM     73  C   UNL A   1      33.239  26.644  22.481  1.00  0.00     0.112 A 
BRANCH  70  74
ATOM     74  C   UNL A   1      29.772  26.667  23.584  1.00  0.00     0.275 C 
ATOM     75  O   UNL A   1      29.427  25.482  23.712  1.00  0.00    -0.267 OA
ATOM     76  N   UNL A   1      28.711  27.534  23.503  1.00  0.00    -0.321 N 
ATOM     77  H   UNL A   1      27.906  27.207  23.967  1.00  0.00     0.170 HD
BRANCH  76  78
ATOM     78  C   UNL A   1      28.532  28.772  22.907  1.00  0.00     0.042 A 
ATOM     79  C   UNL A   1      27.377  29.488  23.256  1.00  0.00     0.033 A 
ATOM     80  C   UNL A   1      29.456  29.306  22.015  1.00  0.00     0.033 A 
ATOM     81  C   UNL A   1      27.273  30.838  22.929  1.00  0.00     0.088 A 
ATOM     82  C   UNL A   1      29.325  30.639  21.637  1.00  0.00     0.088 A 
ATOM     83  C   UNL A   1      28.295  31.413  22.179  1.00  0.00     0.269 A 
BRANCH  83  84
ATOM     84  N   UNL A   1      28.411  32.863  22.120  1.00  0.00     0.062 N 
ATOM     85  O   UNL A   1      27.806  33.455  21.219  1.00  0.00    -0.258 OA
ATOM     86  O   UNL A   1      29.092  33.399  23.009  1.00  0.00    -0.258 OA
ENDBRANCH  83  84
ENDBRANCH  76  78
ENDBRANCH  70  74
ENDBRANCH  65  68
ENDBRANCH  63  64
ENDBRANCH   1  63
TORSDOF 13
ENDMDL
