MODEL 1
REMARK VINA RESULT:     -10.3      0.000      0.000
REMARK SMILES O=C(Cc1ccn(C(F)F)c(=O)c1)NCCCNC(=O)c1ccc(-c2c3nc(c(-c4c(F)cccc4F)c4ccc([nH]4)c(-c4c(F)cccc4F)c4nc(c(-c5c(F)cccc5F)c5ccc2[nH]5)C=C4)C=C3)cc1
REMARK SMILES IDX 16 1 15 2 14 3 1 4 2 5 3 7 4 8 5 9 13 10 6 11 11 12 7 13
REMARK SMILES IDX 12 14 8 15 9 16 10 17 17 18 18 19 19 20 20 22 21 23 22 24
REMARK SMILES IDX 74 25 23 26 73 27 24 28 25 29 26 30 67 31 27 32 72 33 66 34
REMARK SMILES IDX 68 35 28 36 71 37 65 38 64 39 29 41 55 42 38 43 54 44 39 45
REMARK SMILES IDX 42 46 53 47 69 48 40 49 41 50 52 52 70 53 43 54 30 55 31 56
REMARK SMILES IDX 36 57 32 58 33 59 35 60 37 61 34 62 56 63 57 64 62 65 58 66
REMARK SMILES IDX 59 67 61 68 63 69 60 70 44 71 45 72 50 73 46 74 47 75 49 76
REMARK SMILES IDX 51 77 48 78
REMARK H PARENT 14 6 18 21 68 40 42 51
REMARK Flexibility Score: inf
ROOT
ATOM      1  C   UNL A   1      32.585  36.124  31.628  1.00  0.00     0.042 C 
ENDROOT
BRANCH   1   2
ATOM      2  C   UNL A   1      33.367  36.613  32.840  1.00  0.00     0.117 C 
BRANCH   2   3
ATOM      3  N   UNL A   1      33.875  35.524  33.651  1.00  0.00    -0.356 N 
ATOM      4  O   UNL A   1      36.036  35.613  32.870  1.00  0.00    -0.275 OA
ATOM      5  C   UNL A   1      35.203  35.148  33.641  1.00  0.00     0.224 C 
ATOM      6  H   UNL A   1      33.249  35.034  34.232  1.00  0.00     0.163 HD
BRANCH   5   7
ATOM      7  C   UNL A   1      35.564  34.131  34.719  1.00  0.00     0.135 C 
BRANCH   7   8
ATOM      8  C   UNL A   1      36.200  32.926  34.072  1.00  0.00    -0.032 A 
ATOM      9  C   UNL A   1      35.523  32.302  32.951  1.00  0.00     0.022 A 
ATOM     10  C   UNL A   1      37.360  32.405  34.507  1.00  0.00     0.076 A 
ATOM     11  C   UNL A   1      35.992  31.164  32.427  1.00  0.00     0.095 A 
ATOM     12  C   UNL A   1      37.923  31.165  33.898  1.00  0.00     0.255 A 
ATOM     13  N   UNL A   1      37.153  30.584  32.902  1.00  0.00    -0.258 N 
ATOM     14  O   UNL A   1      38.995  30.740  34.312  1.00  0.00    -0.269 OA
BRANCH  13  15
ATOM     15  C   UNL A   1      37.633  29.348  32.340  1.00  0.00     0.451 C 
ATOM     16  F   UNL A   1      37.487  28.327  33.217  1.00  0.00    -0.185 F 
ATOM     17  F   UNL A   1      36.961  29.030  31.206  1.00  0.00    -0.185 F 
ENDBRANCH  13  15
ENDBRANCH   7   8
ENDBRANCH   5   7
ENDBRANCH   2   3
ENDBRANCH   1   2
BRANCH   1  18
ATOM     18  C   UNL A   1      33.432  35.747  30.419  1.00  0.00     0.118 C 
BRANCH  18  19
ATOM     19  N   UNL A   1      32.677  35.198  29.301  1.00  0.00    -0.352 N 
ATOM     20  C   UNL A   1      33.062  34.230  28.398  1.00  0.00     0.251 C 
ATOM     21  H   UNL A   1      31.774  35.567  29.172  1.00  0.00     0.163 HD
ATOM     22  O   UNL A   1      32.326  33.930  27.462  1.00  0.00    -0.269 OA
BRANCH  20  23
ATOM     23  C   UNL A   1      34.388  33.586  28.533  1.00  0.00     0.039 A 
ATOM     24  C   UNL A   1      34.496  32.247  28.911  1.00  0.00     0.014 A 
ATOM     25  C   UNL A   1      35.540  34.354  28.334  1.00  0.00     0.014 A 
ATOM     26  C   UNL A   1      35.739  31.732  29.268  1.00  0.00     0.010 A 
ATOM     27  C   UNL A   1      36.797  33.807  28.615  1.00  0.00     0.010 A 
ATOM     28  C   UNL A   1      36.902  32.511  29.145  1.00  0.00    -0.014 A 
BRANCH  28  29
ATOM     29  C   UNL A   1      38.200  31.957  29.614  1.00  0.00     0.031 A 
ATOM     30  C   UNL A   1      38.993  32.655  30.690  1.00  0.00     0.074 A 
ATOM     31  C   UNL A   1      38.630  30.777  29.128  1.00  0.00     0.049 A 
ATOM     32  N   UNL A   1      40.107  32.281  31.269  1.00  0.00    -0.248 NA
ATOM     33  C   UNL A   1      38.470  33.941  31.179  1.00  0.00     0.031 C 
ATOM     34  C   UNL A   1      37.955  29.998  28.088  1.00  0.00     0.029 A 
ATOM     35  N   UNL A   1      39.718  30.013  29.465  1.00  0.00    -0.354 N 
ATOM     36  C   UNL A   1      40.425  33.286  32.174  1.00  0.00     0.074 A 
ATOM     37  C   UNL A   1      39.404  34.303  32.047  1.00  0.00     0.031 C 
ATOM     38  C   UNL A   1      38.613  28.841  27.913  1.00  0.00     0.029 A 
ATOM     39  C   UNL A   1      39.779  28.819  28.788  1.00  0.00     0.049 A 
ATOM     40  H   UNL A   1      40.389  30.293  30.128  1.00  0.00     0.167 HD
ATOM     41  C   UNL A   1      41.462  33.352  33.044  1.00  0.00     0.037 A 
ATOM     42  C   UNL A   1      40.677  27.820  28.861  1.00  0.00     0.037 A 
ATOM     43  C   UNL A   1      42.471  32.334  33.192  1.00  0.00     0.049 A 
ATOM     44  C   UNL A   1      41.836  27.935  29.807  1.00  0.00     0.074 A 
ATOM     45  C   UNL A   1      43.544  32.300  34.067  1.00  0.00     0.029 A 
ATOM     46  N   UNL A   1      42.531  31.169  32.444  1.00  0.00    -0.354 N 
ATOM     47  N   UNL A   1      42.109  28.884  30.670  1.00  0.00    -0.248 NA
ATOM     48  C   UNL A   1      42.819  26.843  29.781  1.00  0.00     0.031 C 
ATOM     49  C   UNL A   1      44.273  31.131  33.823  1.00  0.00     0.029 A 
ATOM     50  C   UNL A   1      43.633  30.418  32.822  1.00  0.00     0.049 A 
ATOM     51  H   UNL A   1      41.884  30.911  31.747  1.00  0.00     0.167 HD
ATOM     52  C   UNL A   1      43.287  28.499  31.294  1.00  0.00     0.074 A 
ATOM     53  C   UNL A   1      43.663  27.220  30.730  1.00  0.00     0.031 C 
ATOM     54  C   UNL A   1      43.999  29.152  32.245  1.00  0.00     0.037 A 
BRANCH  41  55
ATOM     55  C   UNL A   1      41.566  34.579  33.903  1.00  0.00     0.057 A 
ATOM     56  C   UNL A   1      42.346  35.670  33.500  1.00  0.00     0.134 A 
ATOM     57  C   UNL A   1      40.919  34.669  35.143  1.00  0.00     0.134 A 
ATOM     58  F   UNL A   1      42.996  35.645  32.327  1.00  0.00    -0.206 F 
ATOM     59  C   UNL A   1      42.478  36.807  34.298  1.00  0.00     0.040 A 
ATOM     60  C   UNL A   1      41.027  35.810  35.941  1.00  0.00     0.040 A 
ATOM     61  F   UNL A   1      40.147  33.663  35.581  1.00  0.00    -0.206 F 
ATOM     62  C   UNL A   1      41.813  36.881  35.521  1.00  0.00     0.006 A 
ENDBRANCH  41  55
BRANCH  42  63
ATOM     63  C   UNL A   1      40.518  26.617  28.008  1.00  0.00     0.057 A 
ATOM     64  C   UNL A   1      39.656  25.575  28.371  1.00  0.00     0.134 A 
ATOM     65  C   UNL A   1      41.214  26.489  26.801  1.00  0.00     0.134 A 
ATOM     66  F   UNL A   1      38.963  25.639  29.518  1.00  0.00    -0.206 F 
ATOM     67  C   UNL A   1      39.499  24.445  27.570  1.00  0.00     0.040 A 
ATOM     68  C   UNL A   1      41.049  25.375  25.977  1.00  0.00     0.040 A 
ATOM     69  F   UNL A   1      42.039  27.464  26.392  1.00  0.00    -0.206 F 
ATOM     70  C   UNL A   1      40.192  24.346  26.365  1.00  0.00     0.006 A 
ENDBRANCH  42  63
BRANCH  54  71
ATOM     71  C   UNL A   1      45.246  28.480  32.736  1.00  0.00     0.057 A 
ATOM     72  C   UNL A   1      45.202  27.580  33.808  1.00  0.00     0.134 A 
ATOM     73  C   UNL A   1      46.493  28.728  32.148  1.00  0.00     0.134 A 
ATOM     74  F   UNL A   1      44.039  27.302  34.417  1.00  0.00    -0.206 F 
ATOM     75  C   UNL A   1      46.355  26.948  34.276  1.00  0.00     0.040 A 
ATOM     76  C   UNL A   1      47.649  28.085  32.592  1.00  0.00     0.040 A 
ATOM     77  F   UNL A   1      46.598  29.568  31.107  1.00  0.00    -0.206 F 
ATOM     78  C   UNL A   1      47.582  27.194  33.662  1.00  0.00     0.006 A 
ENDBRANCH  54  71
ENDBRANCH  28  29
ENDBRANCH  20  23
ENDBRANCH  18  19
ENDBRANCH   1  18
TORSDOF 12
ENDMDL
MODEL 2
REMARK VINA RESULT:      -9.9      0.704      6.475
REMARK SMILES O=C(Cc1ccn(C(F)F)c(=O)c1)NCCCNC(=O)c1ccc(-c2c3nc(c(-c4c(F)cccc4F)c4ccc([nH]4)c(-c4c(F)cccc4F)c4nc(c(-c5c(F)cccc5F)c5ccc2[nH]5)C=C4)C=C3)cc1
REMARK SMILES IDX 16 1 15 2 14 3 1 4 2 5 3 7 4 8 5 9 13 10 6 11 11 12 7 13
REMARK SMILES IDX 12 14 8 15 9 16 10 17 17 18 18 19 19 20 20 22 21 23 22 24
REMARK SMILES IDX 74 25 23 26 73 27 24 28 25 29 26 30 67 31 27 32 72 33 66 34
REMARK SMILES IDX 68 35 28 36 71 37 65 38 64 39 29 41 55 42 38 43 54 44 39 45
REMARK SMILES IDX 42 46 53 47 69 48 40 49 41 50 52 52 70 53 43 54 30 55 31 56
REMARK SMILES IDX 36 57 32 58 33 59 35 60 37 61 34 62 56 63 57 64 62 65 58 66
REMARK SMILES IDX 59 67 61 68 63 69 60 70 44 71 45 72 50 73 46 74 47 75 49 76
REMARK SMILES IDX 51 77 48 78
REMARK H PARENT 14 6 18 21 68 40 42 51
REMARK Flexibility Score: inf
ROOT
ATOM      1  C   UNL A   1      32.779  36.367  31.721  1.00  0.00     0.042 C 
ENDROOT
BRANCH   1   2
ATOM      2  C   UNL A   1      33.614  36.871  32.891  1.00  0.00     0.117 C 
BRANCH   2   3
ATOM      3  N   UNL A   1      33.995  35.809  33.801  1.00  0.00    -0.356 N 
ATOM      4  O   UNL A   1      36.047  35.389  32.854  1.00  0.00    -0.275 OA
ATOM      5  C   UNL A   1      35.225  35.187  33.742  1.00  0.00     0.224 C 
ATOM      6  H   UNL A   1      33.351  35.522  34.489  1.00  0.00     0.163 HD
BRANCH   5   7
ATOM      7  C   UNL A   1      35.502  34.255  34.917  1.00  0.00     0.135 C 
BRANCH   7   8
ATOM      8  C   UNL A   1      36.359  33.107  34.449  1.00  0.00    -0.032 A 
ATOM      9  C   UNL A   1      35.890  32.296  33.342  1.00  0.00     0.022 A 
ATOM     10  C   UNL A   1      37.532  32.801  35.031  1.00  0.00     0.076 A 
ATOM     11  C   UNL A   1      36.561  31.199  32.974  1.00  0.00     0.095 A 
ATOM     12  C   UNL A   1      38.319  31.610  34.597  1.00  0.00     0.255 A 
ATOM     13  N   UNL A   1      37.739  30.839  33.602  1.00  0.00    -0.258 N 
ATOM     14  O   UNL A   1      39.394  31.385  35.141  1.00  0.00    -0.269 OA
BRANCH  13  15
ATOM     15  C   UNL A   1      38.439  29.644  33.207  1.00  0.00     0.451 C 
ATOM     16  F   UNL A   1      37.729  28.946  32.289  1.00  0.00    -0.185 F 
ATOM     17  F   UNL A   1      39.649  29.937  32.672  1.00  0.00    -0.185 F 
ENDBRANCH  13  15
ENDBRANCH   7   8
ENDBRANCH   5   7
ENDBRANCH   2   3
ENDBRANCH   1   2
BRANCH   1  18
ATOM     18  C   UNL A   1      33.561  36.068  30.448  1.00  0.00     0.118 C 
BRANCH  18  19
ATOM     19  N   UNL A   1      32.765  35.498  29.369  1.00  0.00    -0.352 N 
ATOM     20  C   UNL A   1      33.069  34.435  28.546  1.00  0.00     0.251 C 
ATOM     21  H   UNL A   1      31.895  35.929  29.206  1.00  0.00     0.163 HD
ATOM     22  O   UNL A   1      32.312  34.126  27.631  1.00  0.00    -0.269 OA
BRANCH  20  23
ATOM     23  C   UNL A   1      34.338  33.698  28.740  1.00  0.00     0.039 A 
ATOM     24  C   UNL A   1      34.370  32.516  29.481  1.00  0.00     0.014 A 
ATOM     25  C   UNL A   1      35.521  34.231  28.218  1.00  0.00     0.014 A 
ATOM     26  C   UNL A   1      35.596  31.973  29.856  1.00  0.00     0.010 A 
ATOM     27  C   UNL A   1      36.748  33.635  28.528  1.00  0.00     0.010 A 
ATOM     28  C   UNL A   1      36.800  32.537  29.402  1.00  0.00    -0.014 A 
BRANCH  28  29
ATOM     29  C   UNL A   1      38.091  31.982  29.890  1.00  0.00     0.031 A 
ATOM     30  C   UNL A   1      38.605  30.660  29.379  1.00  0.00     0.074 A 
ATOM     31  C   UNL A   1      38.845  32.708  30.738  1.00  0.00     0.049 A 
ATOM     32  N   UNL A   1      39.738  30.058  29.640  1.00  0.00    -0.248 NA
ATOM     33  C   UNL A   1      37.733  29.915  28.456  1.00  0.00     0.031 C 
ATOM     34  C   UNL A   1      38.466  34.003  31.305  1.00  0.00     0.029 A 
ATOM     35  N   UNL A   1      40.098  32.475  31.245  1.00  0.00    -0.354 N 
ATOM     36  C   UNL A   1      39.710  28.862  28.930  1.00  0.00     0.074 A 
ATOM     37  C   UNL A   1      38.434  28.809  28.251  1.00  0.00     0.031 C 
ATOM     38  C   UNL A   1      39.488  34.477  32.035  1.00  0.00     0.029 A 
ATOM     39  C   UNL A   1      40.570  33.499  32.029  1.00  0.00     0.049 A 
ATOM     40  H   UNL A   1      40.610  31.654  31.063  1.00  0.00     0.167 HD
ATOM     41  C   UNL A   1      40.664  27.904  28.838  1.00  0.00     0.037 A 
ATOM     42  C   UNL A   1      41.742  33.634  32.676  1.00  0.00     0.037 A 
ATOM     43  C   UNL A   1      41.945  27.961  29.494  1.00  0.00     0.049 A 
ATOM     44  C   UNL A   1      42.766  32.540  32.586  1.00  0.00     0.074 A 
ATOM     45  C   UNL A   1      42.987  27.050  29.436  1.00  0.00     0.029 A 
ATOM     46  N   UNL A   1      42.360  28.986  30.328  1.00  0.00    -0.354 N 
ATOM     47  N   UNL A   1      42.730  31.428  31.894  1.00  0.00    -0.248 NA
ATOM     48  C   UNL A   1      43.992  32.719  33.378  1.00  0.00     0.031 C 
ATOM     49  C   UNL A   1      44.018  27.508  30.265  1.00  0.00     0.029 A 
ATOM     50  C   UNL A   1      43.632  28.722  30.809  1.00  0.00     0.049 A 
ATOM     51  H   UNL A   1      41.827  29.786  30.548  1.00  0.00     0.167 HD
ATOM     52  C   UNL A   1      43.928  30.779  32.158  1.00  0.00     0.074 A 
ATOM     53  C   UNL A   1      44.680  31.634  33.053  1.00  0.00     0.031 C 
ATOM     54  C   UNL A   1      44.364  29.578  31.706  1.00  0.00     0.037 A 
BRANCH  41  55
ATOM     55  C   UNL A   1      40.351  26.699  28.000  1.00  0.00     0.057 A 
ATOM     56  C   UNL A   1      39.529  25.679  28.493  1.00  0.00     0.134 A 
ATOM     57  C   UNL A   1      40.890  26.532  26.717  1.00  0.00     0.134 A 
ATOM     58  F   UNL A   1      38.987  25.774  29.717  1.00  0.00    -0.206 F 
ATOM     59  C   UNL A   1      39.250  24.536  27.741  1.00  0.00     0.040 A 
ATOM     60  C   UNL A   1      40.602  25.403  25.946  1.00  0.00     0.040 A 
ATOM     61  F   UNL A   1      41.676  27.478  26.181  1.00  0.00    -0.206 F 
ATOM     62  C   UNL A   1      39.784  24.399  26.460  1.00  0.00     0.006 A 
ENDBRANCH  41  55
BRANCH  42  63
ATOM     63  C   UNL A   1      42.013  34.855  33.473  1.00  0.00     0.057 A 
ATOM     64  C   UNL A   1      41.527  34.996  34.778  1.00  0.00     0.134 A 
ATOM     65  C   UNL A   1      42.776  35.905  32.950  1.00  0.00     0.134 A 
ATOM     66  F   UNL A   1      40.786  34.025  35.333  1.00  0.00    -0.206 F 
ATOM     67  C   UNL A   1      41.783  36.141  35.532  1.00  0.00     0.040 A 
ATOM     68  C   UNL A   1      43.061  37.045  33.702  1.00  0.00     0.040 A 
ATOM     69  F   UNL A   1      43.285  35.817  31.712  1.00  0.00    -0.206 F 
ATOM     70  C   UNL A   1      42.558  37.167  34.997  1.00  0.00     0.006 A 
ENDBRANCH  42  63
BRANCH  54  71
ATOM     71  C   UNL A   1      45.719  29.133  32.168  1.00  0.00     0.057 A 
ATOM     72  C   UNL A   1      45.864  28.366  33.331  1.00  0.00     0.134 A 
ATOM     73  C   UNL A   1      46.881  29.468  31.463  1.00  0.00     0.134 A 
ATOM     74  F   UNL A   1      44.790  28.015  34.055  1.00  0.00    -0.206 F 
ATOM     75  C   UNL A   1      47.118  27.945  33.774  1.00  0.00     0.040 A 
ATOM     76  C   UNL A   1      48.139  29.034  31.883  1.00  0.00     0.040 A 
ATOM     77  F   UNL A   1      46.806  30.186  30.332  1.00  0.00    -0.206 F 
ATOM     78  C   UNL A   1      48.260  28.273  33.045  1.00  0.00     0.006 A 
ENDBRANCH  54  71
ENDBRANCH  28  29
ENDBRANCH  20  23
ENDBRANCH  18  19
ENDBRANCH   1  18
TORSDOF 12
ENDMDL
MODEL 3
REMARK VINA RESULT:      -9.8      4.800     11.301
REMARK SMILES O=C(Cc1ccn(C(F)F)c(=O)c1)NCCCNC(=O)c1ccc(-c2c3nc(c(-c4c(F)cccc4F)c4ccc([nH]4)c(-c4c(F)cccc4F)c4nc(c(-c5c(F)cccc5F)c5ccc2[nH]5)C=C4)C=C3)cc1
REMARK SMILES IDX 16 1 15 2 14 3 1 4 2 5 3 7 4 8 5 9 13 10 6 11 11 12 7 13
REMARK SMILES IDX 12 14 8 15 9 16 10 17 17 18 18 19 19 20 20 22 21 23 22 24
REMARK SMILES IDX 74 25 23 26 73 27 24 28 25 29 26 30 67 31 27 32 72 33 66 34
REMARK SMILES IDX 68 35 28 36 71 37 65 38 64 39 29 41 55 42 38 43 54 44 39 45
REMARK SMILES IDX 42 46 53 47 69 48 40 49 41 50 52 52 70 53 43 54 30 55 31 56
REMARK SMILES IDX 36 57 32 58 33 59 35 60 37 61 34 62 56 63 57 64 62 65 58 66
REMARK SMILES IDX 59 67 61 68 63 69 60 70 44 71 45 72 50 73 46 74 47 75 49 76
REMARK SMILES IDX 51 77 48 78
REMARK H PARENT 14 6 18 21 68 40 42 51
REMARK Flexibility Score: inf
ROOT
ATOM      1  C   UNL A   1      44.157  18.832  24.960  1.00  0.00     0.042 C 
ENDROOT
BRANCH   1   2
ATOM      2  C   UNL A   1      45.554  19.302  25.340  1.00  0.00     0.117 C 
BRANCH   2   3
ATOM      3  N   UNL A   1      45.975  20.466  24.584  1.00  0.00    -0.356 N 
ATOM      4  O   UNL A   1      45.650  21.994  26.272  1.00  0.00    -0.275 OA
ATOM      5  C   UNL A   1      46.044  21.727  25.142  1.00  0.00     0.224 C 
ATOM      6  H   UNL A   1      46.220  20.352  23.638  1.00  0.00     0.163 HD
BRANCH   5   7
ATOM      7  C   UNL A   1      46.711  22.763  24.242  1.00  0.00     0.135 C 
BRANCH   7   8
ATOM      8  C   UNL A   1      46.234  24.139  24.632  1.00  0.00    -0.032 A 
ATOM      9  C   UNL A   1      47.219  25.129  25.025  1.00  0.00     0.022 A 
ATOM     10  C   UNL A   1      44.932  24.474  24.640  1.00  0.00     0.076 A 
ATOM     11  C   UNL A   1      46.831  26.322  25.490  1.00  0.00     0.095 A 
ATOM     12  C   UNL A   1      44.487  25.819  25.106  1.00  0.00     0.255 A 
ATOM     13  N   UNL A   1      45.492  26.660  25.559  1.00  0.00    -0.258 N 
ATOM     14  O   UNL A   1      43.292  26.087  25.074  1.00  0.00    -0.269 OA
BRANCH  13  15
ATOM     15  C   UNL A   1      45.091  27.940  26.081  1.00  0.00     0.451 C 
ATOM     16  F   UNL A   1      43.971  27.828  26.834  1.00  0.00    -0.185 F 
ATOM     17  F   UNL A   1      46.064  28.485  26.850  1.00  0.00    -0.185 F 
ENDBRANCH  13  15
ENDBRANCH   7   8
ENDBRANCH   5   7
ENDBRANCH   2   3
ENDBRANCH   1   2
BRANCH   1  18
ATOM     18  C   UNL A   1      43.277  18.403  26.128  1.00  0.00     0.118 C 
BRANCH  18  19
ATOM     19  N   UNL A   1      41.847  18.560  25.896  1.00  0.00    -0.352 N 
ATOM     20  C   UNL A   1      41.053  19.659  26.145  1.00  0.00     0.251 C 
ATOM     21  H   UNL A   1      41.388  17.778  25.514  1.00  0.00     0.163 HD
ATOM     22  O   UNL A   1      39.841  19.600  25.958  1.00  0.00    -0.269 OA
BRANCH  20  23
ATOM     23  C   UNL A   1      41.660  20.896  26.684  1.00  0.00     0.039 A 
ATOM     24  C   UNL A   1      41.937  21.020  28.046  1.00  0.00     0.014 A 
ATOM     25  C   UNL A   1      41.902  21.968  25.819  1.00  0.00     0.014 A 
ATOM     26  C   UNL A   1      42.275  22.265  28.568  1.00  0.00     0.010 A 
ATOM     27  C   UNL A   1      42.322  23.198  26.337  1.00  0.00     0.010 A 
ATOM     28  C   UNL A   1      42.452  23.374  27.724  1.00  0.00    -0.014 A 
BRANCH  28  29
ATOM     29  C   UNL A   1      42.731  24.706  28.324  1.00  0.00     0.031 A 
ATOM     30  C   UNL A   1      44.140  25.119  28.664  1.00  0.00     0.074 A 
ATOM     31  C   UNL A   1      41.721  25.582  28.489  1.00  0.00     0.049 A 
ATOM     32  N   UNL A   1      44.576  26.264  29.128  1.00  0.00    -0.248 NA
ATOM     33  C   UNL A   1      45.199  24.117  28.461  1.00  0.00     0.031 C 
ATOM     34  C   UNL A   1      40.313  25.309  28.196  1.00  0.00     0.029 A 
ATOM     35  N   UNL A   1      41.727  26.886  28.914  1.00  0.00    -0.354 N 
ATOM     36  C   UNL A   1      45.949  26.117  29.286  1.00  0.00     0.074 A 
ATOM     37  C   UNL A   1      46.272  24.760  28.899  1.00  0.00     0.031 C 
ATOM     38  C   UNL A   1      39.600  26.430  28.395  1.00  0.00     0.029 A 
ATOM     39  C   UNL A   1      40.489  27.480  28.877  1.00  0.00     0.049 A 
ATOM     40  H   UNL A   1      42.540  27.351  29.216  1.00  0.00     0.167 HD
ATOM     41  C   UNL A   1      46.862  27.029  29.699  1.00  0.00     0.037 A 
ATOM     42  C   UNL A   1      40.111  28.730  29.200  1.00  0.00     0.037 A 
ATOM     43  C   UNL A   1      46.552  28.387  30.065  1.00  0.00     0.049 A 
ATOM     44  C   UNL A   1      41.137  29.709  29.690  1.00  0.00     0.074 A 
ATOM     45  C   UNL A   1      47.415  29.392  30.469  1.00  0.00     0.029 A 
ATOM     46  N   UNL A   1      45.277  28.931  30.073  1.00  0.00    -0.354 N 
ATOM     47  N   UNL A   1      42.433  29.558  29.812  1.00  0.00    -0.248 NA
ATOM     48  C   UNL A   1      40.643  31.033  30.096  1.00  0.00     0.031 C 
ATOM     49  C   UNL A   1      46.657  30.533  30.755  1.00  0.00     0.029 A 
ATOM     50  C   UNL A   1      45.326  30.250  30.493  1.00  0.00     0.049 A 
ATOM     51  H   UNL A   1      44.456  28.450  29.815  1.00  0.00     0.167 HD
ATOM     52  C   UNL A   1      42.911  30.766  30.300  1.00  0.00     0.074 A 
ATOM     53  C   UNL A   1      41.770  31.649  30.426  1.00  0.00     0.031 C 
ATOM     54  C   UNL A   1      44.181  31.112  30.622  1.00  0.00     0.037 A 
BRANCH  41  55
ATOM     55  C   UNL A   1      48.292  26.582  29.788  1.00  0.00     0.057 A 
ATOM     56  C   UNL A   1      48.754  25.881  30.909  1.00  0.00     0.134 A 
ATOM     57  C   UNL A   1      49.221  26.873  28.779  1.00  0.00     0.134 A 
ATOM     58  F   UNL A   1      47.918  25.577  31.913  1.00  0.00    -0.206 F 
ATOM     59  C   UNL A   1      50.087  25.483  31.024  1.00  0.00     0.040 A 
ATOM     60  C   UNL A   1      50.552  26.461  28.873  1.00  0.00     0.040 A 
ATOM     61  F   UNL A   1      48.840  27.530  27.674  1.00  0.00    -0.206 F 
ATOM     62  C   UNL A   1      50.989  25.770  30.000  1.00  0.00     0.006 A 
ENDBRANCH  41  55
BRANCH  42  63
ATOM     63  C   UNL A   1      38.688  29.130  29.072  1.00  0.00     0.057 A 
ATOM     64  C   UNL A   1      38.169  29.595  27.858  1.00  0.00     0.134 A 
ATOM     65  C   UNL A   1      37.813  29.043  30.160  1.00  0.00     0.134 A 
ATOM     66  F   UNL A   1      38.959  29.704  26.780  1.00  0.00    -0.206 F 
ATOM     67  C   UNL A   1      36.831  29.967  27.733  1.00  0.00     0.040 A 
ATOM     68  C   UNL A   1      36.466  29.389  30.043  1.00  0.00     0.040 A 
ATOM     69  F   UNL A   1      38.249  28.586  31.343  1.00  0.00    -0.206 F 
ATOM     70  C   UNL A   1      35.973  29.858  28.825  1.00  0.00     0.006 A 
ENDBRANCH  42  63
BRANCH  54  71
ATOM     71  C   UNL A   1      44.393  32.507  31.130  1.00  0.00     0.057 A 
ATOM     72  C   UNL A   1      44.635  33.564  30.244  1.00  0.00     0.134 A 
ATOM     73  C   UNL A   1      44.363  32.802  32.499  1.00  0.00     0.134 A 
ATOM     74  F   UNL A   1      44.681  33.347  28.921  1.00  0.00    -0.206 F 
ATOM     75  C   UNL A   1      44.835  34.867  30.702  1.00  0.00     0.040 A 
ATOM     76  C   UNL A   1      44.539  34.104  32.968  1.00  0.00     0.040 A 
ATOM     77  F   UNL A   1      44.120  31.835  33.397  1.00  0.00    -0.206 F 
ATOM     78  C   UNL A   1      44.780  35.141  32.067  1.00  0.00     0.006 A 
ENDBRANCH  54  71
ENDBRANCH  28  29
ENDBRANCH  20  23
ENDBRANCH  18  19
ENDBRANCH   1  18
TORSDOF 12
ENDMDL
