MODEL 1
REMARK VINA RESULT:     -12.0      0.000      0.000
REMARK SMILES C[C@H](Oc1ccccc1Cl)C(=O)N1CCCC[C@H]1C(=O)NCCCNC(=O)c1ccc(-c2c3nc(c(-c4c(F)cccc4F)c4ccc([nH]4)c(-c4c(F)cccc4F)c4nc(c(-c5c(F)cccc5F)c5ccc2[nH]5)C=C4)C=C3)cc1
REMARK SMILES IDX 22 1 21 2 19 3 20 4 18 6 13 7 14 8 15 9 17 10 16 11 11 12
REMARK SMILES IDX 12 13 2 14 1 15 3 16 4 17 5 18 9 19 6 20 8 21 10 22 7 23
REMARK SMILES IDX 23 24 24 25 25 26 26 27 27 29 28 30 29 31 81 32 30 33 80 34
REMARK SMILES IDX 31 35 32 36 33 37 74 38 34 39 79 40 73 41 75 42 35 43 78 44
REMARK SMILES IDX 72 45 71 46 36 48 62 49 45 50 61 51 46 52 49 53 60 54 76 55
REMARK SMILES IDX 47 56 48 57 59 59 77 60 50 61 37 62 38 63 43 64 39 65 40 66
REMARK SMILES IDX 42 67 44 68 41 69 63 70 64 71 69 72 65 73 66 74 68 75 70 76
REMARK SMILES IDX 67 77 51 78 52 79 57 80 53 81 54 82 56 83 58 84 55 85
REMARK H PARENT 21 5 25 28 75 47 49 58
REMARK Flexibility Score: inf
ROOT
ATOM      1  C   UNL A   1      36.328  20.308  25.000  1.00  0.00     0.117 C 
ENDROOT
BRANCH   1   2
ATOM      2  N   UNL A   1      36.589  21.612  25.575  1.00  0.00    -0.354 N 
ATOM      3  C   UNL A   1      35.915  22.787  25.574  1.00  0.00     0.242 C 
ATOM      4  O   UNL A   1      36.511  23.721  26.127  1.00  0.00    -0.273 OA
ATOM      5  H   UNL A   1      37.438  21.653  26.072  1.00  0.00     0.163 HD
BRANCH   3   6
ATOM      6  C   UNL A   1      34.556  23.041  24.865  1.00  0.00     0.174 C 
ATOM      7  N   UNL A   1      33.267  22.833  25.547  1.00  0.00    -0.327 N 
ATOM      8  C   UNL A   1      32.944  23.829  26.581  1.00  0.00     0.120 C 
ATOM      9  C   UNL A   1      33.010  25.259  26.063  1.00  0.00     0.022 C 
ATOM     10  C   UNL A   1      34.568  24.471  24.271  1.00  0.00     0.035 C 
ATOM     11  C   UNL A   1      34.336  25.522  25.356  1.00  0.00     0.004 C 
BRANCH   7  12
ATOM     12  C   UNL A   1      32.254  21.977  25.106  1.00  0.00     0.264 C 
ATOM     13  O   UNL A   1      31.202  21.876  25.752  1.00  0.00    -0.271 OA
BRANCH  12  14
ATOM     14  C   UNL A   1      32.488  20.950  23.941  1.00  0.00     0.259 C 
ATOM     15  C   UNL A   1      32.152  21.702  22.654  1.00  0.00     0.064 C 
BRANCH  14  16
ATOM     16  O   UNL A   1      31.964  19.656  24.174  1.00  0.00    -0.479 OA
BRANCH  16  17
ATOM     17  C   UNL A   1      32.589  18.470  24.405  1.00  0.00     0.139 A 
ATOM     18  C   UNL A   1      32.900  17.907  25.640  1.00  0.00     0.048 A 
ATOM     19  C   UNL A   1      32.973  17.758  23.248  1.00  0.00     0.083 A 
ATOM     20  C   UNL A   1      33.675  16.738  25.723  1.00  0.00     0.004 A 
ATOM     21  C   UNL A   1      33.727  16.582  23.329  1.00  0.00     0.024 A 
ATOM     22  Cl  UNL A   1      32.519  18.296  21.663  1.00  0.00    -0.080 Cl
ATOM     23  C   UNL A   1      34.102  16.085  24.570  1.00  0.00     0.002 A 
ENDBRANCH  16  17
ENDBRANCH  14  16
ENDBRANCH  12  14
ENDBRANCH   7  12
ENDBRANCH   3   6
ENDBRANCH   1   2
BRANCH   1  24
ATOM     24  C   UNL A   1      37.610  19.509  24.841  1.00  0.00     0.042 C 
BRANCH  24  25
ATOM     25  C   UNL A   1      38.775  20.050  25.647  1.00  0.00     0.118 C 
BRANCH  25  26
ATOM     26  N   UNL A   1      39.864  19.094  25.766  1.00  0.00    -0.352 N 
ATOM     27  C   UNL A   1      41.204  19.276  25.989  1.00  0.00     0.251 C 
ATOM     28  H   UNL A   1      39.592  18.153  25.668  1.00  0.00     0.163 HD
ATOM     29  O   UNL A   1      41.970  18.317  25.839  1.00  0.00    -0.269 OA
BRANCH  27  30
ATOM     30  C   UNL A   1      41.762  20.592  26.376  1.00  0.00     0.039 A 
ATOM     31  C   UNL A   1      42.106  21.506  25.375  1.00  0.00     0.014 A 
ATOM     32  C   UNL A   1      42.003  20.924  27.710  1.00  0.00     0.014 A 
ATOM     33  C   UNL A   1      42.625  22.761  25.714  1.00  0.00     0.010 A 
ATOM     34  C   UNL A   1      42.398  22.212  28.054  1.00  0.00     0.010 A 
ATOM     35  C   UNL A   1      42.738  23.140  27.061  1.00  0.00    -0.014 A 
BRANCH  35  36
ATOM     36  C   UNL A   1      43.252  24.477  27.463  1.00  0.00     0.031 A 
ATOM     37  C   UNL A   1      42.289  25.548  27.914  1.00  0.00     0.074 A 
ATOM     38  C   UNL A   1      44.564  24.760  27.351  1.00  0.00     0.049 A 
ATOM     39  N   UNL A   1      42.517  26.809  28.182  1.00  0.00    -0.248 NA
ATOM     40  C   UNL A   1      40.874  25.157  28.041  1.00  0.00     0.031 C 
ATOM     41  C   UNL A   1      45.596  23.832  26.885  1.00  0.00     0.029 A 
ATOM     42  N   UNL A   1      45.254  25.918  27.610  1.00  0.00    -0.354 N 
ATOM     43  C   UNL A   1      41.276  27.362  28.479  1.00  0.00     0.074 A 
ATOM     44  C   UNL A   1      40.293  26.318  28.296  1.00  0.00     0.031 C 
ATOM     45  C   UNL A   1      46.790  24.446  26.920  1.00  0.00     0.029 A 
ATOM     46  C   UNL A   1      46.603  25.823  27.364  1.00  0.00     0.049 A 
ATOM     47  H   UNL A   1      44.824  26.739  27.941  1.00  0.00     0.167 HD
ATOM     48  C   UNL A   1      40.983  28.618  28.893  1.00  0.00     0.037 A 
ATOM     49  C   UNL A   1      47.579  26.745  27.476  1.00  0.00     0.037 A 
ATOM     50  C   UNL A   1      41.967  29.641  29.122  1.00  0.00     0.049 A 
ATOM     51  C   UNL A   1      47.231  28.130  27.946  1.00  0.00     0.074 A 
ATOM     52  C   UNL A   1      41.782  30.923  29.608  1.00  0.00     0.029 A 
ATOM     53  N   UNL A   1      43.326  29.493  28.889  1.00  0.00    -0.354 N 
ATOM     54  N   UNL A   1      46.060  28.622  28.275  1.00  0.00    -0.248 NA
ATOM     55  C   UNL A   1      48.338  29.088  28.062  1.00  0.00     0.031 C 
ATOM     56  C   UNL A   1      43.023  31.566  29.629  1.00  0.00     0.029 A 
ATOM     57  C   UNL A   1      43.988  30.669  29.203  1.00  0.00     0.049 A 
ATOM     58  H   UNL A   1      43.756  28.676  28.550  1.00  0.00     0.167 HD
ATOM     59  C   UNL A   1      46.295  29.934  28.665  1.00  0.00     0.074 A 
ATOM     60  C   UNL A   1      47.721  30.157  28.544  1.00  0.00     0.031 C 
ATOM     61  C   UNL A   1      45.410  30.869  29.088  1.00  0.00     0.037 A 
BRANCH  48  62
ATOM     62  C   UNL A   1      39.538  28.949  29.137  1.00  0.00     0.057 A 
ATOM     63  C   UNL A   1      38.942  28.777  30.393  1.00  0.00     0.134 A 
ATOM     64  C   UNL A   1      38.741  29.473  28.112  1.00  0.00     0.134 A 
ATOM     65  F   UNL A   1      39.645  28.266  31.416  1.00  0.00    -0.206 F 
ATOM     66  C   UNL A   1      37.598  29.084  30.614  1.00  0.00     0.040 A 
ATOM     67  C   UNL A   1      37.404  29.813  28.328  1.00  0.00     0.040 A 
ATOM     68  F   UNL A   1      39.248  29.671  26.887  1.00  0.00    -0.206 F 
ATOM     69  C   UNL A   1      36.827  29.612  29.580  1.00  0.00     0.006 A 
ENDBRANCH  48  62
BRANCH  49  70
ATOM     70  C   UNL A   1      48.985  26.383  27.161  1.00  0.00     0.057 A 
ATOM     71  C   UNL A   1      49.478  26.486  25.854  1.00  0.00     0.134 A 
ATOM     72  C   UNL A   1      49.864  25.922  28.147  1.00  0.00     0.134 A 
ATOM     73  F   UNL A   1      48.678  26.905  24.863  1.00  0.00    -0.206 F 
ATOM     74  C   UNL A   1      50.787  26.124  25.536  1.00  0.00     0.040 A 
ATOM     75  C   UNL A   1      51.184  25.580  27.847  1.00  0.00     0.040 A 
ATOM     76  F   UNL A   1      49.457  25.810  29.419  1.00  0.00    -0.206 F 
ATOM     77  C   UNL A   1      51.647  25.673  26.535  1.00  0.00     0.006 A 
ENDBRANCH  49  70
BRANCH  61  78
ATOM     78  C   UNL A   1      45.959  32.206  29.487  1.00  0.00     0.057 A 
ATOM     79  C   UNL A   1      46.408  32.464  30.788  1.00  0.00     0.134 A 
ATOM     80  C   UNL A   1      46.086  33.233  28.542  1.00  0.00     0.134 A 
ATOM     81  F   UNL A   1      46.303  31.527  31.742  1.00  0.00    -0.206 F 
ATOM     82  C   UNL A   1      46.945  33.703  31.140  1.00  0.00     0.040 A 
ATOM     83  C   UNL A   1      46.646  34.467  28.875  1.00  0.00     0.040 A 
ATOM     84  F   UNL A   1      45.683  33.047  27.275  1.00  0.00    -0.206 F 
ATOM     85  C   UNL A   1      47.073  34.705  30.180  1.00  0.00     0.006 A 
ENDBRANCH  61  78
ENDBRANCH  35  36
ENDBRANCH  27  30
ENDBRANCH  25  26
ENDBRANCH  24  25
ENDBRANCH   1  24
TORSDOF 14
ENDMDL
MODEL 2
REMARK VINA RESULT:     -11.9      2.378      7.310
REMARK SMILES C[C@H](Oc1ccccc1Cl)C(=O)N1CCCC[C@H]1C(=O)NCCCNC(=O)c1ccc(-c2c3nc(c(-c4c(F)cccc4F)c4ccc([nH]4)c(-c4c(F)cccc4F)c4nc(c(-c5c(F)cccc5F)c5ccc2[nH]5)C=C4)C=C3)cc1
REMARK SMILES IDX 22 1 21 2 19 3 20 4 18 6 13 7 14 8 15 9 17 10 16 11 11 12
REMARK SMILES IDX 12 13 2 14 1 15 3 16 4 17 5 18 9 19 6 20 8 21 10 22 7 23
REMARK SMILES IDX 23 24 24 25 25 26 26 27 27 29 28 30 29 31 81 32 30 33 80 34
REMARK SMILES IDX 31 35 32 36 33 37 74 38 34 39 79 40 73 41 75 42 35 43 78 44
REMARK SMILES IDX 72 45 71 46 36 48 62 49 45 50 61 51 46 52 49 53 60 54 76 55
REMARK SMILES IDX 47 56 48 57 59 59 77 60 50 61 37 62 38 63 43 64 39 65 40 66
REMARK SMILES IDX 42 67 44 68 41 69 63 70 64 71 69 72 65 73 66 74 68 75 70 76
REMARK SMILES IDX 67 77 51 78 52 79 57 80 53 81 54 82 56 83 58 84 55 85
REMARK H PARENT 21 5 25 28 75 47 49 58
REMARK Flexibility Score: inf
ROOT
ATOM      1  C   UNL A   1      37.220  20.745  24.842  1.00  0.00     0.117 C 
ENDROOT
BRANCH   1   2
ATOM      2  N   UNL A   1      35.871  20.268  25.072  1.00  0.00    -0.354 N 
ATOM      3  C   UNL A   1      34.657  20.867  25.084  1.00  0.00     0.242 C 
ATOM      4  O   UNL A   1      33.720  20.121  25.401  1.00  0.00    -0.273 OA
ATOM      5  H   UNL A   1      35.829  19.303  25.259  1.00  0.00     0.163 HD
BRANCH   3   6
ATOM      6  C   UNL A   1      34.399  22.379  24.838  1.00  0.00     0.174 C 
ATOM      7  N   UNL A   1      33.208  22.863  24.119  1.00  0.00    -0.327 N 
ATOM      8  C   UNL A   1      31.943  22.741  24.861  1.00  0.00     0.120 C 
ATOM      9  C   UNL A   1      31.999  23.399  26.233  1.00  0.00     0.022 C 
ATOM     10  C   UNL A   1      34.486  23.123  26.193  1.00  0.00     0.035 C 
ATOM     11  C   UNL A   1      33.216  22.917  27.018  1.00  0.00     0.004 C 
BRANCH   7  12
ATOM     12  C   UNL A   1      33.231  23.653  22.965  1.00  0.00     0.264 C 
ATOM     13  O   UNL A   1      33.692  23.196  21.910  1.00  0.00    -0.271 OA
BRANCH  12  14
ATOM     14  C   UNL A   1      32.910  25.189  23.009  1.00  0.00     0.259 C 
ATOM     15  C   UNL A   1      32.485  25.563  21.590  1.00  0.00     0.064 C 
BRANCH  14  16
ATOM     16  O   UNL A   1      33.859  25.977  23.705  1.00  0.00    -0.479 OA
BRANCH  16  17
ATOM     17  C   UNL A   1      33.695  26.935  24.656  1.00  0.00     0.139 A 
ATOM     18  C   UNL A   1      33.489  26.744  26.019  1.00  0.00     0.048 A 
ATOM     19  C   UNL A   1      33.722  28.265  24.179  1.00  0.00     0.083 A 
ATOM     20  C   UNL A   1      33.195  27.830  26.861  1.00  0.00     0.004 A 
ATOM     21  C   UNL A   1      33.452  29.349  25.021  1.00  0.00     0.024 A 
ATOM     22  Cl  UNL A   1      34.107  28.624  22.527  1.00  0.00    -0.080 Cl
ATOM     23  C   UNL A   1      33.161  29.128  26.361  1.00  0.00     0.002 A 
ENDBRANCH  16  17
ENDBRANCH  14  16
ENDBRANCH  12  14
ENDBRANCH   7  12
ENDBRANCH   3   6
ENDBRANCH   1   2
BRANCH   1  24
ATOM     24  C   UNL A   1      38.228  19.612  24.929  1.00  0.00     0.042 C 
BRANCH  24  25
ATOM     25  C   UNL A   1      39.169  19.717  26.114  1.00  0.00     0.118 C 
BRANCH  25  26
ATOM     26  N   UNL A   1      40.452  19.078  25.867  1.00  0.00    -0.352 N 
ATOM     27  C   UNL A   1      41.729  19.574  25.910  1.00  0.00     0.251 C 
ATOM     28  H   UNL A   1      40.392  18.126  25.626  1.00  0.00     0.163 HD
ATOM     29  O   UNL A   1      42.651  18.888  25.452  1.00  0.00    -0.269 OA
BRANCH  27  30
ATOM     30  C   UNL A   1      42.030  20.915  26.461  1.00  0.00     0.039 A 
ATOM     31  C   UNL A   1      42.434  21.933  25.591  1.00  0.00     0.014 A 
ATOM     32  C   UNL A   1      41.975  21.175  27.832  1.00  0.00     0.014 A 
ATOM     33  C   UNL A   1      42.714  23.212  26.086  1.00  0.00     0.010 A 
ATOM     34  C   UNL A   1      42.130  22.472  28.307  1.00  0.00     0.010 A 
ATOM     35  C   UNL A   1      42.526  23.503  27.446  1.00  0.00    -0.014 A 
BRANCH  35  36
ATOM     36  C   UNL A   1      42.780  24.859  28.004  1.00  0.00     0.031 A 
ATOM     37  C   UNL A   1      44.165  25.234  28.469  1.00  0.00     0.074 A 
ATOM     38  C   UNL A   1      41.760  25.725  28.168  1.00  0.00     0.049 A 
ATOM     39  N   UNL A   1      44.566  26.309  29.098  1.00  0.00    -0.248 NA
ATOM     40  C   UNL A   1      45.234  24.249  28.230  1.00  0.00     0.031 C 
ATOM     41  C   UNL A   1      40.365  25.472  27.804  1.00  0.00     0.029 A 
ATOM     42  N   UNL A   1      41.740  26.991  28.696  1.00  0.00    -0.354 N 
ATOM     43  C   UNL A   1      45.919  26.115  29.353  1.00  0.00     0.074 A 
ATOM     44  C   UNL A   1      46.256  24.796  28.869  1.00  0.00     0.031 C 
ATOM     45  C   UNL A   1      39.631  26.559  28.091  1.00  0.00     0.029 A 
ATOM     46  C   UNL A   1      40.491  27.566  28.702  1.00  0.00     0.049 A 
ATOM     47  H   UNL A   1      42.543  27.445  29.039  1.00  0.00     0.167 HD
ATOM     48  C   UNL A   1      46.809  26.969  29.914  1.00  0.00     0.037 A 
ATOM     49  C   UNL A   1      40.084  28.767  29.158  1.00  0.00     0.037 A 
ATOM     50  C   UNL A   1      46.484  28.300  30.349  1.00  0.00     0.049 A 
ATOM     51  C   UNL A   1      41.092  29.701  29.769  1.00  0.00     0.074 A 
ATOM     52  C   UNL A   1      47.326  29.269  30.866  1.00  0.00     0.029 A 
ATOM     53  N   UNL A   1      45.213  28.853  30.311  1.00  0.00    -0.354 N 
ATOM     54  N   UNL A   1      42.378  29.524  29.953  1.00  0.00    -0.248 NA
ATOM     55  C   UNL A   1      40.592  31.002  30.234  1.00  0.00     0.031 C 
ATOM     56  C   UNL A   1      46.557  30.394  31.180  1.00  0.00     0.029 A 
ATOM     57  C   UNL A   1      45.245  30.144  30.812  1.00  0.00     0.049 A 
ATOM     58  H   UNL A   1      44.408  28.397  29.977  1.00  0.00     0.167 HD
ATOM     59  C   UNL A   1      42.846  30.700  30.526  1.00  0.00     0.074 A 
ATOM     60  C   UNL A   1      41.707  31.587  30.647  1.00  0.00     0.031 C 
ATOM     61  C   UNL A   1      44.104  31.017  30.914  1.00  0.00     0.037 A 
BRANCH  48  62
ATOM     62  C   UNL A   1      48.223  26.490  30.075  1.00  0.00     0.057 A 
ATOM     63  C   UNL A   1      49.203  26.734  29.103  1.00  0.00     0.134 A 
ATOM     64  C   UNL A   1      48.619  25.802  31.229  1.00  0.00     0.134 A 
ATOM     65  F   UNL A   1      48.888  27.376  27.967  1.00  0.00    -0.206 F 
ATOM     66  C   UNL A   1      50.515  26.285  29.258  1.00  0.00     0.040 A 
ATOM     67  C   UNL A   1      49.936  25.374  31.409  1.00  0.00     0.040 A 
ATOM     68  F   UNL A   1      47.736  25.541  32.204  1.00  0.00    -0.206 F 
ATOM     69  C   UNL A   1      50.887  25.609  30.418  1.00  0.00     0.006 A 
ENDBRANCH  48  62
BRANCH  49  70
ATOM     70  C   UNL A   1      38.659  29.167  29.032  1.00  0.00     0.057 A 
ATOM     71  C   UNL A   1      37.797  29.111  30.133  1.00  0.00     0.134 A 
ATOM     72  C   UNL A   1      38.124  29.605  27.815  1.00  0.00     0.134 A 
ATOM     73  F   UNL A   1      38.247  28.683  31.321  1.00  0.00    -0.206 F 
ATOM     74  C   UNL A   1      36.449  29.457  30.025  1.00  0.00     0.040 A 
ATOM     75  C   UNL A   1      36.784  29.979  27.698  1.00  0.00     0.040 A 
ATOM     76  F   UNL A   1      38.899  29.691  26.725  1.00  0.00    -0.206 F 
ATOM     77  C   UNL A   1      35.940  29.896  28.805  1.00  0.00     0.006 A 
ENDBRANCH  49  70
BRANCH  61  78
ATOM     78  C   UNL A   1      44.327  32.392  31.472  1.00  0.00     0.057 A 
ATOM     79  C   UNL A   1      44.627  33.485  30.649  1.00  0.00     0.134 A 
ATOM     80  C   UNL A   1      44.190  32.632  32.845  1.00  0.00     0.134 A 
ATOM     81  F   UNL A   1      44.783  33.318  29.327  1.00  0.00    -0.206 F 
ATOM     82  C   UNL A   1      44.802  34.765  31.176  1.00  0.00     0.040 A 
ATOM     83  C   UNL A   1      44.337  33.912  33.380  1.00  0.00     0.040 A 
ATOM     84  F   UNL A   1      43.894  31.629  33.686  1.00  0.00    -0.206 F 
ATOM     85  C   UNL A   1      44.649  34.983  32.544  1.00  0.00     0.006 A 
ENDBRANCH  61  78
ENDBRANCH  35  36
ENDBRANCH  27  30
ENDBRANCH  25  26
ENDBRANCH  24  25
ENDBRANCH   1  24
TORSDOF 14
ENDMDL
MODEL 3
REMARK VINA RESULT:     -11.8      2.980      7.230
REMARK SMILES C[C@H](Oc1ccccc1Cl)C(=O)N1CCCC[C@H]1C(=O)NCCCNC(=O)c1ccc(-c2c3nc(c(-c4c(F)cccc4F)c4ccc([nH]4)c(-c4c(F)cccc4F)c4nc(c(-c5c(F)cccc5F)c5ccc2[nH]5)C=C4)C=C3)cc1
REMARK SMILES IDX 22 1 21 2 19 3 20 4 18 6 13 7 14 8 15 9 17 10 16 11 11 12
REMARK SMILES IDX 12 13 2 14 1 15 3 16 4 17 5 18 9 19 6 20 8 21 10 22 7 23
REMARK SMILES IDX 23 24 24 25 25 26 26 27 27 29 28 30 29 31 81 32 30 33 80 34
REMARK SMILES IDX 31 35 32 36 33 37 74 38 34 39 79 40 73 41 75 42 35 43 78 44
REMARK SMILES IDX 72 45 71 46 36 48 62 49 45 50 61 51 46 52 49 53 60 54 76 55
REMARK SMILES IDX 47 56 48 57 59 59 77 60 50 61 37 62 38 63 43 64 39 65 40 66
REMARK SMILES IDX 42 67 44 68 41 69 63 70 64 71 69 72 65 73 66 74 68 75 70 76
REMARK SMILES IDX 67 77 51 78 52 79 57 80 53 81 54 82 56 83 58 84 55 85
REMARK H PARENT 21 5 25 28 75 47 49 58
REMARK Flexibility Score: inf
ROOT
ATOM      1  C   UNL A   1      33.654  28.611  24.855  1.00  0.00     0.117 C 
ENDROOT
BRANCH   1   2
ATOM      2  N   UNL A   1      32.306  28.119  24.654  1.00  0.00    -0.354 N 
ATOM      3  C   UNL A   1      31.748  26.885  24.670  1.00  0.00     0.242 C 
ATOM      4  O   UNL A   1      30.546  26.861  24.373  1.00  0.00    -0.273 OA
ATOM      5  H   UNL A   1      31.657  28.834  24.465  1.00  0.00     0.163 HD
BRANCH   3   6
ATOM      6  C   UNL A   1      32.513  25.558  24.925  1.00  0.00     0.174 C 
ATOM      7  N   UNL A   1      31.813  24.285  25.171  1.00  0.00    -0.327 N 
ATOM      8  C   UNL A   1      31.148  23.706  23.993  1.00  0.00     0.120 C 
ATOM      9  C   UNL A   1      32.088  23.537  22.808  1.00  0.00     0.022 C 
ATOM     10  C   UNL A   1      33.527  25.342  23.775  1.00  0.00     0.035 C 
ATOM     11  C   UNL A   1      32.830  24.837  22.512  1.00  0.00     0.004 C 
BRANCH   7  12
ATOM     12  C   UNL A   1      31.972  23.486  26.307  1.00  0.00     0.264 C 
ATOM     13  O   UNL A   1      31.375  23.772  27.355  1.00  0.00    -0.271 OA
BRANCH  12  14
ATOM     14  C   UNL A   1      33.068  22.364  26.383  1.00  0.00     0.259 C 
ATOM     15  C   UNL A   1      33.406  22.216  27.865  1.00  0.00     0.064 C 
BRANCH  14  16
ATOM     16  O   UNL A   1      34.099  22.474  25.418  1.00  0.00    -0.479 OA
BRANCH  16  17
ATOM     17  C   UNL A   1      35.447  22.576  25.563  1.00  0.00     0.139 A 
ATOM     18  C   UNL A   1      36.174  23.705  25.931  1.00  0.00     0.048 A 
ATOM     19  C   UNL A   1      36.172  21.396  25.283  1.00  0.00     0.083 A 
ATOM     20  C   UNL A   1      37.578  23.698  25.901  1.00  0.00     0.004 A 
ATOM     21  C   UNL A   1      37.571  21.381  25.275  1.00  0.00     0.024 A 
ATOM     22  Cl  UNL A   1      35.365  19.898  24.949  1.00  0.00    -0.080 Cl
ATOM     23  C   UNL A   1      38.276  22.543  25.560  1.00  0.00     0.002 A 
ENDBRANCH  16  17
ENDBRANCH  14  16
ENDBRANCH  12  14
ENDBRANCH   7  12
ENDBRANCH   3   6
ENDBRANCH   1   2
BRANCH   1  24
ATOM     24  C   UNL A   1      34.246  28.082  26.150  1.00  0.00     0.042 C 
BRANCH  24  25
ATOM     25  C   UNL A   1      33.468  28.479  27.389  1.00  0.00     0.118 C 
BRANCH  25  26
ATOM     26  N   UNL A   1      33.513  29.911  27.641  1.00  0.00    -0.352 N 
ATOM     27  C   UNL A   1      34.500  30.703  28.167  1.00  0.00     0.251 C 
ATOM     28  H   UNL A   1      32.692  30.394  27.392  1.00  0.00     0.163 HD
ATOM     29  O   UNL A   1      34.225  31.867  28.482  1.00  0.00    -0.269 OA
BRANCH  27  30
ATOM     30  C   UNL A   1      35.872  30.196  28.395  1.00  0.00     0.039 A 
ATOM     31  C   UNL A   1      36.801  30.254  27.351  1.00  0.00     0.014 A 
ATOM     32  C   UNL A   1      36.248  29.614  29.607  1.00  0.00     0.014 A 
ATOM     33  C   UNL A   1      38.108  29.792  27.544  1.00  0.00     0.010 A 
ATOM     34  C   UNL A   1      37.575  29.272  29.840  1.00  0.00     0.010 A 
ATOM     35  C   UNL A   1      38.518  29.332  28.805  1.00  0.00    -0.014 A 
BRANCH  35  36
ATOM     36  C   UNL A   1      39.907  28.865  29.060  1.00  0.00     0.031 A 
ATOM     37  C   UNL A   1      40.907  29.795  29.701  1.00  0.00     0.074 A 
ATOM     38  C   UNL A   1      40.297  27.642  28.650  1.00  0.00     0.049 A 
ATOM     39  N   UNL A   1      42.191  29.629  29.892  1.00  0.00    -0.248 NA
ATOM     40  C   UNL A   1      40.402  31.105  30.150  1.00  0.00     0.031 C 
ATOM     41  C   UNL A   1      39.443  26.661  27.977  1.00  0.00     0.029 A 
ATOM     42  N   UNL A   1      41.517  27.020  28.729  1.00  0.00    -0.354 N 
ATOM     43  C   UNL A   1      42.647  30.817  30.452  1.00  0.00     0.074 A 
ATOM     44  C   UNL A   1      41.518  31.718  30.512  1.00  0.00     0.031 C 
ATOM     45  C   UNL A   1      40.157  25.550  27.733  1.00  0.00     0.029 A 
ATOM     46  C   UNL A   1      41.528  25.757  28.187  1.00  0.00     0.049 A 
ATOM     47  H   UNL A   1      42.310  27.438  29.137  1.00  0.00     0.167 HD
ATOM     48  C   UNL A   1      43.887  31.123  30.903  1.00  0.00     0.037 A 
ATOM     49  C   UNL A   1      42.533  24.869  28.061  1.00  0.00     0.037 A 
ATOM     50  C   UNL A   1      44.998  30.210  30.889  1.00  0.00     0.049 A 
ATOM     51  C   UNL A   1      43.900  25.228  28.577  1.00  0.00     0.074 A 
ATOM     52  C   UNL A   1      46.276  30.397  31.385  1.00  0.00     0.029 A 
ATOM     53  N   UNL A   1      44.958  28.930  30.357  1.00  0.00    -0.354 N 
ATOM     54  N   UNL A   1      44.301  26.335  29.154  1.00  0.00    -0.248 NA
ATOM     55  C   UNL A   1      44.952  24.214  28.425  1.00  0.00     0.031 C 
ATOM     56  C   UNL A   1      47.022  29.246  31.115  1.00  0.00     0.029 A 
ATOM     57  C   UNL A   1      46.196  28.324  30.495  1.00  0.00     0.049 A 
ATOM     58  H   UNL A   1      44.169  28.514  29.942  1.00  0.00     0.167 HD
ATOM     59  C   UNL A   1      45.642  26.138  29.462  1.00  0.00     0.074 A 
ATOM     60  C   UNL A   1      45.981  24.802  29.018  1.00  0.00     0.031 C 
ATOM     61  C   UNL A   1      46.512  26.988  30.059  1.00  0.00     0.037 A 
BRANCH  48  62
ATOM     62  C   UNL A   1      44.103  32.500  31.462  1.00  0.00     0.057 A 
ATOM     63  C   UNL A   1      44.500  33.574  30.654  1.00  0.00     0.134 A 
ATOM     64  C   UNL A   1      43.883  32.764  32.820  1.00  0.00     0.134 A 
ATOM     65  F   UNL A   1      44.741  33.388  29.347  1.00  0.00    -0.206 F 
ATOM     66  C   UNL A   1      44.701  34.851  31.180  1.00  0.00     0.040 A 
ATOM     67  C   UNL A   1      44.050  34.044  33.352  1.00  0.00     0.040 A 
ATOM     68  F   UNL A   1      43.493  31.786  33.651  1.00  0.00    -0.206 F 
ATOM     69  C   UNL A   1      44.468  35.090  32.533  1.00  0.00     0.006 A 
ENDBRANCH  48  62
BRANCH  49  70
ATOM     70  C   UNL A   1      42.282  23.542  27.442  1.00  0.00     0.057 A 
ATOM     71  C   UNL A   1      42.463  23.345  26.068  1.00  0.00     0.134 A 
ATOM     72  C   UNL A   1      41.850  22.448  28.200  1.00  0.00     0.134 A 
ATOM     73  F   UNL A   1      42.858  24.360  25.286  1.00  0.00    -0.206 F 
ATOM     74  C   UNL A   1      42.204  22.113  25.465  1.00  0.00     0.040 A 
ATOM     75  C   UNL A   1      41.612  21.202  27.615  1.00  0.00     0.040 A 
ATOM     76  F   UNL A   1      41.668  22.568  29.522  1.00  0.00    -0.206 F 
ATOM     77  C   UNL A   1      41.781  21.035  26.241  1.00  0.00     0.006 A 
ENDBRANCH  49  70
BRANCH  61  78
ATOM     78  C   UNL A   1      47.905  26.487  30.303  1.00  0.00     0.057 A 
ATOM     79  C   UNL A   1      48.929  26.662  29.365  1.00  0.00     0.134 A 
ATOM     80  C   UNL A   1      48.234  25.865  31.514  1.00  0.00     0.134 A 
ATOM     81  F   UNL A   1      48.676  27.239  28.181  1.00  0.00    -0.206 F 
ATOM     82  C   UNL A   1      50.229  26.219  29.615  1.00  0.00     0.040 A 
ATOM     83  C   UNL A   1      49.535  25.441  31.787  1.00  0.00     0.040 A 
ATOM     84  F   UNL A   1      47.300  25.675  32.459  1.00  0.00    -0.206 F 
ATOM     85  C   UNL A   1      50.536  25.614  30.833  1.00  0.00     0.006 A 
ENDBRANCH  61  78
ENDBRANCH  35  36
ENDBRANCH  27  30
ENDBRANCH  25  26
ENDBRANCH  24  25
ENDBRANCH   1  24
TORSDOF 14
ENDMDL
