MODEL 1
REMARK VINA RESULT:     -11.9      0.000      0.000
REMARK SMILES CC(=O)c1cn(CC(=O)NCC(=O)NCC(=O)NCCCNC(=O)c2ccc(-c3c4nc(c(-c5c(F)cccc5F)c5ccc([nH]5)c(-c5c(F)cccc5F)c5nc(c(-c6c(F)cccc6F)c6ccc3[nH]6)C=C5)C=C4)cc2)c2ccccc12
REMARK SMILES IDX 16 1 17 2 18 3 15 5 14 6 12 7 13 8 11 10 10 11 8 12 9 13
REMARK SMILES IDX 7 15 6 16 4 17 5 18 84 19 79 20 83 21 80 22 82 23 81 24 2 25
REMARK SMILES IDX 1 26 3 27 19 28 20 29 21 30 22 31 23 32 24 34 25 35 26 36
REMARK SMILES IDX 78 37 27 38 77 39 28 40 29 41 30 42 71 43 31 44 76 45 70 46
REMARK SMILES IDX 72 47 32 48 75 49 69 50 68 51 33 53 59 54 42 55 58 56 43 57
REMARK SMILES IDX 46 58 57 59 73 60 44 61 45 62 56 64 74 65 47 66 34 67 35 68
REMARK SMILES IDX 40 69 36 70 37 71 39 72 41 73 38 74 60 75 61 76 66 77 62 78
REMARK SMILES IDX 63 79 65 80 67 81 64 82 48 83 49 84 54 85 50 86 51 87 53 88
REMARK SMILES IDX 55 89 52 90
REMARK H PARENT 18 4 14 9 10 14 22 33 72 52 46 63
REMARK Flexibility Score: inf
ROOT
ATOM      1  C   UNL A   1      33.222  29.107  24.631  1.00  0.00     0.239 C 
ATOM      2  O   UNL A   1      33.821  28.710  23.640  1.00  0.00    -0.273 OA
ATOM      3  N   UNL A   1      33.949  29.473  25.730  1.00  0.00    -0.355 N 
ATOM      4  H   UNL A   1      34.916  29.595  25.588  1.00  0.00     0.163 HD
ENDROOT
BRANCH   1   5
ATOM      5  C   UNL A   1      31.702  29.321  24.636  1.00  0.00     0.216 C 
BRANCH   5   6
ATOM      6  N   UNL A   1      31.046  29.567  23.367  1.00  0.00    -0.346 N 
ATOM      7  C   UNL A   1      30.452  28.671  22.525  1.00  0.00     0.239 C 
ATOM      8  O   UNL A   1      29.735  29.127  21.630  1.00  0.00    -0.273 OA
ATOM      9  H   UNL A   1      31.028  30.506  23.071  1.00  0.00     0.164 HD
BRANCH   7  10
ATOM     10  C   UNL A   1      30.569  27.140  22.728  1.00  0.00     0.216 C 
BRANCH  10  11
ATOM     11  N   UNL A   1      31.685  26.517  22.025  1.00  0.00    -0.345 N 
ATOM     12  C   UNL A   1      32.758  25.801  22.464  1.00  0.00     0.240 C 
ATOM     13  O   UNL A   1      33.654  25.581  21.643  1.00  0.00    -0.273 OA
ATOM     14  H   UNL A   1      31.658  26.638  21.048  1.00  0.00     0.164 HD
BRANCH  12  15
ATOM     15  C   UNL A   1      32.824  25.200  23.857  1.00  0.00     0.222 C 
BRANCH  15  16
ATOM     16  N   UNL A   1      33.280  23.819  23.914  1.00  0.00    -0.337 N 
ATOM     17  C   UNL A   1      33.119  21.593  24.020  1.00  0.00     0.043 A 
ATOM     18  C   UNL A   1      32.481  22.750  23.614  1.00  0.00     0.099 A 
ATOM     19  C   UNL A   1      34.449  21.976  24.398  1.00  0.00     0.010 A 
ATOM     20  C   UNL A   1      34.531  23.375  24.288  1.00  0.00     0.049 A 
ATOM     21  C   UNL A   1      35.593  21.281  24.850  1.00  0.00     0.011 A 
ATOM     22  C   UNL A   1      35.698  24.087  24.615  1.00  0.00     0.027 A 
ATOM     23  C   UNL A   1      36.754  21.983  25.191  1.00  0.00     0.001 A 
ATOM     24  C   UNL A   1      36.803  23.366  25.075  1.00  0.00     0.002 A 
BRANCH  17  25
ATOM     25  C   UNL A   1      32.437  20.299  24.039  1.00  0.00     0.161 C 
ATOM     26  C   UNL A   1      32.274  19.538  22.748  1.00  0.00     0.093 C 
ATOM     27  O   UNL A   1      32.107  19.776  25.104  1.00  0.00    -0.294 OA
ENDBRANCH  17  25
ENDBRANCH  15  16
ENDBRANCH  12  15
ENDBRANCH  10  11
ENDBRANCH   7  10
ENDBRANCH   5   6
ENDBRANCH   1   5
BRANCH   3  28
ATOM     28  C   UNL A   1      33.471  29.704  27.070  1.00  0.00     0.117 C 
BRANCH  28  29
ATOM     29  C   UNL A   1      33.299  31.194  27.330  1.00  0.00     0.042 C 
BRANCH  29  30
ATOM     30  C   UNL A   1      34.546  31.816  27.959  1.00  0.00     0.118 C 
BRANCH  30  31
ATOM     31  N   UNL A   1      34.387  32.106  29.369  1.00  0.00    -0.352 N 
ATOM     32  C   UNL A   1      35.169  31.928  30.475  1.00  0.00     0.251 C 
ATOM     33  H   UNL A   1      33.522  32.526  29.577  1.00  0.00     0.163 HD
ATOM     34  O   UNL A   1      34.718  32.366  31.535  1.00  0.00    -0.269 OA
BRANCH  32  35
ATOM     35  C   UNL A   1      36.474  31.211  30.493  1.00  0.00     0.039 A 
ATOM     36  C   UNL A   1      37.733  31.809  30.514  1.00  0.00     0.014 A 
ATOM     37  C   UNL A   1      36.405  29.805  30.439  1.00  0.00     0.014 A 
ATOM     38  C   UNL A   1      38.885  31.044  30.382  1.00  0.00     0.010 A 
ATOM     39  C   UNL A   1      37.555  29.030  30.350  1.00  0.00     0.010 A 
ATOM     40  C   UNL A   1      38.795  29.656  30.282  1.00  0.00    -0.014 A 
BRANCH  40  41
ATOM     41  C   UNL A   1      40.045  28.905  30.233  1.00  0.00     0.031 A 
ATOM     42  C   UNL A   1      40.733  28.733  31.544  1.00  0.00     0.074 A 
ATOM     43  C   UNL A   1      40.522  28.314  29.121  1.00  0.00     0.049 A 
ATOM     44  N   UNL A   1      41.916  29.135  31.880  1.00  0.00    -0.248 NA
ATOM     45  C   UNL A   1      39.973  28.125  32.646  1.00  0.00     0.031 C 
ATOM     46  C   UNL A   1      39.873  28.166  27.818  1.00  0.00     0.029 A 
ATOM     47  N   UNL A   1      41.688  27.628  28.967  1.00  0.00    -0.354 N 
ATOM     48  C   UNL A   1      42.121  28.699  33.190  1.00  0.00     0.074 A 
ATOM     49  C   UNL A   1      40.855  28.184  33.646  1.00  0.00     0.031 C 
ATOM     50  C   UNL A   1      40.555  27.256  27.087  1.00  0.00     0.029 A 
ATOM     51  C   UNL A   1      41.745  26.853  27.818  1.00  0.00     0.049 A 
ATOM     52  H   UNL A   1      42.427  27.678  29.615  1.00  0.00     0.167 HD
ATOM     53  C   UNL A   1      43.364  28.638  33.740  1.00  0.00     0.037 A 
ATOM     54  C   UNL A   1      42.675  25.912  27.519  1.00  0.00     0.037 A 
ATOM     55  C   UNL A   1      44.305  29.445  33.010  1.00  0.00     0.049 A 
ATOM     56  C   UNL A   1      43.868  26.171  28.361  1.00  0.00     0.074 A 
ATOM     57  C   UNL A   1      44.406  30.790  32.708  1.00  0.00     0.029 A 
ATOM     58  N   UNL A   1      45.198  28.814  32.180  1.00  0.00    -0.354 N 
ATOM     59  N   UNL A   1      44.683  27.170  28.176  1.00  0.00    -0.248 NA
ATOM     60  C   UNL A   1      43.924  25.560  29.683  1.00  0.00     0.031 C 
ATOM     61  C   UNL A   1      44.960  30.831  31.395  1.00  0.00     0.029 A 
ATOM     62  C   UNL A   1      45.203  29.515  31.004  1.00  0.00     0.049 A 
ATOM     63  H   UNL A   1      45.731  28.013  32.390  1.00  0.00     0.167 HD
ATOM     64  C   UNL A   1      45.017  27.592  29.454  1.00  0.00     0.074 A 
ATOM     65  C   UNL A   1      44.608  26.501  30.337  1.00  0.00     0.031 C 
ATOM     66  C   UNL A   1      45.327  28.897  29.709  1.00  0.00     0.037 A 
BRANCH  53  67
ATOM     67  C   UNL A   1      43.820  27.588  34.726  1.00  0.00     0.057 A 
ATOM     68  C   UNL A   1      43.982  26.227  34.407  1.00  0.00     0.134 A 
ATOM     69  C   UNL A   1      44.427  27.996  35.932  1.00  0.00     0.134 A 
ATOM     70  F   UNL A   1      43.508  25.694  33.275  1.00  0.00    -0.206 F 
ATOM     71  C   UNL A   1      44.738  25.351  35.193  1.00  0.00     0.040 A 
ATOM     72  C   UNL A   1      45.227  27.139  36.698  1.00  0.00     0.040 A 
ATOM     73  F   UNL A   1      44.339  29.266  36.354  1.00  0.00    -0.206 F 
ATOM     74  C   UNL A   1      45.397  25.815  36.319  1.00  0.00     0.006 A 
ENDBRANCH  53  67
BRANCH  54  75
ATOM     75  C   UNL A   1      42.540  24.694  26.689  1.00  0.00     0.057 A 
ATOM     76  C   UNL A   1      41.802  23.580  27.126  1.00  0.00     0.134 A 
ATOM     77  C   UNL A   1      43.336  24.493  25.551  1.00  0.00     0.134 A 
ATOM     78  F   UNL A   1      41.072  23.627  28.249  1.00  0.00    -0.206 F 
ATOM     79  C   UNL A   1      41.852  22.342  26.476  1.00  0.00     0.040 A 
ATOM     80  C   UNL A   1      43.404  23.255  24.898  1.00  0.00     0.040 A 
ATOM     81  F   UNL A   1      44.113  25.478  25.078  1.00  0.00    -0.206 F 
ATOM     82  C   UNL A   1      42.666  22.172  25.366  1.00  0.00     0.006 A 
ENDBRANCH  54  75
BRANCH  66  83
ATOM     83  C   UNL A   1      45.537  29.811  28.538  1.00  0.00     0.057 A 
ATOM     84  C   UNL A   1      46.843  30.132  28.154  1.00  0.00     0.134 A 
ATOM     85  C   UNL A   1      44.498  30.491  27.886  1.00  0.00     0.134 A 
ATOM     86  F   UNL A   1      47.891  29.569  28.779  1.00  0.00    -0.206 F 
ATOM     87  C   UNL A   1      47.107  31.072  27.156  1.00  0.00     0.040 A 
ATOM     88  C   UNL A   1      44.747  31.407  26.859  1.00  0.00     0.040 A 
ATOM     89  F   UNL A   1      43.222  30.333  28.259  1.00  0.00    -0.206 F 
ATOM     90  C   UNL A   1      46.057  31.704  26.496  1.00  0.00     0.006 A 
ENDBRANCH  66  83
ENDBRANCH  40  41
ENDBRANCH  32  35
ENDBRANCH  30  31
ENDBRANCH  29  30
ENDBRANCH  28  29
ENDBRANCH   3  28
TORSDOF 16
ENDMDL
MODEL 2
REMARK VINA RESULT:     -11.7      1.322      1.887
REMARK SMILES CC(=O)c1cn(CC(=O)NCC(=O)NCC(=O)NCCCNC(=O)c2ccc(-c3c4nc(c(-c5c(F)cccc5F)c5ccc([nH]5)c(-c5c(F)cccc5F)c5nc(c(-c6c(F)cccc6F)c6ccc3[nH]6)C=C5)C=C4)cc2)c2ccccc12
REMARK SMILES IDX 16 1 17 2 18 3 15 5 14 6 12 7 13 8 11 10 10 11 8 12 9 13
REMARK SMILES IDX 7 15 6 16 4 17 5 18 84 19 79 20 83 21 80 22 82 23 81 24 2 25
REMARK SMILES IDX 1 26 3 27 19 28 20 29 21 30 22 31 23 32 24 34 25 35 26 36
REMARK SMILES IDX 78 37 27 38 77 39 28 40 29 41 30 42 71 43 31 44 76 45 70 46
REMARK SMILES IDX 72 47 32 48 75 49 69 50 68 51 33 53 59 54 42 55 58 56 43 57
REMARK SMILES IDX 46 58 57 59 73 60 44 61 45 62 56 64 74 65 47 66 34 67 35 68
REMARK SMILES IDX 40 69 36 70 37 71 39 72 41 73 38 74 60 75 61 76 66 77 62 78
REMARK SMILES IDX 63 79 65 80 67 81 64 82 48 83 49 84 54 85 50 86 51 87 53 88
REMARK SMILES IDX 55 89 52 90
REMARK H PARENT 18 4 14 9 10 14 22 33 72 52 46 63
REMARK Flexibility Score: inf
ROOT
ATOM      1  C   UNL A   1      32.509  27.708  26.969  1.00  0.00     0.239 C 
ATOM      2  O   UNL A   1      31.446  27.204  27.306  1.00  0.00    -0.273 OA
ATOM      3  N   UNL A   1      33.050  28.681  27.763  1.00  0.00    -0.355 N 
ATOM      4  H   UNL A   1      32.661  28.771  28.664  1.00  0.00     0.163 HD
ENDROOT
BRANCH   1   5
ATOM      5  C   UNL A   1      33.308  27.201  25.760  1.00  0.00     0.216 C 
BRANCH   5   6
ATOM      6  N   UNL A   1      32.678  27.263  24.456  1.00  0.00    -0.346 N 
ATOM      7  C   UNL A   1      32.033  26.274  23.771  1.00  0.00     0.239 C 
ATOM      8  O   UNL A   1      31.353  26.612  22.799  1.00  0.00    -0.273 OA
ATOM      9  H   UNL A   1      32.723  28.136  24.002  1.00  0.00     0.164 HD
BRANCH   7  10
ATOM     10  C   UNL A   1      32.049  24.797  24.237  1.00  0.00     0.216 C 
BRANCH  10  11
ATOM     11  N   UNL A   1      31.222  24.519  25.406  1.00  0.00    -0.345 N 
ATOM     12  C   UNL A   1      31.455  23.803  26.542  1.00  0.00     0.240 C 
ATOM     13  O   UNL A   1      30.479  23.571  27.263  1.00  0.00    -0.273 OA
ATOM     14  H   UNL A   1      30.327  24.925  25.366  1.00  0.00     0.164 HD
BRANCH  12  15
ATOM     15  C   UNL A   1      32.849  23.390  26.976  1.00  0.00     0.222 C 
BRANCH  15  16
ATOM     16  N   UNL A   1      33.430  22.286  26.225  1.00  0.00    -0.337 N 
ATOM     17  C   UNL A   1      33.586  20.230  25.362  1.00  0.00     0.043 A 
ATOM     18  C   UNL A   1      32.707  21.205  25.798  1.00  0.00     0.099 A 
ATOM     19  C   UNL A   1      34.886  20.838  25.342  1.00  0.00     0.010 A 
ATOM     20  C   UNL A   1      34.750  22.139  25.856  1.00  0.00     0.049 A 
ATOM     21  C   UNL A   1      36.177  20.409  24.962  1.00  0.00     0.011 A 
ATOM     22  C   UNL A   1      35.847  23.005  26.005  1.00  0.00     0.027 A 
ATOM     23  C   UNL A   1      37.276  21.259  25.120  1.00  0.00     0.001 A 
ATOM     24  C   UNL A   1      37.111  22.539  25.635  1.00  0.00     0.002 A 
BRANCH  17  25
ATOM     25  C   UNL A   1      33.141  18.873  25.047  1.00  0.00     0.161 C 
ATOM     26  C   UNL A   1      33.823  18.118  23.936  1.00  0.00     0.093 C 
ATOM     27  O   UNL A   1      32.307  18.303  25.753  1.00  0.00    -0.294 OA
ENDBRANCH  17  25
ENDBRANCH  15  16
ENDBRANCH  12  15
ENDBRANCH  10  11
ENDBRANCH   7  10
ENDBRANCH   5   6
ENDBRANCH   1   5
BRANCH   3  28
ATOM     28  C   UNL A   1      34.122  29.590  27.442  1.00  0.00     0.117 C 
BRANCH  28  29
ATOM     29  C   UNL A   1      33.607  31.021  27.364  1.00  0.00     0.042 C 
BRANCH  29  30
ATOM     30  C   UNL A   1      34.594  32.021  27.965  1.00  0.00     0.118 C 
BRANCH  30  31
ATOM     31  N   UNL A   1      34.402  32.225  29.386  1.00  0.00    -0.352 N 
ATOM     32  C   UNL A   1      35.153  31.967  30.498  1.00  0.00     0.251 C 
ATOM     33  H   UNL A   1      33.538  32.645  29.599  1.00  0.00     0.163 HD
ATOM     34  O   UNL A   1      34.681  32.345  31.572  1.00  0.00    -0.269 OA
BRANCH  32  35
ATOM     35  C   UNL A   1      36.447  31.230  30.504  1.00  0.00     0.039 A 
ATOM     36  C   UNL A   1      37.715  31.809  30.475  1.00  0.00     0.014 A 
ATOM     37  C   UNL A   1      36.355  29.825  30.492  1.00  0.00     0.014 A 
ATOM     38  C   UNL A   1      38.851  31.022  30.337  1.00  0.00     0.010 A 
ATOM     39  C   UNL A   1      37.491  29.029  30.396  1.00  0.00     0.010 A 
ATOM     40  C   UNL A   1      38.738  29.633  30.278  1.00  0.00    -0.014 A 
BRANCH  40  41
ATOM     41  C   UNL A   1      39.974  28.862  30.219  1.00  0.00     0.031 A 
ATOM     42  C   UNL A   1      40.683  28.697  31.521  1.00  0.00     0.074 A 
ATOM     43  C   UNL A   1      40.422  28.247  29.108  1.00  0.00     0.049 A 
ATOM     44  N   UNL A   1      41.877  29.085  31.831  1.00  0.00    -0.248 NA
ATOM     45  C   UNL A   1      39.932  28.118  32.645  1.00  0.00     0.031 C 
ATOM     46  C   UNL A   1      39.749  28.089  27.820  1.00  0.00     0.029 A 
ATOM     47  N   UNL A   1      41.575  27.539  28.945  1.00  0.00    -0.354 N 
ATOM     48  C   UNL A   1      42.097  28.665  33.143  1.00  0.00     0.074 A 
ATOM     49  C   UNL A   1      40.832  28.178  33.629  1.00  0.00     0.031 C 
ATOM     50  C   UNL A   1      40.403  27.158  27.090  1.00  0.00     0.029 A 
ATOM     51  C   UNL A   1      41.599  26.747  27.807  1.00  0.00     0.049 A 
ATOM     52  H   UNL A   1      42.326  27.587  29.580  1.00  0.00     0.167 HD
ATOM     53  C   UNL A   1      43.350  28.592  33.673  1.00  0.00     0.037 A 
ATOM     54  C   UNL A   1      42.509  25.786  27.506  1.00  0.00     0.037 A 
ATOM     55  C   UNL A   1      44.290  29.373  32.915  1.00  0.00     0.049 A 
ATOM     56  C   UNL A   1      43.721  26.038  28.324  1.00  0.00     0.074 A 
ATOM     57  C   UNL A   1      44.407  30.711  32.592  1.00  0.00     0.029 A 
ATOM     58  N   UNL A   1      45.158  28.715  32.079  1.00  0.00    -0.354 N 
ATOM     59  N   UNL A   1      44.548  27.021  28.110  1.00  0.00    -0.248 NA
ATOM     60  C   UNL A   1      43.789  25.446  29.653  1.00  0.00     0.031 C 
ATOM     61  C   UNL A   1      44.939  30.724  31.269  1.00  0.00     0.029 A 
ATOM     62  C   UNL A   1      45.154  29.399  30.894  1.00  0.00     0.049 A 
ATOM     63  H   UNL A   1      45.683  27.908  32.292  1.00  0.00     0.167 HD
ATOM     64  C   UNL A   1      44.911  27.456  29.375  1.00  0.00     0.074 A 
ATOM     65  C   UNL A   1      44.500  26.385  30.281  1.00  0.00     0.031 C 
ATOM     66  C   UNL A   1      45.246  28.759  29.606  1.00  0.00     0.037 A 
BRANCH  53  67
ATOM     67  C   UNL A   1      43.805  27.549  34.667  1.00  0.00     0.057 A 
ATOM     68  C   UNL A   1      43.984  27.797  36.041  1.00  0.00     0.134 A 
ATOM     69  C   UNL A   1      43.749  26.187  34.308  1.00  0.00     0.134 A 
ATOM     70  F   UNL A   1      44.010  29.034  36.549  1.00  0.00    -0.206 F 
ATOM     71  C   UNL A   1      44.042  26.773  36.992  1.00  0.00     0.040 A 
ATOM     72  C   UNL A   1      43.756  25.158  35.257  1.00  0.00     0.040 A 
ATOM     73  F   UNL A   1      43.590  25.817  33.028  1.00  0.00    -0.206 F 
ATOM     74  C   UNL A   1      43.886  25.452  36.607  1.00  0.00     0.006 A 
ENDBRANCH  53  67
BRANCH  54  75
ATOM     75  C   UNL A   1      42.341  24.559  26.697  1.00  0.00     0.057 A 
ATOM     76  C   UNL A   1      41.435  23.549  27.066  1.00  0.00     0.134 A 
ATOM     77  C   UNL A   1      43.241  24.229  25.673  1.00  0.00     0.134 A 
ATOM     78  F   UNL A   1      40.583  23.718  28.088  1.00  0.00    -0.206 F 
ATOM     79  C   UNL A   1      41.425  22.288  26.459  1.00  0.00     0.040 A 
ATOM     80  C   UNL A   1      43.249  22.966  25.064  1.00  0.00     0.040 A 
ATOM     81  F   UNL A   1      44.175  25.105  25.276  1.00  0.00    -0.206 F 
ATOM     82  C   UNL A   1      42.344  21.988  25.464  1.00  0.00     0.006 A 
ENDBRANCH  54  75
BRANCH  66  83
ATOM     83  C   UNL A   1      45.450  29.653  28.418  1.00  0.00     0.057 A 
ATOM     84  C   UNL A   1      46.754  29.923  27.990  1.00  0.00     0.134 A 
ATOM     85  C   UNL A   1      44.415  30.362  27.790  1.00  0.00     0.134 A 
ATOM     86  F   UNL A   1      47.801  29.331  28.588  1.00  0.00    -0.206 F 
ATOM     87  C   UNL A   1      47.018  30.843  26.972  1.00  0.00     0.040 A 
ATOM     88  C   UNL A   1      44.663  31.257  26.745  1.00  0.00     0.040 A 
ATOM     89  F   UNL A   1      43.147  30.253  28.205  1.00  0.00    -0.206 F 
ATOM     90  C   UNL A   1      45.970  31.504  26.338  1.00  0.00     0.006 A 
ENDBRANCH  66  83
ENDBRANCH  40  41
ENDBRANCH  32  35
ENDBRANCH  30  31
ENDBRANCH  29  30
ENDBRANCH  28  29
ENDBRANCH   3  28
TORSDOF 16
ENDMDL
MODEL 3
REMARK VINA RESULT:     -11.6      2.756      8.175
REMARK SMILES CC(=O)c1cn(CC(=O)NCC(=O)NCC(=O)NCCCNC(=O)c2ccc(-c3c4nc(c(-c5c(F)cccc5F)c5ccc([nH]5)c(-c5c(F)cccc5F)c5nc(c(-c6c(F)cccc6F)c6ccc3[nH]6)C=C5)C=C4)cc2)c2ccccc12
REMARK SMILES IDX 16 1 17 2 18 3 15 5 14 6 12 7 13 8 11 10 10 11 8 12 9 13
REMARK SMILES IDX 7 15 6 16 4 17 5 18 84 19 79 20 83 21 80 22 82 23 81 24 2 25
REMARK SMILES IDX 1 26 3 27 19 28 20 29 21 30 22 31 23 32 24 34 25 35 26 36
REMARK SMILES IDX 78 37 27 38 77 39 28 40 29 41 30 42 71 43 31 44 76 45 70 46
REMARK SMILES IDX 72 47 32 48 75 49 69 50 68 51 33 53 59 54 42 55 58 56 43 57
REMARK SMILES IDX 46 58 57 59 73 60 44 61 45 62 56 64 74 65 47 66 34 67 35 68
REMARK SMILES IDX 40 69 36 70 37 71 39 72 41 73 38 74 60 75 61 76 66 77 62 78
REMARK SMILES IDX 63 79 65 80 67 81 64 82 48 83 49 84 54 85 50 86 51 87 53 88
REMARK SMILES IDX 55 89 52 90
REMARK H PARENT 18 4 14 9 10 14 22 33 72 52 46 63
REMARK Flexibility Score: inf
ROOT
ATOM      1  C   UNL A   1      35.322  21.541  26.277  1.00  0.00     0.239 C 
ATOM      2  O   UNL A   1      34.479  21.607  27.162  1.00  0.00    -0.273 OA
ATOM      3  N   UNL A   1      36.462  22.285  26.406  1.00  0.00    -0.355 N 
ATOM      4  H   UNL A   1      36.633  22.665  27.299  1.00  0.00     0.163 HD
ENDROOT
BRANCH   1   5
ATOM      5  C   UNL A   1      35.194  20.568  25.097  1.00  0.00     0.216 C 
BRANCH   5   6
ATOM      6  N   UNL A   1      34.119  19.596  25.132  1.00  0.00    -0.346 N 
ATOM      7  C   UNL A   1      32.784  19.791  24.922  1.00  0.00     0.239 C 
ATOM      8  O   UNL A   1      32.088  18.788  24.746  1.00  0.00    -0.273 OA
ATOM      9  H   UNL A   1      34.387  18.670  25.336  1.00  0.00     0.164 HD
BRANCH   7  10
ATOM     10  C   UNL A   1      32.164  21.205  24.796  1.00  0.00     0.216 C 
BRANCH  10  11
ATOM     11  N   UNL A   1      31.437  21.657  25.977  1.00  0.00    -0.345 N 
ATOM     12  C   UNL A   1      30.841  22.843  26.286  1.00  0.00     0.240 C 
ATOM     13  O   UNL A   1      30.483  22.997  27.459  1.00  0.00    -0.273 OA
ATOM     14  H   UNL A   1      31.365  20.977  26.685  1.00  0.00     0.164 HD
BRANCH  12  15
ATOM     15  C   UNL A   1      30.525  23.895  25.239  1.00  0.00     0.222 C 
BRANCH  15  16
ATOM     16  N   UNL A   1      31.490  24.980  25.141  1.00  0.00    -0.337 N 
ATOM     17  C   UNL A   1      32.560  26.854  25.725  1.00  0.00     0.043 A 
ATOM     18  C   UNL A   1      31.844  25.770  26.200  1.00  0.00     0.099 A 
ATOM     19  C   UNL A   1      32.816  26.591  24.338  1.00  0.00     0.010 A 
ATOM     20  C   UNL A   1      32.162  25.391  24.009  1.00  0.00     0.049 A 
ATOM     21  C   UNL A   1      33.519  27.263  23.313  1.00  0.00     0.011 A 
ATOM     22  C   UNL A   1      32.184  24.856  22.709  1.00  0.00     0.027 A 
ATOM     23  C   UNL A   1      33.534  26.745  22.014  1.00  0.00     0.001 A 
ATOM     24  C   UNL A   1      32.875  25.558  21.718  1.00  0.00     0.002 A 
BRANCH  17  25
ATOM     25  C   UNL A   1      32.895  27.994  26.577  1.00  0.00     0.161 C 
ATOM     26  C   UNL A   1      31.784  28.754  27.255  1.00  0.00     0.093 C 
ATOM     27  O   UNL A   1      34.069  28.260  26.841  1.00  0.00    -0.294 OA
ENDBRANCH  17  25
ENDBRANCH  15  16
ENDBRANCH  12  15
ENDBRANCH  10  11
ENDBRANCH   7  10
ENDBRANCH   5   6
ENDBRANCH   1   5
BRANCH   3  28
ATOM     28  C   UNL A   1      37.446  22.578  25.394  1.00  0.00     0.117 C 
BRANCH  28  29
ATOM     29  C   UNL A   1      38.549  21.529  25.398  1.00  0.00     0.042 C 
BRANCH  29  30
ATOM     30  C   UNL A   1      39.671  21.877  26.376  1.00  0.00     0.118 C 
BRANCH  30  31
ATOM     31  N   UNL A   1      40.975  21.932  25.748  1.00  0.00    -0.352 N 
ATOM     32  C   UNL A   1      42.025  22.806  25.802  1.00  0.00     0.251 C 
ATOM     33  H   UNL A   1      41.144  21.170  25.149  1.00  0.00     0.163 HD
ATOM     34  O   UNL A   1      43.029  22.488  25.161  1.00  0.00    -0.269 OA
BRANCH  32  35
ATOM     35  C   UNL A   1      42.017  24.109  26.523  1.00  0.00     0.039 A 
ATOM     36  C   UNL A   1      42.665  24.378  27.728  1.00  0.00     0.014 A 
ATOM     37  C   UNL A   1      41.244  25.130  25.939  1.00  0.00     0.014 A 
ATOM     38  C   UNL A   1      42.470  25.586  28.384  1.00  0.00     0.010 A 
ATOM     39  C   UNL A   1      41.078  26.359  26.569  1.00  0.00     0.010 A 
ATOM     40  C   UNL A   1      41.662  26.569  27.813  1.00  0.00    -0.014 A 
BRANCH  40  41
ATOM     41  C   UNL A   1      41.567  27.847  28.511  1.00  0.00     0.031 A 
ATOM     42  C   UNL A   1      42.658  28.818  28.208  1.00  0.00     0.074 A 
ATOM     43  C   UNL A   1      40.535  28.195  29.302  1.00  0.00     0.049 A 
ATOM     44  N   UNL A   1      43.510  29.340  29.029  1.00  0.00    -0.248 NA
ATOM     45  C   UNL A   1      42.890  29.175  26.800  1.00  0.00     0.031 C 
ATOM     46  C   UNL A   1      39.275  27.486  29.520  1.00  0.00     0.029 A 
ATOM     47  N   UNL A   1      40.375  29.341  30.021  1.00  0.00    -0.354 N 
ATOM     48  C   UNL A   1      44.294  30.215  28.277  1.00  0.00     0.074 A 
ATOM     49  C   UNL A   1      43.943  29.988  26.898  1.00  0.00     0.031 C 
ATOM     50  C   UNL A   1      38.402  28.315  30.135  1.00  0.00     0.029 A 
ATOM     51  C   UNL A   1      39.077  29.561  30.458  1.00  0.00     0.049 A 
ATOM     52  H   UNL A   1      41.116  29.960  30.213  1.00  0.00     0.167 HD
ATOM     53  C   UNL A   1      45.053  31.183  28.862  1.00  0.00     0.037 A 
ATOM     54  C   UNL A   1      38.585  30.705  30.998  1.00  0.00     0.037 A 
ATOM     55  C   UNL A   1      45.271  30.911  30.257  1.00  0.00     0.049 A 
ATOM     56  C   UNL A   1      39.734  31.505  31.487  1.00  0.00     0.074 A 
ATOM     57  C   UNL A   1      45.869  29.887  30.968  1.00  0.00     0.029 A 
ATOM     58  N   UNL A   1      44.554  31.630  31.181  1.00  0.00    -0.354 N 
ATOM     59  N   UNL A   1      40.436  31.199  32.541  1.00  0.00    -0.248 NA
ATOM     60  C   UNL A   1      40.379  32.423  30.557  1.00  0.00     0.031 C 
ATOM     61  C   UNL A   1      45.083  29.752  32.149  1.00  0.00     0.029 A 
ATOM     62  C   UNL A   1      44.090  30.730  32.103  1.00  0.00     0.049 A 
ATOM     63  H   UNL A   1      44.403  32.603  31.181  1.00  0.00     0.167 HD
ATOM     64  C   UNL A   1      41.741  31.513  32.197  1.00  0.00     0.074 A 
ATOM     65  C   UNL A   1      41.633  32.359  31.011  1.00  0.00     0.031 C 
ATOM     66  C   UNL A   1      42.796  30.828  32.729  1.00  0.00     0.037 A 
BRANCH  53  67
ATOM     67  C   UNL A   1      45.311  32.549  28.272  1.00  0.00     0.057 A 
ATOM     68  C   UNL A   1      46.559  32.966  27.772  1.00  0.00     0.134 A 
ATOM     69  C   UNL A   1      44.216  33.351  27.890  1.00  0.00     0.134 A 
ATOM     70  F   UNL A   1      47.688  32.287  28.002  1.00  0.00    -0.206 F 
ATOM     71  C   UNL A   1      46.701  34.060  26.912  1.00  0.00     0.040 A 
ATOM     72  C   UNL A   1      44.341  34.416  26.991  1.00  0.00     0.040 A 
ATOM     73  F   UNL A   1      42.973  33.065  28.307  1.00  0.00    -0.206 F 
ATOM     74  C   UNL A   1      45.586  34.763  26.486  1.00  0.00     0.006 A 
ENDBRANCH  53  67
BRANCH  54  75
ATOM     75  C   UNL A   1      37.207  31.241  30.957  1.00  0.00     0.057 A 
ATOM     76  C   UNL A   1      36.670  31.815  29.791  1.00  0.00     0.134 A 
ATOM     77  C   UNL A   1      36.461  31.429  32.131  1.00  0.00     0.134 A 
ATOM     78  F   UNL A   1      37.335  31.773  28.627  1.00  0.00    -0.206 F 
ATOM     79  C   UNL A   1      35.470  32.534  29.789  1.00  0.00     0.040 A 
ATOM     80  C   UNL A   1      35.263  32.157  32.145  1.00  0.00     0.040 A 
ATOM     81  F   UNL A   1      36.905  30.960  33.305  1.00  0.00    -0.206 F 
ATOM     82  C   UNL A   1      34.769  32.719  30.972  1.00  0.00     0.006 A 
ENDBRANCH  54  75
BRANCH  66  83
ATOM     83  C   UNL A   1      42.524  29.895  33.873  1.00  0.00     0.057 A 
ATOM     84  C   UNL A   1      42.122  28.584  33.596  1.00  0.00     0.134 A 
ATOM     85  C   UNL A   1      42.502  30.297  35.216  1.00  0.00     0.134 A 
ATOM     86  F   UNL A   1      42.056  28.148  32.327  1.00  0.00    -0.206 F 
ATOM     87  C   UNL A   1      41.734  27.705  34.609  1.00  0.00     0.040 A 
ATOM     88  C   UNL A   1      42.151  29.415  36.243  1.00  0.00     0.040 A 
ATOM     89  F   UNL A   1      42.762  31.562  35.568  1.00  0.00    -0.206 F 
ATOM     90  C   UNL A   1      41.759  28.115  35.939  1.00  0.00     0.006 A 
ENDBRANCH  66  83
ENDBRANCH  40  41
ENDBRANCH  32  35
ENDBRANCH  30  31
ENDBRANCH  29  30
ENDBRANCH  28  29
ENDBRANCH   3  28
TORSDOF 16
ENDMDL
