MODEL 1
REMARK VINA RESULT:     -11.6      0.000      0.000
REMARK SMILES CC(C)(C)C[N@H+]1[C@@H](C(=O)NCCCNC(=O)c2ccc(-c3c4nc(c(-c5c(F)cccc5F)c5ccc([nH]5)c(-c5c(F)cccc5F)c5nc(c(-c6c(F)cccc6F)c6ccc3[nH]6)C=C5)C=C4)cc2)CC[C@H]2CCCC[C@@H]21
REMARK SMILES IDX 12 1 11 2 10 3 8 4 9 5 7 7 6 8 78 9 71 11 73 12 77 13 72 14
REMARK SMILES IDX 74 15 76 16 75 17 5 18 2 19 1 20 3 21 4 22 13 23 14 24 15 25
REMARK SMILES IDX 16 27 17 28 18 29 70 30 19 31 69 32 20 33 21 34 22 35 63 36
REMARK SMILES IDX 23 37 68 38 62 39 64 40 24 41 67 42 61 43 60 44 25 46 51 47
REMARK SMILES IDX 34 48 50 49 35 50 38 51 49 52 65 53 36 54 37 55 48 57 66 58
REMARK SMILES IDX 39 59 26 60 27 61 32 62 28 63 29 64 31 65 33 66 30 67 52 68
REMARK SMILES IDX 53 69 58 70 54 71 55 72 57 73 59 74 56 75 40 76 41 77 46 78
REMARK SMILES IDX 42 79 43 80 45 81 47 82 44 83
REMARK H PARENT 10 6 6 10 14 26 64 45 38 56
REMARK Flexibility Score: inf
ROOT
ATOM      1  C   UNL A   1      32.284  27.811  27.251  1.00  0.00     0.042 C 
ENDROOT
BRANCH   1   2
ATOM      2  C   UNL A   1      32.049  26.810  26.132  1.00  0.00     0.118 C 
BRANCH   2   3
ATOM      3  N   UNL A   1      31.402  25.585  26.550  1.00  0.00    -0.351 N 
ATOM      4  C   UNL A   1      31.751  24.283  26.676  1.00  0.00     0.278 C 
ATOM      5  O   UNL A   1      30.909  23.638  27.333  1.00  0.00    -0.268 OA
ATOM      6  H   UNL A   1      30.466  25.738  26.812  1.00  0.00     0.163 HD
BRANCH   4   7
ATOM      7  C   UNL A   1      32.913  23.488  26.016  1.00  0.00     0.274 C 
ATOM      8  N   UNL A   1      33.946  24.165  25.207  1.00  0.00    -0.322 N 
ATOM      9  C   UNL A   1      35.196  23.399  25.103  1.00  0.00     0.187 C 
ATOM     10  H   UNL A   1      34.020  24.967  25.832  1.00  0.00     0.349 HD
ATOM     11  C   UNL A   1      32.580  22.039  25.624  1.00  0.00     0.076 C 
ATOM     12  C   UNL A   1      35.103  21.907  25.498  1.00  0.00     0.048 C 
ATOM     13  C   UNL A   1      36.329  24.016  25.940  1.00  0.00     0.065 C 
ATOM     14  C   UNL A   1      33.788  21.287  25.030  1.00  0.00     0.016 C 
ATOM     15  C   UNL A   1      36.351  21.214  24.940  1.00  0.00     0.010 C 
ATOM     16  C   UNL A   1      37.660  23.348  25.568  1.00  0.00     0.006 C 
ATOM     17  C   UNL A   1      37.617  21.813  25.568  1.00  0.00     0.001 C 
BRANCH   8  18
ATOM     18  C   UNL A   1      33.667  24.964  24.016  1.00  0.00     0.269 C 
BRANCH  18  19
ATOM     19  C   UNL A   1      32.778  24.500  22.790  1.00  0.00     0.011 C 
ATOM     20  C   UNL A   1      33.274  23.192  22.143  1.00  0.00     0.017 C 
ATOM     21  C   UNL A   1      32.898  25.598  21.702  1.00  0.00     0.017 C 
ATOM     22  C   UNL A   1      31.291  24.305  23.098  1.00  0.00     0.017 C 
ENDBRANCH  18  19
ENDBRANCH   8  18
ENDBRANCH   4   7
ENDBRANCH   2   3
ENDBRANCH   1   2
BRANCH   1  23
ATOM     23  C   UNL A   1      33.656  28.460  27.216  1.00  0.00     0.118 C 
BRANCH  23  24
ATOM     24  N   UNL A   1      33.613  29.866  27.607  1.00  0.00    -0.352 N 
ATOM     25  C   UNL A   1      34.546  30.664  28.231  1.00  0.00     0.251 C 
ATOM     26  H   UNL A   1      32.769  30.324  27.387  1.00  0.00     0.163 HD
ATOM     27  O   UNL A   1      34.206  31.772  28.636  1.00  0.00    -0.269 OA
BRANCH  25  28
ATOM     28  C   UNL A   1      35.944  30.211  28.434  1.00  0.00     0.039 A 
ATOM     29  C   UNL A   1      36.319  29.701  29.684  1.00  0.00     0.014 A 
ATOM     30  C   UNL A   1      36.905  30.329  27.432  1.00  0.00     0.014 A 
ATOM     31  C   UNL A   1      37.630  29.267  29.901  1.00  0.00     0.010 A 
ATOM     32  C   UNL A   1      38.175  29.788  27.608  1.00  0.00     0.010 A 
ATOM     33  C   UNL A   1      38.564  29.278  28.854  1.00  0.00    -0.014 A 
BRANCH  33  34
ATOM     34  C   UNL A   1      39.967  28.825  29.043  1.00  0.00     0.031 A 
ATOM     35  C   UNL A   1      40.988  29.774  29.618  1.00  0.00     0.074 A 
ATOM     36  C   UNL A   1      40.344  27.598  28.636  1.00  0.00     0.049 A 
ATOM     37  N   UNL A   1      42.279  29.618  29.760  1.00  0.00    -0.248 NA
ATOM     38  C   UNL A   1      40.495  31.093  30.053  1.00  0.00     0.031 C 
ATOM     39  C   UNL A   1      39.467  26.602  28.015  1.00  0.00     0.029 A 
ATOM     40  N   UNL A   1      41.569  26.982  28.672  1.00  0.00    -0.354 N 
ATOM     41  C   UNL A   1      42.753  30.823  30.267  1.00  0.00     0.074 A 
ATOM     42  C   UNL A   1      41.622  31.720  30.350  1.00  0.00     0.031 C 
ATOM     43  C   UNL A   1      40.176  25.492  27.756  1.00  0.00     0.029 A 
ATOM     44  C   UNL A   1      41.563  25.709  28.155  1.00  0.00     0.049 A 
ATOM     45  H   UNL A   1      42.378  27.412  29.034  1.00  0.00     0.167 HD
ATOM     46  C   UNL A   1      44.009  31.147  30.656  1.00  0.00     0.037 A 
ATOM     47  C   UNL A   1      42.565  24.819  28.016  1.00  0.00     0.037 A 
ATOM     48  C   UNL A   1      45.120  30.235  30.623  1.00  0.00     0.049 A 
ATOM     49  C   UNL A   1      43.945  25.189  28.483  1.00  0.00     0.074 A 
ATOM     50  C   UNL A   1      46.417  30.439  31.061  1.00  0.00     0.029 A 
ATOM     51  N   UNL A   1      45.062  28.940  30.131  1.00  0.00    -0.354 N 
ATOM     52  N   UNL A   1      44.365  26.313  29.015  1.00  0.00    -0.248 NA
ATOM     53  C   UNL A   1      44.989  24.166  28.339  1.00  0.00     0.031 C 
ATOM     54  C   UNL A   1      47.153  29.278  30.801  1.00  0.00     0.029 A 
ATOM     55  C   UNL A   1      46.303  28.336  30.242  1.00  0.00     0.049 A 
ATOM     56  H   UNL A   1      44.257  28.513  29.758  1.00  0.00     0.167 HD
ATOM     57  C   UNL A   1      45.712  26.122  29.294  1.00  0.00     0.074 A 
ATOM     58  C   UNL A   1      46.036  24.770  28.886  1.00  0.00     0.031 C 
ATOM     59  C   UNL A   1      46.601  26.987  29.840  1.00  0.00     0.037 A 
BRANCH  46  60
ATOM     60  C   UNL A   1      44.239  32.541  31.165  1.00  0.00     0.057 A 
ATOM     61  C   UNL A   1      44.100  32.867  32.522  1.00  0.00     0.134 A 
ATOM     62  C   UNL A   1      44.624  33.566  30.292  1.00  0.00     0.134 A 
ATOM     63  F   UNL A   1      43.721  31.935  33.409  1.00  0.00    -0.206 F 
ATOM     64  C   UNL A   1      44.304  34.168  32.985  1.00  0.00     0.040 A 
ATOM     65  C   UNL A   1      44.859  34.865  30.750  1.00  0.00     0.040 A 
ATOM     66  F   UNL A   1      44.781  33.324  28.982  1.00  0.00    -0.206 F 
ATOM     67  C   UNL A   1      44.691  35.170  32.099  1.00  0.00     0.006 A 
ENDBRANCH  46  60
BRANCH  47  68
ATOM     68  C   UNL A   1      42.293  23.478  27.440  1.00  0.00     0.057 A 
ATOM     69  C   UNL A   1      42.366  23.261  26.059  1.00  0.00     0.134 A 
ATOM     70  C   UNL A   1      41.953  22.386  28.247  1.00  0.00     0.134 A 
ATOM     71  F   UNL A   1      42.669  24.272  25.232  1.00  0.00    -0.206 F 
ATOM     72  C   UNL A   1      42.093  22.012  25.499  1.00  0.00     0.040 A 
ATOM     73  C   UNL A   1      41.701  21.126  27.703  1.00  0.00     0.040 A 
ATOM     74  F   UNL A   1      41.875  22.527  29.579  1.00  0.00    -0.206 F 
ATOM     75  C   UNL A   1      41.764  20.938  26.323  1.00  0.00     0.006 A 
ENDBRANCH  47  68
BRANCH  59  76
ATOM     76  C   UNL A   1      47.998  26.485  30.061  1.00  0.00     0.057 A 
ATOM     77  C   UNL A   1      48.379  25.865  31.257  1.00  0.00     0.134 A 
ATOM     78  C   UNL A   1      48.958  26.588  29.047  1.00  0.00     0.134 A 
ATOM     79  F   UNL A   1      47.508  25.747  32.269  1.00  0.00    -0.206 F 
ATOM     80  C   UNL A   1      49.675  25.384  31.445  1.00  0.00     0.040 A 
ATOM     81  C   UNL A   1      50.250  26.087  29.214  1.00  0.00     0.040 A 
ATOM     82  F   UNL A   1      48.653  27.162  27.873  1.00  0.00    -0.206 F 
ATOM     83  C   UNL A   1      50.613  25.489  30.419  1.00  0.00     0.006 A 
ENDBRANCH  59  76
ENDBRANCH  33  34
ENDBRANCH  25  28
ENDBRANCH  23  24
ENDBRANCH   1  23
TORSDOF 12
ENDMDL
MODEL 2
REMARK VINA RESULT:     -11.6      0.059      1.324
REMARK SMILES CC(C)(C)C[N@H+]1[C@@H](C(=O)NCCCNC(=O)c2ccc(-c3c4nc(c(-c5c(F)cccc5F)c5ccc([nH]5)c(-c5c(F)cccc5F)c5nc(c(-c6c(F)cccc6F)c6ccc3[nH]6)C=C5)C=C4)cc2)CC[C@H]2CCCC[C@@H]21
REMARK SMILES IDX 12 1 11 2 10 3 8 4 9 5 7 7 6 8 78 9 71 11 73 12 77 13 72 14
REMARK SMILES IDX 74 15 76 16 75 17 5 18 2 19 1 20 3 21 4 22 13 23 14 24 15 25
REMARK SMILES IDX 16 27 17 28 18 29 70 30 19 31 69 32 20 33 21 34 22 35 63 36
REMARK SMILES IDX 23 37 68 38 62 39 64 40 24 41 67 42 61 43 60 44 25 46 51 47
REMARK SMILES IDX 34 48 50 49 35 50 38 51 49 52 65 53 36 54 37 55 48 57 66 58
REMARK SMILES IDX 39 59 26 60 27 61 32 62 28 63 29 64 31 65 33 66 30 67 52 68
REMARK SMILES IDX 53 69 58 70 54 71 55 72 57 73 59 74 56 75 40 76 41 77 46 78
REMARK SMILES IDX 42 79 43 80 45 81 47 82 44 83
REMARK H PARENT 10 6 6 10 14 26 64 45 38 56
REMARK Flexibility Score: inf
ROOT
ATOM      1  C   UNL A   1      32.294  27.828  27.277  1.00  0.00     0.042 C 
ENDROOT
BRANCH   1   2
ATOM      2  C   UNL A   1      32.050  26.835  26.153  1.00  0.00     0.118 C 
BRANCH   2   3
ATOM      3  N   UNL A   1      31.397  25.611  26.567  1.00  0.00    -0.351 N 
ATOM      4  C   UNL A   1      31.738  24.306  26.681  1.00  0.00     0.278 C 
ATOM      5  O   UNL A   1      30.897  23.661  27.338  1.00  0.00    -0.268 OA
ATOM      6  H   UNL A   1      30.464  25.768  26.835  1.00  0.00     0.163 HD
BRANCH   4   7
ATOM      7  C   UNL A   1      32.892  23.508  26.008  1.00  0.00     0.274 C 
ATOM      8  N   UNL A   1      33.922  24.184  25.195  1.00  0.00    -0.322 N 
ATOM      9  C   UNL A   1      35.168  23.412  25.079  1.00  0.00     0.187 C 
ATOM     10  H   UNL A   1      34.005  24.982  25.824  1.00  0.00     0.349 HD
ATOM     11  C   UNL A   1      32.548  22.063  25.611  1.00  0.00     0.076 C 
ATOM     12  C   UNL A   1      35.069  21.918  25.466  1.00  0.00     0.048 C 
ATOM     13  C   UNL A   1      36.310  24.019  25.911  1.00  0.00     0.065 C 
ATOM     14  C   UNL A   1      33.748  21.307  25.004  1.00  0.00     0.016 C 
ATOM     15  C   UNL A   1      36.310  21.221  24.895  1.00  0.00     0.010 C 
ATOM     16  C   UNL A   1      37.635  23.345  25.525  1.00  0.00     0.006 C 
ATOM     17  C   UNL A   1      37.583  21.811  25.517  1.00  0.00     0.001 C 
BRANCH   8  18
ATOM     18  C   UNL A   1      33.639  24.991  24.011  1.00  0.00     0.269 C 
BRANCH  18  19
ATOM     19  C   UNL A   1      32.759  24.529  22.778  1.00  0.00     0.011 C 
ATOM     20  C   UNL A   1      33.239  23.204  22.154  1.00  0.00     0.017 C 
ATOM     21  C   UNL A   1      32.916  25.612  21.678  1.00  0.00     0.017 C 
ATOM     22  C   UNL A   1      31.264  24.366  23.067  1.00  0.00     0.017 C 
ENDBRANCH  18  19
ENDBRANCH   8  18
ENDBRANCH   4   7
ENDBRANCH   2   3
ENDBRANCH   1   2
BRANCH   1  23
ATOM     23  C   UNL A   1      33.670  28.467  27.245  1.00  0.00     0.118 C 
BRANCH  23  24
ATOM     24  N   UNL A   1      33.636  29.875  27.629  1.00  0.00    -0.352 N 
ATOM     25  C   UNL A   1      34.575  30.672  28.244  1.00  0.00     0.251 C 
ATOM     26  H   UNL A   1      32.792  30.336  27.410  1.00  0.00     0.163 HD
ATOM     27  O   UNL A   1      34.243  31.783  28.645  1.00  0.00    -0.269 OA
BRANCH  25  28
ATOM     28  C   UNL A   1      35.972  30.213  28.442  1.00  0.00     0.039 A 
ATOM     29  C   UNL A   1      36.342  29.675  29.682  1.00  0.00     0.014 A 
ATOM     30  C   UNL A   1      36.938  30.352  27.446  1.00  0.00     0.014 A 
ATOM     31  C   UNL A   1      37.652  29.234  29.894  1.00  0.00     0.010 A 
ATOM     32  C   UNL A   1      38.206  29.806  27.615  1.00  0.00     0.010 A 
ATOM     33  C   UNL A   1      38.590  29.268  28.851  1.00  0.00    -0.014 A 
BRANCH  33  34
ATOM     34  C   UNL A   1      39.992  28.809  29.035  1.00  0.00     0.031 A 
ATOM     35  C   UNL A   1      41.017  29.753  29.610  1.00  0.00     0.074 A 
ATOM     36  C   UNL A   1      40.363  27.582  28.624  1.00  0.00     0.049 A 
ATOM     37  N   UNL A   1      42.309  29.593  29.749  1.00  0.00    -0.248 NA
ATOM     38  C   UNL A   1      40.531  31.073  30.050  1.00  0.00     0.031 C 
ATOM     39  C   UNL A   1      39.481  26.591  28.003  1.00  0.00     0.029 A 
ATOM     40  N   UNL A   1      41.587  26.961  28.655  1.00  0.00    -0.354 N 
ATOM     41  C   UNL A   1      42.788  30.795  30.257  1.00  0.00     0.074 A 
ATOM     42  C   UNL A   1      41.661  31.696  30.345  1.00  0.00     0.031 C 
ATOM     43  C   UNL A   1      40.186  25.479  27.739  1.00  0.00     0.029 A 
ATOM     44  C   UNL A   1      41.575  25.691  28.135  1.00  0.00     0.049 A 
ATOM     45  H   UNL A   1      42.398  27.388  29.016  1.00  0.00     0.167 HD
ATOM     46  C   UNL A   1      44.046  31.113  30.644  1.00  0.00     0.037 A 
ATOM     47  C   UNL A   1      42.573  24.797  27.991  1.00  0.00     0.037 A 
ATOM     48  C   UNL A   1      45.154  30.198  30.605  1.00  0.00     0.049 A 
ATOM     49  C   UNL A   1      43.955  25.162  28.456  1.00  0.00     0.074 A 
ATOM     50  C   UNL A   1      46.453  30.396  31.040  1.00  0.00     0.029 A 
ATOM     51  N   UNL A   1      45.090  28.904  30.110  1.00  0.00    -0.354 N 
ATOM     52  N   UNL A   1      44.381  26.282  28.989  1.00  0.00    -0.248 NA
ATOM     53  C   UNL A   1      44.996  24.135  28.306  1.00  0.00     0.031 C 
ATOM     54  C   UNL A   1      47.184  29.233  30.775  1.00  0.00     0.029 A 
ATOM     55  C   UNL A   1      46.329  28.296  30.216  1.00  0.00     0.049 A 
ATOM     56  H   UNL A   1      44.283  28.481  29.738  1.00  0.00     0.167 HD
ATOM     57  C   UNL A   1      45.728  26.085  29.264  1.00  0.00     0.074 A 
ATOM     58  C   UNL A   1      46.046  24.734  28.852  1.00  0.00     0.031 C 
ATOM     59  C   UNL A   1      46.622  26.946  29.810  1.00  0.00     0.037 A 
BRANCH  46  60
ATOM     60  C   UNL A   1      44.282  32.505  31.155  1.00  0.00     0.057 A 
ATOM     61  C   UNL A   1      44.233  32.810  32.523  1.00  0.00     0.134 A 
ATOM     62  C   UNL A   1      44.583  33.550  30.273  1.00  0.00     0.134 A 
ATOM     63  F   UNL A   1      43.937  31.859  33.421  1.00  0.00    -0.206 F 
ATOM     64  C   UNL A   1      44.442  34.109  32.991  1.00  0.00     0.040 A 
ATOM     65  C   UNL A   1      44.823  34.848  30.732  1.00  0.00     0.040 A 
ATOM     66  F   UNL A   1      44.652  33.329  28.952  1.00  0.00    -0.206 F 
ATOM     67  C   UNL A   1      44.745  35.130  32.094  1.00  0.00     0.006 A 
ENDBRANCH  46  60
BRANCH  47  68
ATOM     68  C   UNL A   1      42.295  23.459  27.413  1.00  0.00     0.057 A 
ATOM     69  C   UNL A   1      41.946  22.380  28.234  1.00  0.00     0.134 A 
ATOM     70  C   UNL A   1      42.370  23.222  26.036  1.00  0.00     0.134 A 
ATOM     71  F   UNL A   1      41.874  22.539  29.563  1.00  0.00    -0.206 F 
ATOM     72  C   UNL A   1      41.701  21.109  27.709  1.00  0.00     0.040 A 
ATOM     73  C   UNL A   1      42.105  21.963  25.495  1.00  0.00     0.040 A 
ATOM     74  F   UNL A   1      42.691  24.216  25.194  1.00  0.00    -0.206 F 
ATOM     75  C   UNL A   1      41.776  20.900  26.334  1.00  0.00     0.006 A 
ENDBRANCH  47  68
BRANCH  59  76
ATOM     76  C   UNL A   1      48.017  26.439  30.026  1.00  0.00     0.057 A 
ATOM     77  C   UNL A   1      49.007  26.560  29.043  1.00  0.00     0.134 A 
ATOM     78  C   UNL A   1      48.381  25.860  31.247  1.00  0.00     0.134 A 
ATOM     79  F   UNL A   1      48.718  27.094  27.848  1.00  0.00    -0.206 F 
ATOM     80  C   UNL A   1      50.307  26.101  29.262  1.00  0.00     0.040 A 
ATOM     81  C   UNL A   1      49.684  25.422  31.487  1.00  0.00     0.040 A 
ATOM     82  F   UNL A   1      47.481  25.725  32.234  1.00  0.00    -0.206 F 
ATOM     83  C   UNL A   1      50.650  25.536  30.489  1.00  0.00     0.006 A 
ENDBRANCH  59  76
ENDBRANCH  33  34
ENDBRANCH  25  28
ENDBRANCH  23  24
ENDBRANCH   1  23
TORSDOF 12
ENDMDL
MODEL 3
REMARK VINA RESULT:     -11.4      0.897      2.311
REMARK SMILES CC(C)(C)C[N@H+]1[C@@H](C(=O)NCCCNC(=O)c2ccc(-c3c4nc(c(-c5c(F)cccc5F)c5ccc([nH]5)c(-c5c(F)cccc5F)c5nc(c(-c6c(F)cccc6F)c6ccc3[nH]6)C=C5)C=C4)cc2)CC[C@H]2CCCC[C@@H]21
REMARK SMILES IDX 12 1 11 2 10 3 8 4 9 5 7 7 6 8 78 9 71 11 73 12 77 13 72 14
REMARK SMILES IDX 74 15 76 16 75 17 5 18 2 19 1 20 3 21 4 22 13 23 14 24 15 25
REMARK SMILES IDX 16 27 17 28 18 29 70 30 19 31 69 32 20 33 21 34 22 35 63 36
REMARK SMILES IDX 23 37 68 38 62 39 64 40 24 41 67 42 61 43 60 44 25 46 51 47
REMARK SMILES IDX 34 48 50 49 35 50 38 51 49 52 65 53 36 54 37 55 48 57 66 58
REMARK SMILES IDX 39 59 26 60 27 61 32 62 28 63 29 64 31 65 33 66 30 67 52 68
REMARK SMILES IDX 53 69 58 70 54 71 55 72 57 73 59 74 56 75 40 76 41 77 46 78
REMARK SMILES IDX 42 79 43 80 45 81 47 82 44 83
REMARK H PARENT 10 6 6 10 14 26 64 45 38 56
REMARK Flexibility Score: inf
ROOT
ATOM      1  C   UNL A   1      32.616  27.731  26.615  1.00  0.00     0.042 C 
ENDROOT
BRANCH   1   2
ATOM      2  C   UNL A   1      32.701  26.314  26.070  1.00  0.00     0.118 C 
BRANCH   2   3
ATOM      3  N   UNL A   1      31.701  25.409  26.596  1.00  0.00    -0.351 N 
ATOM      4  C   UNL A   1      31.438  24.083  26.518  1.00  0.00     0.278 C 
ATOM      5  O   UNL A   1      30.600  23.725  27.369  1.00  0.00    -0.268 OA
ATOM      6  H   UNL A   1      31.043  25.878  27.157  1.00  0.00     0.163 HD
BRANCH   4   7
ATOM      7  C   UNL A   1      31.892  23.031  25.466  1.00  0.00     0.274 C 
ATOM      8  N   UNL A   1      33.120  22.233  25.658  1.00  0.00    -0.322 N 
ATOM      9  C   UNL A   1      33.125  20.982  24.886  1.00  0.00     0.187 C 
ATOM     10  H   UNL A   1      32.961  22.086  26.654  1.00  0.00     0.349 HD
ATOM     11  C   UNL A   1      31.499  23.341  24.013  1.00  0.00     0.076 C 
ATOM     12  C   UNL A   1      32.084  20.894  23.746  1.00  0.00     0.048 C 
ATOM     13  C   UNL A   1      32.924  19.745  25.777  1.00  0.00     0.065 C 
ATOM     14  C   UNL A   1      31.926  22.233  23.028  1.00  0.00     0.016 C 
ATOM     15  C   UNL A   1      32.515  19.743  22.829  1.00  0.00     0.010 C 
ATOM     16  C   UNL A   1      33.224  18.478  24.964  1.00  0.00     0.006 C 
ATOM     17  C   UNL A   1      32.515  18.419  23.604  1.00  0.00     0.001 C 
BRANCH   8  18
ATOM     18  C   UNL A   1      34.454  22.803  25.831  1.00  0.00     0.269 C 
BRANCH  18  19
ATOM     19  C   UNL A   1      35.648  22.665  24.799  1.00  0.00     0.011 C 
ATOM     20  C   UNL A   1      36.230  21.239  24.733  1.00  0.00     0.017 C 
ATOM     21  C   UNL A   1      36.792  23.581  25.305  1.00  0.00     0.017 C 
ATOM     22  C   UNL A   1      35.319  23.075  23.360  1.00  0.00     0.017 C 
ENDBRANCH  18  19
ENDBRANCH   8  18
ENDBRANCH   4   7
ENDBRANCH   2   3
ENDBRANCH   1   2
BRANCH   1  23
ATOM     23  C   UNL A   1      33.967  28.371  26.875  1.00  0.00     0.118 C 
BRANCH  23  24
ATOM     24  N   UNL A   1      33.844  29.716  27.430  1.00  0.00    -0.352 N 
ATOM     25  C   UNL A   1      34.713  30.468  28.188  1.00  0.00     0.251 C 
ATOM     26  H   UNL A   1      32.990  30.163  27.227  1.00  0.00     0.163 HD
ATOM     27  O   UNL A   1      34.308  31.503  28.707  1.00  0.00    -0.269 OA
BRANCH  25  28
ATOM     28  C   UNL A   1      36.121  30.049  28.400  1.00  0.00     0.039 A 
ATOM     29  C   UNL A   1      36.483  29.479  29.628  1.00  0.00     0.014 A 
ATOM     30  C   UNL A   1      37.101  30.257  27.431  1.00  0.00     0.014 A 
ATOM     31  C   UNL A   1      37.803  29.075  29.852  1.00  0.00     0.010 A 
ATOM     32  C   UNL A   1      38.384  29.748  27.608  1.00  0.00     0.010 A 
ATOM     33  C   UNL A   1      38.761  29.178  28.832  1.00  0.00    -0.014 A 
BRANCH  33  34
ATOM     34  C   UNL A   1      40.173  28.761  29.030  1.00  0.00     0.031 A 
ATOM     35  C   UNL A   1      41.158  29.722  29.646  1.00  0.00     0.074 A 
ATOM     36  C   UNL A   1      40.592  27.557  28.595  1.00  0.00     0.049 A 
ATOM     37  N   UNL A   1      42.451  29.600  29.804  1.00  0.00    -0.248 NA
ATOM     38  C   UNL A   1      40.621  31.014  30.109  1.00  0.00     0.031 C 
ATOM     39  C   UNL A   1      39.753  26.554  27.934  1.00  0.00     0.029 A 
ATOM     40  N   UNL A   1      41.834  26.975  28.633  1.00  0.00    -0.354 N 
ATOM     41  C   UNL A   1      42.882  30.803  30.350  1.00  0.00     0.074 A 
ATOM     42  C   UNL A   1      41.725  31.665  30.440  1.00  0.00     0.031 C 
ATOM     43  C   UNL A   1      40.499  25.472  27.655  1.00  0.00     0.029 A 
ATOM     44  C   UNL A   1      41.872  25.718  28.081  1.00  0.00     0.049 A 
ATOM     45  H   UNL A   1      42.625  27.419  29.019  1.00  0.00     0.167 HD
ATOM     46  C   UNL A   1      44.122  31.152  30.767  1.00  0.00     0.037 A 
ATOM     47  C   UNL A   1      42.901  24.861  27.933  1.00  0.00     0.037 A 
ATOM     48  C   UNL A   1      45.260  30.274  30.726  1.00  0.00     0.049 A 
ATOM     49  C   UNL A   1      44.263  25.258  28.431  1.00  0.00     0.074 A 
ATOM     50  C   UNL A   1      46.544  30.503  31.189  1.00  0.00     0.029 A 
ATOM     51  N   UNL A   1      45.246  28.992  30.198  1.00  0.00    -0.354 N 
ATOM     52  N   UNL A   1      44.643  26.378  29.000  1.00  0.00    -0.248 NA
ATOM     53  C   UNL A   1      45.339  24.270  28.275  1.00  0.00     0.031 C 
ATOM     54  C   UNL A   1      47.317  29.372  30.909  1.00  0.00     0.029 A 
ATOM     55  C   UNL A   1      46.503  28.422  30.311  1.00  0.00     0.049 A 
ATOM     56  H   UNL A   1      44.460  28.553  29.801  1.00  0.00     0.167 HD
ATOM     57  C   UNL A   1      45.990  26.218  29.295  1.00  0.00     0.074 A 
ATOM     58  C   UNL A   1      46.360  24.888  28.854  1.00  0.00     0.031 C 
ATOM     59  C   UNL A   1      46.846  27.093  29.877  1.00  0.00     0.037 A 
BRANCH  46  60
ATOM     60  C   UNL A   1      44.304  32.538  31.318  1.00  0.00     0.057 A 
ATOM     61  C   UNL A   1      44.126  32.824  32.679  1.00  0.00     0.134 A 
ATOM     62  C   UNL A   1      44.682  33.596  30.481  1.00  0.00     0.134 A 
ATOM     63  F   UNL A   1      43.751  31.859  33.532  1.00  0.00    -0.206 F 
ATOM     64  C   UNL A   1      44.285  34.116  33.181  1.00  0.00     0.040 A 
ATOM     65  C   UNL A   1      44.872  34.888  30.978  1.00  0.00     0.040 A 
ATOM     66  F   UNL A   1      44.875  33.393  29.169  1.00  0.00    -0.206 F 
ATOM     67  C   UNL A   1      44.666  35.151  32.330  1.00  0.00     0.006 A 
ENDBRANCH  46  60
BRANCH  47  68
ATOM     68  C   UNL A   1      42.677  23.530  27.317  1.00  0.00     0.057 A 
ATOM     69  C   UNL A   1      42.304  22.430  28.099  1.00  0.00     0.134 A 
ATOM     70  C   UNL A   1      42.829  23.320  25.942  1.00  0.00     0.134 A 
ATOM     71  F   UNL A   1      42.159  22.563  29.425  1.00  0.00    -0.206 F 
ATOM     72  C   UNL A   1      42.109  21.166  27.539  1.00  0.00     0.040 A 
ATOM     73  C   UNL A   1      42.614  22.067  25.365  1.00  0.00     0.040 A 
ATOM     74  F   UNL A   1      43.177  24.335  25.136  1.00  0.00    -0.206 F 
ATOM     75  C   UNL A   1      42.260  20.984  26.166  1.00  0.00     0.006 A 
ENDBRANCH  47  68
BRANCH  59  76
ATOM     76  C   UNL A   1      48.254  26.625  30.105  1.00  0.00     0.057 A 
ATOM     77  C   UNL A   1      49.274  26.875  29.180  1.00  0.00     0.134 A 
ATOM     78  C   UNL A   1      48.596  25.954  31.285  1.00  0.00     0.134 A 
ATOM     79  F   UNL A   1      49.007  27.503  28.026  1.00  0.00    -0.206 F 
ATOM     80  C   UNL A   1      50.584  26.452  29.411  1.00  0.00     0.040 A 
ATOM     81  C   UNL A   1      49.907  25.550  31.539  1.00  0.00     0.040 A 
ATOM     82  F   UNL A   1      47.666  25.694  32.217  1.00  0.00    -0.206 F 
ATOM     83  C   UNL A   1      50.904  25.793  30.597  1.00  0.00     0.006 A 
ENDBRANCH  59  76
ENDBRANCH  33  34
ENDBRANCH  25  28
ENDBRANCH  23  24
ENDBRANCH   1  23
TORSDOF 12
ENDMDL
