MODEL 1
REMARK VINA RESULT:     -12.3      0.000      0.000
REMARK SMILES CC1(C)[C@H](C(=O)NCCCNC(=O)c2ccc(-c3c4nc(c(-c5c(F)cccc5F)c5ccc([nH]5)c(-c5c(F)cccc5F)c5nc(c(-c6c(F)cccc6F)c6ccc3[nH]6)C=C5)C=C4)cc2)[C@H]1C(=O)Nc1ccccc1C(=O)Nc1nccs1
REMARK SMILES IDX 8 1 7 2 5 3 6 4 4 6 1 7 2 8 3 9 68 10 69 11 70 12 71 13
REMARK SMILES IDX 72 15 73 16 77 17 74 18 76 19 75 20 78 21 79 22 80 23 81 25
REMARK SMILES IDX 82 26 85 27 83 28 84 29 9 30 10 31 11 32 12 33 13 35 14 36
REMARK SMILES IDX 15 37 67 38 16 39 66 40 17 41 18 42 19 43 60 44 20 45 65 46
REMARK SMILES IDX 59 47 61 48 21 49 64 50 58 51 57 52 22 54 48 55 31 56 47 57
REMARK SMILES IDX 32 58 35 59 46 60 62 61 33 62 34 63 45 65 63 66 36 67 23 68
REMARK SMILES IDX 24 69 29 70 25 71 26 72 28 73 30 74 27 75 49 76 50 77 55 78
REMARK SMILES IDX 51 79 52 80 54 81 56 82 53 83 37 84 38 85 43 86 39 87 40 88
REMARK SMILES IDX 42 89 44 90 41 91
REMARK H PARENT 7 5 71 14 80 24 11 34 61 53 35 64
REMARK Flexibility Score: inf
ROOT
ATOM      1  C   UNL A   1      36.913  20.968  24.630  1.00  0.00     0.117 C 
ENDROOT
BRANCH   1   2
ATOM      2  N   UNL A   1      35.914  20.901  25.662  1.00  0.00    -0.356 N 
ATOM      3  C   UNL A   1      34.576  20.663  25.605  1.00  0.00     0.224 C 
ATOM      4  O   UNL A   1      33.906  21.056  26.547  1.00  0.00    -0.275 OA
ATOM      5  H   UNL A   1      36.260  21.057  26.570  1.00  0.00     0.163 HD
BRANCH   3   6
ATOM      6  C   UNL A   1      33.900  19.866  24.575  1.00  0.00     0.098 C 
ATOM      7  C   UNL A   1      34.008  17.515  23.763  1.00  0.00     0.013 C 
ATOM      8  C   UNL A   1      33.245  18.526  24.587  1.00  0.00    -0.011 C 
ATOM      9  C   UNL A   1      32.635  17.832  25.794  1.00  0.00     0.013 C 
ATOM     10  C   UNL A   1      32.439  19.783  24.186  1.00  0.00     0.098 C 
BRANCH  10  11
ATOM     11  C   UNL A   1      32.191  20.802  23.143  1.00  0.00     0.228 C 
ATOM     12  O   UNL A   1      32.122  20.399  21.981  1.00  0.00    -0.274 OA
ATOM     13  N   UNL A   1      31.944  22.116  23.364  1.00  0.00    -0.325 N 
ATOM     14  H   UNL A   1      31.664  22.606  22.557  1.00  0.00     0.169 HD
BRANCH  13  15
ATOM     15  C   UNL A   1      32.006  22.910  24.505  1.00  0.00     0.054 A 
ATOM     16  C   UNL A   1      30.928  22.673  25.381  1.00  0.00     0.027 A 
ATOM     17  C   UNL A   1      33.005  23.830  24.855  1.00  0.00     0.063 A 
ATOM     18  C   UNL A   1      30.940  23.161  26.680  1.00  0.00     0.002 A 
ATOM     19  C   UNL A   1      33.005  24.301  26.187  1.00  0.00     0.016 A 
ATOM     20  C   UNL A   1      32.008  23.939  27.099  1.00  0.00     0.001 A 
BRANCH  17  21
ATOM     21  C   UNL A   1      34.136  24.330  24.002  1.00  0.00     0.259 C 
ATOM     22  O   UNL A   1      35.247  23.800  24.126  1.00  0.00    -0.269 OA
ATOM     23  N   UNL A   1      34.031  25.291  23.034  1.00  0.00    -0.298 N 
ATOM     24  H   UNL A   1      34.708  25.259  22.320  1.00  0.00     0.172 HD
BRANCH  23  25
ATOM     25  C   UNL A   1      33.109  26.284  22.932  1.00  0.00     0.189 A 
ATOM     26  N   UNL A   1      33.046  27.430  23.558  1.00  0.00    -0.229 NA
ATOM     27  S   UNL A   1      31.842  25.927  21.843  1.00  0.00    -0.105 S 
ATOM     28  C   UNL A   1      31.856  28.049  23.224  1.00  0.00     0.125 A 
ATOM     29  C   UNL A   1      31.040  27.352  22.357  1.00  0.00     0.088 A 
ENDBRANCH  23  25
ENDBRANCH  17  21
ENDBRANCH  13  15
ENDBRANCH  10  11
ENDBRANCH   3   6
ENDBRANCH   1   2
BRANCH   1  30
ATOM     30  C   UNL A   1      37.955  19.879  24.850  1.00  0.00     0.042 C 
BRANCH  30  31
ATOM     31  C   UNL A   1      38.988  20.247  25.901  1.00  0.00     0.118 C 
BRANCH  31  32
ATOM     32  N   UNL A   1      40.105  19.319  25.908  1.00  0.00    -0.352 N 
ATOM     33  C   UNL A   1      41.442  19.570  26.075  1.00  0.00     0.251 C 
ATOM     34  H   UNL A   1      39.867  18.373  25.773  1.00  0.00     0.163 HD
ATOM     35  O   UNL A   1      42.266  18.705  25.795  1.00  0.00    -0.269 OA
BRANCH  33  36
ATOM     36  C   UNL A   1      41.888  20.886  26.577  1.00  0.00     0.039 A 
ATOM     37  C   UNL A   1      42.276  21.865  25.661  1.00  0.00     0.014 A 
ATOM     38  C   UNL A   1      41.944  21.147  27.949  1.00  0.00     0.014 A 
ATOM     39  C   UNL A   1      42.673  23.121  26.119  1.00  0.00     0.010 A 
ATOM     40  C   UNL A   1      42.241  22.428  28.399  1.00  0.00     0.010 A 
ATOM     41  C   UNL A   1      42.630  23.422  27.490  1.00  0.00    -0.014 A 
BRANCH  41  42
ATOM     42  C   UNL A   1      43.027  24.756  28.005  1.00  0.00     0.031 A 
ATOM     43  C   UNL A   1      41.971  25.794  28.275  1.00  0.00     0.074 A 
ATOM     44  C   UNL A   1      44.330  25.049  28.176  1.00  0.00     0.049 A 
ATOM     45  N   UNL A   1      42.112  27.044  28.633  1.00  0.00    -0.248 NA
ATOM     46  C   UNL A   1      40.570  25.380  28.089  1.00  0.00     0.031 C 
ATOM     47  C   UNL A   1      45.447  24.139  27.916  1.00  0.00     0.029 A 
ATOM     48  N   UNL A   1      44.937  26.204  28.601  1.00  0.00    -0.354 N 
ATOM     49  C   UNL A   1      40.825  27.565  28.702  1.00  0.00     0.074 A 
ATOM     50  C   UNL A   1      39.920  26.517  28.287  1.00  0.00     0.031 C 
ATOM     51  C   UNL A   1      46.600  24.761  28.210  1.00  0.00     0.029 A 
ATOM     52  C   UNL A   1      46.309  26.126  28.635  1.00  0.00     0.049 A 
ATOM     53  H   UNL A   1      44.437  27.013  28.858  1.00  0.00     0.167 HD
ATOM     54  C   UNL A   1      40.431  28.795  29.104  1.00  0.00     0.037 A 
ATOM     55  C   UNL A   1      47.225  27.057  28.960  1.00  0.00     0.037 A 
ATOM     56  C   UNL A   1      41.334  29.826  29.540  1.00  0.00     0.049 A 
ATOM     57  C   UNL A   1      46.759  28.427  29.375  1.00  0.00     0.074 A 
ATOM     58  C   UNL A   1      41.033  31.096  30.002  1.00  0.00     0.029 A 
ATOM     59  N   UNL A   1      42.714  29.703  29.574  1.00  0.00    -0.354 N 
ATOM     60  N   UNL A   1      45.536  28.888  29.485  1.00  0.00    -0.248 NA
ATOM     61  C   UNL A   1      47.802  29.405  29.716  1.00  0.00     0.031 C 
ATOM     62  C   UNL A   1      42.235  31.755  30.276  1.00  0.00     0.029 A 
ATOM     63  C   UNL A   1      43.280  30.878  30.035  1.00  0.00     0.049 A 
ATOM     64  H   UNL A   1      43.217  28.898  29.310  1.00  0.00     0.167 HD
ATOM     65  C   UNL A   1      45.662  30.193  29.945  1.00  0.00     0.074 A 
ATOM     66  C   UNL A   1      47.079  30.446  30.104  1.00  0.00     0.031 C 
ATOM     67  C   UNL A   1      44.692  31.100  30.212  1.00  0.00     0.037 A 
BRANCH  54  68
ATOM     68  C   UNL A   1      38.959  29.089  29.104  1.00  0.00     0.057 A 
ATOM     69  C   UNL A   1      38.179  28.935  30.258  1.00  0.00     0.134 A 
ATOM     70  C   UNL A   1      38.323  29.574  27.955  1.00  0.00     0.134 A 
ATOM     71  F   UNL A   1      38.724  28.460  31.389  1.00  0.00    -0.206 F 
ATOM     72  C   UNL A   1      36.815  29.233  30.264  1.00  0.00     0.040 A 
ATOM     73  C   UNL A   1      36.965  29.904  27.957  1.00  0.00     0.040 A 
ATOM     74  F   UNL A   1      39.011  29.751  26.818  1.00  0.00    -0.206 F 
ATOM     75  C   UNL A   1      36.207  29.728  29.113  1.00  0.00     0.006 A 
ENDBRANCH  54  68
BRANCH  55  76
ATOM     76  C   UNL A   1      48.675  26.733  28.923  1.00  0.00     0.057 A 
ATOM     77  C   UNL A   1      49.414  26.867  27.741  1.00  0.00     0.134 A 
ATOM     78  C   UNL A   1      49.348  26.249  30.051  1.00  0.00     0.134 A 
ATOM     79  F   UNL A   1      48.823  27.310  26.622  1.00  0.00    -0.206 F 
ATOM     80  C   UNL A   1      50.759  26.499  27.673  1.00  0.00     0.040 A 
ATOM     81  C   UNL A   1      50.700  25.905  30.005  1.00  0.00     0.040 A 
ATOM     82  F   UNL A   1      48.701  26.106  31.217  1.00  0.00    -0.206 F 
ATOM     83  C   UNL A   1      51.406  26.019  28.809  1.00  0.00     0.006 A 
ENDBRANCH  55  76
BRANCH  67  84
ATOM     84  C   UNL A   1      45.124  32.429  30.761  1.00  0.00     0.057 A 
ATOM     85  C   UNL A   1      45.385  33.527  29.932  1.00  0.00     0.134 A 
ATOM     86  C   UNL A   1      45.229  32.622  32.146  1.00  0.00     0.134 A 
ATOM     87  F   UNL A   1      45.314  33.403  28.598  1.00  0.00    -0.206 F 
ATOM     88  C   UNL A   1      45.759  34.764  30.460  1.00  0.00     0.040 A 
ATOM     89  C   UNL A   1      45.572  33.861  32.685  1.00  0.00     0.040 A 
ATOM     90  F   UNL A   1      44.981  31.614  32.995  1.00  0.00    -0.206 F 
ATOM     91  C   UNL A   1      45.844  34.935  31.840  1.00  0.00     0.006 A 
ENDBRANCH  67  84
ENDBRANCH  41  42
ENDBRANCH  33  36
ENDBRANCH  31  32
ENDBRANCH  30  31
ENDBRANCH   1  30
TORSDOF 14
ENDMDL
MODEL 2
REMARK VINA RESULT:     -12.3      1.515      2.402
REMARK SMILES CC1(C)[C@H](C(=O)NCCCNC(=O)c2ccc(-c3c4nc(c(-c5c(F)cccc5F)c5ccc([nH]5)c(-c5c(F)cccc5F)c5nc(c(-c6c(F)cccc6F)c6ccc3[nH]6)C=C5)C=C4)cc2)[C@H]1C(=O)Nc1ccccc1C(=O)Nc1nccs1
REMARK SMILES IDX 8 1 7 2 5 3 6 4 4 6 1 7 2 8 3 9 68 10 69 11 70 12 71 13
REMARK SMILES IDX 72 15 73 16 77 17 74 18 76 19 75 20 78 21 79 22 80 23 81 25
REMARK SMILES IDX 82 26 85 27 83 28 84 29 9 30 10 31 11 32 12 33 13 35 14 36
REMARK SMILES IDX 15 37 67 38 16 39 66 40 17 41 18 42 19 43 60 44 20 45 65 46
REMARK SMILES IDX 59 47 61 48 21 49 64 50 58 51 57 52 22 54 48 55 31 56 47 57
REMARK SMILES IDX 32 58 35 59 46 60 62 61 33 62 34 63 45 65 63 66 36 67 23 68
REMARK SMILES IDX 24 69 29 70 25 71 26 72 28 73 30 74 27 75 49 76 50 77 55 78
REMARK SMILES IDX 51 79 52 80 54 81 56 82 53 83 37 84 38 85 43 86 39 87 40 88
REMARK SMILES IDX 42 89 44 90 41 91
REMARK H PARENT 7 5 71 14 80 24 11 34 61 53 35 64
REMARK Flexibility Score: inf
ROOT
ATOM      1  C   UNL A   1      36.371  20.279  24.998  1.00  0.00     0.117 C 
ENDROOT
BRANCH   1   2
ATOM      2  N   UNL A   1      36.307  21.520  25.719  1.00  0.00    -0.356 N 
ATOM      3  C   UNL A   1      35.706  22.705  25.423  1.00  0.00     0.224 C 
ATOM      4  O   UNL A   1      36.133  23.697  25.991  1.00  0.00    -0.275 OA
ATOM      5  H   UNL A   1      36.784  21.513  26.581  1.00  0.00     0.163 HD
BRANCH   3   6
ATOM      6  C   UNL A   1      34.513  22.862  24.582  1.00  0.00     0.098 C 
ATOM      7  C   UNL A   1      32.852  21.344  23.517  1.00  0.00     0.013 C 
ATOM      8  C   UNL A   1      33.134  22.300  24.653  1.00  0.00    -0.011 C 
ATOM      9  C   UNL A   1      32.421  21.815  25.904  1.00  0.00     0.013 C 
ATOM     10  C   UNL A   1      33.353  23.830  24.680  1.00  0.00     0.098 C 
BRANCH  10  11
ATOM     11  C   UNL A   1      33.704  25.034  23.896  1.00  0.00     0.228 C 
ATOM     12  O   UNL A   1      34.248  24.846  22.806  1.00  0.00    -0.274 OA
ATOM     13  N   UNL A   1      33.398  26.312  24.229  1.00  0.00    -0.325 N 
ATOM     14  H   UNL A   1      33.590  26.963  23.515  1.00  0.00     0.169 HD
BRANCH  13  15
ATOM     15  C   UNL A   1      32.865  26.887  25.379  1.00  0.00     0.054 A 
ATOM     16  C   UNL A   1      33.841  27.551  26.146  1.00  0.00     0.027 A 
ATOM     17  C   UNL A   1      31.523  26.898  25.788  1.00  0.00     0.063 A 
ATOM     18  C   UNL A   1      33.481  28.405  27.180  1.00  0.00     0.002 A 
ATOM     19  C   UNL A   1      31.180  27.786  26.832  1.00  0.00     0.016 A 
ATOM     20  C   UNL A   1      32.140  28.559  27.492  1.00  0.00     0.001 A 
BRANCH  17  21
ATOM     21  C   UNL A   1      30.374  26.129  25.200  1.00  0.00     0.259 C 
ATOM     22  O   UNL A   1      30.170  24.977  25.602  1.00  0.00    -0.269 OA
ATOM     23  N   UNL A   1      29.476  26.620  24.293  1.00  0.00    -0.298 N 
ATOM     24  H   UNL A   1      28.596  26.180  24.277  1.00  0.00     0.172 HD
BRANCH  23  25
ATOM     25  C   UNL A   1      29.645  27.639  23.411  1.00  0.00     0.189 A 
ATOM     26  N   UNL A   1      30.729  28.045  22.803  1.00  0.00    -0.229 NA
ATOM     27  S   UNL A   1      28.213  28.519  23.105  1.00  0.00    -0.105 S 
ATOM     28  C   UNL A   1      30.437  29.200  22.104  1.00  0.00     0.125 A 
ATOM     29  C   UNL A   1      29.136  29.648  22.203  1.00  0.00     0.088 A 
ENDBRANCH  23  25
ENDBRANCH  17  21
ENDBRANCH  13  15
ENDBRANCH  10  11
ENDBRANCH   3   6
ENDBRANCH   1   2
BRANCH   1  30
ATOM     30  C   UNL A   1      37.817  19.964  24.639  1.00  0.00     0.042 C 
BRANCH  30  31
ATOM     31  C   UNL A   1      38.798  20.334  25.738  1.00  0.00     0.118 C 
BRANCH  31  32
ATOM     32  N   UNL A   1      39.862  19.355  25.862  1.00  0.00    -0.352 N 
ATOM     33  C   UNL A   1      41.194  19.547  26.127  1.00  0.00     0.251 C 
ATOM     34  H   UNL A   1      39.589  18.417  25.740  1.00  0.00     0.163 HD
ATOM     35  O   UNL A   1      41.993  18.634  25.941  1.00  0.00    -0.269 OA
BRANCH  33  36
ATOM     36  C   UNL A   1      41.666  20.857  26.621  1.00  0.00     0.039 A 
ATOM     37  C   UNL A   1      42.042  21.834  25.698  1.00  0.00     0.014 A 
ATOM     38  C   UNL A   1      41.756  21.115  27.992  1.00  0.00     0.014 A 
ATOM     39  C   UNL A   1      42.463  23.085  26.149  1.00  0.00     0.010 A 
ATOM     40  C   UNL A   1      42.077  22.392  28.436  1.00  0.00     0.010 A 
ATOM     41  C   UNL A   1      42.455  23.384  27.520  1.00  0.00    -0.014 A 
BRANCH  41  42
ATOM     42  C   UNL A   1      42.878  24.712  28.029  1.00  0.00     0.031 A 
ATOM     43  C   UNL A   1      41.841  25.765  28.313  1.00  0.00     0.074 A 
ATOM     44  C   UNL A   1      44.188  24.987  28.181  1.00  0.00     0.049 A 
ATOM     45  N   UNL A   1      42.005  27.014  28.667  1.00  0.00    -0.248 NA
ATOM     46  C   UNL A   1      40.432  25.370  28.147  1.00  0.00     0.031 C 
ATOM     47  C   UNL A   1      45.288  24.061  27.905  1.00  0.00     0.029 A 
ATOM     48  N   UNL A   1      44.817  26.134  28.595  1.00  0.00    -0.354 N 
ATOM     49  C   UNL A   1      40.726  27.552  28.754  1.00  0.00     0.074 A 
ATOM     50  C   UNL A   1      39.801  26.517  28.353  1.00  0.00     0.031 C 
ATOM     51  C   UNL A   1      46.454  24.668  28.182  1.00  0.00     0.029 A 
ATOM     52  C   UNL A   1      46.187  26.036  28.609  1.00  0.00     0.049 A 
ATOM     53  H   UNL A   1      44.332  26.950  28.858  1.00  0.00     0.167 HD
ATOM     54  C   UNL A   1      40.355  28.788  29.160  1.00  0.00     0.037 A 
ATOM     55  C   UNL A   1      47.121  26.955  28.921  1.00  0.00     0.037 A 
ATOM     56  C   UNL A   1      41.279  29.807  29.583  1.00  0.00     0.049 A 
ATOM     57  C   UNL A   1      46.681  28.331  29.341  1.00  0.00     0.074 A 
ATOM     58  C   UNL A   1      41.002  31.081  30.047  1.00  0.00     0.029 A 
ATOM     59  N   UNL A   1      42.657  29.664  29.597  1.00  0.00    -0.354 N 
ATOM     60  N   UNL A   1      45.466  28.810  29.468  1.00  0.00    -0.248 NA
ATOM     61  C   UNL A   1      47.742  29.295  29.666  1.00  0.00     0.031 C 
ATOM     62  C   UNL A   1      42.217  31.724  30.304  1.00  0.00     0.029 A 
ATOM     63  C   UNL A   1      43.246  30.832  30.048  1.00  0.00     0.049 A 
ATOM     64  H   UNL A   1      43.145  28.852  29.326  1.00  0.00     0.167 HD
ATOM     65  C   UNL A   1      45.616  30.113  29.925  1.00  0.00     0.074 A 
ATOM     66  C   UNL A   1      47.039  30.347  30.063  1.00  0.00     0.031 C 
ATOM     67  C   UNL A   1      44.664  31.035  30.205  1.00  0.00     0.037 A 
BRANCH  54  68
ATOM     68  C   UNL A   1      38.887  29.103  29.182  1.00  0.00     0.057 A 
ATOM     69  C   UNL A   1      38.128  28.990  30.354  1.00  0.00     0.134 A 
ATOM     70  C   UNL A   1      38.235  29.566  28.032  1.00  0.00     0.134 A 
ATOM     71  F   UNL A   1      38.689  28.539  31.486  1.00  0.00    -0.206 F 
ATOM     72  C   UNL A   1      36.769  29.308  30.378  1.00  0.00     0.040 A 
ATOM     73  C   UNL A   1      36.883  29.915  28.052  1.00  0.00     0.040 A 
ATOM     74  F   UNL A   1      38.903  29.703  26.878  1.00  0.00    -0.206 F 
ATOM     75  C   UNL A   1      36.145  29.781  29.226  1.00  0.00     0.006 A 
ENDBRANCH  54  68
BRANCH  55  76
ATOM     76  C   UNL A   1      48.566  26.611  28.863  1.00  0.00     0.057 A 
ATOM     77  C   UNL A   1      49.320  26.855  27.709  1.00  0.00     0.134 A 
ATOM     78  C   UNL A   1      49.218  25.999  29.940  1.00  0.00     0.134 A 
ATOM     79  F   UNL A   1      48.749  27.424  26.637  1.00  0.00    -0.206 F 
ATOM     80  C   UNL A   1      50.659  26.472  27.615  1.00  0.00     0.040 A 
ATOM     81  C   UNL A   1      50.565  25.638  29.870  1.00  0.00     0.040 A 
ATOM     82  F   UNL A   1      48.555  25.745  31.078  1.00  0.00    -0.206 F 
ATOM     83  C   UNL A   1      51.286  25.864  28.700  1.00  0.00     0.006 A 
ENDBRANCH  55  76
BRANCH  67  84
ATOM     84  C   UNL A   1      45.122  32.358  30.746  1.00  0.00     0.057 A 
ATOM     85  C   UNL A   1      45.299  32.580  32.117  1.00  0.00     0.134 A 
ATOM     86  C   UNL A   1      45.437  33.408  29.872  1.00  0.00     0.134 A 
ATOM     87  F   UNL A   1      45.003  31.619  33.005  1.00  0.00    -0.206 F 
ATOM     88  C   UNL A   1      45.753  33.807  32.602  1.00  0.00     0.040 A 
ATOM     89  C   UNL A   1      45.920  34.628  30.344  1.00  0.00     0.040 A 
ATOM     90  F   UNL A   1      45.301  33.256  28.546  1.00  0.00    -0.206 F 
ATOM     91  C   UNL A   1      46.073  34.832  31.714  1.00  0.00     0.006 A 
ENDBRANCH  67  84
ENDBRANCH  41  42
ENDBRANCH  33  36
ENDBRANCH  31  32
ENDBRANCH  30  31
ENDBRANCH   1  30
TORSDOF 14
ENDMDL
MODEL 3
REMARK VINA RESULT:     -12.2      1.485      6.403
REMARK SMILES CC1(C)[C@H](C(=O)NCCCNC(=O)c2ccc(-c3c4nc(c(-c5c(F)cccc5F)c5ccc([nH]5)c(-c5c(F)cccc5F)c5nc(c(-c6c(F)cccc6F)c6ccc3[nH]6)C=C5)C=C4)cc2)[C@H]1C(=O)Nc1ccccc1C(=O)Nc1nccs1
REMARK SMILES IDX 8 1 7 2 5 3 6 4 4 6 1 7 2 8 3 9 68 10 69 11 70 12 71 13
REMARK SMILES IDX 72 15 73 16 77 17 74 18 76 19 75 20 78 21 79 22 80 23 81 25
REMARK SMILES IDX 82 26 85 27 83 28 84 29 9 30 10 31 11 32 12 33 13 35 14 36
REMARK SMILES IDX 15 37 67 38 16 39 66 40 17 41 18 42 19 43 60 44 20 45 65 46
REMARK SMILES IDX 59 47 61 48 21 49 64 50 58 51 57 52 22 54 48 55 31 56 47 57
REMARK SMILES IDX 32 58 35 59 46 60 62 61 33 62 34 63 45 65 63 66 36 67 23 68
REMARK SMILES IDX 24 69 29 70 25 71 26 72 28 73 30 74 27 75 49 76 50 77 55 78
REMARK SMILES IDX 51 79 52 80 54 81 56 82 53 83 37 84 38 85 43 86 39 87 40 88
REMARK SMILES IDX 42 89 44 90 41 91
REMARK H PARENT 7 5 71 14 80 24 11 34 61 53 35 64
REMARK Flexibility Score: inf
ROOT
ATOM      1  C   UNL A   1      37.238  20.284  24.999  1.00  0.00     0.117 C 
ENDROOT
BRANCH   1   2
ATOM      2  N   UNL A   1      37.427  21.493  25.754  1.00  0.00    -0.356 N 
ATOM      3  C   UNL A   1      36.743  22.669  25.757  1.00  0.00     0.224 C 
ATOM      4  O   UNL A   1      37.335  23.650  26.177  1.00  0.00    -0.275 OA
ATOM      5  H   UNL A   1      38.187  21.464  26.379  1.00  0.00     0.163 HD
BRANCH   3   6
ATOM      6  C   UNL A   1      35.322  22.823  25.421  1.00  0.00     0.098 C 
ATOM      7  C   UNL A   1      33.332  21.333  25.298  1.00  0.00     0.013 C 
ATOM      8  C   UNL A   1      34.062  22.391  26.091  1.00  0.00    -0.011 C 
ATOM      9  C   UNL A   1      33.877  22.122  27.576  1.00  0.00     0.013 C 
ATOM     10  C   UNL A   1      34.321  23.890  25.813  1.00  0.00     0.098 C 
BRANCH  10  11
ATOM     11  C   UNL A   1      34.377  24.958  24.791  1.00  0.00     0.228 C 
ATOM     12  O   UNL A   1      34.949  24.683  23.735  1.00  0.00    -0.274 OA
ATOM     13  N   UNL A   1      33.778  26.170  24.880  1.00  0.00    -0.325 N 
ATOM     14  H   UNL A   1      33.810  26.688  24.043  1.00  0.00     0.169 HD
BRANCH  13  15
ATOM     15  C   UNL A   1      33.125  26.827  25.919  1.00  0.00     0.054 A 
ATOM     16  C   UNL A   1      33.891  27.885  26.446  1.00  0.00     0.027 A 
ATOM     17  C   UNL A   1      31.840  26.572  26.421  1.00  0.00     0.063 A 
ATOM     18  C   UNL A   1      33.324  28.824  27.299  1.00  0.00     0.002 A 
ATOM     19  C   UNL A   1      31.281  27.549  27.274  1.00  0.00     0.016 A 
ATOM     20  C   UNL A   1      31.999  28.680  27.676  1.00  0.00     0.001 A 
BRANCH  17  21
ATOM     21  C   UNL A   1      30.942  25.411  26.104  1.00  0.00     0.259 C 
ATOM     22  O   UNL A   1      30.687  24.600  27.003  1.00  0.00    -0.269 OA
ATOM     23  N   UNL A   1      30.313  25.202  24.907  1.00  0.00    -0.298 N 
ATOM     24  H   UNL A   1      29.495  24.656  24.940  1.00  0.00     0.172 HD
BRANCH  23  25
ATOM     25  C   UNL A   1      30.676  25.652  23.678  1.00  0.00     0.189 A 
ATOM     26  N   UNL A   1      31.422  25.083  22.768  1.00  0.00    -0.229 NA
ATOM     27  S   UNL A   1      30.078  27.212  23.321  1.00  0.00    -0.105 S 
ATOM     28  C   UNL A   1      31.620  25.980  21.735  1.00  0.00     0.125 A 
ATOM     29  C   UNL A   1      31.021  27.214  21.891  1.00  0.00     0.088 A 
ENDBRANCH  23  25
ENDBRANCH  17  21
ENDBRANCH  13  15
ENDBRANCH  10  11
ENDBRANCH   3   6
ENDBRANCH   1   2
BRANCH   1  30
ATOM     30  C   UNL A   1      38.559  19.535  24.885  1.00  0.00     0.042 C 
BRANCH  30  31
ATOM     31  C   UNL A   1      39.403  19.620  26.146  1.00  0.00     0.118 C 
BRANCH  31  32
ATOM     32  N   UNL A   1      40.685  18.958  25.982  1.00  0.00    -0.352 N 
ATOM     33  C   UNL A   1      41.947  19.494  25.988  1.00  0.00     0.251 C 
ATOM     34  H   UNL A   1      40.642  17.984  25.849  1.00  0.00     0.163 HD
ATOM     35  O   UNL A   1      42.895  18.831  25.579  1.00  0.00    -0.269 OA
BRANCH  33  36
ATOM     36  C   UNL A   1      42.160  20.874  26.472  1.00  0.00     0.039 A 
ATOM     37  C   UNL A   1      42.157  21.117  27.846  1.00  0.00     0.014 A 
ATOM     38  C   UNL A   1      42.341  21.929  25.573  1.00  0.00     0.014 A 
ATOM     39  C   UNL A   1      42.384  22.410  28.319  1.00  0.00     0.010 A 
ATOM     40  C   UNL A   1      42.668  23.193  26.046  1.00  0.00     0.010 A 
ATOM     41  C   UNL A   1      42.671  23.452  27.424  1.00  0.00    -0.014 A 
BRANCH  41  42
ATOM     42  C   UNL A   1      42.937  24.833  27.898  1.00  0.00     0.031 A 
ATOM     43  C   UNL A   1      44.350  25.259  28.195  1.00  0.00     0.074 A 
ATOM     44  C   UNL A   1      41.911  25.679  28.112  1.00  0.00     0.049 A 
ATOM     45  N   UNL A   1      44.785  26.381  28.708  1.00  0.00    -0.248 NA
ATOM     46  C   UNL A   1      45.412  24.281  27.906  1.00  0.00     0.031 C 
ATOM     47  C   UNL A   1      40.496  25.370  27.894  1.00  0.00     0.029 A 
ATOM     48  N   UNL A   1      41.900  26.971  28.574  1.00  0.00    -0.354 N 
ATOM     49  C   UNL A   1      46.164  26.238  28.812  1.00  0.00     0.074 A 
ATOM     50  C   UNL A   1      46.487  24.900  28.372  1.00  0.00     0.031 C 
ATOM     51  C   UNL A   1      39.758  26.451  28.197  1.00  0.00     0.029 A 
ATOM     52  C   UNL A   1      40.640  27.510  28.674  1.00  0.00     0.049 A 
ATOM     53  H   UNL A   1      42.718  27.465  28.810  1.00  0.00     0.167 HD
ATOM     54  C   UNL A   1      47.080  27.150  29.210  1.00  0.00     0.037 A 
ATOM     55  C   UNL A   1      40.245  28.720  29.113  1.00  0.00     0.037 A 
ATOM     56  C   UNL A   1      46.756  28.489  29.623  1.00  0.00     0.049 A 
ATOM     57  C   UNL A   1      41.284  29.704  29.578  1.00  0.00     0.074 A 
ATOM     58  C   UNL A   1      47.615  29.503  30.011  1.00  0.00     0.029 A 
ATOM     59  N   UNL A   1      45.470  29.002  29.696  1.00  0.00    -0.354 N 
ATOM     60  N   UNL A   1      42.588  29.573  29.621  1.00  0.00    -0.248 NA
ATOM     61  C   UNL A   1      40.797  31.008  30.050  1.00  0.00     0.031 C 
ATOM     62  C   UNL A   1      46.844  30.617  30.358  1.00  0.00     0.029 A 
ATOM     63  C   UNL A   1      45.511  30.313  30.137  1.00  0.00     0.049 A 
ATOM     64  H   UNL A   1      44.650  28.506  29.469  1.00  0.00     0.167 HD
ATOM     65  C   UNL A   1      43.077  30.788  30.086  1.00  0.00     0.074 A 
ATOM     66  C   UNL A   1      41.931  31.646  30.300  1.00  0.00     0.031 C 
ATOM     67  C   UNL A   1      44.360  31.159  30.316  1.00  0.00     0.037 A 
BRANCH  54  68
ATOM     68  C   UNL A   1      48.523  26.735  29.204  1.00  0.00     0.057 A 
ATOM     69  C   UNL A   1      49.099  26.059  30.288  1.00  0.00     0.134 A 
ATOM     70  C   UNL A   1      49.334  26.972  28.086  1.00  0.00     0.134 A 
ATOM     71  F   UNL A   1      48.380  25.812  31.394  1.00  0.00    -0.206 F 
ATOM     72  C   UNL A   1      50.434  25.651  30.269  1.00  0.00     0.040 A 
ATOM     73  C   UNL A   1      50.662  26.543  28.045  1.00  0.00     0.040 A 
ATOM     74  F   UNL A   1      48.846  27.610  27.013  1.00  0.00    -0.206 F 
ATOM     75  C   UNL A   1      51.216  25.885  29.141  1.00  0.00     0.006 A 
ENDBRANCH  54  68
BRANCH  55  76
ATOM     76  C   UNL A   1      38.804  29.083  29.127  1.00  0.00     0.057 A 
ATOM     77  C   UNL A   1      38.179  29.596  27.984  1.00  0.00     0.134 A 
ATOM     78  C   UNL A   1      38.027  28.962  30.285  1.00  0.00     0.134 A 
ATOM     79  F   UNL A   1      38.872  29.752  26.847  1.00  0.00    -0.206 F 
ATOM     80  C   UNL A   1      36.845  30.008  28.002  1.00  0.00     0.040 A 
ATOM     81  C   UNL A   1      36.684  29.342  30.309  1.00  0.00     0.040 A 
ATOM     82  F   UNL A   1      38.563  28.468  31.411  1.00  0.00    -0.206 F 
ATOM     83  C   UNL A   1      36.093  29.878  29.167  1.00  0.00     0.006 A 
ENDBRANCH  55  76
BRANCH  67  84
ATOM     84  C   UNL A   1      44.598  32.572  30.766  1.00  0.00     0.057 A 
ATOM     85  C   UNL A   1      44.723  33.630  29.859  1.00  0.00     0.134 A 
ATOM     86  C   UNL A   1      44.651  32.878  32.133  1.00  0.00     0.134 A 
ATOM     87  F   UNL A   1      44.694  33.400  28.538  1.00  0.00    -0.206 F 
ATOM     88  C   UNL A   1      44.917  34.942  30.294  1.00  0.00     0.040 A 
ATOM     89  C   UNL A   1      44.813  34.189  32.580  1.00  0.00     0.040 A 
ATOM     90  F   UNL A   1      44.525  31.912  33.055  1.00  0.00    -0.206 F 
ATOM     91  C   UNL A   1      44.953  35.225  31.658  1.00  0.00     0.006 A 
ENDBRANCH  67  84
ENDBRANCH  41  42
ENDBRANCH  33  36
ENDBRANCH  31  32
ENDBRANCH  30  31
ENDBRANCH   1  30
TORSDOF 14
ENDMDL
