MODEL 1
REMARK VINA RESULT:     -11.9      0.000      0.000
REMARK SMILES C[C@@H]1CC(=O)N([C@@H]2C=C[C@@H](C(=O)NCCCNC(=O)c3ccc(-c4c5nc(c(-c6c(F)cccc6F)c6ccc([nH]6)c(-c6c(F)cccc6F)c6nc(c(-c7c(F)cccc7F)c7ccc4[nH]7)C=C6)C=C5)cc3)C2)C1=O
REMARK SMILES IDX 15 1 14 2 13 3 11 4 12 5 10 7 7 8 8 9 74 10 9 11 6 12 1 13
REMARK SMILES IDX 2 14 3 15 75 16 4 17 76 18 5 19 16 20 17 21 18 22 19 24
REMARK SMILES IDX 20 25 21 26 73 27 22 28 72 29 23 30 24 31 25 32 66 33 26 34
REMARK SMILES IDX 71 35 65 36 67 37 27 38 70 39 64 40 63 41 28 43 54 44 37 45
REMARK SMILES IDX 53 46 38 47 41 48 52 49 68 50 39 51 40 52 51 54 69 55 42 56
REMARK SMILES IDX 29 57 30 58 35 59 31 60 32 61 34 62 36 63 33 64 55 65 56 66
REMARK SMILES IDX 61 67 57 68 58 69 60 70 62 71 59 72 43 73 44 74 49 75 45 76
REMARK SMILES IDX 46 77 48 78 50 79 47 80
REMARK H PARENT 13 6 17 23 67 42 41 53
REMARK Flexibility Score: inf
ROOT
ATOM      1  C   UNL A   1      37.948  19.625  25.030  1.00  0.00     0.042 C 
ENDROOT
BRANCH   1   2
ATOM      2  C   UNL A   1      36.831  20.662  24.998  1.00  0.00     0.117 C 
BRANCH   2   3
ATOM      3  N   UNL A   1      35.515  20.052  25.001  1.00  0.00    -0.356 N 
ATOM      4  C   UNL A   1      34.287  20.557  25.298  1.00  0.00     0.227 C 
ATOM      5  O   UNL A   1      33.328  19.786  25.186  1.00  0.00    -0.274 OA
ATOM      6  H   UNL A   1      35.508  19.102  24.741  1.00  0.00     0.163 HD
BRANCH   4   7
ATOM      7  C   UNL A   1      34.071  21.997  25.765  1.00  0.00     0.103 C 
ATOM      8  C   UNL A   1      32.110  23.383  26.290  1.00  0.00     0.117 C 
ATOM      9  C   UNL A   1      32.817  22.920  27.527  1.00  0.00    -0.005 C 
ATOM     10  C   UNL A   1      32.851  22.681  25.139  1.00  0.00     0.047 C 
ATOM     11  C   UNL A   1      33.870  22.144  27.243  1.00  0.00    -0.016 C 
BRANCH   8  12
ATOM     12  N   UNL A   1      32.127  24.829  26.186  1.00  0.00    -0.275 N 
ATOM     13  C   UNL A   1      30.644  27.386  24.611  1.00  0.00     0.018 C 
ATOM     14  C   UNL A   1      31.308  27.007  25.928  1.00  0.00     0.085 C 
ATOM     15  C   UNL A   1      32.826  27.031  25.842  1.00  0.00     0.114 C 
ATOM     16  C   UNL A   1      30.986  25.575  26.262  1.00  0.00     0.233 C 
ATOM     17  C   UNL A   1      33.231  25.589  25.916  1.00  0.00     0.230 C 
ATOM     18  O   UNL A   1      29.859  25.162  26.499  1.00  0.00    -0.274 OA
ATOM     19  O   UNL A   1      34.377  25.205  25.752  1.00  0.00    -0.274 OA
ENDBRANCH   8  12
ENDBRANCH   4   7
ENDBRANCH   2   3
ENDBRANCH   1   2
BRANCH   1  20
ATOM     20  C   UNL A   1      39.211  20.101  25.736  1.00  0.00     0.118 C 
BRANCH  20  21
ATOM     21  N   UNL A   1      40.214  19.052  25.852  1.00  0.00    -0.352 N 
ATOM     22  C   UNL A   1      41.570  19.148  26.047  1.00  0.00     0.251 C 
ATOM     23  H   UNL A   1      39.868  18.133  25.780  1.00  0.00     0.163 HD
ATOM     24  O   UNL A   1      42.279  18.155  25.915  1.00  0.00    -0.269 OA
BRANCH  22  25
ATOM     25  C   UNL A   1      42.179  20.449  26.395  1.00  0.00     0.039 A 
ATOM     26  C   UNL A   1      42.709  21.244  25.375  1.00  0.00     0.014 A 
ATOM     27  C   UNL A   1      42.236  20.881  27.722  1.00  0.00     0.014 A 
ATOM     28  C   UNL A   1      43.228  22.505  25.679  1.00  0.00     0.010 A 
ATOM     29  C   UNL A   1      42.674  22.169  28.012  1.00  0.00     0.010 A 
ATOM     30  C   UNL A   1      43.175  22.994  26.994  1.00  0.00    -0.014 A 
BRANCH  30  31
ATOM     31  C   UNL A   1      43.638  24.363  27.337  1.00  0.00     0.031 A 
ATOM     32  C   UNL A   1      42.646  25.406  27.769  1.00  0.00     0.074 A 
ATOM     33  C   UNL A   1      44.935  24.689  27.174  1.00  0.00     0.049 A 
ATOM     34  N   UNL A   1      42.829  26.682  27.989  1.00  0.00    -0.248 NA
ATOM     35  C   UNL A   1      41.254  24.959  27.948  1.00  0.00     0.031 C 
ATOM     36  C   UNL A   1      45.989  23.779  26.725  1.00  0.00     0.029 A 
ATOM     37  N   UNL A   1      45.585  25.886  27.351  1.00  0.00    -0.354 N 
ATOM     38  C   UNL A   1      41.578  27.194  28.311  1.00  0.00     0.074 A 
ATOM     39  C   UNL A   1      40.635  26.101  28.208  1.00  0.00     0.031 C 
ATOM     40  C   UNL A   1      47.154  24.444  26.676  1.00  0.00     0.029 A 
ATOM     41  C   UNL A   1      46.923  25.837  27.043  1.00  0.00     0.049 A 
ATOM     42  H   UNL A   1      45.133  26.702  27.668  1.00  0.00     0.167 HD
ATOM     43  C   UNL A   1      41.248  28.454  28.680  1.00  0.00     0.037 A 
ATOM     44  C   UNL A   1      47.854  26.810  27.038  1.00  0.00     0.037 A 
ATOM     45  C   UNL A   1      42.194  29.531  28.804  1.00  0.00     0.049 A 
ATOM     46  C   UNL A   1      47.458  28.207  27.430  1.00  0.00     0.074 A 
ATOM     47  C   UNL A   1      41.970  30.829  29.228  1.00  0.00     0.029 A 
ATOM     48  N   UNL A   1      43.544  29.437  28.501  1.00  0.00    -0.354 N 
ATOM     49  N   UNL A   1      46.284  28.663  27.793  1.00  0.00    -0.248 NA
ATOM     50  C   UNL A   1      48.519  29.226  27.415  1.00  0.00     0.031 C 
ATOM     51  C   UNL A   1      43.174  31.534  29.134  1.00  0.00     0.029 A 
ATOM     52  C   UNL A   1      44.160  30.660  28.705  1.00  0.00     0.049 A 
ATOM     53  H   UNL A   1      43.997  28.620  28.188  1.00  0.00     0.167 HD
ATOM     54  C   UNL A   1      46.470  30.009  28.079  1.00  0.00     0.074 A 
ATOM     55  C   UNL A   1      47.872  30.295  27.856  1.00  0.00     0.031 C 
ATOM     56  C   UNL A   1      45.560  30.926  28.492  1.00  0.00     0.037 A 
BRANCH  43  57
ATOM     57  C   UNL A   1      39.803  28.736  28.976  1.00  0.00     0.057 A 
ATOM     58  C   UNL A   1      39.273  28.608  30.266  1.00  0.00     0.134 A 
ATOM     59  C   UNL A   1      38.940  29.177  27.965  1.00  0.00     0.134 A 
ATOM     60  F   UNL A   1      40.042  28.180  31.278  1.00  0.00    -0.206 F 
ATOM     61  C   UNL A   1      37.930  28.881  30.535  1.00  0.00     0.040 A 
ATOM     62  C   UNL A   1      37.604  29.481  28.227  1.00  0.00     0.040 A 
ATOM     63  F   UNL A   1      39.383  29.328  26.707  1.00  0.00    -0.206 F 
ATOM     64  C   UNL A   1      37.094  29.326  29.515  1.00  0.00     0.006 A 
ENDBRANCH  43  57
BRANCH  44  65
ATOM     65  C   UNL A   1      49.256  26.497  26.660  1.00  0.00     0.057 A 
ATOM     66  C   UNL A   1      49.705  26.676  25.346  1.00  0.00     0.134 A 
ATOM     67  C   UNL A   1      50.176  26.008  27.594  1.00  0.00     0.134 A 
ATOM     68  F   UNL A   1      48.866  27.124  24.400  1.00  0.00    -0.206 F 
ATOM     69  C   UNL A   1      51.011  26.358  24.970  1.00  0.00     0.040 A 
ATOM     70  C   UNL A   1      51.494  25.712  27.238  1.00  0.00     0.040 A 
ATOM     71  F   UNL A   1      49.811  25.822  28.872  1.00  0.00    -0.206 F 
ATOM     72  C   UNL A   1      51.912  25.879  25.920  1.00  0.00     0.006 A 
ENDBRANCH  44  65
BRANCH  56  73
ATOM     73  C   UNL A   1      46.056  32.314  28.776  1.00  0.00     0.057 A 
ATOM     74  C   UNL A   1      46.558  32.680  30.030  1.00  0.00     0.134 A 
ATOM     75  C   UNL A   1      46.084  33.277  27.761  1.00  0.00     0.134 A 
ATOM     76  F   UNL A   1      46.546  31.807  31.050  1.00  0.00    -0.206 F 
ATOM     77  C   UNL A   1      47.056  33.961  30.269  1.00  0.00     0.040 A 
ATOM     78  C   UNL A   1      46.606  34.553  27.979  1.00  0.00     0.040 A 
ATOM     79  F   UNL A   1      45.626  32.988  26.532  1.00  0.00    -0.206 F 
ATOM     80  C   UNL A   1      47.090  34.899  29.238  1.00  0.00     0.006 A 
ENDBRANCH  56  73
ENDBRANCH  30  31
ENDBRANCH  22  25
ENDBRANCH  20  21
ENDBRANCH   1  20
TORSDOF 11
ENDMDL
MODEL 2
REMARK VINA RESULT:     -11.9      5.428     10.624
REMARK SMILES C[C@@H]1CC(=O)N([C@@H]2C=C[C@@H](C(=O)NCCCNC(=O)c3ccc(-c4c5nc(c(-c6c(F)cccc6F)c6ccc([nH]6)c(-c6c(F)cccc6F)c6nc(c(-c7c(F)cccc7F)c7ccc4[nH]7)C=C6)C=C5)cc3)C2)C1=O
REMARK SMILES IDX 15 1 14 2 13 3 11 4 12 5 10 7 7 8 8 9 74 10 9 11 6 12 1 13
REMARK SMILES IDX 2 14 3 15 75 16 4 17 76 18 5 19 16 20 17 21 18 22 19 24
REMARK SMILES IDX 20 25 21 26 73 27 22 28 72 29 23 30 24 31 25 32 66 33 26 34
REMARK SMILES IDX 71 35 65 36 67 37 27 38 70 39 64 40 63 41 28 43 54 44 37 45
REMARK SMILES IDX 53 46 38 47 41 48 52 49 68 50 39 51 40 52 51 54 69 55 42 56
REMARK SMILES IDX 29 57 30 58 35 59 31 60 32 61 34 62 36 63 33 64 55 65 56 66
REMARK SMILES IDX 61 67 57 68 58 69 60 70 62 71 59 72 43 73 44 74 49 75 45 76
REMARK SMILES IDX 46 77 48 78 50 79 47 80
REMARK H PARENT 13 6 17 23 67 42 41 53
REMARK Flexibility Score: inf
ROOT
ATOM      1  C   UNL A   1      31.442  31.990  26.625  1.00  0.00     0.042 C 
ENDROOT
BRANCH   1   2
ATOM      2  C   UNL A   1      31.730  30.594  26.085  1.00  0.00     0.117 C 
BRANCH   2   3
ATOM      3  N   UNL A   1      30.989  30.311  24.870  1.00  0.00    -0.356 N 
ATOM      4  C   UNL A   1      31.139  29.342  23.926  1.00  0.00     0.227 C 
ATOM      5  O   UNL A   1      30.324  29.341  22.998  1.00  0.00    -0.274 OA
ATOM      6  H   UNL A   1      30.242  30.929  24.699  1.00  0.00     0.163 HD
BRANCH   4   7
ATOM      7  C   UNL A   1      32.260  28.303  23.973  1.00  0.00     0.103 C 
ATOM      8  C   UNL A   1      32.817  26.282  22.689  1.00  0.00     0.117 C 
ATOM      9  C   UNL A   1      33.691  27.441  22.319  1.00  0.00    -0.005 C 
ATOM     10  C   UNL A   1      31.798  26.872  23.679  1.00  0.00     0.047 C 
ATOM     11  C   UNL A   1      33.373  28.549  23.000  1.00  0.00    -0.016 C 
BRANCH   8  12
ATOM     12  N   UNL A   1      33.596  25.194  23.246  1.00  0.00    -0.275 N 
ATOM     13  C   UNL A   1      33.472  21.908  23.883  1.00  0.00     0.018 C 
ATOM     14  C   UNL A   1      34.437  23.025  23.508  1.00  0.00     0.085 C 
ATOM     15  C   UNL A   1      34.845  23.868  24.707  1.00  0.00     0.114 C 
ATOM     16  C   UNL A   1      33.747  24.004  22.595  1.00  0.00     0.233 C 
ATOM     17  C   UNL A   1      34.174  25.191  24.485  1.00  0.00     0.230 C 
ATOM     18  O   UNL A   1      33.341  23.728  21.475  1.00  0.00    -0.274 OA
ATOM     19  O   UNL A   1      34.171  26.087  25.311  1.00  0.00    -0.274 OA
ENDBRANCH   8  12
ENDBRANCH   4   7
ENDBRANCH   2   3
ENDBRANCH   1   2
BRANCH   1  20
ATOM     20  C   UNL A   1      32.649  32.665  27.263  1.00  0.00     0.118 C 
BRANCH  20  21
ATOM     21  N   UNL A   1      32.390  34.055  27.612  1.00  0.00    -0.352 N 
ATOM     22  C   UNL A   1      32.994  34.853  28.553  1.00  0.00     0.251 C 
ATOM     23  H   UNL A   1      31.674  34.489  27.095  1.00  0.00     0.163 HD
ATOM     24  O   UNL A   1      32.500  35.940  28.841  1.00  0.00    -0.269 OA
BRANCH  22  25
ATOM     25  C   UNL A   1      34.224  34.398  29.234  1.00  0.00     0.039 A 
ATOM     26  C   UNL A   1      34.120  33.796  30.491  1.00  0.00     0.014 A 
ATOM     27  C   UNL A   1      35.476  34.571  28.641  1.00  0.00     0.014 A 
ATOM     28  C   UNL A   1      35.266  33.300  31.117  1.00  0.00     0.010 A 
ATOM     29  C   UNL A   1      36.603  34.003  29.225  1.00  0.00     0.010 A 
ATOM     30  C   UNL A   1      36.510  33.362  30.470  1.00  0.00    -0.014 A 
BRANCH  30  31
ATOM     31  C   UNL A   1      37.732  32.767  31.069  1.00  0.00     0.031 A 
ATOM     32  C   UNL A   1      38.356  31.548  30.450  1.00  0.00     0.074 A 
ATOM     33  C   UNL A   1      38.226  33.271  32.217  1.00  0.00     0.049 A 
ATOM     34  N   UNL A   1      39.343  30.810  30.888  1.00  0.00    -0.248 NA
ATOM     35  C   UNL A   1      37.772  31.078  29.182  1.00  0.00     0.031 C 
ATOM     36  C   UNL A   1      37.688  34.427  32.936  1.00  0.00     0.029 A 
ATOM     37  N   UNL A   1      39.282  32.862  32.991  1.00  0.00    -0.354 N 
ATOM     38  C   UNL A   1      39.484  29.781  29.965  1.00  0.00     0.074 A 
ATOM     39  C   UNL A   1      38.449  29.960  28.970  1.00  0.00     0.031 C 
ATOM     40  C   UNL A   1      38.426  34.643  34.037  1.00  0.00     0.029 A 
ATOM     41  C   UNL A   1      39.458  33.615  34.127  1.00  0.00     0.049 A 
ATOM     42  H   UNL A   1      39.860  32.100  32.755  1.00  0.00     0.167 HD
ATOM     43  C   UNL A   1      40.406  28.790  29.938  1.00  0.00     0.037 A 
ATOM     44  C   UNL A   1      40.338  33.479  35.138  1.00  0.00     0.037 A 
ATOM     45  C   UNL A   1      41.448  28.630  30.918  1.00  0.00     0.049 A 
ATOM     46  C   UNL A   1      41.337  32.356  35.096  1.00  0.00     0.074 A 
ATOM     47  C   UNL A   1      42.466  27.693  30.947  1.00  0.00     0.029 A 
ATOM     48  N   UNL A   1      41.603  29.424  32.043  1.00  0.00    -0.354 N 
ATOM     49  N   UNL A   1      41.499  31.427  34.185  1.00  0.00    -0.248 NA
ATOM     50  C   UNL A   1      42.278  32.263  36.222  1.00  0.00     0.031 C 
ATOM     51  C   UNL A   1      43.207  27.889  32.116  1.00  0.00     0.029 A 
ATOM     52  C   UNL A   1      42.685  28.984  32.787  1.00  0.00     0.049 A 
ATOM     53  H   UNL A   1      41.029  30.189  32.279  1.00  0.00     0.167 HD
ATOM     54  C   UNL A   1      42.577  30.662  34.610  1.00  0.00     0.074 A 
ATOM     55  C   UNL A   1      43.036  31.239  35.856  1.00  0.00     0.031 C 
ATOM     56  C   UNL A   1      43.138  29.578  34.018  1.00  0.00     0.037 A 
BRANCH  43  57
ATOM     57  C   UNL A   1      40.328  27.799  28.812  1.00  0.00     0.057 A 
ATOM     58  C   UNL A   1      41.048  27.972  27.623  1.00  0.00     0.134 A 
ATOM     59  C   UNL A   1      39.551  26.640  28.933  1.00  0.00     0.134 A 
ATOM     60  F   UNL A   1      41.803  29.064  27.438  1.00  0.00    -0.206 F 
ATOM     61  C   UNL A   1      40.978  27.042  26.584  1.00  0.00     0.040 A 
ATOM     62  C   UNL A   1      39.496  25.688  27.914  1.00  0.00     0.040 A 
ATOM     63  F   UNL A   1      38.841  26.408  30.047  1.00  0.00    -0.206 F 
ATOM     64  C   UNL A   1      40.205  25.892  26.732  1.00  0.00     0.006 A 
ENDBRANCH  43  57
BRANCH  44  65
ATOM     65  C   UNL A   1      40.322  34.439  36.271  1.00  0.00     0.057 A 
ATOM     66  C   UNL A   1      39.581  34.176  37.429  1.00  0.00     0.134 A 
ATOM     67  C   UNL A   1      41.040  35.640  36.226  1.00  0.00     0.134 A 
ATOM     68  F   UNL A   1      38.857  33.051  37.526  1.00  0.00    -0.206 F 
ATOM     69  C   UNL A   1      39.534  35.082  38.489  1.00  0.00     0.040 A 
ATOM     70  C   UNL A   1      41.025  36.543  37.291  1.00  0.00     0.040 A 
ATOM     71  F   UNL A   1      41.779  35.948  35.148  1.00  0.00    -0.206 F 
ATOM     72  C   UNL A   1      40.263  36.268  38.424  1.00  0.00     0.006 A 
ENDBRANCH  44  65
BRANCH  56  73
ATOM     73  C   UNL A   1      44.339  28.971  34.683  1.00  0.00     0.057 A 
ATOM     74  C   UNL A   1      44.224  27.942  35.624  1.00  0.00     0.134 A 
ATOM     75  C   UNL A   1      45.630  29.384  34.329  1.00  0.00     0.134 A 
ATOM     76  F   UNL A   1      43.016  27.509  36.017  1.00  0.00    -0.206 F 
ATOM     77  C   UNL A   1      45.351  27.355  36.203  1.00  0.00     0.040 A 
ATOM     78  C   UNL A   1      46.764  28.787  34.879  1.00  0.00     0.040 A 
ATOM     79  F   UNL A   1      45.809  30.361  33.425  1.00  0.00    -0.206 F 
ATOM     80  C   UNL A   1      46.626  27.772  35.822  1.00  0.00     0.006 A 
ENDBRANCH  56  73
ENDBRANCH  30  31
ENDBRANCH  22  25
ENDBRANCH  20  21
ENDBRANCH   1  20
TORSDOF 11
ENDMDL
MODEL 3
REMARK VINA RESULT:     -11.9      5.644     10.877
REMARK SMILES C[C@@H]1CC(=O)N([C@@H]2C=C[C@@H](C(=O)NCCCNC(=O)c3ccc(-c4c5nc(c(-c6c(F)cccc6F)c6ccc([nH]6)c(-c6c(F)cccc6F)c6nc(c(-c7c(F)cccc7F)c7ccc4[nH]7)C=C6)C=C5)cc3)C2)C1=O
REMARK SMILES IDX 15 1 14 2 13 3 11 4 12 5 10 7 7 8 8 9 74 10 9 11 6 12 1 13
REMARK SMILES IDX 2 14 3 15 75 16 4 17 76 18 5 19 16 20 17 21 18 22 19 24
REMARK SMILES IDX 20 25 21 26 73 27 22 28 72 29 23 30 24 31 25 32 66 33 26 34
REMARK SMILES IDX 71 35 65 36 67 37 27 38 70 39 64 40 63 41 28 43 54 44 37 45
REMARK SMILES IDX 53 46 38 47 41 48 52 49 68 50 39 51 40 52 51 54 69 55 42 56
REMARK SMILES IDX 29 57 30 58 35 59 31 60 32 61 34 62 36 63 33 64 55 65 56 66
REMARK SMILES IDX 61 67 57 68 58 69 60 70 62 71 59 72 43 73 44 74 49 75 45 76
REMARK SMILES IDX 46 77 48 78 50 79 47 80
REMARK H PARENT 13 6 17 23 67 42 41 53
REMARK Flexibility Score: inf
ROOT
ATOM      1  C   UNL A   1      31.474  32.151  26.524  1.00  0.00     0.042 C 
ENDROOT
BRANCH   1   2
ATOM      2  C   UNL A   1      31.744  30.719  26.078  1.00  0.00     0.117 C 
BRANCH   2   3
ATOM      3  N   UNL A   1      30.929  30.334  24.942  1.00  0.00    -0.356 N 
ATOM      4  C   UNL A   1      31.021  29.287  24.078  1.00  0.00     0.227 C 
ATOM      5  O   UNL A   1      30.149  29.208  23.206  1.00  0.00    -0.274 OA
ATOM      6  H   UNL A   1      30.172  30.937  24.765  1.00  0.00     0.163 HD
BRANCH   4   7
ATOM      7  C   UNL A   1      32.144  28.252  24.144  1.00  0.00     0.103 C 
ATOM      8  C   UNL A   1      32.892  26.398  22.713  1.00  0.00     0.117 C 
ATOM      9  C   UNL A   1      33.786  27.594  22.595  1.00  0.00    -0.005 C 
ATOM     10  C   UNL A   1      31.747  26.864  23.628  1.00  0.00     0.047 C 
ATOM     11  C   UNL A   1      33.366  28.612  23.354  1.00  0.00    -0.016 C 
BRANCH   8  12
ATOM     12  N   UNL A   1      33.613  25.253  23.233  1.00  0.00    -0.275 N 
ATOM     13  C   UNL A   1      33.328  21.954  23.738  1.00  0.00     0.018 C 
ATOM     14  C   UNL A   1      34.349  23.037  23.416  1.00  0.00     0.085 C 
ATOM     15  C   UNL A   1      34.784  23.812  24.650  1.00  0.00     0.114 C 
ATOM     16  C   UNL A   1      33.714  24.083  22.537  1.00  0.00     0.233 C 
ATOM     17  C   UNL A   1      34.178  25.173  24.475  1.00  0.00     0.230 C 
ATOM     18  O   UNL A   1      33.307  23.871  21.403  1.00  0.00    -0.274 OA
ATOM     19  O   UNL A   1      34.209  26.036  25.336  1.00  0.00    -0.274 OA
ENDBRANCH   8  12
ENDBRANCH   4   7
ENDBRANCH   2   3
ENDBRANCH   1   2
BRANCH   1  20
ATOM     20  C   UNL A   1      32.615  32.776  27.316  1.00  0.00     0.118 C 
BRANCH  20  21
ATOM     21  N   UNL A   1      32.378  34.179  27.623  1.00  0.00    -0.352 N 
ATOM     22  C   UNL A   1      32.971  34.987  28.562  1.00  0.00     0.251 C 
ATOM     23  H   UNL A   1      31.689  34.617  27.072  1.00  0.00     0.163 HD
ATOM     24  O   UNL A   1      32.494  36.091  28.808  1.00  0.00    -0.269 OA
BRANCH  22  25
ATOM     25  C   UNL A   1      34.167  34.522  29.293  1.00  0.00     0.039 A 
ATOM     26  C   UNL A   1      34.016  33.998  30.580  1.00  0.00     0.014 A 
ATOM     27  C   UNL A   1      35.437  34.609  28.717  1.00  0.00     0.014 A 
ATOM     28  C   UNL A   1      35.128  33.492  31.257  1.00  0.00     0.010 A 
ATOM     29  C   UNL A   1      36.527  34.028  29.356  1.00  0.00     0.010 A 
ATOM     30  C   UNL A   1      36.385  33.465  30.633  1.00  0.00    -0.014 A 
BRANCH  30  31
ATOM     31  C   UNL A   1      37.570  32.856  31.290  1.00  0.00     0.031 A 
ATOM     32  C   UNL A   1      38.229  31.649  30.683  1.00  0.00     0.074 A 
ATOM     33  C   UNL A   1      37.996  33.335  32.475  1.00  0.00     0.049 A 
ATOM     34  N   UNL A   1      39.188  30.900  31.162  1.00  0.00    -0.248 NA
ATOM     35  C   UNL A   1      37.719  31.207  29.374  1.00  0.00     0.031 C 
ATOM     36  C   UNL A   1      37.417  34.476  33.186  1.00  0.00     0.029 A 
ATOM     37  N   UNL A   1      39.005  32.907  33.301  1.00  0.00    -0.354 N 
ATOM     38  C   UNL A   1      39.382  29.891  30.228  1.00  0.00     0.074 A 
ATOM     39  C   UNL A   1      38.408  30.093  29.178  1.00  0.00     0.031 C 
ATOM     40  C   UNL A   1      38.090  34.667  34.332  1.00  0.00     0.029 A 
ATOM     41  C   UNL A   1      39.114  33.636  34.461  1.00  0.00     0.049 A 
ATOM     42  H   UNL A   1      39.595  32.150  33.083  1.00  0.00     0.167 HD
ATOM     43  C   UNL A   1      40.304  28.899  30.234  1.00  0.00     0.037 A 
ATOM     44  C   UNL A   1      39.933  33.478  35.518  1.00  0.00     0.037 A 
ATOM     45  C   UNL A   1      41.286  28.717  31.269  1.00  0.00     0.049 A 
ATOM     46  C   UNL A   1      40.933  32.354  35.511  1.00  0.00     0.074 A 
ATOM     47  C   UNL A   1      42.301  27.778  31.338  1.00  0.00     0.029 A 
ATOM     48  N   UNL A   1      41.375  29.487  32.418  1.00  0.00    -0.354 N 
ATOM     49  N   UNL A   1      41.148  31.445  34.592  1.00  0.00    -0.248 NA
ATOM     50  C   UNL A   1      41.806  32.236  36.688  1.00  0.00     0.031 C 
ATOM     51  C   UNL A   1      42.972  27.948  32.552  1.00  0.00     0.029 A 
ATOM     52  C   UNL A   1      42.412  29.029  33.215  1.00  0.00     0.049 A 
ATOM     53  H   UNL A   1      40.789  30.248  32.636  1.00  0.00     0.167 HD
ATOM     54  C   UNL A   1      42.199  30.669  35.063  1.00  0.00     0.074 A 
ATOM     55  C   UNL A   1      42.584  31.219  36.346  1.00  0.00     0.031 C 
ATOM     56  C   UNL A   1      42.793  29.597  34.482  1.00  0.00     0.037 A 
BRANCH  43  57
ATOM     57  C   UNL A   1      40.291  27.932  29.084  1.00  0.00     0.057 A 
ATOM     58  C   UNL A   1      41.064  28.140  27.934  1.00  0.00     0.134 A 
ATOM     59  C   UNL A   1      39.525  26.761  29.144  1.00  0.00     0.134 A 
ATOM     60  F   UNL A   1      41.812  29.245  27.808  1.00  0.00    -0.206 F 
ATOM     61  C   UNL A   1      41.054  27.232  26.874  1.00  0.00     0.040 A 
ATOM     62  C   UNL A   1      39.530  25.832  28.103  1.00  0.00     0.040 A 
ATOM     63  F   UNL A   1      38.766  26.496  30.218  1.00  0.00    -0.206 F 
ATOM     64  C   UNL A   1      40.291  26.070  26.960  1.00  0.00     0.006 A 
ENDBRANCH  43  57
BRANCH  44  65
ATOM     65  C   UNL A   1      39.852  34.414  36.669  1.00  0.00     0.057 A 
ATOM     66  C   UNL A   1      40.555  35.624  36.666  1.00  0.00     0.134 A 
ATOM     67  C   UNL A   1      39.078  34.122  37.799  1.00  0.00     0.134 A 
ATOM     68  F   UNL A   1      41.329  35.952  35.621  1.00  0.00    -0.206 F 
ATOM     69  C   UNL A   1      40.512  36.498  37.753  1.00  0.00     0.040 A 
ATOM     70  C   UNL A   1      39.003  35.000  38.881  1.00  0.00     0.040 A 
ATOM     71  F   UNL A   1      38.372  32.982  37.861  1.00  0.00    -0.206 F 
ATOM     72  C   UNL A   1      39.729  36.190  38.863  1.00  0.00     0.006 A 
ENDBRANCH  44  65
BRANCH  56  73
ATOM     73  C   UNL A   1      43.953  28.974  35.203  1.00  0.00     0.057 A 
ATOM     74  C   UNL A   1      45.272  29.387  34.982  1.00  0.00     0.134 A 
ATOM     75  C   UNL A   1      43.737  27.989  36.175  1.00  0.00     0.134 A 
ATOM     76  F   UNL A   1      45.548  30.317  34.055  1.00  0.00    -0.206 F 
ATOM     77  C   UNL A   1      46.337  28.830  35.691  1.00  0.00     0.040 A 
ATOM     78  C   UNL A   1      44.790  27.445  36.910  1.00  0.00     0.040 A 
ATOM     79  F   UNL A   1      42.494  27.555  36.442  1.00  0.00    -0.206 F 
ATOM     80  C   UNL A   1      46.096  27.862  36.665  1.00  0.00     0.006 A 
ENDBRANCH  56  73
ENDBRANCH  30  31
ENDBRANCH  22  25
ENDBRANCH  20  21
ENDBRANCH   1  20
TORSDOF 11
ENDMDL
