MODEL 1
REMARK VINA RESULT:     -11.6      0.000      0.000
REMARK SMILES [NH3+][C@@]1(C(=O)NCCCNC(=O)c2ccc(-c3c4nc(c(-c5c(F)cccc5F)c5ccc([nH]5)c(-c5c(F)cccc5F)c5nc(c(-c6c(F)cccc6F)c6ccc3[nH]6)C=C5)C=C4)cc2)CCC[C@@H](Oc2ccccc2[N+](=O)[O-])C1
REMARK SMILES IDX 6 1 5 2 3 3 4 4 2 6 66 7 80 8 67 9 69 10 68 11 1 12 70 16
REMARK SMILES IDX 71 17 72 18 76 19 73 20 75 21 74 22 77 23 78 24 79 25 7 26
REMARK SMILES IDX 8 27 9 28 10 29 11 31 12 32 13 33 65 34 14 35 64 36 15 37
REMARK SMILES IDX 16 38 17 39 58 40 18 41 63 42 57 43 59 44 19 45 62 46 56 47
REMARK SMILES IDX 55 48 20 50 46 51 29 52 45 53 30 54 33 55 44 56 60 57 31 58
REMARK SMILES IDX 32 59 43 61 61 62 34 63 21 64 22 65 27 66 23 67 24 68 26 69
REMARK SMILES IDX 28 70 25 71 47 72 48 73 53 74 49 75 50 76 52 77 54 78 51 79
REMARK SMILES IDX 35 80 36 81 41 82 37 83 38 84 40 85 42 86 39 87
REMARK H PARENT 5 5 1 13 1 14 1 15 9 30 59 49 33 60
REMARK Flexibility Score: inf
ROOT
ATOM      1  C   UNL A   1      36.174  21.045  24.886  1.00  0.00     0.118 C 
ENDROOT
BRANCH   1   2
ATOM      2  N   UNL A   1      35.385  21.078  26.104  1.00  0.00    -0.351 N 
ATOM      3  C   UNL A   1      34.147  21.590  26.378  1.00  0.00     0.281 C 
ATOM      4  O   UNL A   1      33.724  21.389  27.522  1.00  0.00    -0.268 OA
ATOM      5  H   UNL A   1      35.823  20.654  26.877  1.00  0.00     0.163 HD
BRANCH   3   6
ATOM      6  C   UNL A   1      33.245  22.296  25.298  1.00  0.00     0.177 C 
ATOM      7  C   UNL A   1      33.291  21.473  23.992  1.00  0.00     0.079 C 
ATOM      8  C   UNL A   1      33.838  23.699  25.023  1.00  0.00     0.124 C 
ATOM      9  C   UNL A   1      32.552  22.140  22.833  1.00  0.00     0.011 C 
ATOM     10  C   UNL A   1      33.361  24.430  23.750  1.00  0.00     0.180 C 
ATOM     11  C   UNL A   1      33.086  23.537  22.529  1.00  0.00     0.046 C 
BRANCH   6  12
ATOM     12  N   UNL A   1      31.842  22.304  25.744  1.00  0.00    -0.345 N 
ATOM     13  H   UNL A   1      31.230  22.421  24.937  1.00  0.00     0.345 HD
ATOM     14  H   UNL A   1      31.697  23.075  26.395  1.00  0.00     0.345 HD
ATOM     15  H   UNL A   1      31.628  21.422  26.208  1.00  0.00     0.345 HD
ENDBRANCH   6  12
BRANCH  10  16
ATOM     16  O   UNL A   1      32.404  25.501  23.929  1.00  0.00    -0.483 OA
BRANCH  16  17
ATOM     17  C   UNL A   1      32.574  26.334  24.989  1.00  0.00     0.197 A 
ATOM     18  C   UNL A   1      33.769  27.045  25.097  1.00  0.00     0.054 A 
ATOM     19  C   UNL A   1      31.622  26.456  26.010  1.00  0.00     0.310 A 
ATOM     20  C   UNL A   1      33.939  27.989  26.114  1.00  0.00     0.004 A 
ATOM     21  C   UNL A   1      31.773  27.421  27.018  1.00  0.00     0.090 A 
ATOM     22  C   UNL A   1      32.926  28.205  27.050  1.00  0.00     0.007 A 
BRANCH  19  23
ATOM     23  N   UNL A   1      30.420  25.632  26.026  1.00  0.00     0.066 N 
ATOM     24  O   UNL A   1      30.429  24.649  26.782  1.00  0.00    -0.258 OA
ATOM     25  O   UNL A   1      29.479  25.948  25.288  1.00  0.00    -0.258 OA
ENDBRANCH  19  23
ENDBRANCH  16  17
ENDBRANCH  10  16
ENDBRANCH   3   6
ENDBRANCH   1   2
BRANCH   1  26
ATOM     26  C   UNL A   1      37.309  20.018  24.931  1.00  0.00     0.042 C 
BRANCH  26  27
ATOM     27  C   UNL A   1      38.546  20.504  25.673  1.00  0.00     0.118 C 
BRANCH  27  28
ATOM     28  N   UNL A   1      39.636  19.535  25.647  1.00  0.00    -0.352 N 
ATOM     29  C   UNL A   1      40.958  19.676  25.990  1.00  0.00     0.251 C 
ATOM     30  H   UNL A   1      39.383  18.636  25.334  1.00  0.00     0.163 HD
ATOM     31  O   UNL A   1      41.741  18.754  25.773  1.00  0.00    -0.269 OA
BRANCH  29  32
ATOM     32  C   UNL A   1      41.459  20.937  26.583  1.00  0.00     0.039 A 
ATOM     33  C   UNL A   1      41.952  21.931  25.730  1.00  0.00     0.014 A 
ATOM     34  C   UNL A   1      41.461  21.145  27.963  1.00  0.00     0.014 A 
ATOM     35  C   UNL A   1      42.380  23.152  26.255  1.00  0.00     0.010 A 
ATOM     36  C   UNL A   1      41.795  22.393  28.476  1.00  0.00     0.010 A 
ATOM     37  C   UNL A   1      42.267  23.409  27.630  1.00  0.00    -0.014 A 
BRANCH  37  38
ATOM     38  C   UNL A   1      42.654  24.718  28.215  1.00  0.00     0.031 A 
ATOM     39  C   UNL A   1      41.612  25.785  28.414  1.00  0.00     0.074 A 
ATOM     40  C   UNL A   1      43.948  24.974  28.489  1.00  0.00     0.049 A 
ATOM     41  N   UNL A   1      41.761  27.029  28.793  1.00  0.00    -0.248 NA
ATOM     42  C   UNL A   1      40.219  25.414  28.115  1.00  0.00     0.031 C 
ATOM     43  C   UNL A   1      45.058  24.038  28.293  1.00  0.00     0.029 A 
ATOM     44  N   UNL A   1      44.553  26.105  28.977  1.00  0.00    -0.354 N 
ATOM     45  C   UNL A   1      40.490  27.590  28.755  1.00  0.00     0.074 A 
ATOM     46  C   UNL A   1      39.593  26.572  28.256  1.00  0.00     0.031 C 
ATOM     47  C   UNL A   1      46.203  24.627  28.673  1.00  0.00     0.029 A 
ATOM     48  C   UNL A   1      45.917  25.993  29.099  1.00  0.00     0.049 A 
ATOM     49  H   UNL A   1      44.056  26.920  29.217  1.00  0.00     0.167 HD
ATOM     50  C   UNL A   1      40.101  28.831  29.130  1.00  0.00     0.037 A 
ATOM     51  C   UNL A   1      46.835  26.896  29.496  1.00  0.00     0.037 A 
ATOM     52  C   UNL A   1      40.994  29.829  29.655  1.00  0.00     0.049 A 
ATOM     53  C   UNL A   1      46.377  28.269  29.905  1.00  0.00     0.074 A 
ATOM     54  C   UNL A   1      40.695  31.101  30.110  1.00  0.00     0.029 A 
ATOM     55  N   UNL A   1      42.364  29.663  29.797  1.00  0.00    -0.354 N 
ATOM     56  N   UNL A   1      45.163  28.767  29.919  1.00  0.00    -0.248 NA
ATOM     57  C   UNL A   1      47.414  29.205  30.361  1.00  0.00     0.031 C 
ATOM     58  C   UNL A   1      41.889  31.720  30.490  1.00  0.00     0.029 A 
ATOM     59  C   UNL A   1      42.926  30.815  30.320  1.00  0.00     0.049 A 
ATOM     60  H   UNL A   1      42.863  28.849  29.560  1.00  0.00     0.167 HD
ATOM     61  C   UNL A   1      45.287  30.057  30.416  1.00  0.00     0.074 A 
ATOM     62  C   UNL A   1      46.691  30.262  30.704  1.00  0.00     0.031 C 
ATOM     63  C   UNL A   1      44.325  30.992  30.616  1.00  0.00     0.037 A 
BRANCH  50  64
ATOM     64  C   UNL A   1      38.644  29.172  28.995  1.00  0.00     0.057 A 
ATOM     65  C   UNL A   1      37.763  29.086  30.083  1.00  0.00     0.134 A 
ATOM     66  C   UNL A   1      38.121  29.622  27.777  1.00  0.00     0.134 A 
ATOM     67  F   UNL A   1      38.195  28.650  31.276  1.00  0.00    -0.206 F 
ATOM     68  C   UNL A   1      36.410  29.407  29.956  1.00  0.00     0.040 A 
ATOM     69  C   UNL A   1      36.777  29.975  27.646  1.00  0.00     0.040 A 
ATOM     70  F   UNL A   1      38.908  29.734  26.697  1.00  0.00    -0.206 F 
ATOM     71  C   UNL A   1      35.916  29.861  28.735  1.00  0.00     0.006 A 
ENDBRANCH  50  64
BRANCH  51  72
ATOM     72  C   UNL A   1      48.274  26.530  29.542  1.00  0.00     0.057 A 
ATOM     73  C   UNL A   1      48.823  25.893  30.662  1.00  0.00     0.134 A 
ATOM     74  C   UNL A   1      49.139  26.824  28.481  1.00  0.00     0.134 A 
ATOM     75  F   UNL A   1      48.050  25.600  31.718  1.00  0.00    -0.206 F 
ATOM     76  C   UNL A   1      50.183  25.587  30.738  1.00  0.00     0.040 A 
ATOM     77  C   UNL A   1      50.496  26.497  28.532  1.00  0.00     0.040 A 
ATOM     78  F   UNL A   1      48.676  27.422  27.375  1.00  0.00    -0.206 F 
ATOM     79  C   UNL A   1      51.023  25.886  29.667  1.00  0.00     0.006 A 
ENDBRANCH  51  72
BRANCH  63  80
ATOM     80  C   UNL A   1      44.749  32.299  31.220  1.00  0.00     0.057 A 
ATOM     81  C   UNL A   1      45.112  33.397  30.432  1.00  0.00     0.134 A 
ATOM     82  C   UNL A   1      44.747  32.471  32.610  1.00  0.00     0.134 A 
ATOM     83  F   UNL A   1      45.146  33.294  29.095  1.00  0.00    -0.206 F 
ATOM     84  C   UNL A   1      45.480  34.615  31.006  1.00  0.00     0.040 A 
ATOM     85  C   UNL A   1      45.084  33.691  33.195  1.00  0.00     0.040 A 
ATOM     86  F   UNL A   1      44.400  31.460  33.422  1.00  0.00    -0.206 F 
ATOM     87  C   UNL A   1      45.459  34.766  32.391  1.00  0.00     0.006 A 
ENDBRANCH  63  80
ENDBRANCH  37  38
ENDBRANCH  29  32
ENDBRANCH  27  28
ENDBRANCH  26  27
ENDBRANCH   1  26
TORSDOF 14
ENDMDL
MODEL 2
REMARK VINA RESULT:     -11.6      1.791      2.608
REMARK SMILES [NH3+][C@@]1(C(=O)NCCCNC(=O)c2ccc(-c3c4nc(c(-c5c(F)cccc5F)c5ccc([nH]5)c(-c5c(F)cccc5F)c5nc(c(-c6c(F)cccc6F)c6ccc3[nH]6)C=C5)C=C4)cc2)CCC[C@@H](Oc2ccccc2[N+](=O)[O-])C1
REMARK SMILES IDX 6 1 5 2 3 3 4 4 2 6 66 7 80 8 67 9 69 10 68 11 1 12 70 16
REMARK SMILES IDX 71 17 72 18 76 19 73 20 75 21 74 22 77 23 78 24 79 25 7 26
REMARK SMILES IDX 8 27 9 28 10 29 11 31 12 32 13 33 65 34 14 35 64 36 15 37
REMARK SMILES IDX 16 38 17 39 58 40 18 41 63 42 57 43 59 44 19 45 62 46 56 47
REMARK SMILES IDX 55 48 20 50 46 51 29 52 45 53 30 54 33 55 44 56 60 57 31 58
REMARK SMILES IDX 32 59 43 61 61 62 34 63 21 64 22 65 27 66 23 67 24 68 26 69
REMARK SMILES IDX 28 70 25 71 47 72 48 73 53 74 49 75 50 76 52 77 54 78 51 79
REMARK SMILES IDX 35 80 36 81 41 82 37 83 38 84 40 85 42 86 39 87
REMARK H PARENT 5 5 1 13 1 14 1 15 9 30 59 49 33 60
REMARK Flexibility Score: inf
ROOT
ATOM      1  C   UNL A   1      36.611  20.747  24.998  1.00  0.00     0.118 C 
ENDROOT
BRANCH   1   2
ATOM      2  N   UNL A   1      35.339  20.062  25.142  1.00  0.00    -0.351 N 
ATOM      3  C   UNL A   1      34.048  20.503  25.049  1.00  0.00     0.281 C 
ATOM      4  O   UNL A   1      33.175  19.634  25.159  1.00  0.00    -0.268 OA
ATOM      5  H   UNL A   1      35.422  19.102  25.344  1.00  0.00     0.163 HD
BRANCH   3   6
ATOM      6  C   UNL A   1      33.665  21.992  24.713  1.00  0.00     0.177 C 
ATOM      7  C   UNL A   1      34.004  22.882  25.929  1.00  0.00     0.079 C 
ATOM      8  C   UNL A   1      32.139  22.048  24.465  1.00  0.00     0.124 C 
ATOM      9  C   UNL A   1      33.549  24.331  25.760  1.00  0.00     0.011 C 
ATOM     10  C   UNL A   1      31.470  23.439  24.487  1.00  0.00     0.180 C 
ATOM     11  C   UNL A   1      32.051  24.445  25.495  1.00  0.00     0.046 C 
BRANCH   6  12
ATOM     12  N   UNL A   1      34.483  22.479  23.591  1.00  0.00    -0.345 N 
ATOM     13  H   UNL A   1      35.402  22.756  23.936  1.00  0.00     0.345 HD
ATOM     14  H   UNL A   1      34.027  23.283  23.161  1.00  0.00     0.345 HD
ATOM     15  H   UNL A   1      34.589  21.738  22.900  1.00  0.00     0.345 HD
ENDBRANCH   6  12
BRANCH  10  16
ATOM     16  O   UNL A   1      31.119  24.018  23.208  1.00  0.00    -0.483 OA
BRANCH  16  17
ATOM     17  C   UNL A   1      30.990  25.369  23.136  1.00  0.00     0.197 A 
ATOM     18  C   UNL A   1      29.849  25.961  23.678  1.00  0.00     0.054 A 
ATOM     19  C   UNL A   1      31.926  26.180  22.483  1.00  0.00     0.310 A 
ATOM     20  C   UNL A   1      29.729  27.353  23.717  1.00  0.00     0.004 A 
ATOM     21  C   UNL A   1      31.826  27.580  22.543  1.00  0.00     0.090 A 
ATOM     22  C   UNL A   1      30.734  28.162  23.186  1.00  0.00     0.007 A 
BRANCH  19  23
ATOM     23  N   UNL A   1      33.062  25.606  21.775  1.00  0.00     0.066 N 
ATOM     24  O   UNL A   1      32.974  25.541  20.539  1.00  0.00    -0.258 OA
ATOM     25  O   UNL A   1      34.031  25.211  22.436  1.00  0.00    -0.258 OA
ENDBRANCH  19  23
ENDBRANCH  16  17
ENDBRANCH  10  16
ENDBRANCH   3   6
ENDBRANCH   1   2
BRANCH   1  26
ATOM     26  C   UNL A   1      37.804  19.791  24.916  1.00  0.00     0.042 C 
BRANCH  26  27
ATOM     27  C   UNL A   1      38.981  20.204  25.789  1.00  0.00     0.118 C 
BRANCH  27  28
ATOM     28  N   UNL A   1      40.035  19.197  25.829  1.00  0.00    -0.352 N 
ATOM     29  C   UNL A   1      41.376  19.325  26.096  1.00  0.00     0.251 C 
ATOM     30  H   UNL A   1      39.737  18.279  25.635  1.00  0.00     0.163 HD
ATOM     31  O   UNL A   1      42.116  18.354  25.954  1.00  0.00    -0.269 OA
BRANCH  29  32
ATOM     32  C   UNL A   1      41.948  20.625  26.514  1.00  0.00     0.039 A 
ATOM     33  C   UNL A   1      42.326  21.541  25.527  1.00  0.00     0.014 A 
ATOM     34  C   UNL A   1      42.126  20.944  27.862  1.00  0.00     0.014 A 
ATOM     35  C   UNL A   1      42.816  22.797  25.892  1.00  0.00     0.010 A 
ATOM     36  C   UNL A   1      42.521  22.227  28.224  1.00  0.00     0.010 A 
ATOM     37  C   UNL A   1      42.880  23.166  27.245  1.00  0.00    -0.014 A 
BRANCH  37  38
ATOM     38  C   UNL A   1      43.338  24.514  27.666  1.00  0.00     0.031 A 
ATOM     39  C   UNL A   1      42.327  25.555  28.066  1.00  0.00     0.074 A 
ATOM     40  C   UNL A   1      44.647  24.826  27.613  1.00  0.00     0.049 A 
ATOM     41  N   UNL A   1      42.507  26.821  28.348  1.00  0.00    -0.248 NA
ATOM     42  C   UNL A   1      40.920  25.125  28.124  1.00  0.00     0.031 C 
ATOM     43  C   UNL A   1      45.718  23.919  27.194  1.00  0.00     0.029 A 
ATOM     44  N   UNL A   1      45.301  25.999  27.896  1.00  0.00    -0.354 N 
ATOM     45  C   UNL A   1      41.241  27.337  28.592  1.00  0.00     0.074 A 
ATOM     46  C   UNL A   1      40.296  26.267  28.364  1.00  0.00     0.031 C 
ATOM     47  C   UNL A   1      46.894  24.563  27.265  1.00  0.00     0.029 A 
ATOM     48  C   UNL A   1      46.658  25.938  27.692  1.00  0.00     0.049 A 
ATOM     49  H   UNL A   1      44.840  26.808  28.214  1.00  0.00     0.167 HD
ATOM     50  C   UNL A   1      40.898  28.582  28.999  1.00  0.00     0.037 A 
ATOM     51  C   UNL A   1      47.604  26.889  27.821  1.00  0.00     0.037 A 
ATOM     52  C   UNL A   1      41.845  29.633  29.254  1.00  0.00     0.049 A 
ATOM     53  C   UNL A   1      47.196  28.265  28.272  1.00  0.00     0.074 A 
ATOM     54  C   UNL A   1      41.608  30.916  29.717  1.00  0.00     0.029 A 
ATOM     55  N   UNL A   1      43.216  29.520  29.070  1.00  0.00    -0.354 N 
ATOM     56  N   UNL A   1      46.000  28.723  28.556  1.00  0.00    -0.248 NA
ATOM     57  C   UNL A   1      48.270  29.256  28.428  1.00  0.00     0.031 C 
ATOM     58  C   UNL A   1      42.830  31.592  29.773  1.00  0.00     0.029 A 
ATOM     59  C   UNL A   1      43.835  30.714  29.398  1.00  0.00     0.049 A 
ATOM     60  H   UNL A   1      43.679  28.711  28.755  1.00  0.00     0.167 HD
ATOM     61  C   UNL A   1      46.182  30.040  28.956  1.00  0.00     0.074 A 
ATOM     62  C   UNL A   1      47.604  30.304  28.891  1.00  0.00     0.031 C 
ATOM     63  C   UNL A   1      45.256  30.951  29.342  1.00  0.00     0.037 A 
BRANCH  50  64
ATOM     64  C   UNL A   1      39.437  28.868  29.203  1.00  0.00     0.057 A 
ATOM     65  C   UNL A   1      38.818  28.691  30.450  1.00  0.00     0.134 A 
ATOM     66  C   UNL A   1      38.646  29.356  28.156  1.00  0.00     0.134 A 
ATOM     67  F   UNL A   1      39.514  28.215  31.493  1.00  0.00    -0.206 F 
ATOM     68  C   UNL A   1      37.462  28.961  30.637  1.00  0.00     0.040 A 
ATOM     69  C   UNL A   1      37.297  29.658  28.339  1.00  0.00     0.040 A 
ATOM     70  F   UNL A   1      39.174  29.554  26.939  1.00  0.00    -0.206 F 
ATOM     71  C   UNL A   1      36.699  29.454  29.581  1.00  0.00     0.006 A 
ENDBRANCH  50  64
BRANCH  51  72
ATOM     72  C   UNL A   1      49.027  26.573  27.536  1.00  0.00     0.057 A 
ATOM     73  C   UNL A   1      49.565  26.751  26.255  1.00  0.00     0.134 A 
ATOM     74  C   UNL A   1      49.879  26.070  28.526  1.00  0.00     0.134 A 
ATOM     75  F   UNL A   1      48.795  27.214  25.259  1.00  0.00    -0.206 F 
ATOM     76  C   UNL A   1      50.887  26.414  25.962  1.00  0.00     0.040 A 
ATOM     77  C   UNL A   1      51.212  25.755  28.253  1.00  0.00     0.040 A 
ATOM     78  F   UNL A   1      49.432  25.887  29.776  1.00  0.00    -0.206 F 
ATOM     79  C   UNL A   1      51.716  25.918  26.965  1.00  0.00     0.006 A 
ENDBRANCH  51  72
BRANCH  63  80
ATOM     80  C   UNL A   1      45.753  32.300  29.774  1.00  0.00     0.057 A 
ATOM     81  C   UNL A   1      46.131  32.563  31.096  1.00  0.00     0.134 A 
ATOM     82  C   UNL A   1      45.902  33.333  28.839  1.00  0.00     0.134 A 
ATOM     83  F   UNL A   1      46.001  31.620  32.041  1.00  0.00    -0.206 F 
ATOM     84  C   UNL A   1      46.616  33.815  31.478  1.00  0.00     0.040 A 
ATOM     85  C   UNL A   1      46.413  34.578  29.203  1.00  0.00     0.040 A 
ATOM     86  F   UNL A   1      45.568  33.142  27.554  1.00  0.00    -0.206 F 
ATOM     87  C   UNL A   1      46.765  34.824  30.528  1.00  0.00     0.006 A 
ENDBRANCH  63  80
ENDBRANCH  37  38
ENDBRANCH  29  32
ENDBRANCH  27  28
ENDBRANCH  26  27
ENDBRANCH   1  26
TORSDOF 14
ENDMDL
MODEL 3
REMARK VINA RESULT:     -11.5      0.468      6.225
REMARK SMILES [NH3+][C@@]1(C(=O)NCCCNC(=O)c2ccc(-c3c4nc(c(-c5c(F)cccc5F)c5ccc([nH]5)c(-c5c(F)cccc5F)c5nc(c(-c6c(F)cccc6F)c6ccc3[nH]6)C=C5)C=C4)cc2)CCC[C@@H](Oc2ccccc2[N+](=O)[O-])C1
REMARK SMILES IDX 6 1 5 2 3 3 4 4 2 6 66 7 80 8 67 9 69 10 68 11 1 12 70 16
REMARK SMILES IDX 71 17 72 18 76 19 73 20 75 21 74 22 77 23 78 24 79 25 7 26
REMARK SMILES IDX 8 27 9 28 10 29 11 31 12 32 13 33 65 34 14 35 64 36 15 37
REMARK SMILES IDX 16 38 17 39 58 40 18 41 63 42 57 43 59 44 19 45 62 46 56 47
REMARK SMILES IDX 55 48 20 50 46 51 29 52 45 53 30 54 33 55 44 56 60 57 31 58
REMARK SMILES IDX 32 59 43 61 61 62 34 63 21 64 22 65 27 66 23 67 24 68 26 69
REMARK SMILES IDX 28 70 25 71 47 72 48 73 53 74 49 75 50 76 52 77 54 78 51 79
REMARK SMILES IDX 35 80 36 81 41 82 37 83 38 84 40 85 42 86 39 87
REMARK H PARENT 5 5 1 13 1 14 1 15 9 30 59 49 33 60
REMARK Flexibility Score: inf
ROOT
ATOM      1  C   UNL A   1      36.191  20.632  24.808  1.00  0.00     0.118 C 
ENDROOT
BRANCH   1   2
ATOM      2  N   UNL A   1      35.588  20.867  26.108  1.00  0.00    -0.351 N 
ATOM      3  C   UNL A   1      34.412  21.459  26.476  1.00  0.00     0.281 C 
ATOM      4  O   UNL A   1      34.156  21.438  27.685  1.00  0.00    -0.268 OA
ATOM      5  H   UNL A   1      36.127  20.541  26.864  1.00  0.00     0.163 HD
BRANCH   3   6
ATOM      6  C   UNL A   1      33.375  22.039  25.443  1.00  0.00     0.177 C 
ATOM      7  C   UNL A   1      33.344  21.124  24.199  1.00  0.00     0.079 C 
ATOM      8  C   UNL A   1      33.860  23.444  25.016  1.00  0.00     0.124 C 
ATOM      9  C   UNL A   1      32.463  21.667  23.074  1.00  0.00     0.011 C 
ATOM     10  C   UNL A   1      33.225  24.055  23.748  1.00  0.00     0.180 C 
ATOM     11  C   UNL A   1      32.887  23.062  22.624  1.00  0.00     0.046 C 
BRANCH   6  12
ATOM     12  N   UNL A   1      32.021  22.010  26.023  1.00  0.00    -0.345 N 
ATOM     13  H   UNL A   1      32.077  22.200  27.023  1.00  0.00     0.345 HD
ATOM     14  H   UNL A   1      31.607  21.091  25.874  1.00  0.00     0.345 HD
ATOM     15  H   UNL A   1      31.444  22.721  25.573  1.00  0.00     0.345 HD
ENDBRANCH   6  12
BRANCH  10  16
ATOM     16  O   UNL A   1      32.231  25.088  23.946  1.00  0.00    -0.483 OA
BRANCH  16  17
ATOM     17  C   UNL A   1      32.536  26.111  24.785  1.00  0.00     0.197 A 
ATOM     18  C   UNL A   1      33.562  26.988  24.427  1.00  0.00     0.054 A 
ATOM     19  C   UNL A   1      31.905  26.282  26.024  1.00  0.00     0.310 A 
ATOM     20  C   UNL A   1      33.834  28.112  25.212  1.00  0.00     0.004 A 
ATOM     21  C   UNL A   1      32.154  27.423  26.804  1.00  0.00     0.090 A 
ATOM     22  C   UNL A   1      33.105  28.350  26.378  1.00  0.00     0.007 A 
BRANCH  19  23
ATOM     23  N   UNL A   1      30.930  25.318  26.515  1.00  0.00     0.066 N 
ATOM     24  O   UNL A   1      31.355  24.432  27.273  1.00  0.00    -0.258 OA
ATOM     25  O   UNL A   1      29.754  25.428  26.146  1.00  0.00    -0.258 OA
ENDBRANCH  19  23
ENDBRANCH  16  17
ENDBRANCH  10  16
ENDBRANCH   3   6
ENDBRANCH   1   2
BRANCH   1  26
ATOM     26  C   UNL A   1      37.401  19.696  24.866  1.00  0.00     0.042 C 
BRANCH  26  27
ATOM     27  C   UNL A   1      38.617  20.309  25.547  1.00  0.00     0.118 C 
BRANCH  27  28
ATOM     28  N   UNL A   1      39.739  19.382  25.639  1.00  0.00    -0.352 N 
ATOM     29  C   UNL A   1      41.033  19.592  26.046  1.00  0.00     0.251 C 
ATOM     30  H   UNL A   1      39.536  18.457  25.365  1.00  0.00     0.163 HD
ATOM     31  O   UNL A   1      41.859  18.689  25.927  1.00  0.00    -0.269 OA
BRANCH  29  32
ATOM     32  C   UNL A   1      41.457  20.902  26.590  1.00  0.00     0.039 A 
ATOM     33  C   UNL A   1      42.070  21.820  25.731  1.00  0.00     0.014 A 
ATOM     34  C   UNL A   1      41.268  21.229  27.934  1.00  0.00     0.014 A 
ATOM     35  C   UNL A   1      42.429  23.085  26.202  1.00  0.00     0.010 A 
ATOM     36  C   UNL A   1      41.536  22.520  28.378  1.00  0.00     0.010 A 
ATOM     37  C   UNL A   1      42.128  23.460  27.521  1.00  0.00    -0.014 A 
BRANCH  37  38
ATOM     38  C   UNL A   1      42.439  24.817  28.037  1.00  0.00     0.031 A 
ATOM     39  C   UNL A   1      43.837  25.140  28.494  1.00  0.00     0.074 A 
ATOM     40  C   UNL A   1      41.455  25.727  28.170  1.00  0.00     0.049 A 
ATOM     41  N   UNL A   1      44.287  26.217  29.086  1.00  0.00    -0.248 NA
ATOM     42  C   UNL A   1      44.857  24.099  28.289  1.00  0.00     0.031 C 
ATOM     43  C   UNL A   1      40.051  25.517  27.809  1.00  0.00     0.029 A 
ATOM     44  N   UNL A   1      41.481  27.009  28.661  1.00  0.00    -0.354 N 
ATOM     45  C   UNL A   1      45.631  25.972  29.342  1.00  0.00     0.074 A 
ATOM     46  C   UNL A   1      45.908  24.624  28.900  1.00  0.00     0.031 C 
ATOM     47  C   UNL A   1      39.356  26.635  28.073  1.00  0.00     0.029 A 
ATOM     48  C   UNL A   1      40.253  27.624  28.662  1.00  0.00     0.049 A 
ATOM     49  H   UNL A   1      42.302  27.445  28.983  1.00  0.00     0.167 HD
ATOM     50  C   UNL A   1      46.557  26.806  29.869  1.00  0.00     0.037 A 
ATOM     51  C   UNL A   1      39.888  28.845  29.101  1.00  0.00     0.037 A 
ATOM     52  C   UNL A   1      46.283  28.158  30.278  1.00  0.00     0.049 A 
ATOM     53  C   UNL A   1      40.937  29.752  29.685  1.00  0.00     0.074 A 
ATOM     54  C   UNL A   1      47.160  29.103  30.778  1.00  0.00     0.029 A 
ATOM     55  N   UNL A   1      45.032  28.757  30.228  1.00  0.00    -0.354 N 
ATOM     56  N   UNL A   1      42.217  29.528  29.867  1.00  0.00    -0.248 NA
ATOM     57  C   UNL A   1      40.493  31.084  30.118  1.00  0.00     0.031 C 
ATOM     58  C   UNL A   1      46.433  30.261  31.071  1.00  0.00     0.029 A 
ATOM     59  C   UNL A   1      45.112  30.055  30.702  1.00  0.00     0.049 A 
ATOM     60  H   UNL A   1      44.210  28.323  29.904  1.00  0.00     0.167 HD
ATOM     61  C   UNL A   1      42.735  30.700  30.403  1.00  0.00     0.074 A 
ATOM     62  C   UNL A   1      41.635  31.636  30.504  1.00  0.00     0.031 C 
ATOM     63  C   UNL A   1      44.008  30.977  30.778  1.00  0.00     0.037 A 
BRANCH  50  64
ATOM     64  C   UNL A   1      47.957  26.282  30.022  1.00  0.00     0.057 A 
ATOM     65  C   UNL A   1      48.392  25.676  31.210  1.00  0.00     0.134 A 
ATOM     66  C   UNL A   1      48.871  26.353  28.964  1.00  0.00     0.134 A 
ATOM     67  F   UNL A   1      47.571  25.587  32.268  1.00  0.00    -0.206 F 
ATOM     68  C   UNL A   1      49.692  25.188  31.349  1.00  0.00     0.040 A 
ATOM     69  C   UNL A   1      50.164  25.840  29.080  1.00  0.00     0.040 A 
ATOM     70  F   UNL A   1      48.521  26.914  27.797  1.00  0.00    -0.206 F 
ATOM     71  C   UNL A   1      50.580  25.262  30.278  1.00  0.00     0.006 A 
ENDBRANCH  50  64
BRANCH  51  72
ATOM     72  C   UNL A   1      38.475  29.289  28.993  1.00  0.00     0.057 A 
ATOM     73  C   UNL A   1      37.615  29.240  30.097  1.00  0.00     0.134 A 
ATOM     74  C   UNL A   1      37.942  29.753  27.784  1.00  0.00     0.134 A 
ATOM     75  F   UNL A   1      38.060  28.789  31.279  1.00  0.00    -0.206 F 
ATOM     76  C   UNL A   1      36.273  29.609  29.997  1.00  0.00     0.040 A 
ATOM     77  C   UNL A   1      36.609  30.153  27.677  1.00  0.00     0.040 A 
ATOM     78  F   UNL A   1      38.714  29.836  26.691  1.00  0.00    -0.206 F 
ATOM     79  C   UNL A   1      35.767  30.071  28.785  1.00  0.00     0.006 A 
ENDBRANCH  51  72
BRANCH  63  80
ATOM     80  C   UNL A   1      44.291  32.362  31.284  1.00  0.00     0.057 A 
ATOM     81  C   UNL A   1      44.241  32.679  32.646  1.00  0.00     0.134 A 
ATOM     82  C   UNL A   1      44.666  33.378  30.395  1.00  0.00     0.134 A 
ATOM     83  F   UNL A   1      43.877  31.754  33.547  1.00  0.00    -0.206 F 
ATOM     84  C   UNL A   1      44.531  33.965  33.105  1.00  0.00     0.040 A 
ATOM     85  C   UNL A   1      44.986  34.658  30.844  1.00  0.00     0.040 A 
ATOM     86  F   UNL A   1      44.742  33.137  29.077  1.00  0.00    -0.206 F 
ATOM     87  C   UNL A   1      44.913  34.956  32.203  1.00  0.00     0.006 A 
ENDBRANCH  63  80
ENDBRANCH  37  38
ENDBRANCH  29  32
ENDBRANCH  27  28
ENDBRANCH  26  27
ENDBRANCH   1  26
TORSDOF 14
ENDMDL
