MODEL 1
REMARK VINA RESULT:     -13.0      0.000      0.000
REMARK SMILES CS(=O)(=O)c1ccc(-n2nc(C(F)(F)F)cc2-c2ccc(CC(=O)NCCCNC(=O)c3ccc(-c4c5nc(c(-c6c(F)cccc6F)c6ccc([nH]6)c(-c6c(F)cccc6F)c6nc(c(-c7c(F)cccc7F)c7ccc4[nH]7)C=C6)C=C5)cc3)cc2)cc1
REMARK SMILES IDX 26 1 25 2 23 3 24 4 22 6 21 7 18 8 19 9 87 10 20 11 86 12
REMARK SMILES IDX 17 13 9 14 10 15 11 16 16 17 8 18 5 19 6 20 89 21 7 22 88 23
REMARK SMILES IDX 2 24 1 25 3 26 4 27 12 28 13 29 14 30 15 31 27 32 28 33
REMARK SMILES IDX 29 34 30 35 31 37 32 38 33 39 85 40 34 41 84 42 35 43 36 44
REMARK SMILES IDX 37 45 78 46 38 47 83 48 77 49 79 50 39 51 82 52 76 53 75 54
REMARK SMILES IDX 40 56 66 57 49 58 65 59 50 60 53 61 64 62 80 63 51 64 52 65
REMARK SMILES IDX 63 67 81 68 54 69 41 70 42 71 47 72 43 73 44 74 46 75 48 76
REMARK SMILES IDX 45 77 67 78 68 79 73 80 69 81 70 82 72 83 74 84 71 85 55 86
REMARK SMILES IDX 56 87 61 88 57 89 58 90 60 91 62 92 59 93
REMARK H PARENT 25 5 29 36 79 55 53 66
REMARK Flexibility Score: inf
ROOT
ATOM      1  C   UNL A   1      31.858  28.576  25.889  1.00  0.00     0.117 C 
ENDROOT
BRANCH   1   2
ATOM      2  N   UNL A   1      31.045  27.497  26.429  1.00  0.00    -0.356 N 
ATOM      3  C   UNL A   1      30.808  26.254  25.909  1.00  0.00     0.224 C 
ATOM      4  O   UNL A   1      30.059  25.494  26.526  1.00  0.00    -0.275 OA
ATOM      5  H   UNL A   1      30.603  27.688  27.288  1.00  0.00     0.163 HD
BRANCH   3   6
ATOM      6  C   UNL A   1      31.476  25.828  24.612  1.00  0.00     0.135 C 
BRANCH   6   7
ATOM      7  C   UNL A   1      32.786  25.106  24.820  1.00  0.00    -0.039 A 
ATOM      8  C   UNL A   1      35.278  23.845  25.222  1.00  0.00     0.000 A 
ATOM      9  C   UNL A   1      34.867  24.235  23.937  1.00  0.00     0.010 A 
ATOM     10  C   UNL A   1      34.405  24.046  26.294  1.00  0.00     0.010 A 
ATOM     11  C   UNL A   1      33.642  24.872  23.738  1.00  0.00     0.005 A 
ATOM     12  C   UNL A   1      33.166  24.659  26.092  1.00  0.00     0.005 A 
BRANCH   8  13
ATOM     13  C   UNL A   1      36.587  23.219  25.435  1.00  0.00     0.075 A 
ATOM     14  N   UNL A   1      36.842  21.853  25.415  1.00  0.00    -0.233 N 
ATOM     15  N   UNL A   1      38.054  21.547  25.930  1.00  0.00    -0.163 NA
ATOM     16  C   UNL A   1      38.666  22.731  26.109  1.00  0.00     0.167 A 
ATOM     17  C   UNL A   1      37.781  23.800  25.820  1.00  0.00     0.064 A 
BRANCH  14  18
ATOM     18  C   UNL A   1      35.967  20.819  25.013  1.00  0.00     0.065 A 
ATOM     19  C   UNL A   1      34.268  18.681  24.585  1.00  0.00     0.067 A 
ATOM     20  C   UNL A   1      33.725  19.957  24.757  1.00  0.00     0.022 A 
ATOM     21  C   UNL A   1      35.651  18.482  24.548  1.00  0.00     0.022 A 
ATOM     22  C   UNL A   1      34.580  21.030  24.992  1.00  0.00     0.030 A 
ATOM     23  C   UNL A   1      36.508  19.562  24.730  1.00  0.00     0.030 A 
BRANCH  19  24
ATOM     24  S   UNL A   1      33.236  17.255  24.381  1.00  0.00     0.175 S 
ATOM     25  C   UNL A   1      33.845  16.022  25.499  1.00  0.00     0.163 C 
ATOM     26  O   UNL A   1      33.464  16.758  23.035  1.00  0.00    -0.224 OA
ATOM     27  O   UNL A   1      31.928  17.689  24.814  1.00  0.00    -0.224 OA
ENDBRANCH  19  24
ENDBRANCH  14  18
BRANCH  16  28
ATOM     28  C   UNL A   1      40.088  22.839  26.591  1.00  0.00     0.435 C 
ATOM     29  F   UNL A   1      40.957  22.115  25.839  1.00  0.00    -0.164 F 
ATOM     30  F   UNL A   1      40.530  24.125  26.589  1.00  0.00    -0.164 F 
ATOM     31  F   UNL A   1      40.218  22.392  27.872  1.00  0.00    -0.164 F 
ENDBRANCH  16  28
ENDBRANCH   8  13
ENDBRANCH   6   7
ENDBRANCH   3   6
ENDBRANCH   1   2
BRANCH   1  32
ATOM     32  C   UNL A   1      33.311  28.534  26.381  1.00  0.00     0.042 C 
BRANCH  32  33
ATOM     33  C   UNL A   1      33.542  29.431  27.587  1.00  0.00     0.118 C 
BRANCH  33  34
ATOM     34  N   UNL A   1      33.975  30.798  27.246  1.00  0.00    -0.352 N 
ATOM     35  C   UNL A   1      35.127  31.470  27.646  1.00  0.00     0.251 C 
ATOM     36  H   UNL A   1      33.371  31.303  26.656  1.00  0.00     0.163 HD
ATOM     37  O   UNL A   1      35.228  32.684  27.535  1.00  0.00    -0.269 OA
BRANCH  35  38
ATOM     38  C   UNL A   1      36.235  30.673  28.207  1.00  0.00     0.039 A 
ATOM     39  C   UNL A   1      36.487  29.333  27.897  1.00  0.00     0.014 A 
ATOM     40  C   UNL A   1      37.117  31.379  28.995  1.00  0.00     0.014 A 
ATOM     41  C   UNL A   1      37.699  28.761  28.313  1.00  0.00     0.010 A 
ATOM     42  C   UNL A   1      38.398  30.931  29.082  1.00  0.00     0.010 A 
ATOM     43  C   UNL A   1      38.676  29.584  28.892  1.00  0.00    -0.014 A 
BRANCH  43  44
ATOM     44  C   UNL A   1      40.013  29.137  29.304  1.00  0.00     0.031 A 
ATOM     45  C   UNL A   1      40.277  28.978  30.773  1.00  0.00     0.074 A 
ATOM     46  C   UNL A   1      40.861  28.598  28.385  1.00  0.00     0.049 A 
ATOM     47  N   UNL A   1      41.333  29.318  31.439  1.00  0.00    -0.248 NA
ATOM     48  C   UNL A   1      39.245  28.346  31.609  1.00  0.00     0.031 C 
ATOM     49  C   UNL A   1      40.666  28.413  26.930  1.00  0.00     0.029 A 
ATOM     50  N   UNL A   1      42.049  27.961  28.583  1.00  0.00    -0.354 N 
ATOM     51  C   UNL A   1      41.178  28.802  32.729  1.00  0.00     0.074 A 
ATOM     52  C   UNL A   1      39.864  28.225  32.785  1.00  0.00     0.031 C 
ATOM     53  C   UNL A   1      41.545  27.511  26.449  1.00  0.00     0.029 A 
ATOM     54  C   UNL A   1      42.511  27.234  27.489  1.00  0.00     0.049 A 
ATOM     55  H   UNL A   1      42.541  28.011  29.434  1.00  0.00     0.167 HD
ATOM     56  C   UNL A   1      42.200  28.772  33.628  1.00  0.00     0.037 A 
ATOM     57  C   UNL A   1      43.628  26.476  27.408  1.00  0.00     0.037 A 
ATOM     58  C   UNL A   1      43.200  29.751  33.318  1.00  0.00     0.049 A 
ATOM     59  C   UNL A   1      44.519  26.906  28.507  1.00  0.00     0.074 A 
ATOM     60  C   UNL A   1      43.172  31.126  33.196  1.00  0.00     0.029 A 
ATOM     61  N   UNL A   1      44.346  29.348  32.682  1.00  0.00    -0.354 N 
ATOM     62  N   UNL A   1      45.077  28.082  28.570  1.00  0.00    -0.248 NA
ATOM     63  C   UNL A   1      44.411  26.188  29.765  1.00  0.00     0.031 C 
ATOM     64  C   UNL A   1      43.958  31.393  32.038  1.00  0.00     0.029 A 
ATOM     65  C   UNL A   1      44.483  30.177  31.595  1.00  0.00     0.049 A 
ATOM     66  H   UNL A   1      44.946  28.616  32.948  1.00  0.00     0.167 HD
ATOM     67  C   UNL A   1      45.005  28.433  29.908  1.00  0.00     0.074 A 
ATOM     68  C   UNL A   1      44.657  27.195  30.606  1.00  0.00     0.031 C 
ATOM     69  C   UNL A   1      44.957  29.740  30.302  1.00  0.00     0.037 A 
BRANCH  56  70
ATOM     70  C   UNL A   1      42.428  27.678  34.632  1.00  0.00     0.057 A 
ATOM     71  C   UNL A   1      42.918  26.426  34.219  1.00  0.00     0.134 A 
ATOM     72  C   UNL A   1      41.881  27.716  35.928  1.00  0.00     0.134 A 
ATOM     73  F   UNL A   1      43.445  26.265  32.995  1.00  0.00    -0.206 F 
ATOM     74  C   UNL A   1      42.809  25.280  35.015  1.00  0.00     0.040 A 
ATOM     75  C   UNL A   1      41.805  26.587  36.749  1.00  0.00     0.040 A 
ATOM     76  F   UNL A   1      41.293  28.821  36.405  1.00  0.00    -0.206 F 
ATOM     77  C   UNL A   1      42.241  25.355  36.281  1.00  0.00     0.006 A 
ENDBRANCH  56  70
BRANCH  57  78
ATOM     78  C   UNL A   1      43.881  25.264  26.602  1.00  0.00     0.057 A 
ATOM     79  C   UNL A   1      44.660  25.307  25.440  1.00  0.00     0.134 A 
ATOM     80  C   UNL A   1      43.592  23.985  27.110  1.00  0.00     0.134 A 
ATOM     81  F   UNL A   1      45.010  26.484  24.901  1.00  0.00    -0.206 F 
ATOM     82  C   UNL A   1      45.154  24.146  24.831  1.00  0.00     0.040 A 
ATOM     83  C   UNL A   1      44.076  22.816  26.512  1.00  0.00     0.040 A 
ATOM     84  F   UNL A   1      42.905  23.837  28.254  1.00  0.00    -0.206 F 
ATOM     85  C   UNL A   1      44.874  22.896  25.376  1.00  0.00     0.006 A 
ENDBRANCH  57  78
BRANCH  69  86
ATOM     86  C   UNL A   1      45.160  30.816  29.265  1.00  0.00     0.057 A 
ATOM     87  C   UNL A   1      44.118  31.450  28.569  1.00  0.00     0.134 A 
ATOM     88  C   UNL A   1      46.436  31.369  29.108  1.00  0.00     0.134 A 
ATOM     89  F   UNL A   1      42.847  31.072  28.723  1.00  0.00    -0.206 F 
ATOM     90  C   UNL A   1      44.337  32.551  27.736  1.00  0.00     0.040 A 
ATOM     91  C   UNL A   1      46.665  32.490  28.304  1.00  0.00     0.040 A 
ATOM     92  F   UNL A   1      47.478  30.863  29.786  1.00  0.00    -0.206 F 
ATOM     93  C   UNL A   1      45.615  33.081  27.607  1.00  0.00     0.006 A 
ENDBRANCH  69  86
ENDBRANCH  43  44
ENDBRANCH  35  38
ENDBRANCH  33  34
ENDBRANCH  32  33
ENDBRANCH   1  32
TORSDOF 15
ENDMDL
MODEL 2
REMARK VINA RESULT:     -13.0      3.380      8.002
REMARK SMILES CS(=O)(=O)c1ccc(-n2nc(C(F)(F)F)cc2-c2ccc(CC(=O)NCCCNC(=O)c3ccc(-c4c5nc(c(-c6c(F)cccc6F)c6ccc([nH]6)c(-c6c(F)cccc6F)c6nc(c(-c7c(F)cccc7F)c7ccc4[nH]7)C=C6)C=C5)cc3)cc2)cc1
REMARK SMILES IDX 26 1 25 2 23 3 24 4 22 6 21 7 18 8 19 9 87 10 20 11 86 12
REMARK SMILES IDX 17 13 9 14 10 15 11 16 16 17 8 18 5 19 6 20 89 21 7 22 88 23
REMARK SMILES IDX 2 24 1 25 3 26 4 27 12 28 13 29 14 30 15 31 27 32 28 33
REMARK SMILES IDX 29 34 30 35 31 37 32 38 33 39 85 40 34 41 84 42 35 43 36 44
REMARK SMILES IDX 37 45 78 46 38 47 83 48 77 49 79 50 39 51 82 52 76 53 75 54
REMARK SMILES IDX 40 56 66 57 49 58 65 59 50 60 53 61 64 62 80 63 51 64 52 65
REMARK SMILES IDX 63 67 81 68 54 69 41 70 42 71 47 72 43 73 44 74 46 75 48 76
REMARK SMILES IDX 45 77 67 78 68 79 73 80 69 81 70 82 72 83 74 84 71 85 55 86
REMARK SMILES IDX 56 87 61 88 57 89 58 90 60 91 62 92 59 93
REMARK H PARENT 25 5 29 36 79 55 53 66
REMARK Flexibility Score: inf
ROOT
ATOM      1  C   UNL A   1      40.794  21.191  27.812  1.00  0.00     0.117 C 
ENDROOT
BRANCH   1   2
ATOM      2  N   UNL A   1      40.614  22.552  27.329  1.00  0.00    -0.356 N 
ATOM      3  C   UNL A   1      39.734  23.026  26.395  1.00  0.00     0.224 C 
ATOM      4  O   UNL A   1      39.767  24.225  26.115  1.00  0.00    -0.275 OA
ATOM      5  H   UNL A   1      41.210  23.226  27.730  1.00  0.00     0.163 HD
BRANCH   3   6
ATOM      6  C   UNL A   1      38.732  22.086  25.745  1.00  0.00     0.135 C 
BRANCH   6   7
ATOM      7  C   UNL A   1      37.448  22.766  25.334  1.00  0.00    -0.039 A 
ATOM      8  C   UNL A   1      35.001  23.952  24.580  1.00  0.00     0.000 A 
ATOM      9  C   UNL A   1      35.845  23.369  23.621  1.00  0.00     0.010 A 
ATOM     10  C   UNL A   1      35.420  23.981  25.912  1.00  0.00     0.010 A 
ATOM     11  C   UNL A   1      37.049  22.769  23.994  1.00  0.00     0.005 A 
ATOM     12  C   UNL A   1      36.638  23.405  26.283  1.00  0.00     0.005 A 
BRANCH   8  13
ATOM     13  C   UNL A   1      33.714  24.538  24.192  1.00  0.00     0.075 A 
ATOM     14  N   UNL A   1      32.600  23.827  23.762  1.00  0.00    -0.233 N 
ATOM     15  N   UNL A   1      31.668  24.624  23.194  1.00  0.00    -0.163 NA
ATOM     16  C   UNL A   1      32.091  25.879  23.427  1.00  0.00     0.167 A 
ATOM     17  C   UNL A   1      33.370  25.869  24.040  1.00  0.00     0.064 A 
BRANCH  14  18
ATOM     18  C   UNL A   1      32.410  22.427  23.784  1.00  0.00     0.065 A 
ATOM     19  C   UNL A   1      32.405  19.663  23.742  1.00  0.00     0.067 A 
ATOM     20  C   UNL A   1      32.479  20.325  24.971  1.00  0.00     0.022 A 
ATOM     21  C   UNL A   1      32.257  20.372  22.546  1.00  0.00     0.022 A 
ATOM     22  C   UNL A   1      32.501  21.717  24.989  1.00  0.00     0.030 A 
ATOM     23  C   UNL A   1      32.226  21.762  22.568  1.00  0.00     0.030 A 
BRANCH  19  24
ATOM     24  S   UNL A   1      32.473  17.896  23.637  1.00  0.00     0.175 S 
ATOM     25  C   UNL A   1      34.171  17.437  23.856  1.00  0.00     0.163 C 
ATOM     26  O   UNL A   1      32.109  17.541  22.275  1.00  0.00    -0.224 OA
ATOM     27  O   UNL A   1      31.703  17.435  24.769  1.00  0.00    -0.224 OA
ENDBRANCH  19  24
ENDBRANCH  14  18
BRANCH  16  28
ATOM     28  C   UNL A   1      31.289  27.089  23.031  1.00  0.00     0.435 C 
ATOM     29  F   UNL A   1      30.795  27.004  21.768  1.00  0.00    -0.164 F 
ATOM     30  F   UNL A   1      30.233  27.295  23.862  1.00  0.00    -0.164 F 
ATOM     31  F   UNL A   1      32.039  28.225  23.077  1.00  0.00    -0.164 F 
ENDBRANCH  16  28
ENDBRANCH   8  13
ENDBRANCH   6   7
ENDBRANCH   3   6
ENDBRANCH   1   2
BRANCH   1  32
ATOM     32  C   UNL A   1      42.180  20.620  27.486  1.00  0.00     0.042 C 
BRANCH  32  33
ATOM     33  C   UNL A   1      42.328  20.255  26.017  1.00  0.00     0.118 C 
BRANCH  33  34
ATOM     34  N   UNL A   1      43.707  19.932  25.612  1.00  0.00    -0.352 N 
ATOM     35  C   UNL A   1      44.720  20.799  25.209  1.00  0.00     0.251 C 
ATOM     36  H   UNL A   1      43.945  18.977  25.628  1.00  0.00     0.163 HD
ATOM     37  O   UNL A   1      45.715  20.389  24.628  1.00  0.00    -0.269 OA
BRANCH  35  38
ATOM     38  C   UNL A   1      44.565  22.234  25.511  1.00  0.00     0.039 A 
ATOM     39  C   UNL A   1      43.592  23.066  24.945  1.00  0.00     0.014 A 
ATOM     40  C   UNL A   1      45.386  22.711  26.509  1.00  0.00     0.014 A 
ATOM     41  C   UNL A   1      43.403  24.346  25.486  1.00  0.00     0.010 A 
ATOM     42  C   UNL A   1      44.964  23.784  27.228  1.00  0.00     0.010 A 
ATOM     43  C   UNL A   1      44.084  24.696  26.660  1.00  0.00    -0.014 A 
BRANCH  43  44
ATOM     44  C   UNL A   1      43.924  25.970  27.375  1.00  0.00     0.031 A 
ATOM     45  C   UNL A   1      44.861  27.090  27.028  1.00  0.00     0.074 A 
ATOM     46  C   UNL A   1      42.788  26.212  28.086  1.00  0.00     0.049 A 
ATOM     47  N   UNL A   1      45.450  27.919  27.827  1.00  0.00    -0.248 NA
ATOM     48  C   UNL A   1      45.174  27.332  25.612  1.00  0.00     0.031 C 
ATOM     49  C   UNL A   1      41.623  25.328  28.312  1.00  0.00     0.029 A 
ATOM     50  N   UNL A   1      42.363  27.373  28.655  1.00  0.00    -0.354 N 
ATOM     51  C   UNL A   1      46.066  28.883  27.024  1.00  0.00     0.074 A 
ATOM     52  C   UNL A   1      45.879  28.464  25.663  1.00  0.00     0.031 C 
ATOM     53  C   UNL A   1      40.560  26.049  28.723  1.00  0.00     0.029 A 
ATOM     54  C   UNL A   1      41.020  27.387  29.020  1.00  0.00     0.049 A 
ATOM     55  H   UNL A   1      42.960  28.143  28.797  1.00  0.00     0.167 HD
ATOM     56  C   UNL A   1      46.581  30.036  27.535  1.00  0.00     0.037 A 
ATOM     57  C   UNL A   1      40.318  28.407  29.563  1.00  0.00     0.037 A 
ATOM     58  C   UNL A   1      46.891  29.899  28.928  1.00  0.00     0.049 A 
ATOM     59  C   UNL A   1      41.303  29.351  30.134  1.00  0.00     0.074 A 
ATOM     60  C   UNL A   1      47.727  29.056  29.633  1.00  0.00     0.029 A 
ATOM     61  N   UNL A   1      46.017  30.409  29.853  1.00  0.00    -0.354 N 
ATOM     62  N   UNL A   1      42.070  29.070  31.149  1.00  0.00    -0.248 NA
ATOM     63  C   UNL A   1      41.755  30.433  29.277  1.00  0.00     0.031 C 
ATOM     64  C   UNL A   1      46.964  28.678  30.775  1.00  0.00     0.029 A 
ATOM     65  C   UNL A   1      45.761  29.385  30.732  1.00  0.00     0.049 A 
ATOM     66  H   UNL A   1      45.648  31.321  29.882  1.00  0.00     0.167 HD
ATOM     67  C   UNL A   1      43.294  29.636  30.830  1.00  0.00     0.074 A 
ATOM     68  C   UNL A   1      43.016  30.529  29.704  1.00  0.00     0.031 C 
ATOM     69  C   UNL A   1      44.464  29.128  31.316  1.00  0.00     0.037 A 
BRANCH  56  70
ATOM     70  C   UNL A   1      46.555  31.369  26.843  1.00  0.00     0.057 A 
ATOM     71  C   UNL A   1      47.719  32.153  26.768  1.00  0.00     0.134 A 
ATOM     72  C   UNL A   1      45.354  32.037  26.538  1.00  0.00     0.134 A 
ATOM     73  F   UNL A   1      48.921  31.628  27.058  1.00  0.00    -0.206 F 
ATOM     74  C   UNL A   1      47.683  33.522  26.476  1.00  0.00     0.040 A 
ATOM     75  C   UNL A   1      45.310  33.393  26.202  1.00  0.00     0.040 A 
ATOM     76  F   UNL A   1      44.167  31.432  26.666  1.00  0.00    -0.206 F 
ATOM     77  C   UNL A   1      46.473  34.149  26.202  1.00  0.00     0.006 A 
ENDBRANCH  56  70
BRANCH  57  78
ATOM     78  C   UNL A   1      38.884  28.737  29.423  1.00  0.00     0.057 A 
ATOM     79  C   UNL A   1      38.029  28.769  30.531  1.00  0.00     0.134 A 
ATOM     80  C   UNL A   1      38.385  29.300  28.235  1.00  0.00     0.134 A 
ATOM     81  F   UNL A   1      38.431  28.282  31.713  1.00  0.00    -0.206 F 
ATOM     82  C   UNL A   1      36.758  29.356  30.473  1.00  0.00     0.040 A 
ATOM     83  C   UNL A   1      37.117  29.887  28.162  1.00  0.00     0.040 A 
ATOM     84  F   UNL A   1      39.149  29.375  27.134  1.00  0.00    -0.206 F 
ATOM     85  C   UNL A   1      36.304  29.931  29.289  1.00  0.00     0.006 A 
ENDBRANCH  57  78
BRANCH  69  86
ATOM     86  C   UNL A   1      44.404  28.037  32.356  1.00  0.00     0.057 A 
ATOM     87  C   UNL A   1      44.414  26.664  32.063  1.00  0.00     0.134 A 
ATOM     88  C   UNL A   1      44.537  28.383  33.706  1.00  0.00     0.134 A 
ATOM     89  F   UNL A   1      44.395  26.221  30.803  1.00  0.00    -0.206 F 
ATOM     90  C   UNL A   1      44.518  25.687  33.058  1.00  0.00     0.040 A 
ATOM     91  C   UNL A   1      44.675  27.418  34.708  1.00  0.00     0.040 A 
ATOM     92  F   UNL A   1      44.598  29.674  34.067  1.00  0.00    -0.206 F 
ATOM     93  C   UNL A   1      44.658  26.064  34.387  1.00  0.00     0.006 A 
ENDBRANCH  69  86
ENDBRANCH  43  44
ENDBRANCH  35  38
ENDBRANCH  33  34
ENDBRANCH  32  33
ENDBRANCH   1  32
TORSDOF 15
ENDMDL
MODEL 3
REMARK VINA RESULT:     -12.9      1.811      5.687
REMARK SMILES CS(=O)(=O)c1ccc(-n2nc(C(F)(F)F)cc2-c2ccc(CC(=O)NCCCNC(=O)c3ccc(-c4c5nc(c(-c6c(F)cccc6F)c6ccc([nH]6)c(-c6c(F)cccc6F)c6nc(c(-c7c(F)cccc7F)c7ccc4[nH]7)C=C6)C=C5)cc3)cc2)cc1
REMARK SMILES IDX 26 1 25 2 23 3 24 4 22 6 21 7 18 8 19 9 87 10 20 11 86 12
REMARK SMILES IDX 17 13 9 14 10 15 11 16 16 17 8 18 5 19 6 20 89 21 7 22 88 23
REMARK SMILES IDX 2 24 1 25 3 26 4 27 12 28 13 29 14 30 15 31 27 32 28 33
REMARK SMILES IDX 29 34 30 35 31 37 32 38 33 39 85 40 34 41 84 42 35 43 36 44
REMARK SMILES IDX 37 45 78 46 38 47 83 48 77 49 79 50 39 51 82 52 76 53 75 54
REMARK SMILES IDX 40 56 66 57 49 58 65 59 50 60 53 61 64 62 80 63 51 64 52 65
REMARK SMILES IDX 63 67 81 68 54 69 41 70 42 71 47 72 43 73 44 74 46 75 48 76
REMARK SMILES IDX 45 77 67 78 68 79 73 80 69 81 70 82 72 83 74 84 71 85 55 86
REMARK SMILES IDX 56 87 61 88 57 89 58 90 60 91 62 92 59 93
REMARK H PARENT 25 5 29 36 79 55 53 66
REMARK Flexibility Score: inf
ROOT
ATOM      1  C   UNL A   1      33.338  28.371  25.772  1.00  0.00     0.117 C 
ENDROOT
BRANCH   1   2
ATOM      2  N   UNL A   1      32.207  27.710  26.405  1.00  0.00    -0.356 N 
ATOM      3  C   UNL A   1      31.518  26.601  25.997  1.00  0.00     0.224 C 
ATOM      4  O   UNL A   1      30.565  26.220  26.679  1.00  0.00    -0.275 OA
ATOM      5  H   UNL A   1      31.893  28.119  27.245  1.00  0.00     0.163 HD
BRANCH   3   6
ATOM      6  C   UNL A   1      31.943  25.858  24.742  1.00  0.00     0.135 C 
BRANCH   6   7
ATOM      7  C   UNL A   1      33.182  25.016  24.933  1.00  0.00    -0.039 A 
ATOM      8  C   UNL A   1      35.548  23.526  25.311  1.00  0.00     0.000 A 
ATOM      9  C   UNL A   1      35.205  24.023  24.043  1.00  0.00     0.010 A 
ATOM     10  C   UNL A   1      34.668  23.738  26.375  1.00  0.00     0.010 A 
ATOM     11  C   UNL A   1      34.043  24.773  23.857  1.00  0.00     0.005 A 
ATOM     12  C   UNL A   1      33.490  24.465  26.184  1.00  0.00     0.005 A 
BRANCH   8  13
ATOM     13  C   UNL A   1      36.795  22.780  25.514  1.00  0.00     0.075 A 
ATOM     14  N   UNL A   1      36.929  21.398  25.442  1.00  0.00    -0.233 N 
ATOM     15  N   UNL A   1      38.102  20.968  25.958  1.00  0.00    -0.163 NA
ATOM     16  C   UNL A   1      38.814  22.085  26.189  1.00  0.00     0.167 A 
ATOM     17  C   UNL A   1      38.030  23.238  25.933  1.00  0.00     0.064 A 
BRANCH  14  18
ATOM     18  C   UNL A   1      35.972  20.462  24.991  1.00  0.00     0.065 A 
ATOM     19  C   UNL A   1      34.109  18.491  24.459  1.00  0.00     0.067 A 
ATOM     20  C   UNL A   1      33.668  19.792  24.716  1.00  0.00     0.022 A 
ATOM     21  C   UNL A   1      35.472  18.189  24.391  1.00  0.00     0.022 A 
ATOM     22  C   UNL A   1      34.607  20.780  25.003  1.00  0.00     0.030 A 
ATOM     23  C   UNL A   1      36.412  19.186  24.626  1.00  0.00     0.030 A 
BRANCH  19  24
ATOM     24  S   UNL A   1      32.967  17.164  24.184  1.00  0.00     0.175 S 
ATOM     25  C   UNL A   1      32.711  16.379  25.753  1.00  0.00     0.163 C 
ATOM     26  O   UNL A   1      33.640  16.199  23.331  1.00  0.00    -0.224 OA
ATOM     27  O   UNL A   1      31.746  17.815  23.771  1.00  0.00    -0.224 OA
ENDBRANCH  19  24
ENDBRANCH  14  18
BRANCH  16  28
ATOM     28  C   UNL A   1      40.232  22.050  26.691  1.00  0.00     0.435 C 
ATOM     29  F   UNL A   1      40.428  22.843  27.776  1.00  0.00    -0.164 F 
ATOM     30  F   UNL A   1      40.619  20.793  27.036  1.00  0.00    -0.164 F 
ATOM     31  F   UNL A   1      41.111  22.472  25.739  1.00  0.00    -0.164 F 
ENDBRANCH  16  28
ENDBRANCH   8  13
ENDBRANCH   6   7
ENDBRANCH   3   6
ENDBRANCH   1   2
BRANCH   1  32
ATOM     32  C   UNL A   1      33.846  29.581  26.567  1.00  0.00     0.042 C 
BRANCH  32  33
ATOM     33  C   UNL A   1      35.148  29.293  27.296  1.00  0.00     0.118 C 
BRANCH  33  34
ATOM     34  N   UNL A   1      35.288  29.999  28.582  1.00  0.00    -0.352 N 
ATOM     35  C   UNL A   1      36.321  29.914  29.513  1.00  0.00     0.251 C 
ATOM     36  H   UNL A   1      34.555  30.614  28.814  1.00  0.00     0.163 HD
ATOM     37  O   UNL A   1      36.182  30.323  30.657  1.00  0.00    -0.269 OA
BRANCH  35  38
ATOM     38  C   UNL A   1      37.599  29.320  29.078  1.00  0.00     0.039 A 
ATOM     39  C   UNL A   1      38.317  29.719  27.945  1.00  0.00     0.014 A 
ATOM     40  C   UNL A   1      38.134  28.392  29.944  1.00  0.00     0.014 A 
ATOM     41  C   UNL A   1      39.624  29.238  27.772  1.00  0.00     0.010 A 
ATOM     42  C   UNL A   1      39.482  28.221  29.948  1.00  0.00     0.010 A 
ATOM     43  C   UNL A   1      40.219  28.499  28.803  1.00  0.00    -0.014 A 
BRANCH  43  44
ATOM     44  C   UNL A   1      41.601  28.000  28.790  1.00  0.00     0.031 A 
ATOM     45  C   UNL A   1      41.880  26.732  28.038  1.00  0.00     0.074 A 
ATOM     46  C   UNL A   1      42.621  28.816  29.175  1.00  0.00     0.049 A 
ATOM     47  N   UNL A   1      42.636  25.742  28.387  1.00  0.00    -0.248 NA
ATOM     48  C   UNL A   1      41.252  26.541  26.721  1.00  0.00     0.031 C 
ATOM     49  C   UNL A   1      42.564  30.204  29.684  1.00  0.00     0.029 A 
ATOM     50  N   UNL A   1      43.964  28.622  29.062  1.00  0.00    -0.354 N 
ATOM     51  C   UNL A   1      42.718  24.889  27.284  1.00  0.00     0.074 A 
ATOM     52  C   UNL A   1      41.832  25.420  26.287  1.00  0.00     0.031 C 
ATOM     53  C   UNL A   1      43.774  30.790  29.584  1.00  0.00     0.029 A 
ATOM     54  C   UNL A   1      44.735  29.767  29.237  1.00  0.00     0.049 A 
ATOM     55  H   UNL A   1      44.358  27.740  28.872  1.00  0.00     0.167 HD
ATOM     56  C   UNL A   1      43.616  23.866  27.218  1.00  0.00     0.037 A 
ATOM     57  C   UNL A   1      46.080  29.885  29.143  1.00  0.00     0.037 A 
ATOM     58  C   UNL A   1      44.041  23.459  28.526  1.00  0.00     0.049 A 
ATOM     59  C   UNL A   1      46.640  28.524  29.279  1.00  0.00     0.074 A 
ATOM     60  C   UNL A   1      43.369  22.975  29.631  1.00  0.00     0.029 A 
ATOM     61  N   UNL A   1      45.253  23.896  28.994  1.00  0.00    -0.354 N 
ATOM     62  N   UNL A   1      46.576  27.820  30.374  1.00  0.00    -0.248 NA
ATOM     63  C   UNL A   1      46.860  27.774  28.055  1.00  0.00     0.031 C 
ATOM     64  C   UNL A   1      43.959  23.664  30.730  1.00  0.00     0.029 A 
ATOM     65  C   UNL A   1      45.004  24.442  30.229  1.00  0.00     0.049 A 
ATOM     66  H   UNL A   1      46.123  23.832  28.538  1.00  0.00     0.167 HD
ATOM     67  C   UNL A   1      46.320  26.528  29.944  1.00  0.00     0.074 A 
ATOM     68  C   UNL A   1      46.585  26.547  28.505  1.00  0.00     0.031 C 
ATOM     69  C   UNL A   1      45.653  25.632  30.730  1.00  0.00     0.037 A 
BRANCH  56  70
ATOM     70  C   UNL A   1      44.314  23.415  25.968  1.00  0.00     0.057 A 
ATOM     71  C   UNL A   1      44.349  22.051  25.628  1.00  0.00     0.134 A 
ATOM     72  C   UNL A   1      45.217  24.237  25.269  1.00  0.00     0.134 A 
ATOM     73  F   UNL A   1      43.547  21.168  26.244  1.00  0.00    -0.206 F 
ATOM     74  C   UNL A   1      45.267  21.532  24.706  1.00  0.00     0.040 A 
ATOM     75  C   UNL A   1      46.108  23.737  24.314  1.00  0.00     0.040 A 
ATOM     76  F   UNL A   1      45.353  25.535  25.566  1.00  0.00    -0.206 F 
ATOM     77  C   UNL A   1      46.158  22.376  24.053  1.00  0.00     0.006 A 
ENDBRANCH  56  70
BRANCH  57  78
ATOM     78  C   UNL A   1      46.890  31.045  28.717  1.00  0.00     0.057 A 
ATOM     79  C   UNL A   1      47.874  31.594  29.548  1.00  0.00     0.134 A 
ATOM     80  C   UNL A   1      46.906  31.462  27.374  1.00  0.00     0.134 A 
ATOM     81  F   UNL A   1      47.955  31.232  30.836  1.00  0.00    -0.206 F 
ATOM     82  C   UNL A   1      48.842  32.485  29.067  1.00  0.00     0.040 A 
ATOM     83  C   UNL A   1      47.864  32.353  26.880  1.00  0.00     0.040 A 
ATOM     84  F   UNL A   1      46.044  30.947  26.484  1.00  0.00    -0.206 F 
ATOM     85  C   UNL A   1      48.848  32.856  27.725  1.00  0.00     0.006 A 
ENDBRANCH  57  78
BRANCH  69  86
ATOM     86  C   UNL A   1      45.344  26.011  32.157  1.00  0.00     0.057 A 
ATOM     87  C   UNL A   1      44.154  26.630  32.571  1.00  0.00     0.134 A 
ATOM     88  C   UNL A   1      46.193  25.559  33.174  1.00  0.00     0.134 A 
ATOM     89  F   UNL A   1      43.224  27.009  31.690  1.00  0.00    -0.206 F 
ATOM     90  C   UNL A   1      43.838  26.819  33.919  1.00  0.00     0.040 A 
ATOM     91  C   UNL A   1      45.875  25.712  34.527  1.00  0.00     0.040 A 
ATOM     92  F   UNL A   1      47.322  24.902  32.868  1.00  0.00    -0.206 F 
ATOM     93  C   UNL A   1      44.698  26.351  34.905  1.00  0.00     0.006 A 
ENDBRANCH  69  86
ENDBRANCH  43  44
ENDBRANCH  35  38
ENDBRANCH  33  34
ENDBRANCH  32  33
ENDBRANCH   1  32
TORSDOF 15
ENDMDL
