MODEL 1
REMARK VINA RESULT:     -10.6      0.000      0.000
REMARK SMILES O=C(Cc1ccc(-c2ccn(C(F)F)c(=O)c2)cc1)NCCCNC(=O)c1ccc(-c2c3nc(c(-c4c(F)cccc4F)c4ccc([nH]4)c(-c4c(F)cccc4F)c4nc(c(-c5c(F)cccc5F)c5ccc2[nH]5)C=C4)C=C3)cc1
REMARK SMILES IDX 21 1 20 2 1 3 2 4 3 6 4 7 5 8 19 9 6 10 18 11 7 12 8 13 9 14
REMARK SMILES IDX 17 15 10 16 15 17 11 18 16 19 12 20 13 21 14 22 22 23 23 24
REMARK SMILES IDX 24 25 25 26 26 28 27 29 28 30 80 31 29 32 79 33 30 34 31 35
REMARK SMILES IDX 32 36 73 37 33 38 78 39 72 40 74 41 34 42 77 43 71 44 70 45
REMARK SMILES IDX 35 47 61 48 44 49 60 50 45 51 48 52 59 53 75 54 46 55 47 56
REMARK SMILES IDX 58 58 76 59 49 60 36 61 37 62 42 63 38 64 39 65 41 66 43 67
REMARK SMILES IDX 40 68 62 69 63 70 68 71 64 72 65 73 67 74 69 75 66 76 50 77
REMARK SMILES IDX 51 78 56 79 52 80 53 81 55 82 57 83 54 84
REMARK H PARENT 20 5 24 27 74 46 48 57
REMARK Flexibility Score: inf
ROOT
ATOM      1  C   UNL A   1      32.950  35.614  31.424  1.00  0.00     0.117 C 
ENDROOT
BRANCH   1   2
ATOM      2  N   UNL A   1      33.889  35.535  32.524  1.00  0.00    -0.356 N 
ATOM      3  O   UNL A   1      33.435  33.362  33.113  1.00  0.00    -0.275 OA
ATOM      4  C   UNL A   1      34.079  34.395  33.279  1.00  0.00     0.224 C 
ATOM      5  H   UNL A   1      34.419  36.335  32.745  1.00  0.00     0.163 HD
BRANCH   4   6
ATOM      6  C   UNL A   1      35.102  34.537  34.399  1.00  0.00     0.135 C 
BRANCH   6   7
ATOM      7  C   UNL A   1      36.252  33.560  34.300  1.00  0.00    -0.039 A 
ATOM      8  C   UNL A   1      37.387  33.715  35.106  1.00  0.00     0.005 A 
ATOM      9  C   UNL A   1      36.179  32.459  33.437  1.00  0.00     0.005 A 
ATOM     10  C   UNL A   1      38.417  32.769  35.073  1.00  0.00     0.009 A 
ATOM     11  C   UNL A   1      37.195  31.502  33.423  1.00  0.00     0.009 A 
ATOM     12  C   UNL A   1      38.318  31.640  34.250  1.00  0.00    -0.018 A 
BRANCH  12  13
ATOM     13  C   UNL A   1      39.335  30.570  34.267  1.00  0.00    -0.011 A 
ATOM     14  C   UNL A   1      39.473  29.594  33.202  1.00  0.00     0.027 A 
ATOM     15  C   UNL A   1      40.106  30.447  35.363  1.00  0.00     0.080 A 
ATOM     16  C   UNL A   1      40.312  28.559  33.331  1.00  0.00     0.095 A 
ATOM     17  C   UNL A   1      41.064  29.319  35.507  1.00  0.00     0.255 A 
ATOM     18  N   UNL A   1      41.086  28.406  34.466  1.00  0.00    -0.258 N 
ATOM     19  O   UNL A   1      41.745  29.256  36.528  1.00  0.00    -0.269 OA
BRANCH  18  20
ATOM     20  C   UNL A   1      41.946  27.262  34.620  1.00  0.00     0.451 C 
ATOM     21  F   UNL A   1      41.233  26.141  34.883  1.00  0.00    -0.185 F 
ATOM     22  F   UNL A   1      42.670  27.046  33.495  1.00  0.00    -0.185 F 
ENDBRANCH  18  20
ENDBRANCH  12  13
ENDBRANCH   6   7
ENDBRANCH   4   6
ENDBRANCH   1   2
BRANCH   1  23
ATOM     23  C   UNL A   1      33.142  36.870  30.577  1.00  0.00     0.042 C 
BRANCH  23  24
ATOM     24  C   UNL A   1      33.533  36.619  29.122  1.00  0.00     0.118 C 
BRANCH  24  25
ATOM     25  N   UNL A   1      32.785  35.540  28.496  1.00  0.00    -0.352 N 
ATOM     26  C   UNL A   1      33.142  34.240  28.236  1.00  0.00     0.251 C 
ATOM     27  H   UNL A   1      31.874  35.780  28.213  1.00  0.00     0.163 HD
ATOM     28  O   UNL A   1      32.370  33.526  27.598  1.00  0.00    -0.269 OA
BRANCH  26  29
ATOM     29  C   UNL A   1      34.440  33.682  28.684  1.00  0.00     0.039 A 
ATOM     30  C   UNL A   1      35.597  34.062  27.993  1.00  0.00     0.014 A 
ATOM     31  C   UNL A   1      34.532  32.753  29.724  1.00  0.00     0.014 A 
ATOM     32  C   UNL A   1      36.843  33.550  28.370  1.00  0.00     0.010 A 
ATOM     33  C   UNL A   1      35.782  32.289  30.140  1.00  0.00     0.010 A 
ATOM     34  C   UNL A   1      36.950  32.676  29.463  1.00  0.00    -0.014 A 
BRANCH  34  35
ATOM     35  C   UNL A   1      38.270  32.145  29.891  1.00  0.00     0.031 A 
ATOM     36  C   UNL A   1      38.748  30.806  29.398  1.00  0.00     0.074 A 
ATOM     37  C   UNL A   1      39.027  32.843  30.760  1.00  0.00     0.049 A 
ATOM     38  N   UNL A   1      39.840  30.152  29.704  1.00  0.00    -0.248 NA
ATOM     39  C   UNL A   1      37.869  30.098  28.454  1.00  0.00     0.031 C 
ATOM     40  C   UNL A   1      38.668  34.136  31.345  1.00  0.00     0.029 A 
ATOM     41  N   UNL A   1      40.252  32.559  31.308  1.00  0.00    -0.354 N 
ATOM     42  C   UNL A   1      39.771  28.951  29.008  1.00  0.00     0.074 A 
ATOM     43  C   UNL A   1      38.511  28.949  28.296  1.00  0.00     0.031 C 
ATOM     44  C   UNL A   1      39.659  34.540  32.157  1.00  0.00     0.029 A 
ATOM     45  C   UNL A   1      40.708  33.526  32.171  1.00  0.00     0.049 A 
ATOM     46  H   UNL A   1      40.756  31.738  31.103  1.00  0.00     0.167 HD
ATOM     47  C   UNL A   1      40.682  27.950  28.949  1.00  0.00     0.037 A 
ATOM     48  C   UNL A   1      41.844  33.588  32.892  1.00  0.00     0.037 A 
ATOM     49  C   UNL A   1      41.952  27.963  29.625  1.00  0.00     0.049 A 
ATOM     50  C   UNL A   1      42.847  32.473  32.795  1.00  0.00     0.074 A 
ATOM     51  C   UNL A   1      42.963  27.017  29.582  1.00  0.00     0.029 A 
ATOM     52  N   UNL A   1      42.390  28.976  30.463  1.00  0.00    -0.354 N 
ATOM     53  N   UNL A   1      42.791  31.369  32.092  1.00  0.00    -0.248 NA
ATOM     54  C   UNL A   1      44.077  32.618  33.587  1.00  0.00     0.031 C 
ATOM     55  C   UNL A   1      44.001  27.445  30.417  1.00  0.00     0.029 A 
ATOM     56  C   UNL A   1      43.650  28.674  30.951  1.00  0.00     0.049 A 
ATOM     57  H   UNL A   1      41.880  29.790  30.681  1.00  0.00     0.167 HD
ATOM     58  C   UNL A   1      43.986  30.704  32.332  1.00  0.00     0.074 A 
ATOM     59  C   UNL A   1      44.752  31.531  33.239  1.00  0.00     0.031 C 
ATOM     60  C   UNL A   1      44.409  29.514  31.842  1.00  0.00     0.037 A 
BRANCH  47  61
ATOM     61  C   UNL A   1      40.336  26.752  28.114  1.00  0.00     0.057 A 
ATOM     62  C   UNL A   1      39.459  25.762  28.576  1.00  0.00     0.134 A 
ATOM     63  C   UNL A   1      40.862  26.601  26.826  1.00  0.00     0.134 A 
ATOM     64  F   UNL A   1      38.931  25.843  29.807  1.00  0.00    -0.206 F 
ATOM     65  C   UNL A   1      39.137  24.651  27.795  1.00  0.00     0.040 A 
ATOM     66  C   UNL A   1      40.528  25.506  26.026  1.00  0.00     0.040 A 
ATOM     67  F   UNL A   1      41.703  27.515  26.321  1.00  0.00    -0.206 F 
ATOM     68  C   UNL A   1      39.667  24.524  26.514  1.00  0.00     0.006 A 
ENDBRANCH  47  61
BRANCH  48  69
ATOM     69  C   UNL A   1      42.112  34.768  33.750  1.00  0.00     0.057 A 
ATOM     70  C   UNL A   1      41.773  34.761  35.108  1.00  0.00     0.134 A 
ATOM     71  C   UNL A   1      42.703  35.928  33.235  1.00  0.00     0.134 A 
ATOM     72  F   UNL A   1      41.187  33.684  35.651  1.00  0.00    -0.206 F 
ATOM     73  C   UNL A   1      41.995  35.873  35.922  1.00  0.00     0.040 A 
ATOM     74  C   UNL A   1      42.950  37.039  34.042  1.00  0.00     0.040 A 
ATOM     75  F   UNL A   1      43.054  35.993  31.943  1.00  0.00    -0.206 F 
ATOM     76  C   UNL A   1      42.589  37.015  35.389  1.00  0.00     0.006 A 
ENDBRANCH  48  69
BRANCH  60  77
ATOM     77  C   UNL A   1      45.779  29.055  32.243  1.00  0.00     0.057 A 
ATOM     78  C   UNL A   1      46.016  28.416  33.467  1.00  0.00     0.134 A 
ATOM     79  C   UNL A   1      46.868  29.225  31.378  1.00  0.00     0.134 A 
ATOM     80  F   UNL A   1      45.017  28.236  34.344  1.00  0.00    -0.206 F 
ATOM     81  C   UNL A   1      47.293  27.981  33.825  1.00  0.00     0.040 A 
ATOM     82  C   UNL A   1      48.144  28.775  31.716  1.00  0.00     0.040 A 
ATOM     83  F   UNL A   1      46.706  29.824  30.189  1.00  0.00    -0.206 F 
ATOM     84  C   UNL A   1      48.360  28.155  32.945  1.00  0.00     0.006 A 
ENDBRANCH  60  77
ENDBRANCH  34  35
ENDBRANCH  26  29
ENDBRANCH  24  25
ENDBRANCH  23  24
ENDBRANCH   1  23
TORSDOF 13
ENDMDL
MODEL 2
REMARK VINA RESULT:      -9.3      3.971     10.133
REMARK SMILES O=C(Cc1ccc(-c2ccn(C(F)F)c(=O)c2)cc1)NCCCNC(=O)c1ccc(-c2c3nc(c(-c4c(F)cccc4F)c4ccc([nH]4)c(-c4c(F)cccc4F)c4nc(c(-c5c(F)cccc5F)c5ccc2[nH]5)C=C4)C=C3)cc1
REMARK SMILES IDX 21 1 20 2 1 3 2 4 3 6 4 7 5 8 19 9 6 10 18 11 7 12 8 13 9 14
REMARK SMILES IDX 17 15 10 16 15 17 11 18 16 19 12 20 13 21 14 22 22 23 23 24
REMARK SMILES IDX 24 25 25 26 26 28 27 29 28 30 80 31 29 32 79 33 30 34 31 35
REMARK SMILES IDX 32 36 73 37 33 38 78 39 72 40 74 41 34 42 77 43 71 44 70 45
REMARK SMILES IDX 35 47 61 48 44 49 60 50 45 51 48 52 59 53 75 54 46 55 47 56
REMARK SMILES IDX 58 58 76 59 49 60 36 61 37 62 42 63 38 64 39 65 41 66 43 67
REMARK SMILES IDX 40 68 62 69 63 70 68 71 64 72 65 73 67 74 69 75 66 76 50 77
REMARK SMILES IDX 51 78 56 79 52 80 53 81 55 82 57 83 54 84
REMARK H PARENT 20 5 24 27 74 46 48 57
REMARK Flexibility Score: inf
ROOT
ATOM      1  C   UNL A   1      42.257  19.310  26.740  1.00  0.00     0.117 C 
ENDROOT
BRANCH   1   2
ATOM      2  N   UNL A   1      43.330  20.073  26.137  1.00  0.00    -0.356 N 
ATOM      3  O   UNL A   1      44.178  18.373  24.846  1.00  0.00    -0.275 OA
ATOM      4  C   UNL A   1      44.204  19.547  25.207  1.00  0.00     0.224 C 
ATOM      5  H   UNL A   1      43.442  21.014  26.403  1.00  0.00     0.163 HD
BRANCH   4   6
ATOM      6  C   UNL A   1      45.270  20.518  24.716  1.00  0.00     0.135 C 
BRANCH   6   7
ATOM      7  C   UNL A   1      45.012  21.955  25.110  1.00  0.00    -0.039 A 
ATOM      8  C   UNL A   1      45.717  22.538  26.170  1.00  0.00     0.005 A 
ATOM      9  C   UNL A   1      44.101  22.738  24.390  1.00  0.00     0.005 A 
ATOM     10  C   UNL A   1      45.537  23.890  26.485  1.00  0.00     0.009 A 
ATOM     11  C   UNL A   1      43.940  24.092  24.688  1.00  0.00     0.009 A 
ATOM     12  C   UNL A   1      44.667  24.685  25.730  1.00  0.00    -0.018 A 
BRANCH  12  13
ATOM     13  C   UNL A   1      44.531  26.136  25.967  1.00  0.00    -0.011 A 
ATOM     14  C   UNL A   1      45.376  26.869  26.891  1.00  0.00     0.027 A 
ATOM     15  C   UNL A   1      43.517  26.783  25.363  1.00  0.00     0.080 A 
ATOM     16  C   UNL A   1      45.120  28.150  27.180  1.00  0.00     0.095 A 
ATOM     17  C   UNL A   1      43.238  28.215  25.652  1.00  0.00     0.255 A 
ATOM     18  N   UNL A   1      44.063  28.816  26.588  1.00  0.00    -0.258 N 
ATOM     19  O   UNL A   1      42.302  28.758  25.070  1.00  0.00    -0.269 OA
BRANCH  18  20
ATOM     20  C   UNL A   1      43.762  30.178  26.944  1.00  0.00     0.451 C 
ATOM     21  F   UNL A   1      42.671  30.249  27.744  1.00  0.00    -0.185 F 
ATOM     22  F   UNL A   1      44.802  30.748  27.599  1.00  0.00    -0.185 F 
ENDBRANCH  18  20
ENDBRANCH  12  13
ENDBRANCH   6   7
ENDBRANCH   4   6
ENDBRANCH   1   2
BRANCH   1  23
ATOM     23  C   UNL A   1      41.119  20.195  27.245  1.00  0.00     0.042 C 
BRANCH  23  24
ATOM     24  C   UNL A   1      41.041  21.581  26.605  1.00  0.00     0.118 C 
BRANCH  24  25
ATOM     25  N   UNL A   1      39.767  21.853  25.959  1.00  0.00    -0.352 N 
ATOM     26  C   UNL A   1      38.954  22.958  26.018  1.00  0.00     0.251 C 
ATOM     27  H   UNL A   1      39.433  21.127  25.385  1.00  0.00     0.163 HD
ATOM     28  O   UNL A   1      37.859  22.923  25.459  1.00  0.00    -0.269 OA
BRANCH  26  29
ATOM     29  C   UNL A   1      39.351  24.181  26.756  1.00  0.00     0.039 A 
ATOM     30  C   UNL A   1      38.907  24.331  28.075  1.00  0.00     0.014 A 
ATOM     31  C   UNL A   1      40.095  25.202  26.159  1.00  0.00     0.014 A 
ATOM     32  C   UNL A   1      39.244  25.475  28.806  1.00  0.00     0.010 A 
ATOM     33  C   UNL A   1      40.484  26.315  26.907  1.00  0.00     0.010 A 
ATOM     34  C   UNL A   1      40.056  26.468  28.235  1.00  0.00    -0.014 A 
BRANCH  34  35
ATOM     35  C   UNL A   1      40.444  27.676  29.008  1.00  0.00     0.031 A 
ATOM     36  C   UNL A   1      41.798  27.760  29.660  1.00  0.00     0.074 A 
ATOM     37  C   UNL A   1      39.565  28.686  29.165  1.00  0.00     0.049 A 
ATOM     38  N   UNL A   1      42.295  28.704  30.420  1.00  0.00    -0.248 NA
ATOM     39  C   UNL A   1      42.703  26.620  29.450  1.00  0.00     0.031 C 
ATOM     40  C   UNL A   1      38.208  28.719  28.618  1.00  0.00     0.029 A 
ATOM     41  N   UNL A   1      39.682  29.876  29.838  1.00  0.00    -0.354 N 
ATOM     42  C   UNL A   1      43.559  28.264  30.793  1.00  0.00     0.074 A 
ATOM     43  C   UNL A   1      43.737  26.952  30.209  1.00  0.00     0.031 C 
ATOM     44  C   UNL A   1      37.625  29.879  28.963  1.00  0.00     0.029 A 
ATOM     45  C   UNL A   1      38.554  30.658  29.776  1.00  0.00     0.049 A 
ATOM     46  H   UNL A   1      40.498  30.145  30.320  1.00  0.00     0.167 HD
ATOM     47  C   UNL A   1      44.495  28.903  31.534  1.00  0.00     0.037 A 
ATOM     48  C   UNL A   1      38.297  31.866  30.313  1.00  0.00     0.037 A 
ATOM     49  C   UNL A   1      44.337  30.223  32.086  1.00  0.00     0.049 A 
ATOM     50  C   UNL A   1      39.360  32.562  31.117  1.00  0.00     0.074 A 
ATOM     51  C   UNL A   1      45.252  30.972  32.806  1.00  0.00     0.029 A 
ATOM     52  N   UNL A   1      43.192  30.994  31.973  1.00  0.00    -0.354 N 
ATOM     53  N   UNL A   1      40.569  32.156  31.417  1.00  0.00    -0.248 NA
ATOM     54  C   UNL A   1      39.022  33.890  31.651  1.00  0.00     0.031 C 
ATOM     55  C   UNL A   1      44.649  32.186  33.154  1.00  0.00     0.029 A 
ATOM     56  C   UNL A   1      43.372  32.206  32.618  1.00  0.00     0.049 A 
ATOM     57  H   UNL A   1      42.370  30.721  31.503  1.00  0.00     0.167 HD
ATOM     58  C   UNL A   1      41.146  33.187  32.145  1.00  0.00     0.074 A 
ATOM     59  C   UNL A   1      40.159  34.241  32.237  1.00  0.00     0.031 C 
ATOM     60  C   UNL A   1      42.386  33.253  32.689  1.00  0.00     0.037 A 
BRANCH  47  61
ATOM     61  C   UNL A   1      45.784  28.179  31.789  1.00  0.00     0.057 A 
ATOM     62  C   UNL A   1      46.891  28.327  30.944  1.00  0.00     0.134 A 
ATOM     63  C   UNL A   1      45.930  27.348  32.907  1.00  0.00     0.134 A 
ATOM     64  F   UNL A   1      46.812  29.100  29.850  1.00  0.00    -0.206 F 
ATOM     65  C   UNL A   1      48.090  27.655  31.187  1.00  0.00     0.040 A 
ATOM     66  C   UNL A   1      47.131  26.689  33.174  1.00  0.00     0.040 A 
ATOM     67  F   UNL A   1      44.910  27.166  33.758  1.00  0.00    -0.206 F 
ATOM     68  C   UNL A   1      48.214  26.837  32.308  1.00  0.00     0.006 A 
ENDBRANCH  47  61
BRANCH  48  69
ATOM     69  C   UNL A   1      36.984  32.515  30.081  1.00  0.00     0.057 A 
ATOM     70  C   UNL A   1      36.813  33.445  29.050  1.00  0.00     0.134 A 
ATOM     71  C   UNL A   1      35.875  32.229  30.887  1.00  0.00     0.134 A 
ATOM     72  F   UNL A   1      37.845  33.772  28.259  1.00  0.00    -0.206 F 
ATOM     73  C   UNL A   1      35.590  34.083  28.836  1.00  0.00     0.040 A 
ATOM     74  C   UNL A   1      34.641  32.844  30.671  1.00  0.00     0.040 A 
ATOM     75  F   UNL A   1      35.975  31.343  31.888  1.00  0.00    -0.206 F 
ATOM     76  C   UNL A   1      34.498  33.779  29.647  1.00  0.00     0.006 A 
ENDBRANCH  48  69
BRANCH  60  77
ATOM     77  C   UNL A   1      42.758  34.522  33.395  1.00  0.00     0.057 A 
ATOM     78  C   UNL A   1      43.242  35.639  32.702  1.00  0.00     0.134 A 
ATOM     79  C   UNL A   1      42.599  34.638  34.782  1.00  0.00     0.134 A 
ATOM     80  F   UNL A   1      43.430  35.587  31.375  1.00  0.00    -0.206 F 
ATOM     81  C   UNL A   1      43.574  36.821  33.367  1.00  0.00     0.040 A 
ATOM     82  C   UNL A   1      42.907  35.821  35.455  1.00  0.00     0.040 A 
ATOM     83  F   UNL A   1      42.135  33.607  35.502  1.00  0.00    -0.206 F 
ATOM     84  C   UNL A   1      43.400  36.915  34.747  1.00  0.00     0.006 A 
ENDBRANCH  60  77
ENDBRANCH  34  35
ENDBRANCH  26  29
ENDBRANCH  24  25
ENDBRANCH  23  24
ENDBRANCH   1  23
TORSDOF 13
ENDMDL
MODEL 3
REMARK VINA RESULT:      -9.3      2.514      7.178
REMARK SMILES O=C(Cc1ccc(-c2ccn(C(F)F)c(=O)c2)cc1)NCCCNC(=O)c1ccc(-c2c3nc(c(-c4c(F)cccc4F)c4ccc([nH]4)c(-c4c(F)cccc4F)c4nc(c(-c5c(F)cccc5F)c5ccc2[nH]5)C=C4)C=C3)cc1
REMARK SMILES IDX 21 1 20 2 1 3 2 4 3 6 4 7 5 8 19 9 6 10 18 11 7 12 8 13 9 14
REMARK SMILES IDX 17 15 10 16 15 17 11 18 16 19 12 20 13 21 14 22 22 23 23 24
REMARK SMILES IDX 24 25 25 26 26 28 27 29 28 30 80 31 29 32 79 33 30 34 31 35
REMARK SMILES IDX 32 36 73 37 33 38 78 39 72 40 74 41 34 42 77 43 71 44 70 45
REMARK SMILES IDX 35 47 61 48 44 49 60 50 45 51 48 52 59 53 75 54 46 55 47 56
REMARK SMILES IDX 58 58 76 59 49 60 36 61 37 62 42 63 38 64 39 65 41 66 43 67
REMARK SMILES IDX 40 68 62 69 63 70 68 71 64 72 65 73 67 74 69 75 66 76 50 77
REMARK SMILES IDX 51 78 56 79 52 80 53 81 55 82 57 83 54 84
REMARK H PARENT 20 5 24 27 74 46 48 57
REMARK Flexibility Score: inf
ROOT
ATOM      1  C   UNL A   1      33.866  35.158  28.868  1.00  0.00     0.117 C 
ENDROOT
BRANCH   1   2
ATOM      2  N   UNL A   1      34.365  35.273  30.222  1.00  0.00    -0.356 N 
ATOM      3  O   UNL A   1      32.318  35.283  31.264  1.00  0.00    -0.275 OA
ATOM      4  C   UNL A   1      33.544  35.303  31.332  1.00  0.00     0.224 C 
ATOM      5  H   UNL A   1      35.338  35.332  30.359  1.00  0.00     0.163 HD
BRANCH   4   6
ATOM      6  C   UNL A   1      34.277  35.447  32.661  1.00  0.00     0.135 C 
BRANCH   6   7
ATOM      7  C   UNL A   1      35.259  34.332  32.938  1.00  0.00    -0.039 A 
ATOM      8  C   UNL A   1      34.930  33.004  32.641  1.00  0.00     0.005 A 
ATOM      9  C   UNL A   1      36.532  34.616  33.449  1.00  0.00     0.005 A 
ATOM     10  C   UNL A   1      35.867  31.981  32.823  1.00  0.00     0.009 A 
ATOM     11  C   UNL A   1      37.475  33.599  33.607  1.00  0.00     0.009 A 
ATOM     12  C   UNL A   1      37.157  32.273  33.283  1.00  0.00    -0.018 A 
BRANCH  12  13
ATOM     13  C   UNL A   1      38.202  31.236  33.387  1.00  0.00    -0.011 A 
ATOM     14  C   UNL A   1      39.583  31.535  33.716  1.00  0.00     0.027 A 
ATOM     15  C   UNL A   1      37.870  29.970  33.076  1.00  0.00     0.080 A 
ATOM     16  C   UNL A   1      40.520  30.582  33.655  1.00  0.00     0.095 A 
ATOM     17  C   UNL A   1      38.895  28.893  33.033  1.00  0.00     0.255 A 
ATOM     18  N   UNL A   1      40.195  29.284  33.307  1.00  0.00    -0.258 N 
ATOM     19  O   UNL A   1      38.536  27.754  32.745  1.00  0.00    -0.269 OA
BRANCH  18  20
ATOM     20  C   UNL A   1      41.217  28.276  33.192  1.00  0.00     0.451 C 
ATOM     21  F   UNL A   1      42.455  28.825  33.201  1.00  0.00    -0.185 F 
ATOM     22  F   UNL A   1      41.140  27.392  34.217  1.00  0.00    -0.185 F 
ENDBRANCH  18  20
ENDBRANCH  12  13
ENDBRANCH   6   7
ENDBRANCH   4   6
ENDBRANCH   1   2
BRANCH   1  23
ATOM     23  C   UNL A   1      34.556  34.046  28.080  1.00  0.00     0.042 C 
BRANCH  23  24
ATOM     24  C   UNL A   1      34.805  32.756  28.860  1.00  0.00     0.118 C 
BRANCH  24  25
ATOM     25  N   UNL A   1      34.108  31.602  28.313  1.00  0.00    -0.352 N 
ATOM     26  C   UNL A   1      34.570  30.349  27.994  1.00  0.00     0.251 C 
ATOM     27  H   UNL A   1      33.149  31.742  28.145  1.00  0.00     0.163 HD
ATOM     28  O   UNL A   1      33.809  29.556  27.443  1.00  0.00    -0.269 OA
BRANCH  26  29
ATOM     29  C   UNL A   1      35.966  29.937  28.276  1.00  0.00     0.039 A 
ATOM     30  C   UNL A   1      36.918  30.087  27.261  1.00  0.00     0.014 A 
ATOM     31  C   UNL A   1      36.339  29.353  29.489  1.00  0.00     0.014 A 
ATOM     32  C   UNL A   1      38.244  29.699  27.474  1.00  0.00     0.010 A 
ATOM     33  C   UNL A   1      37.675  29.021  29.725  1.00  0.00     0.010 A 
ATOM     34  C   UNL A   1      38.640  29.182  28.717  1.00  0.00    -0.014 A 
BRANCH  34  35
ATOM     35  C   UNL A   1      40.051  28.789  28.968  1.00  0.00     0.031 A 
ATOM     36  C   UNL A   1      41.001  29.749  29.633  1.00  0.00     0.074 A 
ATOM     37  C   UNL A   1      40.497  27.585  28.561  1.00  0.00     0.049 A 
ATOM     38  N   UNL A   1      42.279  29.609  29.884  1.00  0.00    -0.248 NA
ATOM     39  C   UNL A   1      40.446  31.046  30.048  1.00  0.00     0.031 C 
ATOM     40  C   UNL A   1      39.693  26.573  27.872  1.00  0.00     0.029 A 
ATOM     41  N   UNL A   1      41.739  27.011  28.661  1.00  0.00    -0.354 N 
ATOM     42  C   UNL A   1      42.684  30.804  30.466  1.00  0.00     0.074 A 
ATOM     43  C   UNL A   1      41.526  31.672  30.494  1.00  0.00     0.031 C 
ATOM     44  C   UNL A   1      40.458  25.497  27.628  1.00  0.00     0.029 A 
ATOM     45  C   UNL A   1      41.810  25.751  28.116  1.00  0.00     0.049 A 
ATOM     46  H   UNL A   1      42.508  27.459  29.083  1.00  0.00     0.167 HD
ATOM     47  C   UNL A   1      43.902  31.140  30.953  1.00  0.00     0.037 A 
ATOM     48  C   UNL A   1      42.847  24.897  28.021  1.00  0.00     0.037 A 
ATOM     49  C   UNL A   1      45.047  30.268  30.961  1.00  0.00     0.049 A 
ATOM     50  C   UNL A   1      44.184  25.288  28.585  1.00  0.00     0.074 A 
ATOM     51  C   UNL A   1      46.308  30.504  31.481  1.00  0.00     0.029 A 
ATOM     52  N   UNL A   1      45.068  28.989  30.429  1.00  0.00    -0.354 N 
ATOM     53  N   UNL A   1      44.538  26.401  29.179  1.00  0.00    -0.248 NA
ATOM     54  C   UNL A   1      45.266  24.298  28.472  1.00  0.00     0.031 C 
ATOM     55  C   UNL A   1      47.102  29.377  31.238  1.00  0.00     0.029 A 
ATOM     56  C   UNL A   1      46.323  28.427  30.599  1.00  0.00     0.049 A 
ATOM     57  H   UNL A   1      44.305  28.545  29.993  1.00  0.00     0.167 HD
ATOM     58  C   UNL A   1      45.869  26.234  29.538  1.00  0.00     0.074 A 
ATOM     59  C   UNL A   1      46.259  24.911  29.101  1.00  0.00     0.031 C 
ATOM     60  C   UNL A   1      46.694  27.102  30.173  1.00  0.00     0.037 A 
BRANCH  47  61
ATOM     61  C   UNL A   1      44.058  32.518  31.526  1.00  0.00     0.057 A 
ATOM     62  C   UNL A   1      44.387  33.617  30.722  1.00  0.00     0.134 A 
ATOM     63  C   UNL A   1      43.848  32.754  32.890  1.00  0.00     0.134 A 
ATOM     64  F   UNL A   1      44.613  33.455  29.409  1.00  0.00    -0.206 F 
ATOM     65  C   UNL A   1      44.528  34.898  31.258  1.00  0.00     0.040 A 
ATOM     66  C   UNL A   1      43.962  34.035  33.434  1.00  0.00     0.040 A 
ATOM     67  F   UNL A   1      43.525  31.748  33.714  1.00  0.00    -0.206 F 
ATOM     68  C   UNL A   1      44.309  35.111  32.617  1.00  0.00     0.006 A 
ENDBRANCH  47  61
BRANCH  48  69
ATOM     69  C   UNL A   1      42.657  23.569  27.390  1.00  0.00     0.057 A 
ATOM     70  C   UNL A   1      42.865  23.388  26.018  1.00  0.00     0.134 A 
ATOM     71  C   UNL A   1      42.255  22.455  28.137  1.00  0.00     0.134 A 
ATOM     72  F   UNL A   1      43.233  24.424  25.250  1.00  0.00    -0.206 F 
ATOM     73  C   UNL A   1      42.665  22.150  25.405  1.00  0.00     0.040 A 
ATOM     74  C   UNL A   1      42.071  21.207  27.541  1.00  0.00     0.040 A 
ATOM     75  F   UNL A   1      42.044  22.565  29.456  1.00  0.00    -0.206 F 
ATOM     76  C   UNL A   1      42.270  21.053  26.170  1.00  0.00     0.006 A 
ENDBRANCH  48  69
BRANCH  60  77
ATOM     77  C   UNL A   1      48.086  26.633  30.471  1.00  0.00     0.057 A 
ATOM     78  C   UNL A   1      48.392  25.922  31.638  1.00  0.00     0.134 A 
ATOM     79  C   UNL A   1      49.125  26.867  29.562  1.00  0.00     0.134 A 
ATOM     80  F   UNL A   1      47.443  25.677  32.554  1.00  0.00    -0.206 F 
ATOM     81  C   UNL A   1      49.689  25.477  31.900  1.00  0.00     0.040 A 
ATOM     82  C   UNL A   1      50.421  26.409  29.803  1.00  0.00     0.040 A 
ATOM     83  F   UNL A   1      48.897  27.537  28.424  1.00  0.00    -0.206 F 
ATOM     84  C   UNL A   1      50.707  25.716  30.977  1.00  0.00     0.006 A 
ENDBRANCH  60  77
ENDBRANCH  34  35
ENDBRANCH  26  29
ENDBRANCH  24  25
ENDBRANCH  23  24
ENDBRANCH   1  23
TORSDOF 13
ENDMDL
