MODEL 1
REMARK VINA RESULT:     -11.4      0.000      0.000
REMARK SMILES O=C(NCCCNC(=O)[C@H]1C[NH2+]CCN1c1ncc(C(F)(F)F)cc1Cl)c1ccc(-c2c3nc(c(-c4c(F)cccc4F)c4ccc([nH]4)c(-c4c(F)cccc4F)c4nc(c(-c5c(F)cccc5F)c5ccc2[nH]5)C=C4)C=C3)cc1
REMARK SMILES IDX 5 1 4 2 3 3 1 4 2 5 27 7 28 8 80 9 29 10 79 11 30 12 31 13
REMARK SMILES IDX 32 14 73 15 33 16 78 17 72 18 74 19 34 20 77 21 71 22 70 23
REMARK SMILES IDX 35 25 61 26 44 27 60 28 45 29 48 30 59 31 75 32 46 33 47 34
REMARK SMILES IDX 58 36 76 37 49 38 36 39 37 40 42 41 38 42 39 43 41 44 43 45
REMARK SMILES IDX 40 46 62 47 63 48 68 49 64 50 65 51 67 52 69 53 66 54 50 55
REMARK SMILES IDX 51 56 56 57 52 58 53 59 55 60 57 61 54 62 6 63 7 64 8 65
REMARK SMILES IDX 9 67 10 68 11 69 15 70 12 71 14 72 13 73 16 76 17 77 25 78
REMARK SMILES IDX 18 79 24 80 26 81 19 82 20 83 21 84 22 85 23 86
REMARK H PARENT 3 6 74 24 48 35 7 66 12 74 12 75
REMARK Flexibility Score: inf
ROOT
ATOM      1  C   UNL A   1      32.967  28.899  23.455  1.00  0.00     0.042 C 
ENDROOT
BRANCH   1   2
ATOM      2  C   UNL A   1      33.159  28.953  24.965  1.00  0.00     0.118 C 
BRANCH   2   3
ATOM      3  N   UNL A   1      32.586  30.142  25.580  1.00  0.00    -0.352 N 
ATOM      4  O   UNL A   1      32.259  31.771  27.090  1.00  0.00    -0.269 OA
ATOM      5  C   UNL A   1      32.995  30.883  26.661  1.00  0.00     0.251 C 
ATOM      6  H   UNL A   1      31.767  30.470  25.144  1.00  0.00     0.163 HD
BRANCH   5   7
ATOM      7  C   UNL A   1      34.284  30.616  27.340  1.00  0.00     0.039 A 
ATOM      8  C   UNL A   1      34.676  29.322  27.685  1.00  0.00     0.014 A 
ATOM      9  C   UNL A   1      35.147  31.687  27.601  1.00  0.00     0.014 A 
ATOM     10  C   UNL A   1      35.826  29.121  28.443  1.00  0.00     0.010 A 
ATOM     11  C   UNL A   1      36.356  31.471  28.271  1.00  0.00     0.010 A 
ATOM     12  C   UNL A   1      36.686  30.192  28.739  1.00  0.00    -0.014 A 
BRANCH  12  13
ATOM     13  C   UNL A   1      37.934  29.931  29.507  1.00  0.00     0.031 A 
ATOM     14  C   UNL A   1      38.124  30.477  30.896  1.00  0.00     0.074 A 
ATOM     15  C   UNL A   1      38.888  29.153  28.957  1.00  0.00     0.049 A 
ATOM     16  N   UNL A   1      39.122  30.292  31.725  1.00  0.00    -0.248 NA
ATOM     17  C   UNL A   1      37.066  31.352  31.422  1.00  0.00     0.031 C 
ATOM     18  C   UNL A   1      38.833  28.578  27.610  1.00  0.00     0.029 A 
ATOM     19  N   UNL A   1      40.072  28.686  29.468  1.00  0.00    -0.354 N 
ATOM     20  C   UNL A   1      38.825  31.044  32.856  1.00  0.00     0.074 A 
ATOM     21  C   UNL A   1      37.565  31.708  32.599  1.00  0.00     0.031 C 
ATOM     22  C   UNL A   1      39.900  27.787  27.426  1.00  0.00     0.029 A 
ATOM     23  C   UNL A   1      40.742  27.843  28.615  1.00  0.00     0.049 A 
ATOM     24  H   UNL A   1      40.410  28.933  30.360  1.00  0.00     0.167 HD
ATOM     25  C   UNL A   1      39.533  31.163  34.006  1.00  0.00     0.037 A 
ATOM     26  C   UNL A   1      41.906  27.186  28.770  1.00  0.00     0.037 A 
ATOM     27  C   UNL A   1      40.773  30.480  34.272  1.00  0.00     0.049 A 
ATOM     28  C   UNL A   1      42.669  27.337  30.053  1.00  0.00     0.074 A 
ATOM     29  C   UNL A   1      41.537  30.498  35.428  1.00  0.00     0.029 A 
ATOM     30  N   UNL A   1      41.435  29.659  33.371  1.00  0.00    -0.354 N 
ATOM     31  N   UNL A   1      42.351  28.016  31.128  1.00  0.00    -0.248 NA
ATOM     32  C   UNL A   1      43.955  26.632  30.143  1.00  0.00     0.031 C 
ATOM     33  C   UNL A   1      42.680  29.722  35.210  1.00  0.00     0.029 A 
ATOM     34  C   UNL A   1      42.607  29.183  33.936  1.00  0.00     0.049 A 
ATOM     35  H   UNL A   1      41.117  29.446  32.464  1.00  0.00     0.167 HD
ATOM     36  C   UNL A   1      43.385  27.804  32.029  1.00  0.00     0.074 A 
ATOM     37  C   UNL A   1      44.332  26.920  31.380  1.00  0.00     0.031 C 
ATOM     38  C   UNL A   1      43.538  28.301  33.280  1.00  0.00     0.037 A 
BRANCH  25  39
ATOM     39  C   UNL A   1      38.992  32.082  35.062  1.00  0.00     0.057 A 
ATOM     40  C   UNL A   1      38.256  31.608  36.156  1.00  0.00     0.134 A 
ATOM     41  C   UNL A   1      39.247  33.459  35.005  1.00  0.00     0.134 A 
ATOM     42  F   UNL A   1      37.966  30.303  36.265  1.00  0.00    -0.206 F 
ATOM     43  C   UNL A   1      37.775  32.472  37.142  1.00  0.00     0.040 A 
ATOM     44  C   UNL A   1      38.792  34.329  35.998  1.00  0.00     0.040 A 
ATOM     45  F   UNL A   1      39.952  33.980  33.989  1.00  0.00    -0.206 F 
ATOM     46  C   UNL A   1      38.049  33.837  37.068  1.00  0.00     0.006 A 
ENDBRANCH  25  39
BRANCH  26  47
ATOM     47  C   UNL A   1      42.412  26.312  27.682  1.00  0.00     0.057 A 
ATOM     48  C   UNL A   1      42.101  24.948  27.649  1.00  0.00     0.134 A 
ATOM     49  C   UNL A   1      43.208  26.820  26.649  1.00  0.00     0.134 A 
ATOM     50  F   UNL A   1      41.357  24.402  28.621  1.00  0.00    -0.206 F 
ATOM     51  C   UNL A   1      42.575  24.116  26.634  1.00  0.00     0.040 A 
ATOM     52  C   UNL A   1      43.666  26.005  25.613  1.00  0.00     0.040 A 
ATOM     53  F   UNL A   1      43.535  28.121  26.621  1.00  0.00    -0.206 F 
ATOM     54  C   UNL A   1      43.355  24.647  25.608  1.00  0.00     0.006 A 
ENDBRANCH  26  47
BRANCH  38  55
ATOM     55  C   UNL A   1      44.758  27.870  34.038  1.00  0.00     0.057 A 
ATOM     56  C   UNL A   1      44.768  26.712  34.827  1.00  0.00     0.134 A 
ATOM     57  C   UNL A   1      45.942  28.615  33.967  1.00  0.00     0.134 A 
ATOM     58  F   UNL A   1      43.661  25.964  34.949  1.00  0.00    -0.206 F 
ATOM     59  C   UNL A   1      45.903  26.326  35.541  1.00  0.00     0.040 A 
ATOM     60  C   UNL A   1      47.091  28.226  34.655  1.00  0.00     0.040 A 
ATOM     61  F   UNL A   1      46.001  29.729  33.224  1.00  0.00    -0.206 F 
ATOM     62  C   UNL A   1      47.072  27.082  35.452  1.00  0.00     0.006 A 
ENDBRANCH  38  55
ENDBRANCH  12  13
ENDBRANCH   5   7
ENDBRANCH   2   3
ENDBRANCH   1   2
BRANCH   1  63
ATOM     63  C   UNL A   1      34.072  28.172  22.697  1.00  0.00     0.117 C 
BRANCH  63  64
ATOM     64  N   UNL A   1      33.528  27.230  21.739  1.00  0.00    -0.354 N 
ATOM     65  C   UNL A   1      33.119  25.940  21.917  1.00  0.00     0.248 C 
ATOM     66  H   UNL A   1      33.438  27.573  20.820  1.00  0.00     0.163 HD
ATOM     67  O   UNL A   1      32.860  25.301  20.893  1.00  0.00    -0.272 OA
BRANCH  65  68
ATOM     68  C   UNL A   1      32.974  25.336  23.342  1.00  0.00     0.228 C 
ATOM     69  C   UNL A   1      31.473  25.001  23.599  1.00  0.00     0.296 C 
ATOM     70  N   UNL A   1      33.764  24.096  23.491  1.00  0.00    -0.333 N 
ATOM     71  N   UNL A   1      30.937  23.863  22.807  1.00  0.00    -0.343 N 
ATOM     72  C   UNL A   1      33.314  22.950  22.696  1.00  0.00     0.180 C 
ATOM     73  C   UNL A   1      31.812  22.685  22.977  1.00  0.00     0.282 C 
ATOM     74  H   UNL A   1      30.902  24.121  21.822  1.00  0.00     0.346 HD
ATOM     75  H   UNL A   1      29.997  23.636  23.134  1.00  0.00     0.346 HD
BRANCH  70  76
ATOM     76  C   UNL A   1      34.851  23.946  24.314  1.00  0.00     0.148 A 
ATOM     77  N   UNL A   1      36.036  23.738  23.684  1.00  0.00    -0.237 NA
ATOM     78  C   UNL A   1      34.818  24.010  25.717  1.00  0.00     0.084 A 
ATOM     79  C   UNL A   1      37.180  23.676  24.406  1.00  0.00     0.126 A 
ATOM     80  C   UNL A   1      36.011  23.930  26.446  1.00  0.00     0.039 A 
ATOM     81  Cl  UNL A   1      33.361  24.092  26.643  1.00  0.00    -0.080 Cl
ATOM     82  C   UNL A   1      37.228  23.779  25.782  1.00  0.00     0.075 A 
BRANCH  82  83
ATOM     83  C   UNL A   1      38.543  23.753  26.493  1.00  0.00     0.417 C 
ATOM     84  F   UNL A   1      39.114  22.519  26.503  1.00  0.00    -0.166 F 
ATOM     85  F   UNL A   1      39.453  24.583  25.914  1.00  0.00    -0.166 F 
ATOM     86  F   UNL A   1      38.461  24.140  27.796  1.00  0.00    -0.166 F 
ENDBRANCH  82  83
ENDBRANCH  70  76
ENDBRANCH  65  68
ENDBRANCH  63  64
ENDBRANCH   1  63
TORSDOF 12
ENDMDL
MODEL 2
REMARK VINA RESULT:     -11.4      4.383      8.199
REMARK SMILES O=C(NCCCNC(=O)[C@H]1C[NH2+]CCN1c1ncc(C(F)(F)F)cc1Cl)c1ccc(-c2c3nc(c(-c4c(F)cccc4F)c4ccc([nH]4)c(-c4c(F)cccc4F)c4nc(c(-c5c(F)cccc5F)c5ccc2[nH]5)C=C4)C=C3)cc1
REMARK SMILES IDX 5 1 4 2 3 3 1 4 2 5 27 7 28 8 80 9 29 10 79 11 30 12 31 13
REMARK SMILES IDX 32 14 73 15 33 16 78 17 72 18 74 19 34 20 77 21 71 22 70 23
REMARK SMILES IDX 35 25 61 26 44 27 60 28 45 29 48 30 59 31 75 32 46 33 47 34
REMARK SMILES IDX 58 36 76 37 49 38 36 39 37 40 42 41 38 42 39 43 41 44 43 45
REMARK SMILES IDX 40 46 62 47 63 48 68 49 64 50 65 51 67 52 69 53 66 54 50 55
REMARK SMILES IDX 51 56 56 57 52 58 53 59 55 60 57 61 54 62 6 63 7 64 8 65
REMARK SMILES IDX 9 67 10 68 11 69 15 70 12 71 14 72 13 73 16 76 17 77 25 78
REMARK SMILES IDX 18 79 24 80 26 81 19 82 20 83 21 84 22 85 23 86
REMARK H PARENT 3 6 74 24 48 35 7 66 12 74 12 75
REMARK Flexibility Score: inf
ROOT
ATOM      1  C   UNL A   1      36.676  23.315  23.587  1.00  0.00     0.042 C 
ENDROOT
BRANCH   1   2
ATOM      2  C   UNL A   1      36.994  23.471  25.068  1.00  0.00     0.118 C 
BRANCH   2   3
ATOM      3  N   UNL A   1      37.986  22.521  25.550  1.00  0.00    -0.352 N 
ATOM      4  O   UNL A   1      39.916  21.760  26.410  1.00  0.00    -0.269 OA
ATOM      5  C   UNL A   1      39.159  22.714  26.239  1.00  0.00     0.251 C 
ATOM      6  H   UNL A   1      37.781  21.580  25.349  1.00  0.00     0.163 HD
BRANCH   5   7
ATOM      7  C   UNL A   1      39.545  24.050  26.750  1.00  0.00     0.039 A 
ATOM      8  C   UNL A   1      40.117  25.015  25.920  1.00  0.00     0.014 A 
ATOM      9  C   UNL A   1      39.289  24.362  28.090  1.00  0.00     0.014 A 
ATOM     10  C   UNL A   1      40.593  26.206  26.461  1.00  0.00     0.010 A 
ATOM     11  C   UNL A   1      39.673  25.603  28.611  1.00  0.00     0.010 A 
ATOM     12  C   UNL A   1      40.370  26.520  27.812  1.00  0.00    -0.014 A 
BRANCH  12  13
ATOM     13  C   UNL A   1      40.848  27.825  28.343  1.00  0.00     0.031 A 
ATOM     14  C   UNL A   1      42.306  28.195  28.311  1.00  0.00     0.074 A 
ATOM     15  C   UNL A   1      39.944  28.705  28.820  1.00  0.00     0.049 A 
ATOM     16  N   UNL A   1      42.881  29.315  28.675  1.00  0.00    -0.248 NA
ATOM     17  C   UNL A   1      43.244  27.175  27.817  1.00  0.00     0.031 C 
ATOM     18  C   UNL A   1      38.504  28.460  28.924  1.00  0.00     0.029 A 
ATOM     19  N   UNL A   1      40.096  29.989  29.277  1.00  0.00    -0.354 N 
ATOM     20  C   UNL A   1      44.244  29.127  28.478  1.00  0.00     0.074 A 
ATOM     21  C   UNL A   1      44.415  27.777  27.986  1.00  0.00     0.031 C 
ATOM     22  C   UNL A   1      37.898  29.577  29.352  1.00  0.00     0.029 A 
ATOM     23  C   UNL A   1      38.908  30.596  29.608  1.00  0.00     0.049 A 
ATOM     24  H   UNL A   1      40.971  30.432  29.362  1.00  0.00     0.167 HD
ATOM     25  C   UNL A   1      45.259  30.002  28.682  1.00  0.00     0.037 A 
ATOM     26  C   UNL A   1      38.658  31.835  30.068  1.00  0.00     0.037 A 
ATOM     27  C   UNL A   1      45.087  31.355  29.146  1.00  0.00     0.049 A 
ATOM     28  C   UNL A   1      39.801  32.783  30.284  1.00  0.00     0.074 A 
ATOM     29  C   UNL A   1      46.050  32.332  29.333  1.00  0.00     0.029 A 
ATOM     30  N   UNL A   1      43.871  31.922  29.499  1.00  0.00    -0.354 N 
ATOM     31  N   UNL A   1      41.078  32.604  30.051  1.00  0.00    -0.248 NA
ATOM     32  C   UNL A   1      39.467  34.105  30.833  1.00  0.00     0.031 C 
ATOM     33  C   UNL A   1      45.422  33.476  29.839  1.00  0.00     0.029 A 
ATOM     34  C   UNL A   1      44.062  33.227  29.924  1.00  0.00     0.049 A 
ATOM     35  H   UNL A   1      43.001  31.464  29.454  1.00  0.00     0.167 HD
ATOM     36  C   UNL A   1      41.698  33.795  30.403  1.00  0.00     0.074 A 
ATOM     37  C   UNL A   1      40.654  34.695  30.850  1.00  0.00     0.031 C 
ATOM     38  C   UNL A   1      43.014  34.112  30.363  1.00  0.00     0.037 A 
BRANCH  25  39
ATOM     39  C   UNL A   1      46.656  29.518  28.420  1.00  0.00     0.057 A 
ATOM     40  C   UNL A   1      47.431  28.908  29.415  1.00  0.00     0.134 A 
ATOM     41  C   UNL A   1      47.218  29.628  27.141  1.00  0.00     0.134 A 
ATOM     42  F   UNL A   1      46.958  28.783  30.664  1.00  0.00    -0.206 F 
ATOM     43  C   UNL A   1      48.722  28.445  29.152  1.00  0.00     0.040 A 
ATOM     44  C   UNL A   1      48.498  29.146  26.861  1.00  0.00     0.040 A 
ATOM     45  F   UNL A   1      46.528  30.194  26.139  1.00  0.00    -0.206 F 
ATOM     46  C   UNL A   1      49.257  28.557  27.870  1.00  0.00     0.006 A 
ENDBRANCH  25  39
BRANCH  26  47
ATOM     47  C   UNL A   1      37.260  32.254  30.339  1.00  0.00     0.057 A 
ATOM     48  C   UNL A   1      36.650  31.978  31.569  1.00  0.00     0.134 A 
ATOM     49  C   UNL A   1      36.506  32.945  29.384  1.00  0.00     0.134 A 
ATOM     50  F   UNL A   1      37.317  31.304  32.516  1.00  0.00    -0.206 F 
ATOM     51  C   UNL A   1      35.336  32.362  31.833  1.00  0.00     0.040 A 
ATOM     52  C   UNL A   1      35.199  33.359  29.644  1.00  0.00     0.040 A 
ATOM     53  F   UNL A   1      37.037  33.244  28.189  1.00  0.00    -0.206 F 
ATOM     54  C   UNL A   1      34.609  33.061  30.871  1.00  0.00     0.006 A 
ENDBRANCH  26  47
BRANCH  38  55
ATOM     55  C   UNL A   1      43.391  35.502  30.782  1.00  0.00     0.057 A 
ATOM     56  C   UNL A   1      43.490  36.552  29.859  1.00  0.00     0.134 A 
ATOM     57  C   UNL A   1      43.645  35.797  32.127  1.00  0.00     0.134 A 
ATOM     58  F   UNL A   1      43.274  36.331  28.553  1.00  0.00    -0.206 F 
ATOM     59  C   UNL A   1      43.855  37.838  30.255  1.00  0.00     0.040 A 
ATOM     60  C   UNL A   1      43.986  37.085  32.540  1.00  0.00     0.040 A 
ATOM     61  F   UNL A   1      43.561  34.839  33.061  1.00  0.00    -0.206 F 
ATOM     62  C   UNL A   1      44.100  38.109  31.601  1.00  0.00     0.006 A 
ENDBRANCH  38  55
ENDBRANCH  12  13
ENDBRANCH   5   7
ENDBRANCH   2   3
ENDBRANCH   1   2
BRANCH   1  63
ATOM     63  C   UNL A   1      35.207  23.055  23.273  1.00  0.00     0.117 C 
BRANCH  63  64
ATOM     64  N   UNL A   1      34.373  24.171  23.673  1.00  0.00    -0.354 N 
ATOM     65  C   UNL A   1      33.429  24.249  24.657  1.00  0.00     0.248 C 
ATOM     66  H   UNL A   1      34.507  24.999  23.158  1.00  0.00     0.163 HD
ATOM     67  O   UNL A   1      32.735  25.270  24.670  1.00  0.00    -0.272 OA
BRANCH  65  68
ATOM     68  C   UNL A   1      33.269  23.112  25.704  1.00  0.00     0.228 C 
ATOM     69  C   UNL A   1      32.771  23.728  27.047  1.00  0.00     0.296 C 
ATOM     70  N   UNL A   1      32.290  22.097  25.261  1.00  0.00    -0.333 N 
ATOM     71  N   UNL A   1      31.371  24.229  27.030  1.00  0.00    -0.343 N 
ATOM     72  C   UNL A   1      30.897  22.545  25.175  1.00  0.00     0.180 C 
ATOM     73  C   UNL A   1      30.471  23.168  26.530  1.00  0.00     0.282 C 
ATOM     74  H   UNL A   1      31.309  25.042  26.419  1.00  0.00     0.346 HD
ATOM     75  H   UNL A   1      31.094  24.490  27.976  1.00  0.00     0.346 HD
BRANCH  70  76
ATOM     76  C   UNL A   1      32.588  20.796  24.949  1.00  0.00     0.148 A 
ATOM     77  N   UNL A   1      33.055  20.041  25.977  1.00  0.00    -0.237 NA
ATOM     78  C   UNL A   1      32.429  20.211  23.681  1.00  0.00     0.084 A 
ATOM     79  C   UNL A   1      33.285  18.719  25.791  1.00  0.00     0.126 A 
ATOM     80  C   UNL A   1      32.685  18.845  23.507  1.00  0.00     0.039 A 
ATOM     81  Cl  UNL A   1      32.016  21.098  22.256  1.00  0.00    -0.080 Cl
ATOM     82  C   UNL A   1      33.104  18.069  24.587  1.00  0.00     0.075 A 
BRANCH  82  83
ATOM     83  C   UNL A   1      33.332  16.594  24.487  1.00  0.00     0.417 C 
ATOM     84  F   UNL A   1      32.216  15.867  24.756  1.00  0.00    -0.166 F 
ATOM     85  F   UNL A   1      33.732  16.222  23.241  1.00  0.00    -0.166 F 
ATOM     86  F   UNL A   1      34.292  16.138  25.339  1.00  0.00    -0.166 F 
ENDBRANCH  82  83
ENDBRANCH  70  76
ENDBRANCH  65  68
ENDBRANCH  63  64
ENDBRANCH   1  63
TORSDOF 12
ENDMDL
MODEL 3
REMARK VINA RESULT:     -11.3      4.237      7.327
REMARK SMILES O=C(NCCCNC(=O)[C@H]1C[NH2+]CCN1c1ncc(C(F)(F)F)cc1Cl)c1ccc(-c2c3nc(c(-c4c(F)cccc4F)c4ccc([nH]4)c(-c4c(F)cccc4F)c4nc(c(-c5c(F)cccc5F)c5ccc2[nH]5)C=C4)C=C3)cc1
REMARK SMILES IDX 5 1 4 2 3 3 1 4 2 5 27 7 28 8 80 9 29 10 79 11 30 12 31 13
REMARK SMILES IDX 32 14 73 15 33 16 78 17 72 18 74 19 34 20 77 21 71 22 70 23
REMARK SMILES IDX 35 25 61 26 44 27 60 28 45 29 48 30 59 31 75 32 46 33 47 34
REMARK SMILES IDX 58 36 76 37 49 38 36 39 37 40 42 41 38 42 39 43 41 44 43 45
REMARK SMILES IDX 40 46 62 47 63 48 68 49 64 50 65 51 67 52 69 53 66 54 50 55
REMARK SMILES IDX 51 56 56 57 52 58 53 59 55 60 57 61 54 62 6 63 7 64 8 65
REMARK SMILES IDX 9 67 10 68 11 69 15 70 12 71 14 72 13 73 16 76 17 77 25 78
REMARK SMILES IDX 18 79 24 80 26 81 19 82 20 83 21 84 22 85 23 86
REMARK H PARENT 3 6 74 24 48 35 7 66 12 74 12 75
REMARK Flexibility Score: inf
ROOT
ATOM      1  C   UNL A   1      34.332  34.555  28.133  1.00  0.00     0.042 C 
ENDROOT
BRANCH   1   2
ATOM      2  C   UNL A   1      35.070  33.222  28.119  1.00  0.00     0.118 C 
BRANCH   2   3
ATOM      3  N   UNL A   1      34.223  32.096  27.753  1.00  0.00    -0.352 N 
ATOM      4  O   UNL A   1      33.647  29.993  27.214  1.00  0.00    -0.269 OA
ATOM      5  C   UNL A   1      34.487  30.749  27.700  1.00  0.00     0.251 C 
ATOM      6  H   UNL A   1      33.303  32.342  27.503  1.00  0.00     0.163 HD
BRANCH   5   7
ATOM      7  C   UNL A   1      35.772  30.194  28.184  1.00  0.00     0.039 A 
ATOM      8  C   UNL A   1      35.894  29.628  29.454  1.00  0.00     0.014 A 
ATOM      9  C   UNL A   1      36.879  30.201  27.327  1.00  0.00     0.014 A 
ATOM     10  C   UNL A   1      37.145  29.243  29.928  1.00  0.00     0.010 A 
ATOM     11  C   UNL A   1      38.115  29.715  27.767  1.00  0.00     0.010 A 
ATOM     12  C   UNL A   1      38.271  29.273  29.088  1.00  0.00    -0.014 A 
BRANCH  12  13
ATOM     13  C   UNL A   1      39.582  28.805  29.613  1.00  0.00     0.031 A 
ATOM     14  C   UNL A   1      40.183  29.399  30.858  1.00  0.00     0.074 A 
ATOM     15  C   UNL A   1      40.216  27.797  28.980  1.00  0.00     0.049 A 
ATOM     16  N   UNL A   1      41.284  29.064  31.484  1.00  0.00    -0.248 NA
ATOM     17  C   UNL A   1      39.463  30.522  31.478  1.00  0.00     0.031 C 
ATOM     18  C   UNL A   1      39.749  27.148  27.752  1.00  0.00     0.029 A 
ATOM     19  N   UNL A   1      41.368  27.122  29.293  1.00  0.00    -0.354 N 
ATOM     20  C   UNL A   1      41.402  29.946  32.551  1.00  0.00     0.074 A 
ATOM     21  C   UNL A   1      40.274  30.848  32.477  1.00  0.00     0.031 C 
ATOM     22  C   UNL A   1      40.569  26.130  27.453  1.00  0.00     0.029 A 
ATOM     23  C   UNL A   1      41.650  26.090  28.431  1.00  0.00     0.049 A 
ATOM     24  H   UNL A   1      41.939  27.356  30.061  1.00  0.00     0.167 HD
ATOM     25  C   UNL A   1      42.359  29.993  33.511  1.00  0.00     0.037 A 
ATOM     26  C   UNL A   1      42.666  25.208  28.425  1.00  0.00     0.037 A 
ATOM     27  C   UNL A   1      43.468  29.078  33.601  1.00  0.00     0.049 A 
ATOM     28  C   UNL A   1      43.711  25.285  29.499  1.00  0.00     0.074 A 
ATOM     29  C   UNL A   1      44.458  29.015  34.567  1.00  0.00     0.029 A 
ATOM     30  N   UNL A   1      43.735  28.066  32.692  1.00  0.00    -0.354 N 
ATOM     31  N   UNL A   1      43.782  26.096  30.526  1.00  0.00    -0.248 NA
ATOM     32  C   UNL A   1      44.820  24.324  29.411  1.00  0.00     0.031 C 
ATOM     33  C   UNL A   1      45.347  27.993  34.217  1.00  0.00     0.029 A 
ATOM     34  C   UNL A   1      44.886  27.389  33.060  1.00  0.00     0.049 A 
ATOM     35  H   UNL A   1      43.186  27.859  31.900  1.00  0.00     0.167 HD
ATOM     36  C   UNL A   1      44.929  25.732  31.217  1.00  0.00     0.074 A 
ATOM     37  C   UNL A   1      45.513  24.615  30.502  1.00  0.00     0.031 C 
ATOM     38  C   UNL A   1      45.454  26.277  32.341  1.00  0.00     0.037 A 
BRANCH  25  39
ATOM     39  C   UNL A   1      42.260  31.086  34.535  1.00  0.00     0.057 A 
ATOM     40  C   UNL A   1      42.737  32.381  34.291  1.00  0.00     0.134 A 
ATOM     41  C   UNL A   1      41.642  30.849  35.771  1.00  0.00     0.134 A 
ATOM     42  F   UNL A   1      43.350  32.672  33.134  1.00  0.00    -0.206 F 
ATOM     43  C   UNL A   1      42.621  33.394  35.246  1.00  0.00     0.040 A 
ATOM     44  C   UNL A   1      41.499  31.860  36.723  1.00  0.00     0.040 A 
ATOM     45  F   UNL A   1      41.156  29.634  36.067  1.00  0.00    -0.206 F 
ATOM     46  C   UNL A   1      41.994  33.136  36.464  1.00  0.00     0.006 A 
ENDBRANCH  25  39
BRANCH  26  47
ATOM     47  C   UNL A   1      42.732  24.165  27.371  1.00  0.00     0.057 A 
ATOM     48  C   UNL A   1      42.194  22.890  27.583  1.00  0.00     0.134 A 
ATOM     49  C   UNL A   1      43.325  24.418  26.129  1.00  0.00     0.134 A 
ATOM     50  F   UNL A   1      41.629  22.583  28.760  1.00  0.00    -0.206 F 
ATOM     51  C   UNL A   1      42.255  21.900  26.602  1.00  0.00     0.040 A 
ATOM     52  C   UNL A   1      43.370  23.447  25.129  1.00  0.00     0.040 A 
ATOM     53  F   UNL A   1      43.852  25.623  25.864  1.00  0.00    -0.206 F 
ATOM     54  C   UNL A   1      42.839  22.181  25.368  1.00  0.00     0.006 A 
ENDBRANCH  26  47
BRANCH  38  55
ATOM     55  C   UNL A   1      46.702  25.647  32.882  1.00  0.00     0.057 A 
ATOM     56  C   UNL A   1      47.975  26.033  32.443  1.00  0.00     0.134 A 
ATOM     57  C   UNL A   1      46.630  24.651  33.864  1.00  0.00     0.134 A 
ATOM     58  F   UNL A   1      48.111  26.971  31.492  1.00  0.00    -0.206 F 
ATOM     59  C   UNL A   1      49.131  25.431  32.941  1.00  0.00     0.040 A 
ATOM     60  C   UNL A   1      47.780  24.060  34.389  1.00  0.00     0.040 A 
ATOM     61  F   UNL A   1      45.443  24.241  34.333  1.00  0.00    -0.206 F 
ATOM     62  C   UNL A   1      49.036  24.444  33.921  1.00  0.00     0.006 A 
ENDBRANCH  38  55
ENDBRANCH  12  13
ENDBRANCH   5   7
ENDBRANCH   2   3
ENDBRANCH   1   2
BRANCH   1  63
ATOM     63  C   UNL A   1      34.121  35.153  29.519  1.00  0.00     0.117 C 
BRANCH  63  64
ATOM     64  N   UNL A   1      33.780  34.133  30.491  1.00  0.00    -0.354 N 
ATOM     65  C   UNL A   1      34.392  33.808  31.668  1.00  0.00     0.248 C 
ATOM     66  H   UNL A   1      32.987  33.594  30.271  1.00  0.00     0.163 HD
ATOM     67  O   UNL A   1      34.000  32.776  32.222  1.00  0.00    -0.272 OA
BRANCH  65  68
ATOM     68  C   UNL A   1      35.505  34.712  32.268  1.00  0.00     0.228 C 
ATOM     69  C   UNL A   1      34.943  35.434  33.531  1.00  0.00     0.296 C 
ATOM     70  N   UNL A   1      36.691  33.925  32.665  1.00  0.00    -0.333 N 
ATOM     71  N   UNL A   1      34.700  34.553  34.703  1.00  0.00    -0.343 N 
ATOM     72  C   UNL A   1      36.501  33.000  33.785  1.00  0.00     0.180 C 
ATOM     73  C   UNL A   1      35.919  33.771  34.998  1.00  0.00     0.282 C 
ATOM     74  H   UNL A   1      33.931  33.916  34.497  1.00  0.00     0.346 HD
ATOM     75  H   UNL A   1      34.461  35.126  35.513  1.00  0.00     0.346 HD
BRANCH  70  76
ATOM     76  C   UNL A   1      37.929  34.013  32.080  1.00  0.00     0.148 A 
ATOM     77  N   UNL A   1      37.970  33.723  30.754  1.00  0.00    -0.237 NA
ATOM     78  C   UNL A   1      39.110  34.389  32.741  1.00  0.00     0.084 A 
ATOM     79  C   UNL A   1      39.127  33.877  30.068  1.00  0.00     0.126 A 
ATOM     80  C   UNL A   1      40.300  34.529  32.015  1.00  0.00     0.039 A 
ATOM     81  Cl  UNL A   1      39.229  34.610  34.451  1.00  0.00    -0.080 Cl
ATOM     82  C   UNL A   1      40.313  34.288  30.641  1.00  0.00     0.075 A 
BRANCH  82  83
ATOM     83  C   UNL A   1      41.531  34.481  29.795  1.00  0.00     0.417 C 
ATOM     84  F   UNL A   1      42.141  33.310  29.471  1.00  0.00    -0.166 F 
ATOM     85  F   UNL A   1      41.241  35.092  28.614  1.00  0.00    -0.166 F 
ATOM     86  F   UNL A   1      42.485  35.251  30.389  1.00  0.00    -0.166 F 
ENDBRANCH  82  83
ENDBRANCH  70  76
ENDBRANCH  65  68
ENDBRANCH  63  64
ENDBRANCH   1  63
TORSDOF 12
ENDMDL
