MODEL 1
REMARK VINA RESULT:     -11.6      0.000      0.000
REMARK SMILES O=C(CSCc1nnnn1-c1ccc([N+](=O)[O-])cc1)NCCCNC(=O)c1ccc(-c2c3nc(c(-c4c(F)cccc4F)c4ccc([nH]4)c(-c4c(F)cccc4F)c4nc(c(-c5c(F)cccc5F)c5ccc2[nH]5)C=C4)C=C3)cc1
REMARK SMILES IDX 1 1 2 2 20 3 3 5 4 6 5 7 6 8 7 9 10 10 8 11 9 12 11 13 12 14
REMARK SMILES IDX 19 15 13 16 18 17 14 18 15 19 16 20 17 21 21 22 22 23 23 24
REMARK SMILES IDX 24 25 25 26 26 28 27 29 28 30 80 31 29 32 79 33 30 34 31 35
REMARK SMILES IDX 32 36 73 37 33 38 78 39 72 40 74 41 34 42 77 43 71 44 70 45
REMARK SMILES IDX 35 47 61 48 44 49 60 50 45 51 48 52 59 53 75 54 46 55 47 56
REMARK SMILES IDX 58 58 76 59 49 60 36 61 37 62 42 63 38 64 39 65 41 66 43 67
REMARK SMILES IDX 40 68 62 69 63 70 68 71 64 72 65 73 67 74 69 75 66 76 50 77
REMARK SMILES IDX 51 78 56 79 52 80 53 81 55 82 57 83 54 84
REMARK H PARENT 20 4 24 27 74 46 48 57
REMARK Flexibility Score: inf
ROOT
ATOM      1  O   UNL A   1      39.080  22.815  26.368  1.00  0.00    -0.274 OA
ATOM      2  C   UNL A   1      38.700  21.727  25.949  1.00  0.00     0.230 C 
ATOM      3  N   UNL A   1      39.510  20.607  25.937  1.00  0.00    -0.355 N 
ATOM      4  H   UNL A   1      39.127  19.748  25.647  1.00  0.00     0.163 HD
ENDROOT
BRANCH   2   5
ATOM      5  C   UNL A   1      37.282  21.510  25.438  1.00  0.00     0.169 C 
BRANCH   5   6
ATOM      6  S   UNL A   1      36.168  22.918  25.797  1.00  0.00    -0.144 SA
BRANCH   6   7
ATOM      7  C   UNL A   1      34.706  22.041  26.434  1.00  0.00     0.149 C 
BRANCH   7   8
ATOM      8  C   UNL A   1      33.549  22.020  25.503  1.00  0.00     0.166 A 
ATOM      9  N   UNL A   1      32.901  23.078  25.049  1.00  0.00    -0.113 NA
ATOM     10  N   UNL A   1      33.169  20.933  24.734  1.00  0.00    -0.196 N 
ATOM     11  N   UNL A   1      32.207  22.667  23.947  1.00  0.00    -0.023 NA
ATOM     12  N   UNL A   1      32.428  21.386  23.699  1.00  0.00    -0.040 NA
BRANCH  10  13
ATOM     13  C   UNL A   1      33.438  19.554  24.882  1.00  0.00     0.069 A 
ATOM     14  C   UNL A   1      34.666  19.046  24.430  1.00  0.00     0.035 A 
ATOM     15  C   UNL A   1      32.475  18.693  25.429  1.00  0.00     0.035 A 
ATOM     16  C   UNL A   1      34.955  17.686  24.572  1.00  0.00     0.088 A 
ATOM     17  C   UNL A   1      32.749  17.325  25.537  1.00  0.00     0.088 A 
ATOM     18  C   UNL A   1      33.993  16.828  25.121  1.00  0.00     0.269 A 
BRANCH  18  19
ATOM     19  N   UNL A   1      34.287  15.395  25.254  1.00  0.00     0.062 N 
ATOM     20  O   UNL A   1      33.335  14.625  25.436  1.00  0.00    -0.258 OA
ATOM     21  O   UNL A   1      35.472  15.043  25.168  1.00  0.00    -0.258 OA
ENDBRANCH  18  19
ENDBRANCH  10  13
ENDBRANCH   7   8
ENDBRANCH   6   7
ENDBRANCH   5   6
ENDBRANCH   2   5
BRANCH   3  22
ATOM     22  C   UNL A   1      40.911  20.652  26.338  1.00  0.00     0.117 C 
BRANCH  22  23
ATOM     23  C   UNL A   1      41.731  19.446  25.871  1.00  0.00     0.042 C 
BRANCH  23  24
ATOM     24  C   UNL A   1      43.119  19.392  26.484  1.00  0.00     0.118 C 
BRANCH  24  25
ATOM     25  N   UNL A   1      44.213  19.299  25.507  1.00  0.00    -0.352 N 
ATOM     26  C   UNL A   1      44.766  20.318  24.739  1.00  0.00     0.251 C 
ATOM     27  H   UNL A   1      44.603  18.404  25.382  1.00  0.00     0.163 HD
ATOM     28  O   UNL A   1      45.422  20.077  23.742  1.00  0.00    -0.269 OA
BRANCH  26  29
ATOM     29  C   UNL A   1      44.546  21.714  25.170  1.00  0.00     0.039 A 
ATOM     30  C   UNL A   1      43.551  22.532  24.629  1.00  0.00     0.014 A 
ATOM     31  C   UNL A   1      45.360  22.179  26.194  1.00  0.00     0.014 A 
ATOM     32  C   UNL A   1      43.350  23.793  25.192  1.00  0.00     0.010 A 
ATOM     33  C   UNL A   1      44.988  23.279  26.905  1.00  0.00     0.010 A 
ATOM     34  C   UNL A   1      44.068  24.147  26.345  1.00  0.00    -0.014 A 
BRANCH  34  35
ATOM     35  C   UNL A   1      43.851  25.396  27.055  1.00  0.00     0.031 A 
ATOM     36  C   UNL A   1      44.836  26.455  26.737  1.00  0.00     0.074 A 
ATOM     37  C   UNL A   1      42.726  25.647  27.763  1.00  0.00     0.049 A 
ATOM     38  N   UNL A   1      45.776  26.888  27.505  1.00  0.00    -0.248 NA
ATOM     39  C   UNL A   1      44.896  26.981  25.365  1.00  0.00     0.031 C 
ATOM     40  C   UNL A   1      41.514  24.829  27.906  1.00  0.00     0.029 A 
ATOM     41  N   UNL A   1      42.396  26.773  28.446  1.00  0.00    -0.354 N 
ATOM     42  C   UNL A   1      46.413  27.901  26.799  1.00  0.00     0.074 A 
ATOM     43  C   UNL A   1      45.966  27.779  25.436  1.00  0.00     0.031 C 
ATOM     44  C   UNL A   1      40.514  25.578  28.424  1.00  0.00     0.029 A 
ATOM     45  C   UNL A   1      41.055  26.865  28.812  1.00  0.00     0.049 A 
ATOM     46  H   UNL A   1      43.054  27.471  28.668  1.00  0.00     0.167 HD
ATOM     47  C   UNL A   1      47.066  28.899  27.457  1.00  0.00     0.037 A 
ATOM     48  C   UNL A   1      40.450  27.943  29.372  1.00  0.00     0.037 A 
ATOM     49  C   UNL A   1      47.244  28.562  28.850  1.00  0.00     0.049 A 
ATOM     50  C   UNL A   1      41.524  28.783  29.967  1.00  0.00     0.074 A 
ATOM     51  C   UNL A   1      47.868  27.528  29.523  1.00  0.00     0.029 A 
ATOM     52  N   UNL A   1      46.372  29.123  29.754  1.00  0.00    -0.354 N 
ATOM     53  N   UNL A   1      42.235  28.413  30.998  1.00  0.00    -0.248 NA
ATOM     54  C   UNL A   1      42.142  29.785  29.109  1.00  0.00     0.031 C 
ATOM     55  C   UNL A   1      46.983  27.204  30.594  1.00  0.00     0.029 A 
ATOM     56  C   UNL A   1      45.926  28.115  30.571  1.00  0.00     0.049 A 
ATOM     57  H   UNL A   1      46.116  30.072  29.806  1.00  0.00     0.167 HD
ATOM     58  C   UNL A   1      43.534  28.782  30.679  1.00  0.00     0.074 A 
ATOM     59  C   UNL A   1      43.405  29.686  29.535  1.00  0.00     0.031 C 
ATOM     60  C   UNL A   1      44.608  28.090  31.163  1.00  0.00     0.037 A 
BRANCH  47  61
ATOM     61  C   UNL A   1      47.202  30.317  26.966  1.00  0.00     0.057 A 
ATOM     62  C   UNL A   1      48.461  30.943  27.046  1.00  0.00     0.134 A 
ATOM     63  C   UNL A   1      46.118  31.180  26.714  1.00  0.00     0.134 A 
ATOM     64  F   UNL A   1      49.571  30.228  27.284  1.00  0.00    -0.206 F 
ATOM     65  C   UNL A   1      48.614  32.331  26.972  1.00  0.00     0.040 A 
ATOM     66  C   UNL A   1      46.268  32.563  26.586  1.00  0.00     0.040 A 
ATOM     67  F   UNL A   1      44.851  30.754  26.678  1.00  0.00    -0.206 F 
ATOM     68  C   UNL A   1      47.514  33.148  26.752  1.00  0.00     0.006 A 
ENDBRANCH  47  61
BRANCH  48  69
ATOM     69  C   UNL A   1      39.071  28.444  29.164  1.00  0.00     0.057 A 
ATOM     70  C   UNL A   1      38.158  28.530  30.225  1.00  0.00     0.134 A 
ATOM     71  C   UNL A   1      38.707  29.117  27.984  1.00  0.00     0.134 A 
ATOM     72  F   UNL A   1      38.430  27.956  31.406  1.00  0.00    -0.206 F 
ATOM     73  C   UNL A   1      36.966  29.265  30.129  1.00  0.00     0.040 A 
ATOM     74  C   UNL A   1      37.520  29.851  27.874  1.00  0.00     0.040 A 
ATOM     75  F   UNL A   1      39.533  29.163  26.930  1.00  0.00    -0.206 F 
ATOM     76  C   UNL A   1      36.650  29.939  28.953  1.00  0.00     0.006 A 
ENDBRANCH  48  69
BRANCH  60  77
ATOM     77  C   UNL A   1      44.372  27.059  32.235  1.00  0.00     0.057 A 
ATOM     78  C   UNL A   1      44.251  25.680  32.000  1.00  0.00     0.134 A 
ATOM     79  C   UNL A   1      44.441  27.463  33.572  1.00  0.00     0.134 A 
ATOM     80  F   UNL A   1      44.277  25.180  30.759  1.00  0.00    -0.206 F 
ATOM     81  C   UNL A   1      44.161  24.756  33.047  1.00  0.00     0.040 A 
ATOM     82  C   UNL A   1      44.388  26.548  34.627  1.00  0.00     0.040 A 
ATOM     83  F   UNL A   1      44.616  28.758  33.878  1.00  0.00    -0.206 F 
ATOM     84  C   UNL A   1      44.237  25.189  34.366  1.00  0.00     0.006 A 
ENDBRANCH  60  77
ENDBRANCH  34  35
ENDBRANCH  26  29
ENDBRANCH  24  25
ENDBRANCH  23  24
ENDBRANCH  22  23
ENDBRANCH   3  22
TORSDOF 15
ENDMDL
MODEL 2
REMARK VINA RESULT:     -11.1      6.218     11.021
REMARK SMILES O=C(CSCc1nnnn1-c1ccc([N+](=O)[O-])cc1)NCCCNC(=O)c1ccc(-c2c3nc(c(-c4c(F)cccc4F)c4ccc([nH]4)c(-c4c(F)cccc4F)c4nc(c(-c5c(F)cccc5F)c5ccc2[nH]5)C=C4)C=C3)cc1
REMARK SMILES IDX 1 1 2 2 20 3 3 5 4 6 5 7 6 8 7 9 10 10 8 11 9 12 11 13 12 14
REMARK SMILES IDX 19 15 13 16 18 17 14 18 15 19 16 20 17 21 21 22 22 23 23 24
REMARK SMILES IDX 24 25 25 26 26 28 27 29 28 30 80 31 29 32 79 33 30 34 31 35
REMARK SMILES IDX 32 36 73 37 33 38 78 39 72 40 74 41 34 42 77 43 71 44 70 45
REMARK SMILES IDX 35 47 61 48 44 49 60 50 45 51 48 52 59 53 75 54 46 55 47 56
REMARK SMILES IDX 58 58 76 59 49 60 36 61 37 62 42 63 38 64 39 65 41 66 43 67
REMARK SMILES IDX 40 68 62 69 63 70 68 71 64 72 65 73 67 74 69 75 66 76 50 77
REMARK SMILES IDX 51 78 56 79 52 80 53 81 55 82 57 83 54 84
REMARK H PARENT 20 4 24 27 74 46 48 57
REMARK Flexibility Score: inf
ROOT
ATOM      1  O   UNL A   1      35.112  32.131  27.468  1.00  0.00    -0.274 OA
ATOM      2  C   UNL A   1      33.897  32.104  27.634  1.00  0.00     0.230 C 
ATOM      3  N   UNL A   1      33.174  33.209  28.042  1.00  0.00    -0.355 N 
ATOM      4  H   UNL A   1      32.194  33.142  28.095  1.00  0.00     0.163 HD
ENDROOT
BRANCH   2   5
ATOM      5  C   UNL A   1      33.073  30.852  27.363  1.00  0.00     0.169 C 
BRANCH   5   6
ATOM      6  S   UNL A   1      34.101  29.398  26.938  1.00  0.00    -0.144 SA
BRANCH   6   7
ATOM      7  C   UNL A   1      32.829  28.099  26.839  1.00  0.00     0.149 C 
BRANCH   7   8
ATOM      8  C   UNL A   1      33.111  27.040  25.838  1.00  0.00     0.166 A 
ATOM      9  N   UNL A   1      34.044  26.109  25.936  1.00  0.00    -0.113 NA
ATOM     10  N   UNL A   1      32.258  26.672  24.811  1.00  0.00    -0.196 N 
ATOM     11  N   UNL A   1      33.711  25.128  25.046  1.00  0.00    -0.023 NA
ATOM     12  N   UNL A   1      32.584  25.421  24.417  1.00  0.00    -0.040 NA
BRANCH  10  13
ATOM     13  C   UNL A   1      31.196  27.371  24.193  1.00  0.00     0.069 A 
ATOM     14  C   UNL A   1      31.410  28.687  23.755  1.00  0.00     0.035 A 
ATOM     15  C   UNL A   1      29.932  26.779  24.062  1.00  0.00     0.035 A 
ATOM     16  C   UNL A   1      30.376  29.395  23.136  1.00  0.00     0.088 A 
ATOM     17  C   UNL A   1      28.885  27.500  23.476  1.00  0.00     0.088 A 
ATOM     18  C   UNL A   1      29.114  28.800  23.002  1.00  0.00     0.269 A 
BRANCH  18  19
ATOM     19  N   UNL A   1      28.020  29.548  22.368  1.00  0.00     0.062 N 
ATOM     20  O   UNL A   1      28.168  29.898  21.190  1.00  0.00    -0.258 OA
ATOM     21  O   UNL A   1      27.012  29.777  23.051  1.00  0.00    -0.258 OA
ENDBRANCH  18  19
ENDBRANCH  10  13
ENDBRANCH   7   8
ENDBRANCH   6   7
ENDBRANCH   5   6
ENDBRANCH   2   5
BRANCH   3  22
ATOM     22  C   UNL A   1      33.811  34.471  28.397  1.00  0.00     0.117 C 
BRANCH  22  23
ATOM     23  C   UNL A   1      32.833  35.550  28.872  1.00  0.00     0.042 C 
BRANCH  23  24
ATOM     24  C   UNL A   1      33.457  36.538  29.842  1.00  0.00     0.118 C 
BRANCH  24  25
ATOM     25  N   UNL A   1      32.789  36.611  31.149  1.00  0.00    -0.352 N 
ATOM     26  C   UNL A   1      32.898  35.728  32.218  1.00  0.00     0.251 C 
ATOM     27  H   UNL A   1      32.191  37.381  31.285  1.00  0.00     0.163 HD
ATOM     28  O   UNL A   1      32.065  35.700  33.106  1.00  0.00    -0.269 OA
BRANCH  26  29
ATOM     29  C   UNL A   1      34.065  34.823  32.259  1.00  0.00     0.039 A 
ATOM     30  C   UNL A   1      33.992  33.468  31.926  1.00  0.00     0.014 A 
ATOM     31  C   UNL A   1      35.280  35.398  32.606  1.00  0.00     0.014 A 
ATOM     32  C   UNL A   1      35.176  32.731  31.881  1.00  0.00     0.010 A 
ATOM     33  C   UNL A   1      36.442  34.756  32.301  1.00  0.00     0.010 A 
ATOM     34  C   UNL A   1      36.400  33.395  32.055  1.00  0.00    -0.014 A 
BRANCH  34  35
ATOM     35  C   UNL A   1      37.683  32.728  31.924  1.00  0.00     0.031 A 
ATOM     36  C   UNL A   1      38.431  32.594  33.196  1.00  0.00     0.074 A 
ATOM     37  C   UNL A   1      38.060  32.085  30.796  1.00  0.00     0.049 A 
ATOM     38  N   UNL A   1      39.490  33.243  33.539  1.00  0.00    -0.248 NA
ATOM     39  C   UNL A   1      37.858  31.776  34.274  1.00  0.00     0.031 C 
ATOM     40  C   UNL A   1      37.300  31.847  29.561  1.00  0.00     0.029 A 
ATOM     41  N   UNL A   1      39.214  31.410  30.558  1.00  0.00    -0.354 N 
ATOM     42  C   UNL A   1      39.851  32.757  34.789  1.00  0.00     0.074 A 
ATOM     43  C   UNL A   1      38.717  32.013  35.270  1.00  0.00     0.031 C 
ATOM     44  C   UNL A   1      37.915  30.899  28.819  1.00  0.00     0.029 A 
ATOM     45  C   UNL A   1      39.193  30.592  29.430  1.00  0.00     0.049 A 
ATOM     46  H   UNL A   1      40.006  31.492  31.137  1.00  0.00     0.167 HD
ATOM     47  C   UNL A   1      41.146  32.813  35.206  1.00  0.00     0.037 A 
ATOM     48  C   UNL A   1      40.161  29.716  29.058  1.00  0.00     0.037 A 
ATOM     49  C   UNL A   1      41.922  33.679  34.350  1.00  0.00     0.049 A 
ATOM     50  C   UNL A   1      41.411  30.130  29.750  1.00  0.00     0.074 A 
ATOM     51  C   UNL A   1      41.840  35.013  33.993  1.00  0.00     0.029 A 
ATOM     52  N   UNL A   1      42.709  33.084  33.391  1.00  0.00    -0.354 N 
ATOM     53  N   UNL A   1      42.048  31.237  29.478  1.00  0.00    -0.248 NA
ATOM     54  C   UNL A   1      41.655  29.579  31.077  1.00  0.00     0.031 C 
ATOM     55  C   UNL A   1      42.136  35.035  32.598  1.00  0.00     0.029 A 
ATOM     56  C   UNL A   1      42.475  33.738  32.208  1.00  0.00     0.049 A 
ATOM     57  H   UNL A   1      43.325  32.329  33.529  1.00  0.00     0.167 HD
ATOM     58  C   UNL A   1      42.404  31.751  30.716  1.00  0.00     0.074 A 
ATOM     59  C   UNL A   1      42.197  30.653  31.660  1.00  0.00     0.031 C 
ATOM     60  C   UNL A   1      42.536  33.097  30.914  1.00  0.00     0.037 A 
BRANCH  47  61
ATOM     61  C   UNL A   1      41.806  31.815  36.122  1.00  0.00     0.057 A 
ATOM     62  C   UNL A   1      42.540  32.292  37.225  1.00  0.00     0.134 A 
ATOM     63  C   UNL A   1      42.010  30.458  35.808  1.00  0.00     0.134 A 
ATOM     64  F   UNL A   1      42.434  33.568  37.623  1.00  0.00    -0.206 F 
ATOM     65  C   UNL A   1      43.473  31.501  37.903  1.00  0.00     0.040 A 
ATOM     66  C   UNL A   1      42.902  29.645  36.512  1.00  0.00     0.040 A 
ATOM     67  F   UNL A   1      41.442  29.870  34.749  1.00  0.00    -0.206 F 
ATOM     68  C   UNL A   1      43.666  30.175  37.540  1.00  0.00     0.006 A 
ENDBRANCH  47  61
BRANCH  48  69
ATOM     69  C   UNL A   1      40.012  28.393  28.408  1.00  0.00     0.057 A 
ATOM     70  C   UNL A   1      40.599  28.122  27.163  1.00  0.00     0.134 A 
ATOM     71  C   UNL A   1      39.536  27.277  29.117  1.00  0.00     0.134 A 
ATOM     72  F   UNL A   1      41.120  29.114  26.425  1.00  0.00    -0.206 F 
ATOM     73  C   UNL A   1      40.730  26.816  26.665  1.00  0.00     0.040 A 
ATOM     74  C   UNL A   1      39.658  25.970  28.632  1.00  0.00     0.040 A 
ATOM     75  F   UNL A   1      39.020  27.407  30.348  1.00  0.00    -0.206 F 
ATOM     76  C   UNL A   1      40.270  25.733  27.407  1.00  0.00     0.006 A 
ENDBRANCH  48  69
BRANCH  60  77
ATOM     77  C   UNL A   1      42.515  34.004  29.712  1.00  0.00     0.057 A 
ATOM     78  C   UNL A   1      41.384  34.704  29.264  1.00  0.00     0.134 A 
ATOM     79  C   UNL A   1      43.730  34.310  29.089  1.00  0.00     0.134 A 
ATOM     80  F   UNL A   1      40.195  34.561  29.858  1.00  0.00    -0.206 F 
ATOM     81  C   UNL A   1      41.455  35.633  28.219  1.00  0.00     0.040 A 
ATOM     82  C   UNL A   1      43.821  35.260  28.069  1.00  0.00     0.040 A 
ATOM     83  F   UNL A   1      44.866  33.725  29.501  1.00  0.00    -0.206 F 
ATOM     84  C   UNL A   1      42.678  35.918  27.623  1.00  0.00     0.006 A 
ENDBRANCH  60  77
ENDBRANCH  34  35
ENDBRANCH  26  29
ENDBRANCH  24  25
ENDBRANCH  23  24
ENDBRANCH  22  23
ENDBRANCH   3  22
TORSDOF 15
ENDMDL
MODEL 3
REMARK VINA RESULT:     -11.0      3.292      8.189
REMARK SMILES O=C(CSCc1nnnn1-c1ccc([N+](=O)[O-])cc1)NCCCNC(=O)c1ccc(-c2c3nc(c(-c4c(F)cccc4F)c4ccc([nH]4)c(-c4c(F)cccc4F)c4nc(c(-c5c(F)cccc5F)c5ccc2[nH]5)C=C4)C=C3)cc1
REMARK SMILES IDX 1 1 2 2 20 3 3 5 4 6 5 7 6 8 7 9 10 10 8 11 9 12 11 13 12 14
REMARK SMILES IDX 19 15 13 16 18 17 14 18 15 19 16 20 17 21 21 22 22 23 23 24
REMARK SMILES IDX 24 25 25 26 26 28 27 29 28 30 80 31 29 32 79 33 30 34 31 35
REMARK SMILES IDX 32 36 73 37 33 38 78 39 72 40 74 41 34 42 77 43 71 44 70 45
REMARK SMILES IDX 35 47 61 48 44 49 60 50 45 51 48 52 59 53 75 54 46 55 47 56
REMARK SMILES IDX 58 58 76 59 49 60 36 61 37 62 42 63 38 64 39 65 41 66 43 67
REMARK SMILES IDX 40 68 62 69 63 70 68 71 64 72 65 73 67 74 69 75 66 76 50 77
REMARK SMILES IDX 51 78 56 79 52 80 53 81 55 82 57 83 54 84
REMARK H PARENT 20 4 24 27 74 46 48 57
REMARK Flexibility Score: inf
ROOT
ATOM      1  O   UNL A   1      33.134  26.878  26.120  1.00  0.00    -0.274 OA
ATOM      2  C   UNL A   1      32.008  27.323  25.921  1.00  0.00     0.230 C 
ATOM      3  N   UNL A   1      31.757  28.672  25.760  1.00  0.00    -0.355 N 
ATOM      4  H   UNL A   1      30.842  28.962  25.540  1.00  0.00     0.163 HD
ENDROOT
BRANCH   2   5
ATOM      5  C   UNL A   1      30.792  26.415  25.796  1.00  0.00     0.169 C 
BRANCH   5   6
ATOM      6  S   UNL A   1      30.035  26.460  24.129  1.00  0.00    -0.144 SA
BRANCH   6   7
ATOM      7  C   UNL A   1      30.555  24.842  23.477  1.00  0.00     0.149 C 
BRANCH   7   8
ATOM      8  C   UNL A   1      31.827  24.869  22.711  1.00  0.00     0.166 A 
ATOM      9  N   UNL A   1      32.363  25.931  22.136  1.00  0.00    -0.113 NA
ATOM     10  N   UNL A   1      32.791  23.876  22.740  1.00  0.00    -0.196 N 
ATOM     11  N   UNL A   1      33.675  25.629  21.906  1.00  0.00    -0.023 NA
ATOM     12  N   UNL A   1      33.966  24.415  22.344  1.00  0.00    -0.040 NA
BRANCH  10  13
ATOM     13  C   UNL A   1      32.706  22.512  23.101  1.00  0.00     0.069 A 
ATOM     14  C   UNL A   1      33.247  22.096  24.328  1.00  0.00     0.035 A 
ATOM     15  C   UNL A   1      32.136  21.576  22.226  1.00  0.00     0.035 A 
ATOM     16  C   UNL A   1      33.169  20.753  24.706  1.00  0.00     0.088 A 
ATOM     17  C   UNL A   1      32.091  20.225  22.588  1.00  0.00     0.088 A 
ATOM     18  C   UNL A   1      32.595  19.820  23.833  1.00  0.00     0.269 A 
BRANCH  18  19
ATOM     19  N   UNL A   1      32.528  18.405  24.221  1.00  0.00     0.062 N 
ATOM     20  O   UNL A   1      32.067  18.134  25.337  1.00  0.00    -0.258 OA
ATOM     21  O   UNL A   1      32.931  17.566  23.402  1.00  0.00    -0.258 OA
ENDBRANCH  18  19
ENDBRANCH  10  13
ENDBRANCH   7   8
ENDBRANCH   6   7
ENDBRANCH   5   6
ENDBRANCH   2   5
BRANCH   3  22
ATOM     22  C   UNL A   1      32.797  29.683  25.906  1.00  0.00     0.117 C 
BRANCH  22  23
ATOM     23  C   UNL A   1      32.784  30.400  27.260  1.00  0.00     0.042 C 
BRANCH  23  24
ATOM     24  C   UNL A   1      34.085  31.119  27.569  1.00  0.00     0.118 C 
BRANCH  24  25
ATOM     25  N   UNL A   1      34.048  31.950  28.780  1.00  0.00    -0.352 N 
ATOM     26  C   UNL A   1      34.929  31.937  29.856  1.00  0.00     0.251 C 
ATOM     27  H   UNL A   1      33.309  32.597  28.836  1.00  0.00     0.163 HD
ATOM     28  O   UNL A   1      34.622  32.418  30.933  1.00  0.00    -0.269 OA
BRANCH  26  29
ATOM     29  C   UNL A   1      36.262  31.331  29.660  1.00  0.00     0.039 A 
ATOM     30  C   UNL A   1      37.421  32.085  29.464  1.00  0.00     0.014 A 
ATOM     31  C   UNL A   1      36.325  29.946  29.726  1.00  0.00     0.014 A 
ATOM     32  C   UNL A   1      38.645  31.417  29.411  1.00  0.00     0.010 A 
ATOM     33  C   UNL A   1      37.523  29.335  29.943  1.00  0.00     0.010 A 
ATOM     34  C   UNL A   1      38.682  30.038  29.670  1.00  0.00    -0.014 A 
BRANCH  34  35
ATOM     35  C   UNL A   1      39.920  29.282  29.736  1.00  0.00     0.031 A 
ATOM     36  C   UNL A   1      40.420  29.053  31.111  1.00  0.00     0.074 A 
ATOM     37  C   UNL A   1      40.446  28.647  28.664  1.00  0.00     0.049 A 
ATOM     38  N   UNL A   1      41.443  29.610  31.662  1.00  0.00    -0.248 NA
ATOM     39  C   UNL A   1      39.610  28.246  32.037  1.00  0.00     0.031 C 
ATOM     40  C   UNL A   1      39.902  28.505  27.306  1.00  0.00     0.029 A 
ATOM     41  N   UNL A   1      41.576  27.896  28.602  1.00  0.00    -0.354 N 
ATOM     42  C   UNL A   1      41.543  29.060  32.934  1.00  0.00     0.074 A 
ATOM     43  C   UNL A   1      40.293  28.388  33.176  1.00  0.00     0.031 C 
ATOM     44  C   UNL A   1      40.574  27.537  26.642  1.00  0.00     0.029 A 
ATOM     45  C   UNL A   1      41.699  27.117  27.454  1.00  0.00     0.049 A 
ATOM     46  H   UNL A   1      42.256  27.901  29.313  1.00  0.00     0.167 HD
ATOM     47  C   UNL A   1      42.744  29.006  33.572  1.00  0.00     0.037 A 
ATOM     48  C   UNL A   1      42.656  26.183  27.218  1.00  0.00     0.037 A 
ATOM     49  C   UNL A   1      43.717  29.838  32.903  1.00  0.00     0.049 A 
ATOM     50  C   UNL A   1      43.788  26.481  28.135  1.00  0.00     0.074 A 
ATOM     51  C   UNL A   1      43.790  31.184  32.596  1.00  0.00     0.029 A 
ATOM     52  N   UNL A   1      44.618  29.216  32.072  1.00  0.00    -0.354 N 
ATOM     53  N   UNL A   1      44.538  27.545  28.027  1.00  0.00    -0.248 NA
ATOM     54  C   UNL A   1      43.756  25.873  29.458  1.00  0.00     0.031 C 
ATOM     55  C   UNL A   1      44.330  31.227  31.276  1.00  0.00     0.029 A 
ATOM     56  C   UNL A   1      44.643  29.922  30.896  1.00  0.00     0.049 A 
ATOM     57  H   UNL A   1      45.148  28.414  32.282  1.00  0.00     0.167 HD
ATOM     58  C   UNL A   1      44.703  27.993  29.329  1.00  0.00     0.074 A 
ATOM     59  C   UNL A   1      44.257  26.884  30.174  1.00  0.00     0.031 C 
ATOM     60  C   UNL A   1      44.889  29.318  29.606  1.00  0.00     0.037 A 
BRANCH  47  61
ATOM     61  C   UNL A   1      43.162  27.934  34.545  1.00  0.00     0.057 A 
ATOM     62  C   UNL A   1      43.307  26.614  34.078  1.00  0.00     0.134 A 
ATOM     63  C   UNL A   1      43.130  28.074  35.946  1.00  0.00     0.134 A 
ATOM     64  F   UNL A   1      43.349  26.350  32.764  1.00  0.00    -0.206 F 
ATOM     65  C   UNL A   1      43.323  25.512  34.938  1.00  0.00     0.040 A 
ATOM     66  C   UNL A   1      43.198  26.983  36.816  1.00  0.00     0.040 A 
ATOM     67  F   UNL A   1      42.928  29.251  36.549  1.00  0.00    -0.206 F 
ATOM     68  C   UNL A   1      43.257  25.692  36.313  1.00  0.00     0.006 A 
ENDBRANCH  47  61
BRANCH  48  69
ATOM     69  C   UNL A   1      42.535  24.896  26.494  1.00  0.00     0.057 A 
ATOM     70  C   UNL A   1      43.366  24.590  25.406  1.00  0.00     0.134 A 
ATOM     71  C   UNL A   1      41.802  23.821  27.028  1.00  0.00     0.134 A 
ATOM     72  F   UNL A   1      44.137  25.537  24.851  1.00  0.00    -0.206 F 
ATOM     73  C   UNL A   1      43.482  23.287  24.896  1.00  0.00     0.040 A 
ATOM     74  C   UNL A   1      41.907  22.518  26.528  1.00  0.00     0.040 A 
ATOM     75  F   UNL A   1      41.030  23.980  28.112  1.00  0.00    -0.206 F 
ATOM     76  C   UNL A   1      42.760  22.244  25.466  1.00  0.00     0.006 A 
ENDBRANCH  48  69
BRANCH  60  77
ATOM     77  C   UNL A   1      45.143  30.261  28.459  1.00  0.00     0.057 A 
ATOM     78  C   UNL A   1      44.140  30.946  27.755  1.00  0.00     0.134 A 
ATOM     79  C   UNL A   1      46.465  30.617  28.172  1.00  0.00     0.134 A 
ATOM     80  F   UNL A   1      42.844  30.754  28.025  1.00  0.00    -0.206 F 
ATOM     81  C   UNL A   1      44.443  31.908  26.784  1.00  0.00     0.040 A 
ATOM     82  C   UNL A   1      46.780  31.600  27.231  1.00  0.00     0.040 A 
ATOM     83  F   UNL A   1      47.478  30.049  28.845  1.00  0.00    -0.206 F 
ATOM     84  C   UNL A   1      45.767  32.242  26.525  1.00  0.00     0.006 A 
ENDBRANCH  60  77
ENDBRANCH  34  35
ENDBRANCH  26  29
ENDBRANCH  24  25
ENDBRANCH  23  24
ENDBRANCH  22  23
ENDBRANCH   3  22
TORSDOF 15
ENDMDL
