MODEL 1
REMARK VINA RESULT:     -11.6      0.000      0.000
REMARK SMILES C[C@H](NC1=[NH+]S(=O)(=O)c2ccccc21)C(=O)NCCCNC(=O)c1ccc(-c2c3nc(c(-c4c(F)cccc4F)c4ccc([nH]4)c(-c4c(F)cccc4F)c4nc(c(-c5c(F)cccc5F)c5ccc2[nH]5)C=C4)C=C3)cc1
REMARK SMILES IDX 19 1 18 2 17 3 15 4 16 5 2 7 1 8 3 9 4 10 5 12 14 13 6 14
REMARK SMILES IDX 9 16 13 17 7 18 8 19 10 20 12 21 11 22 20 23 21 24 22 25
REMARK SMILES IDX 23 27 24 28 25 29 77 30 26 31 76 32 27 33 28 34 29 35 70 36
REMARK SMILES IDX 30 37 75 38 69 39 71 40 31 41 74 42 68 43 67 44 32 46 58 47
REMARK SMILES IDX 41 48 57 49 42 50 45 51 56 52 72 53 43 54 44 55 55 57 73 58
REMARK SMILES IDX 46 59 33 60 34 61 39 62 35 63 36 64 38 65 40 66 37 67 59 68
REMARK SMILES IDX 60 69 65 70 61 71 62 72 64 73 66 74 63 75 47 76 48 77 53 78
REMARK SMILES IDX 49 79 50 80 52 81 54 82 51 83
REMARK H PARENT 17 6 3 11 5 15 21 26 71 45 45 56
REMARK Flexibility Score: inf
ROOT
ATOM      1  C   UNL A   1      37.382  19.514  24.971  1.00  0.00     0.042 C 
ENDROOT
BRANCH   1   2
ATOM      2  C   UNL A   1      36.256  20.466  24.578  1.00  0.00     0.118 C 
BRANCH   2   3
ATOM      3  N   UNL A   1      35.517  20.940  25.737  1.00  0.00    -0.352 N 
ATOM      4  C   UNL A   1      35.360  22.199  26.242  1.00  0.00     0.264 C 
ATOM      5  O   UNL A   1      34.748  22.301  27.310  1.00  0.00    -0.270 OA
ATOM      6  H   UNL A   1      35.052  20.235  26.243  1.00  0.00     0.163 HD
BRANCH   4   7
ATOM      7  C   UNL A   1      35.929  23.456  25.544  1.00  0.00     0.258 C 
ATOM      8  C   UNL A   1      37.387  23.682  25.909  1.00  0.00     0.069 C 
BRANCH   7   9
ATOM      9  N   UNL A   1      35.004  24.584  25.703  1.00  0.00    -0.262 N 
ATOM     10  C   UNL A   1      34.221  25.192  24.757  1.00  0.00     0.292 C 
ATOM     11  H   UNL A   1      34.936  24.953  26.613  1.00  0.00     0.306 HD
ATOM     12  N   UNL A   1      33.915  24.686  23.600  1.00  0.00    -0.162 N 
ATOM     13  C   UNL A   1      33.718  26.572  24.989  1.00  0.00     0.087 A 
ATOM     14  S   UNL A   1      33.050  25.739  22.692  1.00  0.00     0.329 S 
ATOM     15  H   UNL A   1      34.171  23.781  23.306  1.00  0.00     0.327 HD
ATOM     16  C   UNL A   1      33.090  27.034  23.850  1.00  0.00     0.124 A 
ATOM     17  C   UNL A   1      33.914  27.419  26.068  1.00  0.00     0.018 A 
ATOM     18  O   UNL A   1      31.675  25.309  22.582  1.00  0.00    -0.179 OA
ATOM     19  O   UNL A   1      33.835  26.168  21.553  1.00  0.00    -0.179 OA
ATOM     20  C   UNL A   1      32.676  28.341  23.686  1.00  0.00     0.025 A 
ATOM     21  C   UNL A   1      33.498  28.751  25.941  1.00  0.00     0.001 A 
ATOM     22  C   UNL A   1      32.893  29.210  24.756  1.00  0.00     0.002 A 
ENDBRANCH   7   9
ENDBRANCH   4   7
ENDBRANCH   2   3
ENDBRANCH   1   2
BRANCH   1  23
ATOM     23  C   UNL A   1      38.579  20.178  25.641  1.00  0.00     0.118 C 
BRANCH  23  24
ATOM     24  N   UNL A   1      39.749  19.319  25.690  1.00  0.00    -0.352 N 
ATOM     25  C   UNL A   1      41.050  19.581  26.044  1.00  0.00     0.251 C 
ATOM     26  H   UNL A   1      39.580  18.385  25.425  1.00  0.00     0.163 HD
ATOM     27  O   UNL A   1      41.902  18.716  25.851  1.00  0.00    -0.269 OA
BRANCH  25  28
ATOM     28  C   UNL A   1      41.458  20.880  26.632  1.00  0.00     0.039 A 
ATOM     29  C   UNL A   1      41.820  21.917  25.762  1.00  0.00     0.014 A 
ATOM     30  C   UNL A   1      41.565  21.075  28.011  1.00  0.00     0.014 A 
ATOM     31  C   UNL A   1      42.231  23.153  26.271  1.00  0.00     0.010 A 
ATOM     32  C   UNL A   1      41.905  22.329  28.519  1.00  0.00     0.010 A 
ATOM     33  C   UNL A   1      42.250  23.381  27.655  1.00  0.00    -0.014 A 
BRANCH  33  34
ATOM     34  C   UNL A   1      42.639  24.702  28.214  1.00  0.00     0.031 A 
ATOM     35  C   UNL A   1      41.602  25.769  28.436  1.00  0.00     0.074 A 
ATOM     36  C   UNL A   1      43.935  24.968  28.466  1.00  0.00     0.049 A 
ATOM     37  N   UNL A   1      41.761  27.011  28.823  1.00  0.00    -0.248 NA
ATOM     38  C   UNL A   1      40.203  25.401  28.165  1.00  0.00     0.031 C 
ATOM     39  C   UNL A   1      45.047  24.037  28.265  1.00  0.00     0.029 A 
ATOM     40  N   UNL A   1      44.537  26.108  28.940  1.00  0.00    -0.354 N 
ATOM     41  C   UNL A   1      40.492  27.577  28.814  1.00  0.00     0.074 A 
ATOM     42  C   UNL A   1      39.577  26.553  28.352  1.00  0.00     0.031 C 
ATOM     43  C   UNL A   1      46.192  24.637  28.630  1.00  0.00     0.029 A 
ATOM     44  C   UNL A   1      45.902  26.002  29.058  1.00  0.00     0.049 A 
ATOM     45  H   UNL A   1      44.039  26.924  29.173  1.00  0.00     0.167 HD
ATOM     46  C   UNL A   1      40.117  28.828  29.173  1.00  0.00     0.037 A 
ATOM     47  C   UNL A   1      46.817  26.903  29.462  1.00  0.00     0.037 A 
ATOM     48  C   UNL A   1      41.014  29.834  29.678  1.00  0.00     0.049 A 
ATOM     49  C   UNL A   1      46.373  28.277  29.879  1.00  0.00     0.074 A 
ATOM     50  C   UNL A   1      40.714  31.109  30.127  1.00  0.00     0.029 A 
ATOM     51  N   UNL A   1      42.384  29.675  29.810  1.00  0.00    -0.354 N 
ATOM     52  N   UNL A   1      45.165  28.781  29.901  1.00  0.00    -0.248 NA
ATOM     53  C   UNL A   1      47.423  29.204  30.328  1.00  0.00     0.031 C 
ATOM     54  C   UNL A   1      41.909  31.731  30.508  1.00  0.00     0.029 A 
ATOM     55  C   UNL A   1      42.946  30.832  30.323  1.00  0.00     0.049 A 
ATOM     56  H   UNL A   1      42.883  28.860  29.574  1.00  0.00     0.167 HD
ATOM     57  C   UNL A   1      45.304  30.075  30.387  1.00  0.00     0.074 A 
ATOM     58  C   UNL A   1      46.713  30.274  30.655  1.00  0.00     0.031 C 
ATOM     59  C   UNL A   1      44.348  31.014  30.591  1.00  0.00     0.037 A 
BRANCH  46  60
ATOM     60  C   UNL A   1      38.666  29.179  29.036  1.00  0.00     0.057 A 
ATOM     61  C   UNL A   1      37.788  29.120  30.126  1.00  0.00     0.134 A 
ATOM     62  C   UNL A   1      38.147  29.611  27.808  1.00  0.00     0.134 A 
ATOM     63  F   UNL A   1      38.220  28.702  31.324  1.00  0.00    -0.206 F 
ATOM     64  C   UNL A   1      36.440  29.457  29.994  1.00  0.00     0.040 A 
ATOM     65  C   UNL A   1      36.807  29.972  27.669  1.00  0.00     0.040 A 
ATOM     66  F   UNL A   1      38.938  29.693  26.727  1.00  0.00    -0.206 F 
ATOM     67  C   UNL A   1      35.948  29.891  28.764  1.00  0.00     0.006 A 
ENDBRANCH  46  60
BRANCH  47  68
ATOM     68  C   UNL A   1      48.250  26.526  29.514  1.00  0.00     0.057 A 
ATOM     69  C   UNL A   1      48.782  25.879  30.634  1.00  0.00     0.134 A 
ATOM     70  C   UNL A   1      49.118  26.802  28.451  1.00  0.00     0.134 A 
ATOM     71  F   UNL A   1      48.000  25.607  31.689  1.00  0.00    -0.206 F 
ATOM     72  C   UNL A   1      50.131  25.531  30.704  1.00  0.00     0.040 A 
ATOM     73  C   UNL A   1      50.466  26.443  28.499  1.00  0.00     0.040 A 
ATOM     74  F   UNL A   1      48.664  27.413  27.347  1.00  0.00    -0.206 F 
ATOM     75  C   UNL A   1      50.977  25.810  29.631  1.00  0.00     0.006 A 
ENDBRANCH  47  68
BRANCH  59  76
ATOM     76  C   UNL A   1      44.791  32.329  31.155  1.00  0.00     0.057 A 
ATOM     77  C   UNL A   1      45.151  33.399  30.328  1.00  0.00     0.134 A 
ATOM     78  C   UNL A   1      44.821  32.537  32.539  1.00  0.00     0.134 A 
ATOM     79  F   UNL A   1      45.154  33.256  28.994  1.00  0.00    -0.206 F 
ATOM     80  C   UNL A   1      45.542  34.629  30.859  1.00  0.00     0.040 A 
ATOM     81  C   UNL A   1      45.194  33.767  33.082  1.00  0.00     0.040 A 
ATOM     82  F   UNL A   1      44.484  31.552  33.384  1.00  0.00    -0.206 F 
ATOM     83  C   UNL A   1      45.559  34.817  32.241  1.00  0.00     0.006 A 
ENDBRANCH  59  76
ENDBRANCH  33  34
ENDBRANCH  25  28
ENDBRANCH  23  24
ENDBRANCH   1  23
TORSDOF 11
ENDMDL
MODEL 2
REMARK VINA RESULT:     -11.4      3.411      8.689
REMARK SMILES C[C@H](NC1=[NH+]S(=O)(=O)c2ccccc21)C(=O)NCCCNC(=O)c1ccc(-c2c3nc(c(-c4c(F)cccc4F)c4ccc([nH]4)c(-c4c(F)cccc4F)c4nc(c(-c5c(F)cccc5F)c5ccc2[nH]5)C=C4)C=C3)cc1
REMARK SMILES IDX 19 1 18 2 17 3 15 4 16 5 2 7 1 8 3 9 4 10 5 12 14 13 6 14
REMARK SMILES IDX 9 16 13 17 7 18 8 19 10 20 12 21 11 22 20 23 21 24 22 25
REMARK SMILES IDX 23 27 24 28 25 29 77 30 26 31 76 32 27 33 28 34 29 35 70 36
REMARK SMILES IDX 30 37 75 38 69 39 71 40 31 41 74 42 68 43 67 44 32 46 58 47
REMARK SMILES IDX 41 48 57 49 42 50 45 51 56 52 72 53 43 54 44 55 55 57 73 58
REMARK SMILES IDX 46 59 33 60 34 61 39 62 35 63 36 64 38 65 40 66 37 67 59 68
REMARK SMILES IDX 60 69 65 70 61 71 62 72 64 73 66 74 63 75 47 76 48 77 53 78
REMARK SMILES IDX 49 79 50 80 52 81 54 82 51 83
REMARK H PARENT 17 6 3 11 5 15 21 26 71 45 45 56
REMARK Flexibility Score: inf
ROOT
ATOM      1  C   UNL A   1      31.137  31.546  25.900  1.00  0.00     0.042 C 
ENDROOT
BRANCH   1   2
ATOM      2  C   UNL A   1      31.113  30.073  25.506  1.00  0.00     0.118 C 
BRANCH   2   3
ATOM      3  N   UNL A   1      32.144  29.753  24.533  1.00  0.00    -0.352 N 
ATOM      4  C   UNL A   1      33.258  28.972  24.636  1.00  0.00     0.264 C 
ATOM      5  O   UNL A   1      34.022  28.954  23.665  1.00  0.00    -0.270 OA
ATOM      6  H   UNL A   1      32.018  30.171  23.650  1.00  0.00     0.163 HD
BRANCH   4   7
ATOM      7  C   UNL A   1      33.588  28.152  25.905  1.00  0.00     0.258 C 
ATOM      8  C   UNL A   1      34.414  28.963  26.891  1.00  0.00     0.069 C 
BRANCH   7   9
ATOM      9  N   UNL A   1      34.085  26.823  25.531  1.00  0.00    -0.262 N 
ATOM     10  C   UNL A   1      33.476  25.604  25.683  1.00  0.00     0.292 C 
ATOM     11  H   UNL A   1      34.978  26.803  25.115  1.00  0.00     0.306 HD
ATOM     12  N   UNL A   1      32.209  25.424  25.903  1.00  0.00    -0.162 N 
ATOM     13  C   UNL A   1      34.294  24.363  25.679  1.00  0.00     0.087 A 
ATOM     14  S   UNL A   1      31.857  23.840  26.134  1.00  0.00     0.329 S 
ATOM     15  H   UNL A   1      31.542  26.148  25.928  1.00  0.00     0.327 HD
ATOM     16  C   UNL A   1      33.497  23.282  25.999  1.00  0.00     0.124 A 
ATOM     17  C   UNL A   1      35.664  24.201  25.542  1.00  0.00     0.018 A 
ATOM     18  O   UNL A   1      31.133  23.309  25.003  1.00  0.00    -0.179 OA
ATOM     19  O   UNL A   1      31.448  23.621  27.506  1.00  0.00    -0.179 OA
ATOM     20  C   UNL A   1      33.993  22.018  26.253  1.00  0.00     0.025 A 
ATOM     21  C   UNL A   1      36.202  22.930  25.783  1.00  0.00     0.001 A 
ATOM     22  C   UNL A   1      35.375  21.851  26.146  1.00  0.00     0.002 A 
ENDBRANCH   7   9
ENDBRANCH   4   7
ENDBRANCH   2   3
ENDBRANCH   1   2
BRANCH   1  23
ATOM     23  C   UNL A   1      32.239  31.929  26.881  1.00  0.00     0.118 C 
BRANCH  23  24
ATOM     24  N   UNL A   1      32.136  33.304  27.339  1.00  0.00    -0.352 N 
ATOM     25  C   UNL A   1      32.964  34.056  28.137  1.00  0.00     0.251 C 
ATOM     26  H   UNL A   1      31.334  33.780  27.023  1.00  0.00     0.163 HD
ATOM     27  O   UNL A   1      32.578  35.160  28.517  1.00  0.00    -0.269 OA
BRANCH  25  28
ATOM     28  C   UNL A   1      34.297  33.570  28.565  1.00  0.00     0.039 A 
ATOM     29  C   UNL A   1      34.375  32.780  29.720  1.00  0.00     0.014 A 
ATOM     30  C   UNL A   1      35.473  33.934  27.906  1.00  0.00     0.014 A 
ATOM     31  C   UNL A   1      35.612  32.315  30.175  1.00  0.00     0.010 A 
ATOM     32  C   UNL A   1      36.700  33.411  28.316  1.00  0.00     0.010 A 
ATOM     33  C   UNL A   1      36.786  32.602  29.460  1.00  0.00    -0.014 A 
BRANCH  33  34
ATOM     34  C   UNL A   1      38.105  32.078  29.901  1.00  0.00     0.031 A 
ATOM     35  C   UNL A   1      38.611  30.759  29.383  1.00  0.00     0.074 A 
ATOM     36  C   UNL A   1      38.825  32.757  30.815  1.00  0.00     0.049 A 
ATOM     37  N   UNL A   1      39.688  30.095  29.723  1.00  0.00    -0.248 NA
ATOM     38  C   UNL A   1      37.787  30.085  28.368  1.00  0.00     0.031 C 
ATOM     39  C   UNL A   1      38.437  34.030  31.425  1.00  0.00     0.029 A 
ATOM     40  N   UNL A   1      40.033  32.463  31.398  1.00  0.00    -0.354 N 
ATOM     41  C   UNL A   1      39.656  28.917  28.985  1.00  0.00     0.074 A 
ATOM     42  C   UNL A   1      38.435  28.942  28.206  1.00  0.00     0.031 C 
ATOM     43  C   UNL A   1      39.397  34.417  32.281  1.00  0.00     0.029 A 
ATOM     44  C   UNL A   1      40.450  33.406  32.307  1.00  0.00     0.049 A 
ATOM     45  H   UNL A   1      40.552  31.655  31.185  1.00  0.00     0.167 HD
ATOM     46  C   UNL A   1      40.564  27.914  28.948  1.00  0.00     0.037 A 
ATOM     47  C   UNL A   1      41.553  33.449  33.077  1.00  0.00     0.037 A 
ATOM     48  C   UNL A   1      41.801  27.904  29.684  1.00  0.00     0.049 A 
ATOM     49  C   UNL A   1      42.559  32.335  32.999  1.00  0.00     0.074 A 
ATOM     50  C   UNL A   1      42.813  26.960  29.659  1.00  0.00     0.029 A 
ATOM     51  N   UNL A   1      42.198  28.893  30.571  1.00  0.00    -0.354 N 
ATOM     52  N   UNL A   1      42.530  31.249  32.267  1.00  0.00    -0.248 NA
ATOM     53  C   UNL A   1      43.750  32.457  33.852  1.00  0.00     0.031 C 
ATOM     54  C   UNL A   1      43.812  27.366  30.551  1.00  0.00     0.029 A 
ATOM     55  C   UNL A   1      43.434  28.576  31.108  1.00  0.00     0.049 A 
ATOM     56  H   UNL A   1      41.678  29.700  30.787  1.00  0.00     0.167 HD
ATOM     57  C   UNL A   1      43.707  30.569  32.554  1.00  0.00     0.074 A 
ATOM     58  C   UNL A   1      44.431  31.369  33.519  1.00  0.00     0.031 C 
ATOM     59  C   UNL A   1      44.146  29.385  32.061  1.00  0.00     0.037 A 
BRANCH  46  60
ATOM     60  C   UNL A   1      40.255  26.737  28.072  1.00  0.00     0.057 A 
ATOM     61  C   UNL A   1      40.781  26.621  26.779  1.00  0.00     0.134 A 
ATOM     62  C   UNL A   1      39.447  25.691  28.538  1.00  0.00     0.134 A 
ATOM     63  F   UNL A   1      41.551  27.595  26.271  1.00  0.00    -0.206 F 
ATOM     64  C   UNL A   1      40.497  25.519  25.973  1.00  0.00     0.040 A 
ATOM     65  C   UNL A   1      39.175  24.573  27.749  1.00  0.00     0.040 A 
ATOM     66  F   UNL A   1      38.917  25.738  29.769  1.00  0.00    -0.206 F 
ATOM     67  C   UNL A   1      39.697  24.487  26.460  1.00  0.00     0.006 A 
ENDBRANCH  46  60
BRANCH  47  68
ATOM     68  C   UNL A   1      41.778  34.605  33.979  1.00  0.00     0.057 A 
ATOM     69  C   UNL A   1      42.421  35.759  33.519  1.00  0.00     0.134 A 
ATOM     70  C   UNL A   1      41.360  34.583  35.314  1.00  0.00     0.134 A 
ATOM     71  F   UNL A   1      42.859  35.828  32.254  1.00  0.00    -0.206 F 
ATOM     72  C   UNL A   1      42.652  36.849  34.358  1.00  0.00     0.040 A 
ATOM     73  C   UNL A   1      41.568  35.673  36.161  1.00  0.00     0.040 A 
ATOM     74  F   UNL A   1      40.731  33.507  35.810  1.00  0.00    -0.206 F 
ATOM     75  C   UNL A   1      42.221  36.809  35.684  1.00  0.00     0.006 A 
ENDBRANCH  47  68
BRANCH  59  76
ATOM     76  C   UNL A   1      45.481  28.900  32.537  1.00  0.00     0.057 A 
ATOM     77  C   UNL A   1      46.667  29.259  31.886  1.00  0.00     0.134 A 
ATOM     78  C   UNL A   1      45.582  28.095  33.678  1.00  0.00     0.134 A 
ATOM     79  F   UNL A   1      46.633  30.017  30.779  1.00  0.00    -0.206 F 
ATOM     80  C   UNL A   1      47.910  28.821  32.346  1.00  0.00     0.040 A 
ATOM     81  C   UNL A   1      46.820  27.665  34.158  1.00  0.00     0.040 A 
ATOM     82  F   UNL A   1      44.482  27.720  34.347  1.00  0.00    -0.206 F 
ATOM     83  C   UNL A   1      47.989  28.026  33.489  1.00  0.00     0.006 A 
ENDBRANCH  59  76
ENDBRANCH  33  34
ENDBRANCH  25  28
ENDBRANCH  23  24
ENDBRANCH   1  23
TORSDOF 11
ENDMDL
MODEL 3
REMARK VINA RESULT:     -11.4      0.445      6.251
REMARK SMILES C[C@H](NC1=[NH+]S(=O)(=O)c2ccccc21)C(=O)NCCCNC(=O)c1ccc(-c2c3nc(c(-c4c(F)cccc4F)c4ccc([nH]4)c(-c4c(F)cccc4F)c4nc(c(-c5c(F)cccc5F)c5ccc2[nH]5)C=C4)C=C3)cc1
REMARK SMILES IDX 19 1 18 2 17 3 15 4 16 5 2 7 1 8 3 9 4 10 5 12 14 13 6 14
REMARK SMILES IDX 9 16 13 17 7 18 8 19 10 20 12 21 11 22 20 23 21 24 22 25
REMARK SMILES IDX 23 27 24 28 25 29 77 30 26 31 76 32 27 33 28 34 29 35 70 36
REMARK SMILES IDX 30 37 75 38 69 39 71 40 31 41 74 42 68 43 67 44 32 46 58 47
REMARK SMILES IDX 41 48 57 49 42 50 45 51 56 52 72 53 43 54 44 55 55 57 73 58
REMARK SMILES IDX 46 59 33 60 34 61 39 62 35 63 36 64 38 65 40 66 37 67 59 68
REMARK SMILES IDX 60 69 65 70 61 71 62 72 64 73 66 74 63 75 47 76 48 77 53 78
REMARK SMILES IDX 49 79 50 80 52 81 54 82 51 83
REMARK H PARENT 17 6 3 11 5 15 21 26 71 45 45 56
REMARK Flexibility Score: inf
ROOT
ATOM      1  C   UNL A   1      38.106  19.417  24.908  1.00  0.00     0.042 C 
ENDROOT
BRANCH   1   2
ATOM      2  C   UNL A   1      37.237  20.595  24.477  1.00  0.00     0.118 C 
BRANCH   2   3
ATOM      3  N   UNL A   1      36.190  20.880  25.445  1.00  0.00    -0.352 N 
ATOM      4  C   UNL A   1      35.731  22.066  25.940  1.00  0.00     0.264 C 
ATOM      5  O   UNL A   1      34.883  22.008  26.838  1.00  0.00    -0.270 OA
ATOM      6  H   UNL A   1      35.736  20.083  25.804  1.00  0.00     0.163 HD
BRANCH   4   7
ATOM      7  C   UNL A   1      36.244  23.436  25.438  1.00  0.00     0.258 C 
ATOM      8  C   UNL A   1      37.656  23.714  25.929  1.00  0.00     0.069 C 
BRANCH   7   9
ATOM      9  N   UNL A   1      35.228  24.470  25.665  1.00  0.00    -0.262 N 
ATOM     10  C   UNL A   1      34.375  25.049  24.761  1.00  0.00     0.292 C 
ATOM     11  H   UNL A   1      35.148  24.791  26.593  1.00  0.00     0.306 HD
ATOM     12  N   UNL A   1      34.090  24.569  23.588  1.00  0.00    -0.162 N 
ATOM     13  C   UNL A   1      33.760  26.367  25.066  1.00  0.00     0.087 A 
ATOM     14  S   UNL A   1      33.118  25.582  22.744  1.00  0.00     0.329 S 
ATOM     15  H   UNL A   1      34.418  23.705  23.249  1.00  0.00     0.327 HD
ATOM     16  C   UNL A   1      33.069  26.822  23.960  1.00  0.00     0.124 A 
ATOM     17  C   UNL A   1      33.903  27.180  26.179  1.00  0.00     0.018 A 
ATOM     18  O   UNL A   1      31.784  25.038  22.638  1.00  0.00    -0.179 OA
ATOM     19  O   UNL A   1      33.839  26.128  21.613  1.00  0.00    -0.179 OA
ATOM     20  C   UNL A   1      32.539  28.094  23.864  1.00  0.00     0.025 A 
ATOM     21  C   UNL A   1      33.370  28.474  26.121  1.00  0.00     0.001 A 
ATOM     22  C   UNL A   1      32.703  28.930  24.969  1.00  0.00     0.002 A 
ENDBRANCH   7   9
ENDBRANCH   4   7
ENDBRANCH   2   3
ENDBRANCH   1   2
BRANCH   1  23
ATOM     23  C   UNL A   1      39.096  19.725  26.025  1.00  0.00     0.118 C 
BRANCH  23  24
ATOM     24  N   UNL A   1      40.383  19.079  25.835  1.00  0.00    -0.352 N 
ATOM     25  C   UNL A   1      41.664  19.555  25.971  1.00  0.00     0.251 C 
ATOM     26  H   UNL A   1      40.328  18.134  25.561  1.00  0.00     0.163 HD
ATOM     27  O   UNL A   1      42.601  18.852  25.597  1.00  0.00    -0.269 OA
BRANCH  25  28
ATOM     28  C   UNL A   1      41.948  20.896  26.538  1.00  0.00     0.039 A 
ATOM     29  C   UNL A   1      42.288  21.930  25.656  1.00  0.00     0.014 A 
ATOM     30  C   UNL A   1      41.961  21.138  27.913  1.00  0.00     0.014 A 
ATOM     31  C   UNL A   1      42.583  23.206  26.145  1.00  0.00     0.010 A 
ATOM     32  C   UNL A   1      42.185  22.427  28.398  1.00  0.00     0.010 A 
ATOM     33  C   UNL A   1      42.506  23.475  27.520  1.00  0.00    -0.014 A 
BRANCH  33  34
ATOM     34  C   UNL A   1      42.772  24.836  28.056  1.00  0.00     0.031 A 
ATOM     35  C   UNL A   1      44.159  25.225  28.492  1.00  0.00     0.074 A 
ATOM     36  C   UNL A   1      41.756  25.706  28.210  1.00  0.00     0.049 A 
ATOM     37  N   UNL A   1      44.566  26.326  29.070  1.00  0.00    -0.248 NA
ATOM     38  C   UNL A   1      45.225  24.235  28.270  1.00  0.00     0.031 C 
ATOM     39  C   UNL A   1      40.357  25.448  27.861  1.00  0.00     0.029 A 
ATOM     40  N   UNL A   1      41.743  26.985  28.711  1.00  0.00    -0.354 N 
ATOM     41  C   UNL A   1      45.925  26.152  29.306  1.00  0.00     0.074 A 
ATOM     42  C   UNL A   1      46.266  24.824  28.838  1.00  0.00     0.031 C 
ATOM     43  C   UNL A   1      39.627  26.540  28.140  1.00  0.00     0.029 A 
ATOM     44  C   UNL A   1      40.495  27.561  28.718  1.00  0.00     0.049 A 
ATOM     45  H   UNL A   1      42.550  27.445  29.033  1.00  0.00     0.167 HD
ATOM     46  C   UNL A   1      46.811  27.021  29.847  1.00  0.00     0.037 A 
ATOM     47  C   UNL A   1      40.094  28.773  29.146  1.00  0.00     0.037 A 
ATOM     48  C   UNL A   1      46.489  28.358  30.270  1.00  0.00     0.049 A 
ATOM     49  C   UNL A   1      41.102  29.729  29.719  1.00  0.00     0.074 A 
ATOM     50  C   UNL A   1      47.335  29.333  30.770  1.00  0.00     0.029 A 
ATOM     51  N   UNL A   1      45.219  28.912  30.233  1.00  0.00    -0.354 N 
ATOM     52  N   UNL A   1      42.389  29.561  29.898  1.00  0.00    -0.248 NA
ATOM     53  C   UNL A   1      40.600  31.043  30.147  1.00  0.00     0.031 C 
ATOM     54  C   UNL A   1      46.572  30.469  31.060  1.00  0.00     0.029 A 
ATOM     55  C   UNL A   1      45.257  30.211  30.711  1.00  0.00     0.049 A 
ATOM     56  H   UNL A   1      44.410  28.451  29.913  1.00  0.00     0.167 HD
ATOM     57  C   UNL A   1      42.855  30.753  30.438  1.00  0.00     0.074 A 
ATOM     58  C   UNL A   1      41.715  31.638  30.549  1.00  0.00     0.031 C 
ATOM     59  C   UNL A   1      44.116  31.082  30.809  1.00  0.00     0.037 A 
BRANCH  46  60
ATOM     60  C   UNL A   1      48.226  26.551  30.008  1.00  0.00     0.057 A 
ATOM     61  C   UNL A   1      48.648  25.862  31.152  1.00  0.00     0.134 A 
ATOM     62  C   UNL A   1      49.170  26.762  28.994  1.00  0.00     0.134 A 
ATOM     63  F   UNL A   1      47.796  25.639  32.164  1.00  0.00    -0.206 F 
ATOM     64  C   UNL A   1      49.964  25.419  31.292  1.00  0.00     0.040 A 
ATOM     65  C   UNL A   1      50.482  26.305  29.113  1.00  0.00     0.040 A 
ATOM     66  F   UNL A   1      48.827  27.411  27.871  1.00  0.00    -0.206 F 
ATOM     67  C   UNL A   1      50.883  25.634  30.267  1.00  0.00     0.006 A 
ENDBRANCH  46  60
BRANCH  47  68
ATOM     68  C   UNL A   1      38.669  29.163  29.027  1.00  0.00     0.057 A 
ATOM     69  C   UNL A   1      37.809  29.084  30.128  1.00  0.00     0.134 A 
ATOM     70  C   UNL A   1      38.134  29.621  27.818  1.00  0.00     0.134 A 
ATOM     71  F   UNL A   1      38.264  28.634  31.307  1.00  0.00    -0.206 F 
ATOM     72  C   UNL A   1      36.464  29.435  30.030  1.00  0.00     0.040 A 
ATOM     73  C   UNL A   1      36.793  29.992  27.709  1.00  0.00     0.040 A 
ATOM     74  F   UNL A   1      38.911  29.726  26.730  1.00  0.00    -0.206 F 
ATOM     75  C   UNL A   1      35.952  29.895  28.817  1.00  0.00     0.006 A 
ENDBRANCH  47  68
BRANCH  59  76
ATOM     76  C   UNL A   1      44.332  32.465  31.344  1.00  0.00     0.057 A 
ATOM     77  C   UNL A   1      44.620  33.543  30.498  1.00  0.00     0.134 A 
ATOM     78  C   UNL A   1      44.215  32.727  32.714  1.00  0.00     0.134 A 
ATOM     79  F   UNL A   1      44.758  33.352  29.177  1.00  0.00    -0.206 F 
ATOM     80  C   UNL A   1      44.799  34.833  30.999  1.00  0.00     0.040 A 
ATOM     81  C   UNL A   1      44.375  34.015  33.225  1.00  0.00     0.040 A 
ATOM     82  F   UNL A   1      43.936  31.737  33.575  1.00  0.00    -0.206 F 
ATOM     83  C   UNL A   1      44.672  35.072  32.367  1.00  0.00     0.006 A 
ENDBRANCH  59  76
ENDBRANCH  33  34
ENDBRANCH  25  28
ENDBRANCH  23  24
ENDBRANCH   1  23
TORSDOF 11
ENDMDL
