MODEL 1
REMARK VINA RESULT:     -12.3      0.000      0.000
REMARK SMILES CC(C)(C)OC(=O)N1CC[N@H+](Cc2ccc(Cl)nc2)[C@H](C(=O)NCCCNC(=O)c2ccc(-c3c4nc(c(-c5c(F)cccc5F)c5ccc([nH]5)c(-c5c(F)cccc5F)c5nc(c(-c6c(F)cccc6F)c6ccc3[nH]6)C=C5)C=C4)cc2)C1
REMARK SMILES IDX 24 1 23 2 21 3 22 4 20 6 8 7 9 8 84 9 10 10 11 11 6 13 7 14
REMARK SMILES IDX 5 15 2 16 1 17 3 18 4 19 12 20 13 21 14 22 19 23 15 24 18 25
REMARK SMILES IDX 16 26 17 27 25 28 26 29 27 30 28 31 29 33 30 34 31 35 83 36
REMARK SMILES IDX 32 37 82 38 33 39 34 40 35 41 76 42 36 43 81 44 75 45 77 46
REMARK SMILES IDX 37 47 80 48 74 49 73 50 38 52 64 53 47 54 63 55 48 56 51 57
REMARK SMILES IDX 62 58 78 59 49 60 50 61 61 63 79 64 52 65 39 66 40 67 45 68
REMARK SMILES IDX 41 69 42 70 44 71 46 72 43 73 65 74 66 75 71 76 67 77 68 78
REMARK SMILES IDX 70 79 72 80 69 81 53 82 54 83 59 84 55 85 56 86 58 87 60 88
REMARK SMILES IDX 57 89
REMARK H PARENT 23 5 11 12 27 32 77 51 51 62
REMARK Flexibility Score: inf
ROOT
ATOM      1  C   UNL A   1      36.568  20.909  24.877  1.00  0.00     0.118 C 
ENDROOT
BRANCH   1   2
ATOM      2  N   UNL A   1      35.977  21.234  26.139  1.00  0.00    -0.351 N 
ATOM      3  C   UNL A   1      34.786  21.802  26.435  1.00  0.00     0.280 C 
ATOM      4  O   UNL A   1      34.418  21.608  27.606  1.00  0.00    -0.268 OA
ATOM      5  H   UNL A   1      36.528  21.007  26.923  1.00  0.00     0.163 HD
BRANCH   3   6
ATOM      6  C   UNL A   1      33.859  22.612  25.496  1.00  0.00     0.294 C 
ATOM      7  N   UNL A   1      32.106  24.394  25.249  1.00  0.00    -0.296 N 
ATOM      8  C   UNL A   1      32.298  24.304  23.801  1.00  0.00     0.184 C 
ATOM      9  C   UNL A   1      32.771  23.452  26.177  1.00  0.00     0.198 C 
ATOM     10  C   UNL A   1      33.392  23.354  23.298  1.00  0.00     0.285 C 
ATOM     11  N   UNL A   1      33.552  22.127  24.113  1.00  0.00    -0.318 N 
ATOM     12  H   UNL A   1      34.334  21.504  23.911  1.00  0.00     0.349 HD
BRANCH   7  13
ATOM     13  C   UNL A   1      31.102  25.251  25.659  1.00  0.00     0.410 C 
ATOM     14  O   UNL A   1      30.045  25.355  25.051  1.00  0.00    -0.224 OA
BRANCH  13  15
ATOM     15  O   UNL A   1      31.473  26.026  26.709  1.00  0.00    -0.444 OA
BRANCH  15  16
ATOM     16  C   UNL A   1      31.952  27.375  26.451  1.00  0.00     0.106 C 
ATOM     17  C   UNL A   1      33.475  27.243  26.300  1.00  0.00     0.056 C 
ATOM     18  C   UNL A   1      31.635  28.268  27.652  1.00  0.00     0.056 C 
ATOM     19  C   UNL A   1      31.415  27.976  25.138  1.00  0.00     0.056 C 
ENDBRANCH  15  16
ENDBRANCH  13  15
ENDBRANCH   7  13
BRANCH  11  20
ATOM     20  C   UNL A   1      32.469  21.171  23.803  1.00  0.00     0.301 C 
BRANCH  20  21
ATOM     21  C   UNL A   1      32.539  19.689  24.115  1.00  0.00     0.025 A 
ATOM     22  C   UNL A   1      32.732  18.749  23.095  1.00  0.00     0.014 A 
ATOM     23  C   UNL A   1      32.523  19.168  25.408  1.00  0.00     0.122 A 
ATOM     24  C   UNL A   1      32.790  17.385  23.386  1.00  0.00     0.041 A 
ATOM     25  N   UNL A   1      32.589  17.856  25.731  1.00  0.00    -0.244 NA
ATOM     26  C   UNL A   1      32.699  16.997  24.707  1.00  0.00     0.129 A 
ATOM     27  Cl  UNL A   1      32.730  15.348  25.165  1.00  0.00    -0.062 Cl
ENDBRANCH  20  21
ENDBRANCH  11  20
ENDBRANCH   3   6
ENDBRANCH   1   2
BRANCH   1  28
ATOM     28  C   UNL A   1      37.683  19.882  24.969  1.00  0.00     0.042 C 
BRANCH  28  29
ATOM     29  C   UNL A   1      38.867  20.392  25.763  1.00  0.00     0.118 C 
BRANCH  29  30
ATOM     30  N   UNL A   1      39.967  19.427  25.795  1.00  0.00    -0.352 N 
ATOM     31  C   UNL A   1      41.298  19.609  26.089  1.00  0.00     0.251 C 
ATOM     32  H   UNL A   1      39.714  18.502  25.572  1.00  0.00     0.163 HD
ATOM     33  O   UNL A   1      42.094  18.694  25.903  1.00  0.00    -0.269 OA
BRANCH  31  34
ATOM     34  C   UNL A   1      41.772  20.915  26.593  1.00  0.00     0.039 A 
ATOM     35  C   UNL A   1      42.219  21.878  25.685  1.00  0.00     0.014 A 
ATOM     36  C   UNL A   1      41.750  21.199  27.958  1.00  0.00     0.014 A 
ATOM     37  C   UNL A   1      42.560  23.152  26.145  1.00  0.00     0.010 A 
ATOM     38  C   UNL A   1      41.956  22.497  28.394  1.00  0.00     0.010 A 
ATOM     39  C   UNL A   1      42.382  23.484  27.498  1.00  0.00    -0.014 A 
BRANCH  39  40
ATOM     40  C   UNL A   1      42.660  24.845  28.018  1.00  0.00     0.031 A 
ATOM     41  C   UNL A   1      44.055  25.200  28.458  1.00  0.00     0.074 A 
ATOM     42  C   UNL A   1      41.648  25.718  28.183  1.00  0.00     0.049 A 
ATOM     43  N   UNL A   1      44.485  26.281  29.055  1.00  0.00    -0.248 NA
ATOM     44  C   UNL A   1      45.099  24.183  28.239  1.00  0.00     0.031 C 
ATOM     45  C   UNL A   1      40.243  25.465  27.855  1.00  0.00     0.029 A 
ATOM     46  N   UNL A   1      41.644  26.995  28.683  1.00  0.00    -0.354 N 
ATOM     47  C   UNL A   1      45.833  26.060  29.307  1.00  0.00     0.074 A 
ATOM     48  C   UNL A   1      46.136  24.719  28.864  1.00  0.00     0.031 C 
ATOM     49  C   UNL A   1      39.521  26.562  28.131  1.00  0.00     0.029 A 
ATOM     50  C   UNL A   1      40.400  27.579  28.698  1.00  0.00     0.049 A 
ATOM     51  H   UNL A   1      42.456  27.450  29.004  1.00  0.00     0.167 HD
ATOM     52  C   UNL A   1      46.747  26.911  29.829  1.00  0.00     0.037 A 
ATOM     53  C   UNL A   1      40.015  28.796  29.124  1.00  0.00     0.037 A 
ATOM     54  C   UNL A   1      46.446  28.259  30.225  1.00  0.00     0.049 A 
ATOM     55  C   UNL A   1      41.051  29.731  29.683  1.00  0.00     0.074 A 
ATOM     56  C   UNL A   1      47.308  29.232  30.700  1.00  0.00     0.029 A 
ATOM     57  N   UNL A   1      45.182  28.829  30.183  1.00  0.00    -0.354 N 
ATOM     58  N   UNL A   1      42.338  29.534  29.852  1.00  0.00    -0.248 NA
ATOM     59  C   UNL A   1      40.587  31.059  30.103  1.00  0.00     0.031 C 
ATOM     60  C   UNL A   1      46.557  30.376  30.986  1.00  0.00     0.029 A 
ATOM     61  C   UNL A   1      45.237  30.134  30.640  1.00  0.00     0.049 A 
ATOM     62  H   UNL A   1      44.366  28.371  29.874  1.00  0.00     0.167 HD
ATOM     63  C   UNL A   1      42.840  30.721  30.366  1.00  0.00     0.074 A 
ATOM     64  C   UNL A   1      41.722  31.637  30.470  1.00  0.00     0.031 C 
ATOM     65  C   UNL A   1      44.112  31.029  30.720  1.00  0.00     0.037 A 
BRANCH  52  66
ATOM     66  C   UNL A   1      48.153  26.409  29.988  1.00  0.00     0.057 A 
ATOM     67  C   UNL A   1      48.591  25.796  31.171  1.00  0.00     0.134 A 
ATOM     68  C   UNL A   1      49.076  26.519  28.942  1.00  0.00     0.134 A 
ATOM     69  F   UNL A   1      47.762  25.673  32.221  1.00  0.00    -0.206 F 
ATOM     70  C   UNL A   1      49.901  25.339  31.317  1.00  0.00     0.040 A 
ATOM     71  C   UNL A   1      50.381  26.037  29.063  1.00  0.00     0.040 A 
ATOM     72  F   UNL A   1      48.725  27.091  27.781  1.00  0.00    -0.206 F 
ATOM     73  C   UNL A   1      50.799  25.451  30.257  1.00  0.00     0.006 A 
ENDBRANCH  52  66
BRANCH  53  74
ATOM     74  C   UNL A   1      38.594  29.211  29.010  1.00  0.00     0.057 A 
ATOM     75  C   UNL A   1      37.734  29.149  30.114  1.00  0.00     0.134 A 
ATOM     76  C   UNL A   1      38.058  29.676  27.803  1.00  0.00     0.134 A 
ATOM     77  F   UNL A   1      38.184  28.698  31.294  1.00  0.00    -0.206 F 
ATOM     78  C   UNL A   1      36.390  29.512  30.017  1.00  0.00     0.040 A 
ATOM     79  C   UNL A   1      36.722  30.068  27.698  1.00  0.00     0.040 A 
ATOM     80  F   UNL A   1      38.830  29.772  26.711  1.00  0.00    -0.206 F 
ATOM     81  C   UNL A   1      35.881  29.978  28.806  1.00  0.00     0.006 A 
ENDBRANCH  53  74
BRANCH  65  82
ATOM     82  C   UNL A   1      44.370  32.424  31.208  1.00  0.00     0.057 A 
ATOM     83  C   UNL A   1      44.676  33.471  30.330  1.00  0.00     0.134 A 
ATOM     84  C   UNL A   1      44.260  32.730  32.571  1.00  0.00     0.134 A 
ATOM     85  F   UNL A   1      44.806  33.240  29.015  1.00  0.00    -0.206 F 
ATOM     86  C   UNL A   1      44.886  34.771  30.794  1.00  0.00     0.040 A 
ATOM     87  C   UNL A   1      44.440  34.030  33.042  1.00  0.00     0.040 A 
ATOM     88  F   UNL A   1      43.959  31.773  33.462  1.00  0.00    -0.206 F 
ATOM     89  C   UNL A   1      44.760  35.053  32.153  1.00  0.00     0.006 A 
ENDBRANCH  65  82
ENDBRANCH  39  40
ENDBRANCH  31  34
ENDBRANCH  29  30
ENDBRANCH  28  29
ENDBRANCH   1  28
TORSDOF 15
ENDMDL
MODEL 2
REMARK VINA RESULT:     -12.2      1.255      6.222
REMARK SMILES CC(C)(C)OC(=O)N1CC[N@H+](Cc2ccc(Cl)nc2)[C@H](C(=O)NCCCNC(=O)c2ccc(-c3c4nc(c(-c5c(F)cccc5F)c5ccc([nH]5)c(-c5c(F)cccc5F)c5nc(c(-c6c(F)cccc6F)c6ccc3[nH]6)C=C5)C=C4)cc2)C1
REMARK SMILES IDX 24 1 23 2 21 3 22 4 20 6 8 7 9 8 84 9 10 10 11 11 6 13 7 14
REMARK SMILES IDX 5 15 2 16 1 17 3 18 4 19 12 20 13 21 14 22 19 23 15 24 18 25
REMARK SMILES IDX 16 26 17 27 25 28 26 29 27 30 28 31 29 33 30 34 31 35 83 36
REMARK SMILES IDX 32 37 82 38 33 39 34 40 35 41 76 42 36 43 81 44 75 45 77 46
REMARK SMILES IDX 37 47 80 48 74 49 73 50 38 52 64 53 47 54 63 55 48 56 51 57
REMARK SMILES IDX 62 58 78 59 49 60 50 61 61 63 79 64 52 65 39 66 40 67 45 68
REMARK SMILES IDX 41 69 42 70 44 71 46 72 43 73 65 74 66 75 71 76 67 77 68 78
REMARK SMILES IDX 70 79 72 80 69 81 53 82 54 83 59 84 55 85 56 86 58 87 60 88
REMARK SMILES IDX 57 89
REMARK H PARENT 23 5 11 12 27 32 77 51 51 62
REMARK Flexibility Score: inf
ROOT
ATOM      1  C   UNL A   1      36.699  21.125  24.933  1.00  0.00     0.118 C 
ENDROOT
BRANCH   1   2
ATOM      2  N   UNL A   1      36.025  21.322  26.180  1.00  0.00    -0.351 N 
ATOM      3  C   UNL A   1      34.781  21.781  26.448  1.00  0.00     0.280 C 
ATOM      4  O   UNL A   1      34.373  21.483  27.582  1.00  0.00    -0.268 OA
ATOM      5  H   UNL A   1      36.554  21.084  26.976  1.00  0.00     0.163 HD
BRANCH   3   6
ATOM      6  C   UNL A   1      33.842  22.582  25.514  1.00  0.00     0.294 C 
ATOM      7  N   UNL A   1      32.059  24.336  25.278  1.00  0.00    -0.296 N 
ATOM      8  C   UNL A   1      32.254  24.260  23.830  1.00  0.00     0.184 C 
ATOM      9  C   UNL A   1      32.738  23.398  26.200  1.00  0.00     0.198 C 
ATOM     10  C   UNL A   1      33.365  23.334  23.321  1.00  0.00     0.285 C 
ATOM     11  N   UNL A   1      33.545  22.103  24.126  1.00  0.00    -0.318 N 
ATOM     12  H   UNL A   1      34.338  21.496  23.921  1.00  0.00     0.349 HD
BRANCH   7  13
ATOM     13  C   UNL A   1      31.039  25.172  25.693  1.00  0.00     0.410 C 
ATOM     14  O   UNL A   1      29.965  25.228  25.111  1.00  0.00    -0.224 OA
BRANCH  13  15
ATOM     15  O   UNL A   1      31.413  25.984  26.714  1.00  0.00    -0.444 OA
BRANCH  15  16
ATOM     16  C   UNL A   1      32.031  27.264  26.403  1.00  0.00     0.106 C 
ATOM     17  C   UNL A   1      31.784  28.143  27.637  1.00  0.00     0.056 C 
ATOM     18  C   UNL A   1      31.338  27.883  25.189  1.00  0.00     0.056 C 
ATOM     19  C   UNL A   1      33.557  27.176  26.205  1.00  0.00     0.056 C 
ENDBRANCH  15  16
ENDBRANCH  13  15
ENDBRANCH   7  13
BRANCH  11  20
ATOM     20  C   UNL A   1      32.479  21.131  23.807  1.00  0.00     0.301 C 
BRANCH  20  21
ATOM     21  C   UNL A   1      32.546  19.660  24.165  1.00  0.00     0.025 A 
ATOM     22  C   UNL A   1      32.758  18.689  23.178  1.00  0.00     0.014 A 
ATOM     23  C   UNL A   1      32.510  19.178  25.474  1.00  0.00     0.122 A 
ATOM     24  C   UNL A   1      32.814  17.334  23.512  1.00  0.00     0.041 A 
ATOM     25  N   UNL A   1      32.573  17.877  25.838  1.00  0.00    -0.244 NA
ATOM     26  C   UNL A   1      32.701  16.987  24.843  1.00  0.00     0.129 A 
ATOM     27  Cl  UNL A   1      32.728  15.353  25.351  1.00  0.00    -0.062 Cl
ENDBRANCH  20  21
ENDBRANCH  11  20
ENDBRANCH   3   6
ENDBRANCH   1   2
BRANCH   1  28
ATOM     28  C   UNL A   1      37.742  20.023  24.967  1.00  0.00     0.042 C 
BRANCH  28  29
ATOM     29  C   UNL A   1      38.975  20.424  25.751  1.00  0.00     0.118 C 
BRANCH  29  30
ATOM     30  N   UNL A   1      39.944  19.333  25.853  1.00  0.00    -0.352 N 
ATOM     31  C   UNL A   1      41.293  19.367  26.115  1.00  0.00     0.251 C 
ATOM     32  H   UNL A   1      39.571  18.433  25.713  1.00  0.00     0.163 HD
ATOM     33  O   UNL A   1      41.964  18.346  25.999  1.00  0.00    -0.269 OA
BRANCH  31  34
ATOM     34  C   UNL A   1      41.940  20.639  26.499  1.00  0.00     0.039 A 
ATOM     35  C   UNL A   1      42.370  21.518  25.502  1.00  0.00     0.014 A 
ATOM     36  C   UNL A   1      42.098  20.977  27.843  1.00  0.00     0.014 A 
ATOM     37  C   UNL A   1      42.877  22.769  25.858  1.00  0.00     0.010 A 
ATOM     38  C   UNL A   1      42.471  22.265  28.189  1.00  0.00     0.010 A 
ATOM     39  C   UNL A   1      42.883  23.170  27.204  1.00  0.00    -0.014 A 
BRANCH  39  40
ATOM     40  C   UNL A   1      43.343  24.516  27.623  1.00  0.00     0.031 A 
ATOM     41  C   UNL A   1      42.329  25.558  28.016  1.00  0.00     0.074 A 
ATOM     42  C   UNL A   1      44.652  24.827  27.557  1.00  0.00     0.049 A 
ATOM     43  N   UNL A   1      42.506  26.824  28.290  1.00  0.00    -0.248 NA
ATOM     44  C   UNL A   1      40.920  25.128  28.060  1.00  0.00     0.031 C 
ATOM     45  C   UNL A   1      45.722  23.923  27.129  1.00  0.00     0.029 A 
ATOM     46  N   UNL A   1      45.305  26.000  27.838  1.00  0.00    -0.354 N 
ATOM     47  C   UNL A   1      41.236  27.342  28.509  1.00  0.00     0.074 A 
ATOM     48  C   UNL A   1      40.293  26.274  28.267  1.00  0.00     0.031 C 
ATOM     49  C   UNL A   1      46.899  24.563  27.207  1.00  0.00     0.029 A 
ATOM     50  C   UNL A   1      46.664  25.934  27.646  1.00  0.00     0.049 A 
ATOM     51  H   UNL A   1      44.844  26.813  28.147  1.00  0.00     0.167 HD
ATOM     52  C   UNL A   1      40.887  28.586  28.909  1.00  0.00     0.037 A 
ATOM     53  C   UNL A   1      47.612  26.877  27.804  1.00  0.00     0.037 A 
ATOM     54  C   UNL A   1      41.836  29.629  29.191  1.00  0.00     0.049 A 
ATOM     55  C   UNL A   1      47.202  28.247  28.268  1.00  0.00     0.074 A 
ATOM     56  C   UNL A   1      41.599  30.905  29.670  1.00  0.00     0.029 A 
ATOM     57  N   UNL A   1      43.208  29.510  29.026  1.00  0.00    -0.354 N 
ATOM     58  N   UNL A   1      46.003  28.705  28.538  1.00  0.00    -0.248 NA
ATOM     59  C   UNL A   1      48.277  29.231  28.457  1.00  0.00     0.031 C 
ATOM     60  C   UNL A   1      42.825  31.572  29.755  1.00  0.00     0.029 A 
ATOM     61  C   UNL A   1      43.830  30.695  29.378  1.00  0.00     0.049 A 
ATOM     62  H   UNL A   1      43.671  28.700  28.707  1.00  0.00     0.167 HD
ATOM     63  C   UNL A   1      46.181  30.015  28.959  1.00  0.00     0.074 A 
ATOM     64  C   UNL A   1      47.605  30.276  28.920  1.00  0.00     0.031 C 
ATOM     65  C   UNL A   1      45.251  30.924  29.345  1.00  0.00     0.037 A 
BRANCH  52  66
ATOM     66  C   UNL A   1      39.424  28.879  29.074  1.00  0.00     0.057 A 
ATOM     67  C   UNL A   1      38.636  29.341  28.010  1.00  0.00     0.134 A 
ATOM     68  C   UNL A   1      38.787  28.678  30.304  1.00  0.00     0.134 A 
ATOM     69  F   UNL A   1      39.186  29.572  26.807  1.00  0.00    -0.206 F 
ATOM     70  C   UNL A   1      37.278  29.620  28.171  1.00  0.00     0.040 A 
ATOM     71  C   UNL A   1      37.423  28.922  30.471  1.00  0.00     0.040 A 
ATOM     72  F   UNL A   1      39.478  28.234  31.365  1.00  0.00    -0.206 F 
ATOM     73  C   UNL A   1      36.666  29.402  29.403  1.00  0.00     0.006 A 
ENDBRANCH  52  66
BRANCH  53  74
ATOM     74  C   UNL A   1      49.039  26.550  27.553  1.00  0.00     0.057 A 
ATOM     75  C   UNL A   1      49.837  25.994  28.559  1.00  0.00     0.134 A 
ATOM     76  C   UNL A   1      49.641  26.787  26.312  1.00  0.00     0.134 A 
ATOM     77  F   UNL A   1      49.323  25.757  29.775  1.00  0.00    -0.206 F 
ATOM     78  C   UNL A   1      51.187  25.704  28.348  1.00  0.00     0.040 A 
ATOM     79  C   UNL A   1      50.983  26.479  26.078  1.00  0.00     0.040 A 
ATOM     80  F   UNL A   1      48.929  27.308  25.302  1.00  0.00    -0.206 F 
ATOM     81  C   UNL A   1      51.762  25.944  27.102  1.00  0.00     0.006 A 
ENDBRANCH  53  74
BRANCH  65  82
ATOM     82  C   UNL A   1      45.748  32.264  29.798  1.00  0.00     0.057 A 
ATOM     83  C   UNL A   1      46.082  32.517  31.135  1.00  0.00     0.134 A 
ATOM     84  C   UNL A   1      45.942  33.298  28.874  1.00  0.00     0.134 A 
ATOM     85  F   UNL A   1      45.908  31.571  32.070  1.00  0.00    -0.206 F 
ATOM     86  C   UNL A   1      46.570  33.761  31.539  1.00  0.00     0.040 A 
ATOM     87  C   UNL A   1      46.456  34.535  29.261  1.00  0.00     0.040 A 
ATOM     88  F   UNL A   1      45.652  33.115  27.576  1.00  0.00    -0.206 F 
ATOM     89  C   UNL A   1      46.765  34.770  30.599  1.00  0.00     0.006 A 
ENDBRANCH  65  82
ENDBRANCH  39  40
ENDBRANCH  31  34
ENDBRANCH  29  30
ENDBRANCH  28  29
ENDBRANCH   1  28
TORSDOF 15
ENDMDL
MODEL 3
REMARK VINA RESULT:     -12.1      3.950      9.224
REMARK SMILES CC(C)(C)OC(=O)N1CC[N@H+](Cc2ccc(Cl)nc2)[C@H](C(=O)NCCCNC(=O)c2ccc(-c3c4nc(c(-c5c(F)cccc5F)c5ccc([nH]5)c(-c5c(F)cccc5F)c5nc(c(-c6c(F)cccc6F)c6ccc3[nH]6)C=C5)C=C4)cc2)C1
REMARK SMILES IDX 24 1 23 2 21 3 22 4 20 6 8 7 9 8 84 9 10 10 11 11 6 13 7 14
REMARK SMILES IDX 5 15 2 16 1 17 3 18 4 19 12 20 13 21 14 22 19 23 15 24 18 25
REMARK SMILES IDX 16 26 17 27 25 28 26 29 27 30 28 31 29 33 30 34 31 35 83 36
REMARK SMILES IDX 32 37 82 38 33 39 34 40 35 41 76 42 36 43 81 44 75 45 77 46
REMARK SMILES IDX 37 47 80 48 74 49 73 50 38 52 64 53 47 54 63 55 48 56 51 57
REMARK SMILES IDX 62 58 78 59 49 60 50 61 61 63 79 64 52 65 39 66 40 67 45 68
REMARK SMILES IDX 41 69 42 70 44 71 46 72 43 73 65 74 66 75 71 76 67 77 68 78
REMARK SMILES IDX 70 79 72 80 69 81 53 82 54 83 59 84 55 85 56 86 58 87 60 88
REMARK SMILES IDX 57 89
REMARK H PARENT 23 5 11 12 27 32 77 51 51 62
REMARK Flexibility Score: inf
ROOT
ATOM      1  C   UNL A   1      31.732  30.258  26.369  1.00  0.00     0.118 C 
ENDROOT
BRANCH   1   2
ATOM      2  N   UNL A   1      32.670  30.059  25.307  1.00  0.00    -0.351 N 
ATOM      3  C   UNL A   1      32.850  29.008  24.475  1.00  0.00     0.280 C 
ATOM      4  O   UNL A   1      33.481  29.291  23.443  1.00  0.00    -0.268 OA
ATOM      5  H   UNL A   1      33.286  30.812  25.156  1.00  0.00     0.163 HD
BRANCH   3   6
ATOM      6  C   UNL A   1      32.349  27.555  24.657  1.00  0.00     0.294 C 
ATOM      7  N   UNL A   1      32.794  25.097  24.389  1.00  0.00    -0.296 N 
ATOM      8  C   UNL A   1      31.586  24.849  25.178  1.00  0.00     0.184 C 
ATOM      9  C   UNL A   1      33.169  26.462  23.958  1.00  0.00     0.198 C 
ATOM     10  C   UNL A   1      30.856  26.074  25.741  1.00  0.00     0.285 C 
ATOM     11  N   UNL A   1      30.894  27.263  24.858  1.00  0.00    -0.318 N 
ATOM     12  H   UNL A   1      30.531  28.148  25.213  1.00  0.00     0.349 HD
BRANCH   7  13
ATOM     13  C   UNL A   1      33.415  23.967  23.890  1.00  0.00     0.410 C 
ATOM     14  O   UNL A   1      33.711  23.854  22.708  1.00  0.00    -0.224 OA
BRANCH  13  15
ATOM     15  O   UNL A   1      33.535  22.985  24.818  1.00  0.00    -0.444 OA
BRANCH  15  16
ATOM     16  C   UNL A   1      34.772  22.884  25.577  1.00  0.00     0.106 C 
ATOM     17  C   UNL A   1      35.350  21.505  25.227  1.00  0.00     0.056 C 
ATOM     18  C   UNL A   1      34.458  22.940  27.073  1.00  0.00     0.056 C 
ATOM     19  C   UNL A   1      35.825  23.935  25.176  1.00  0.00     0.056 C 
ENDBRANCH  15  16
ENDBRANCH  13  15
ENDBRANCH   7  13
BRANCH  11  20
ATOM     20  C   UNL A   1      29.931  27.099  23.750  1.00  0.00     0.301 C 
BRANCH  20  21
ATOM     21  C   UNL A   1      29.367  28.254  22.946  1.00  0.00     0.025 A 
ATOM     22  C   UNL A   1      28.027  28.637  23.084  1.00  0.00     0.014 A 
ATOM     23  C   UNL A   1      30.135  29.067  22.114  1.00  0.00     0.122 A 
ATOM     24  C   UNL A   1      27.510  29.699  22.338  1.00  0.00     0.041 A 
ATOM     25  N   UNL A   1      29.675  30.109  21.385  1.00  0.00    -0.244 NA
ATOM     26  C   UNL A   1      28.367  30.384  21.501  1.00  0.00     0.129 A 
ATOM     27  Cl  UNL A   1      27.824  31.679  20.524  1.00  0.00    -0.062 Cl
ENDBRANCH  20  21
ENDBRANCH  11  20
ENDBRANCH   3   6
ENDBRANCH   1   2
BRANCH   1  28
ATOM     28  C   UNL A   1      31.487  31.719  26.706  1.00  0.00     0.042 C 
BRANCH  28  29
ATOM     29  C   UNL A   1      32.765  32.443  27.073  1.00  0.00     0.118 C 
BRANCH  29  30
ATOM     30  N   UNL A   1      32.506  33.777  27.616  1.00  0.00    -0.352 N 
ATOM     31  C   UNL A   1      33.186  34.492  28.575  1.00  0.00     0.251 C 
ATOM     32  H   UNL A   1      31.723  34.236  27.235  1.00  0.00     0.163 HD
ATOM     33  O   UNL A   1      32.711  35.537  29.008  1.00  0.00    -0.269 OA
BRANCH  31  34
ATOM     34  C   UNL A   1      34.466  33.982  29.108  1.00  0.00     0.039 A 
ATOM     35  C   UNL A   1      34.471  33.254  30.301  1.00  0.00     0.014 A 
ATOM     36  C   UNL A   1      35.658  34.197  28.417  1.00  0.00     0.014 A 
ATOM     37  C   UNL A   1      35.659  32.674  30.749  1.00  0.00     0.010 A 
ATOM     38  C   UNL A   1      36.802  33.510  28.788  1.00  0.00     0.010 A 
ATOM     39  C   UNL A   1      36.822  32.756  29.967  1.00  0.00    -0.014 A 
BRANCH  39  40
ATOM     40  C   UNL A   1      38.088  32.093  30.366  1.00  0.00     0.031 A 
ATOM     41  C   UNL A   1      39.014  32.782  31.333  1.00  0.00     0.074 A 
ATOM     42  C   UNL A   1      38.445  30.930  29.788  1.00  0.00     0.049 A 
ATOM     43  N   UNL A   1      40.217  32.440  31.713  1.00  0.00    -0.248 NA
ATOM     44  C   UNL A   1      38.541  34.051  31.915  1.00  0.00     0.031 C 
ATOM     45  C   UNL A   1      37.661  30.200  28.789  1.00  0.00     0.029 A 
ATOM     46  N   UNL A   1      39.569  30.162  29.951  1.00  0.00    -0.354 N 
ATOM     47  C   UNL A   1      40.651  33.461  32.550  1.00  0.00     0.074 A 
ATOM     48  C   UNL A   1      39.615  34.467  32.566  1.00  0.00     0.031 C 
ATOM     49  C   UNL A   1      38.313  29.076  28.452  1.00  0.00     0.029 A 
ATOM     50  C   UNL A   1      39.579  29.027  29.176  1.00  0.00     0.049 A 
ATOM     51  H   UNL A   1      40.302  30.401  30.563  1.00  0.00     0.167 HD
ATOM     52  C   UNL A   1      41.796  33.538  33.267  1.00  0.00     0.037 A 
ATOM     53  C   UNL A   1      40.507  28.059  29.061  1.00  0.00     0.037 A 
ATOM     54  C   UNL A   1      42.800  32.511  33.279  1.00  0.00     0.049 A 
ATOM     55  C   UNL A   1      41.763  28.157  29.883  1.00  0.00     0.074 A 
ATOM     56  C   UNL A   1      43.966  32.451  34.023  1.00  0.00     0.029 A 
ATOM     57  N   UNL A   1      42.753  31.354  32.513  1.00  0.00    -0.354 N 
ATOM     58  N   UNL A   1      42.130  29.095  30.723  1.00  0.00    -0.248 NA
ATOM     59  C   UNL A   1      42.730  27.060  29.748  1.00  0.00     0.031 C 
ATOM     60  C   UNL A   1      44.644  31.279  33.675  1.00  0.00     0.029 A 
ATOM     61  C   UNL A   1      43.877  30.583  32.754  1.00  0.00     0.049 A 
ATOM     62  H   UNL A   1      42.026  31.118  31.891  1.00  0.00     0.167 HD
ATOM     63  C   UNL A   1      43.351  28.686  31.240  1.00  0.00     0.074 A 
ATOM     64  C   UNL A   1      43.657  27.409  30.628  1.00  0.00     0.031 C 
ATOM     65  C   UNL A   1      44.150  29.309  32.142  1.00  0.00     0.037 A 
BRANCH  52  66
ATOM     66  C   UNL A   1      42.011  34.767  34.102  1.00  0.00     0.057 A 
ATOM     67  C   UNL A   1      41.586  34.838  35.437  1.00  0.00     0.134 A 
ATOM     68  C   UNL A   1      42.670  35.885  33.577  1.00  0.00     0.134 A 
ATOM     69  F   UNL A   1      40.934  33.808  35.999  1.00  0.00    -0.206 F 
ATOM     70  C   UNL A   1      41.782  35.985  36.207  1.00  0.00     0.040 A 
ATOM     71  C   UNL A   1      42.899  37.027  34.346  1.00  0.00     0.040 A 
ATOM     72  F   UNL A   1      43.106  35.885  32.309  1.00  0.00    -0.206 F 
ATOM     73  C   UNL A   1      42.448  37.082  35.664  1.00  0.00     0.006 A 
ENDBRANCH  52  66
BRANCH  53  74
ATOM     74  C   UNL A   1      40.272  26.902  28.161  1.00  0.00     0.057 A 
ATOM     75  C   UNL A   1      40.792  26.883  26.861  1.00  0.00     0.134 A 
ATOM     76  C   UNL A   1      39.525  25.791  28.570  1.00  0.00     0.134 A 
ATOM     77  F   UNL A   1      41.504  27.923  26.405  1.00  0.00    -0.206 F 
ATOM     78  C   UNL A   1      40.560  25.814  25.994  1.00  0.00     0.040 A 
ATOM     79  C   UNL A   1      39.306  24.703  27.723  1.00  0.00     0.040 A 
ATOM     80  F   UNL A   1      39.009  25.740  29.807  1.00  0.00    -0.206 F 
ATOM     81  C   UNL A   1      39.817  24.717  26.426  1.00  0.00     0.006 A 
ENDBRANCH  53  74
BRANCH  65  82
ATOM     82  C   UNL A   1      45.405  28.597  32.553  1.00  0.00     0.057 A 
ATOM     83  C   UNL A   1      45.422  27.676  33.608  1.00  0.00     0.134 A 
ATOM     84  C   UNL A   1      46.599  28.802  31.850  1.00  0.00     0.134 A 
ATOM     85  F   UNL A   1      44.315  27.445  34.327  1.00  0.00    -0.206 F 
ATOM     86  C   UNL A   1      46.591  27.000  33.963  1.00  0.00     0.040 A 
ATOM     87  C   UNL A   1      47.765  28.112  32.177  1.00  0.00     0.040 A 
ATOM     88  F   UNL A   1      46.645  29.664  30.822  1.00  0.00    -0.206 F 
ATOM     89  C   UNL A   1      47.764  27.212  33.241  1.00  0.00     0.006 A 
ENDBRANCH  65  82
ENDBRANCH  39  40
ENDBRANCH  31  34
ENDBRANCH  29  30
ENDBRANCH  28  29
ENDBRANCH   1  28
TORSDOF 15
ENDMDL
