MODEL 1
REMARK VINA RESULT:     -12.6      0.000      0.000
REMARK SMILES O=C(NCCCNC(=O)[C@H]1[C@@H](C(=O)NNC(=O)c2ccccc2Cl)[C@H]2C=C[C@@H]1C2)c1ccc(-c2c3nc(c(-c4c(F)cccc4F)c4ccc([nH]4)c(-c4c(F)cccc4F)c4nc(c(-c5c(F)cccc5F)c5ccc2[nH]5)C=C4)C=C3)cc1
REMARK SMILES IDX 5 1 4 2 3 3 1 4 2 5 30 7 31 8 83 9 32 10 82 11 33 12 34 13
REMARK SMILES IDX 35 14 76 15 36 16 81 17 75 18 77 19 37 20 80 21 74 22 73 23
REMARK SMILES IDX 38 25 64 26 47 27 63 28 48 29 51 30 62 31 78 32 49 33 50 34
REMARK SMILES IDX 61 36 79 37 52 38 39 39 40 40 45 41 41 42 42 43 44 44 46 45
REMARK SMILES IDX 43 46 65 47 66 48 71 49 67 50 68 51 70 52 72 53 69 54 53 55
REMARK SMILES IDX 54 56 59 57 55 58 56 59 58 60 60 61 57 62 6 63 7 64 8 65
REMARK SMILES IDX 9 67 10 68 11 69 28 70 25 71 27 72 29 73 26 74 12 75 13 76
REMARK SMILES IDX 14 77 15 79 16 80 17 82 18 83 19 84 23 85 20 86 22 87 24 88
REMARK SMILES IDX 21 89
REMARK H PARENT 3 6 77 24 51 35 7 66 14 78 15 81
REMARK Flexibility Score: inf
ROOT
ATOM      1  C   UNL A   1      31.527  31.964  26.797  1.00  0.00     0.042 C 
ENDROOT
BRANCH   1   2
ATOM      2  C   UNL A   1      32.719  32.795  27.248  1.00  0.00     0.118 C 
BRANCH   2   3
ATOM      3  N   UNL A   1      32.345  34.111  27.748  1.00  0.00    -0.352 N 
ATOM      4  O   UNL A   1      32.544  36.115  28.757  1.00  0.00    -0.269 OA
ATOM      5  C   UNL A   1      33.008  35.002  28.549  1.00  0.00     0.251 C 
ATOM      6  H   UNL A   1      31.455  34.416  27.457  1.00  0.00     0.163 HD
BRANCH   5   7
ATOM      7  C   UNL A   1      34.226  34.582  29.252  1.00  0.00     0.039 A 
ATOM      8  C   UNL A   1      35.492  34.739  28.690  1.00  0.00     0.014 A 
ATOM      9  C   UNL A   1      34.056  33.950  30.487  1.00  0.00     0.014 A 
ATOM     10  C   UNL A   1      36.577  34.123  29.292  1.00  0.00     0.010 A 
ATOM     11  C   UNL A   1      35.157  33.405  31.131  1.00  0.00     0.010 A 
ATOM     12  C   UNL A   1      36.413  33.451  30.514  1.00  0.00    -0.014 A 
BRANCH  12  13
ATOM     13  C   UNL A   1      37.571  32.815  31.169  1.00  0.00     0.031 A 
ATOM     14  C   UNL A   1      38.240  31.633  30.538  1.00  0.00     0.074 A 
ATOM     15  C   UNL A   1      37.971  33.297  32.357  1.00  0.00     0.049 A 
ATOM     16  N   UNL A   1      39.197  30.880  31.011  1.00  0.00    -0.248 NA
ATOM     17  C   UNL A   1      37.759  31.233  29.205  1.00  0.00     0.031 C 
ATOM     18  C   UNL A   1      37.363  34.437  33.049  1.00  0.00     0.029 A 
ATOM     19  N   UNL A   1      38.968  32.886  33.197  1.00  0.00    -0.354 N 
ATOM     20  C   UNL A   1      39.411  29.897  30.054  1.00  0.00     0.074 A 
ATOM     21  C   UNL A   1      38.476  30.140  28.978  1.00  0.00     0.031 C 
ATOM     22  C   UNL A   1      38.006  34.639  34.206  1.00  0.00     0.029 A 
ATOM     23  C   UNL A   1      39.030  33.613  34.359  1.00  0.00     0.049 A 
ATOM     24  H   UNL A   1      39.581  32.145  32.989  1.00  0.00     0.167 HD
ATOM     25  C   UNL A   1      40.310  28.885  30.082  1.00  0.00     0.037 A 
ATOM     26  C   UNL A   1      39.804  33.445  35.444  1.00  0.00     0.037 A 
ATOM     27  C   UNL A   1      41.241  28.676  31.160  1.00  0.00     0.049 A 
ATOM     28  C   UNL A   1      40.797  32.324  35.449  1.00  0.00     0.074 A 
ATOM     29  C   UNL A   1      42.227  27.714  31.278  1.00  0.00     0.029 A 
ATOM     30  N   UNL A   1      41.294  29.450  32.312  1.00  0.00    -0.354 N 
ATOM     31  N   UNL A   1      41.014  31.416  34.526  1.00  0.00    -0.248 NA
ATOM     32  C   UNL A   1      41.649  32.199  36.635  1.00  0.00     0.031 C 
ATOM     33  C   UNL A   1      42.854  27.885  32.518  1.00  0.00     0.029 A 
ATOM     34  C   UNL A   1      42.284  28.977  33.155  1.00  0.00     0.049 A 
ATOM     35  H   UNL A   1      40.712  30.221  32.502  1.00  0.00     0.167 HD
ATOM     36  C   UNL A   1      42.037  30.618  35.013  1.00  0.00     0.074 A 
ATOM     37  C   UNL A   1      42.403  31.156  36.310  1.00  0.00     0.031 C 
ATOM     38  C   UNL A   1      42.623  29.539  34.439  1.00  0.00     0.037 A 
BRANCH  25  39
ATOM     39  C   UNL A   1      40.302  27.921  28.932  1.00  0.00     0.057 A 
ATOM     40  C   UNL A   1      39.573  26.725  28.968  1.00  0.00     0.134 A 
ATOM     41  C   UNL A   1      41.031  28.195  27.768  1.00  0.00     0.134 A 
ATOM     42  F   UNL A   1      38.866  26.393  30.059  1.00  0.00    -0.206 F 
ATOM     43  C   UNL A   1      39.592  25.825  27.901  1.00  0.00     0.040 A 
ATOM     44  C   UNL A   1      41.041  27.314  26.685  1.00  0.00     0.040 A 
ATOM     45  F   UNL A   1      41.750  29.324  27.664  1.00  0.00    -0.206 F 
ATOM     46  C   UNL A   1      40.325  26.120  26.752  1.00  0.00     0.006 A 
ENDBRANCH  25  39
BRANCH  26  47
ATOM     47  C   UNL A   1      39.645  34.371  36.587  1.00  0.00     0.057 A 
ATOM     48  C   UNL A   1      38.920  33.997  37.722  1.00  0.00     0.134 A 
ATOM     49  C   UNL A   1      40.296  35.611  36.612  1.00  0.00     0.134 A 
ATOM     50  F   UNL A   1      38.273  32.823  37.754  1.00  0.00    -0.206 F 
ATOM     51  C   UNL A   1      38.853  34.822  38.847  1.00  0.00     0.040 A 
ATOM     52  C   UNL A   1      40.256  36.435  37.736  1.00  0.00     0.040 A 
ATOM     53  F   UNL A   1      41.024  36.014  35.560  1.00  0.00    -0.206 F 
ATOM     54  C   UNL A   1      39.532  36.040  38.859  1.00  0.00     0.006 A 
ENDBRANCH  26  47
BRANCH  38  55
ATOM     55  C   UNL A   1      43.734  28.889  35.202  1.00  0.00     0.057 A 
ATOM     56  C   UNL A   1      43.486  27.883  36.143  1.00  0.00     0.134 A 
ATOM     57  C   UNL A   1      45.066  29.235  34.949  1.00  0.00     0.134 A 
ATOM     58  F   UNL A   1      42.228  27.520  36.435  1.00  0.00    -0.206 F 
ATOM     59  C   UNL A   1      44.530  27.249  36.816  1.00  0.00     0.040 A 
ATOM     60  C   UNL A   1      46.118  28.595  35.602  1.00  0.00     0.040 A 
ATOM     61  F   UNL A   1      45.363  30.189  34.053  1.00  0.00    -0.206 F 
ATOM     62  C   UNL A   1      45.851  27.599  36.540  1.00  0.00     0.006 A 
ENDBRANCH  38  55
ENDBRANCH  12  13
ENDBRANCH   5   7
ENDBRANCH   2   3
ENDBRANCH   1   2
BRANCH   1  63
ATOM     63  C   UNL A   1      31.758  30.465  26.879  1.00  0.00     0.117 C 
BRANCH  63  64
ATOM     64  N   UNL A   1      33.125  30.057  26.644  1.00  0.00    -0.356 N 
ATOM     65  C   UNL A   1      33.581  28.848  26.187  1.00  0.00     0.224 C 
ATOM     66  H   UNL A   1      33.815  30.732  26.836  1.00  0.00     0.163 HD
ATOM     67  O   UNL A   1      34.785  28.719  25.981  1.00  0.00    -0.275 OA
BRANCH  65  68
ATOM     68  C   UNL A   1      32.569  27.730  26.038  1.00  0.00     0.098 C 
ATOM     69  C   UNL A   1      31.681  27.697  24.747  1.00  0.00     0.100 C 
ATOM     70  C   UNL A   1      33.147  26.295  26.113  1.00  0.00     0.025 C 
ATOM     71  C   UNL A   1      31.792  26.189  24.335  1.00  0.00     0.025 C 
ATOM     72  C   UNL A   1      34.002  25.976  24.916  1.00  0.00    -0.027 C 
ATOM     73  C   UNL A   1      31.894  25.504  25.707  1.00  0.00     0.017 C 
ATOM     74  C   UNL A   1      33.188  25.874  23.857  1.00  0.00    -0.027 C 
BRANCH  69  75
ATOM     75  C   UNL A   1      32.047  28.653  23.601  1.00  0.00     0.242 C 
ATOM     76  O   UNL A   1      33.093  29.301  23.570  1.00  0.00    -0.273 OA
ATOM     77  N   UNL A   1      31.221  28.798  22.515  1.00  0.00    -0.267 N 
ATOM     78  H   UNL A   1      31.581  29.313  21.756  1.00  0.00     0.191 HD
BRANCH  77  79
ATOM     79  N   UNL A   1      29.936  28.300  22.368  1.00  0.00    -0.263 N 
ATOM     80  C   UNL A   1      28.808  29.038  22.686  1.00  0.00     0.271 C 
ATOM     81  H   UNL A   1      29.820  27.385  22.024  1.00  0.00     0.191 HD
ATOM     82  O   UNL A   1      27.756  28.465  22.957  1.00  0.00    -0.267 OA
BRANCH  80  83
ATOM     83  C   UNL A   1      28.887  30.514  22.761  1.00  0.00     0.060 A 
ATOM     84  C   UNL A   1      29.357  31.104  23.942  1.00  0.00     0.015 A 
ATOM     85  C   UNL A   1      28.433  31.326  21.718  1.00  0.00     0.053 A 
ATOM     86  C   UNL A   1      29.391  32.493  24.074  1.00  0.00     0.001 A 
ATOM     87  C   UNL A   1      28.478  32.718  21.852  1.00  0.00     0.021 A 
ATOM     88  Cl  UNL A   1      27.784  30.679  20.255  1.00  0.00    -0.083 Cl
ATOM     89  C   UNL A   1      28.955  33.300  23.028  1.00  0.00     0.002 A 
ENDBRANCH  80  83
ENDBRANCH  77  79
ENDBRANCH  69  75
ENDBRANCH  65  68
ENDBRANCH  63  64
ENDBRANCH   1  63
TORSDOF 13
ENDMDL
MODEL 2
REMARK VINA RESULT:     -12.5      0.640      6.276
REMARK SMILES O=C(NCCCNC(=O)[C@H]1[C@@H](C(=O)NNC(=O)c2ccccc2Cl)[C@H]2C=C[C@@H]1C2)c1ccc(-c2c3nc(c(-c4c(F)cccc4F)c4ccc([nH]4)c(-c4c(F)cccc4F)c4nc(c(-c5c(F)cccc5F)c5ccc2[nH]5)C=C4)C=C3)cc1
REMARK SMILES IDX 5 1 4 2 3 3 1 4 2 5 30 7 31 8 83 9 32 10 82 11 33 12 34 13
REMARK SMILES IDX 35 14 76 15 36 16 81 17 75 18 77 19 37 20 80 21 74 22 73 23
REMARK SMILES IDX 38 25 64 26 47 27 63 28 48 29 51 30 62 31 78 32 49 33 50 34
REMARK SMILES IDX 61 36 79 37 52 38 39 39 40 40 45 41 41 42 42 43 44 44 46 45
REMARK SMILES IDX 43 46 65 47 66 48 71 49 67 50 68 51 70 52 72 53 69 54 53 55
REMARK SMILES IDX 54 56 59 57 55 58 56 59 58 60 60 61 57 62 6 63 7 64 8 65
REMARK SMILES IDX 9 67 10 68 11 69 28 70 25 71 27 72 29 73 26 74 12 75 13 76
REMARK SMILES IDX 14 77 15 79 16 80 17 82 18 83 19 84 23 85 20 86 22 87 24 88
REMARK SMILES IDX 21 89
REMARK H PARENT 3 6 77 24 51 35 7 66 14 78 15 81
REMARK Flexibility Score: inf
ROOT
ATOM      1  C   UNL A   1      31.423  32.139  26.652  1.00  0.00     0.042 C 
ENDROOT
BRANCH   1   2
ATOM      2  C   UNL A   1      32.644  32.869  27.193  1.00  0.00     0.118 C 
BRANCH   2   3
ATOM      3  N   UNL A   1      32.327  34.168  27.771  1.00  0.00    -0.352 N 
ATOM      4  O   UNL A   1      32.615  36.102  28.890  1.00  0.00    -0.269 OA
ATOM      5  C   UNL A   1      33.032  34.985  28.614  1.00  0.00     0.251 C 
ATOM      6  H   UNL A   1      31.447  34.523  27.508  1.00  0.00     0.163 HD
BRANCH   5   7
ATOM      7  C   UNL A   1      34.239  34.478  29.277  1.00  0.00     0.039 A 
ATOM      8  C   UNL A   1      35.507  34.634  28.720  1.00  0.00     0.014 A 
ATOM      9  C   UNL A   1      34.054  33.768  30.466  1.00  0.00     0.014 A 
ATOM     10  C   UNL A   1      36.575  33.943  29.270  1.00  0.00     0.010 A 
ATOM     11  C   UNL A   1      35.140  33.144  31.063  1.00  0.00     0.010 A 
ATOM     12  C   UNL A   1      36.394  33.193  30.442  1.00  0.00    -0.014 A 
BRANCH  12  13
ATOM     13  C   UNL A   1      37.534  32.476  31.044  1.00  0.00     0.031 A 
ATOM     14  C   UNL A   1      38.147  32.969  32.319  1.00  0.00     0.074 A 
ATOM     15  C   UNL A   1      38.026  31.409  30.395  1.00  0.00     0.049 A 
ATOM     16  N   UNL A   1      39.213  32.539  32.939  1.00  0.00    -0.248 NA
ATOM     17  C   UNL A   1      37.484  34.108  32.976  1.00  0.00     0.031 C 
ATOM     18  C   UNL A   1      37.497  30.872  29.138  1.00  0.00     0.029 A 
ATOM     19  N   UNL A   1      39.084  30.594  30.690  1.00  0.00    -0.354 N 
ATOM     20  C   UNL A   1      39.371  33.371  34.039  1.00  0.00     0.074 A 
ATOM     21  C   UNL A   1      38.299  34.341  33.995  1.00  0.00     0.031 C 
ATOM     22  C   UNL A   1      38.228  29.811  28.774  1.00  0.00     0.029 A 
ATOM     23  C   UNL A   1      39.305  29.630  29.739  1.00  0.00     0.049 A 
ATOM     24  H   UNL A   1      39.630  30.688  31.503  1.00  0.00     0.167 HD
ATOM     25  C   UNL A   1      40.330  33.322  34.993  1.00  0.00     0.037 A 
ATOM     26  C   UNL A   1      40.292  28.723  29.640  1.00  0.00     0.037 A 
ATOM     27  C   UNL A   1      41.377  32.334  35.021  1.00  0.00     0.049 A 
ATOM     28  C   UNL A   1      41.337  28.683  30.712  1.00  0.00     0.074 A 
ATOM     29  C   UNL A   1      42.376  32.157  35.960  1.00  0.00     0.029 A 
ATOM     30  N   UNL A   1      41.555  31.354  34.054  1.00  0.00    -0.354 N 
ATOM     31  N   UNL A   1      41.463  29.455  31.765  1.00  0.00    -0.248 NA
ATOM     32  C   UNL A   1      42.374  27.654  30.587  1.00  0.00     0.031 C 
ATOM     33  C   UNL A   1      43.180  31.090  35.542  1.00  0.00     0.029 A 
ATOM     34  C   UNL A   1      42.659  30.578  34.364  1.00  0.00     0.049 A 
ATOM     35  H   UNL A   1      40.982  31.228  33.264  1.00  0.00     0.167 HD
ATOM     36  C   UNL A   1      42.585  28.999  32.439  1.00  0.00     0.074 A 
ATOM     37  C   UNL A   1      43.099  27.876  31.677  1.00  0.00     0.031 C 
ATOM     38  C   UNL A   1      43.140  29.465  33.583  1.00  0.00     0.037 A 
BRANCH  25  39
ATOM     39  C   UNL A   1      40.303  34.381  36.056  1.00  0.00     0.057 A 
ATOM     40  C   UNL A   1      41.002  35.588  35.923  1.00  0.00     0.134 A 
ATOM     41  C   UNL A   1      39.562  34.193  37.229  1.00  0.00     0.134 A 
ATOM     42  F   UNL A   1      41.744  35.826  34.831  1.00  0.00    -0.206 F 
ATOM     43  C   UNL A   1      40.987  36.557  36.929  1.00  0.00     0.040 A 
ATOM     44  C   UNL A   1      39.522  35.162  38.234  1.00  0.00     0.040 A 
ATOM     45  F   UNL A   1      38.866  33.062  37.422  1.00  0.00    -0.206 F 
ATOM     46  C   UNL A   1      40.242  36.346  38.088  1.00  0.00     0.006 A 
ENDBRANCH  25  39
BRANCH  26  47
ATOM     47  C   UNL A   1      40.306  27.805  28.480  1.00  0.00     0.057 A 
ATOM     48  C   UNL A   1      41.013  28.125  27.317  1.00  0.00     0.134 A 
ATOM     49  C   UNL A   1      39.697  26.545  28.545  1.00  0.00     0.134 A 
ATOM     50  F   UNL A   1      41.613  29.318  27.198  1.00  0.00    -0.206 F 
ATOM     51  C   UNL A   1      41.120  27.220  26.259  1.00  0.00     0.040 A 
ATOM     52  C   UNL A   1      39.814  25.624  27.504  1.00  0.00     0.040 A 
ATOM     53  F   UNL A   1      39.024  26.176  29.644  1.00  0.00    -0.206 F 
ATOM     54  C   UNL A   1      40.528  25.961  26.356  1.00  0.00     0.006 A 
ENDBRANCH  26  47
BRANCH  38  55
ATOM     55  C   UNL A   1      44.349  28.744  34.090  1.00  0.00     0.057 A 
ATOM     56  C   UNL A   1      45.644  29.167  33.769  1.00  0.00     0.134 A 
ATOM     57  C   UNL A   1      44.214  27.649  34.951  1.00  0.00     0.134 A 
ATOM     58  F   UNL A   1      45.833  30.202  32.936  1.00  0.00    -0.206 F 
ATOM     59  C   UNL A   1      46.766  28.518  34.282  1.00  0.00     0.040 A 
ATOM     60  C   UNL A   1      45.328  27.004  35.485  1.00  0.00     0.040 A 
ATOM     61  F   UNL A   1      42.998  27.202  35.298  1.00  0.00    -0.206 F 
ATOM     62  C   UNL A   1      46.609  27.438  35.150  1.00  0.00     0.006 A 
ENDBRANCH  38  55
ENDBRANCH  12  13
ENDBRANCH   5   7
ENDBRANCH   2   3
ENDBRANCH   1   2
BRANCH   1  63
ATOM     63  C   UNL A   1      31.596  30.633  26.571  1.00  0.00     0.117 C 
BRANCH  63  64
ATOM     64  N   UNL A   1      32.963  30.196  26.392  1.00  0.00    -0.356 N 
ATOM     65  C   UNL A   1      33.415  28.948  26.050  1.00  0.00     0.224 C 
ATOM     66  H   UNL A   1      33.656  30.880  26.534  1.00  0.00     0.163 HD
ATOM     67  O   UNL A   1      34.620  28.793  25.874  1.00  0.00    -0.275 OA
BRANCH  65  68
ATOM     68  C   UNL A   1      32.396  27.829  25.985  1.00  0.00     0.098 C 
ATOM     69  C   UNL A   1      31.492  27.718  24.710  1.00  0.00     0.100 C 
ATOM     70  C   UNL A   1      32.968  26.398  26.145  1.00  0.00     0.025 C 
ATOM     71  C   UNL A   1      31.591  26.186  24.394  1.00  0.00     0.025 C 
ATOM     72  C   UNL A   1      33.807  25.998  24.960  1.00  0.00    -0.027 C 
ATOM     73  C   UNL A   1      31.707  25.589  25.806  1.00  0.00     0.017 C 
ATOM     74  C   UNL A   1      32.980  25.833  23.921  1.00  0.00    -0.027 C 
BRANCH  69  75
ATOM     75  C   UNL A   1      31.848  28.596  23.500  1.00  0.00     0.242 C 
ATOM     76  O   UNL A   1      32.915  29.202  23.396  1.00  0.00    -0.273 OA
ATOM     77  N   UNL A   1      30.987  28.714  22.438  1.00  0.00    -0.267 N 
ATOM     78  H   UNL A   1      31.336  29.174  21.640  1.00  0.00     0.191 HD
BRANCH  77  79
ATOM     79  N   UNL A   1      29.680  28.257  22.366  1.00  0.00    -0.263 N 
ATOM     80  C   UNL A   1      28.594  29.042  22.717  1.00  0.00     0.271 C 
ATOM     81  H   UNL A   1      29.517  27.339  22.052  1.00  0.00     0.191 HD
ATOM     82  O   UNL A   1      27.538  28.513  23.052  1.00  0.00    -0.267 OA
BRANCH  80  83
ATOM     83  C   UNL A   1      28.726  30.516  22.748  1.00  0.00     0.060 A 
ATOM     84  C   UNL A   1      29.143  31.129  23.937  1.00  0.00     0.015 A 
ATOM     85  C   UNL A   1      28.373  31.307  21.652  1.00  0.00     0.053 A 
ATOM     86  C   UNL A   1      29.223  32.520  24.025  1.00  0.00     0.001 A 
ATOM     87  C   UNL A   1      28.465  32.700  21.742  1.00  0.00     0.021 A 
ATOM     88  Cl  UNL A   1      27.794  30.633  20.171  1.00  0.00    -0.083 Cl
ATOM     89  C   UNL A   1      28.888  33.305  22.927  1.00  0.00     0.002 A 
ENDBRANCH  80  83
ENDBRANCH  77  79
ENDBRANCH  69  75
ENDBRANCH  65  68
ENDBRANCH  63  64
ENDBRANCH   1  63
TORSDOF 13
ENDMDL
MODEL 3
REMARK VINA RESULT:     -12.4      2.121      7.184
REMARK SMILES O=C(NCCCNC(=O)[C@H]1[C@@H](C(=O)NNC(=O)c2ccccc2Cl)[C@H]2C=C[C@@H]1C2)c1ccc(-c2c3nc(c(-c4c(F)cccc4F)c4ccc([nH]4)c(-c4c(F)cccc4F)c4nc(c(-c5c(F)cccc5F)c5ccc2[nH]5)C=C4)C=C3)cc1
REMARK SMILES IDX 5 1 4 2 3 3 1 4 2 5 30 7 31 8 83 9 32 10 82 11 33 12 34 13
REMARK SMILES IDX 35 14 76 15 36 16 81 17 75 18 77 19 37 20 80 21 74 22 73 23
REMARK SMILES IDX 38 25 64 26 47 27 63 28 48 29 51 30 62 31 78 32 49 33 50 34
REMARK SMILES IDX 61 36 79 37 52 38 39 39 40 40 45 41 41 42 42 43 44 44 46 45
REMARK SMILES IDX 43 46 65 47 66 48 71 49 67 50 68 51 70 52 72 53 69 54 53 55
REMARK SMILES IDX 54 56 59 57 55 58 56 59 58 60 60 61 57 62 6 63 7 64 8 65
REMARK SMILES IDX 9 67 10 68 11 69 28 70 25 71 27 72 29 73 26 74 12 75 13 76
REMARK SMILES IDX 14 77 15 79 16 80 17 82 18 83 19 84 23 85 20 86 22 87 24 88
REMARK SMILES IDX 21 89
REMARK H PARENT 3 6 77 24 51 35 7 66 14 78 15 81
REMARK Flexibility Score: inf
ROOT
ATOM      1  C   UNL A   1      31.375  32.458  26.509  1.00  0.00     0.042 C 
ENDROOT
BRANCH   1   2
ATOM      2  C   UNL A   1      32.542  33.028  27.302  1.00  0.00     0.118 C 
BRANCH   2   3
ATOM      3  N   UNL A   1      32.278  34.355  27.840  1.00  0.00    -0.352 N 
ATOM      4  O   UNL A   1      32.645  36.310  28.898  1.00  0.00    -0.269 OA
ATOM      5  C   UNL A   1      33.018  35.169  28.655  1.00  0.00     0.251 C 
ATOM      6  H   UNL A   1      31.412  34.736  27.569  1.00  0.00     0.163 HD
BRANCH   5   7
ATOM      7  C   UNL A   1      34.206  34.637  29.331  1.00  0.00     0.039 A 
ATOM      8  C   UNL A   1      35.467  34.666  28.737  1.00  0.00     0.014 A 
ATOM      9  C   UNL A   1      34.007  34.033  30.576  1.00  0.00     0.014 A 
ATOM     10  C   UNL A   1      36.502  33.950  29.318  1.00  0.00     0.010 A 
ATOM     11  C   UNL A   1      35.066  33.387  31.197  1.00  0.00     0.010 A 
ATOM     12  C   UNL A   1      36.305  33.305  30.549  1.00  0.00    -0.014 A 
BRANCH  12  13
ATOM     13  C   UNL A   1      37.411  32.564  31.181  1.00  0.00     0.031 A 
ATOM     14  C   UNL A   1      37.966  33.014  32.497  1.00  0.00     0.074 A 
ATOM     15  C   UNL A   1      37.928  31.513  30.523  1.00  0.00     0.049 A 
ATOM     16  N   UNL A   1      38.999  32.558  33.153  1.00  0.00    -0.248 NA
ATOM     17  C   UNL A   1      37.279  34.136  33.157  1.00  0.00     0.031 C 
ATOM     18  C   UNL A   1      37.456  31.018  29.227  1.00  0.00     0.029 A 
ATOM     19  N   UNL A   1      38.966  30.683  30.842  1.00  0.00    -0.354 N 
ATOM     20  C   UNL A   1      39.110  33.356  34.284  1.00  0.00     0.074 A 
ATOM     21  C   UNL A   1      38.047  34.334  34.220  1.00  0.00     0.031 C 
ATOM     22  C   UNL A   1      38.198  29.964  28.865  1.00  0.00     0.029 A 
ATOM     23  C   UNL A   1      39.227  29.747  29.874  1.00  0.00     0.049 A 
ATOM     24  H   UNL A   1      39.474  30.749  31.682  1.00  0.00     0.167 HD
ATOM     25  C   UNL A   1      40.023  33.272  35.280  1.00  0.00     0.037 A 
ATOM     26  C   UNL A   1      40.213  28.837  29.793  1.00  0.00     0.037 A 
ATOM     27  C   UNL A   1      41.062  32.277  35.326  1.00  0.00     0.049 A 
ATOM     28  C   UNL A   1      41.207  28.758  30.911  1.00  0.00     0.074 A 
ATOM     29  C   UNL A   1      42.016  32.065  36.305  1.00  0.00     0.029 A 
ATOM     30  N   UNL A   1      41.281  31.325  34.339  1.00  0.00    -0.354 N 
ATOM     31  N   UNL A   1      41.287  29.497  31.992  1.00  0.00    -0.248 NA
ATOM     32  C   UNL A   1      42.243  27.726  30.803  1.00  0.00     0.031 C 
ATOM     33  C   UNL A   1      42.833  31.006  35.893  1.00  0.00     0.029 A 
ATOM     34  C   UNL A   1      42.366  30.533  34.676  1.00  0.00     0.049 A 
ATOM     35  H   UNL A   1      40.745  31.227  33.520  1.00  0.00     0.167 HD
ATOM     36  C   UNL A   1      42.374  29.014  32.703  1.00  0.00     0.074 A 
ATOM     37  C   UNL A   1      42.917  27.910  31.932  1.00  0.00     0.031 C 
ATOM     38  C   UNL A   1      42.877  29.441  33.886  1.00  0.00     0.037 A 
BRANCH  25  39
ATOM     39  C   UNL A   1      39.951  34.298  36.372  1.00  0.00     0.057 A 
ATOM     40  C   UNL A   1      40.557  35.556  36.253  1.00  0.00     0.134 A 
ATOM     41  C   UNL A   1      39.263  34.026  37.561  1.00  0.00     0.134 A 
ATOM     42  F   UNL A   1      41.246  35.877  35.147  1.00  0.00    -0.206 F 
ATOM     43  C   UNL A   1      40.502  36.495  37.285  1.00  0.00     0.040 A 
ATOM     44  C   UNL A   1      39.183  34.964  38.592  1.00  0.00     0.040 A 
ATOM     45  F   UNL A   1      38.657  32.842  37.741  1.00  0.00    -0.206 F 
ATOM     46  C   UNL A   1      39.811  36.201  38.459  1.00  0.00     0.006 A 
ENDBRANCH  25  39
BRANCH  26  47
ATOM     47  C   UNL A   1      40.277  27.955  28.607  1.00  0.00     0.057 A 
ATOM     48  C   UNL A   1      41.018  28.317  27.478  1.00  0.00     0.134 A 
ATOM     49  C   UNL A   1      39.682  26.687  28.614  1.00  0.00     0.134 A 
ATOM     50  F   UNL A   1      41.607  29.520  27.415  1.00  0.00    -0.206 F 
ATOM     51  C   UNL A   1      41.171  27.445  26.399  1.00  0.00     0.040 A 
ATOM     52  C   UNL A   1      39.844  25.798  27.552  1.00  0.00     0.040 A 
ATOM     53  F   UNL A   1      38.977  26.276  29.679  1.00  0.00    -0.206 F 
ATOM     54  C   UNL A   1      40.592  26.178  26.439  1.00  0.00     0.006 A 
ENDBRANCH  26  47
BRANCH  38  55
ATOM     55  C   UNL A   1      44.058  28.697  34.426  1.00  0.00     0.057 A 
ATOM     56  C   UNL A   1      45.368  29.112  34.164  1.00  0.00     0.134 A 
ATOM     57  C   UNL A   1      43.877  27.588  35.260  1.00  0.00     0.134 A 
ATOM     58  F   UNL A   1      45.601  30.161  33.361  1.00  0.00    -0.206 F 
ATOM     59  C   UNL A   1      46.463  28.441  34.709  1.00  0.00     0.040 A 
ATOM     60  C   UNL A   1      44.962  26.921  35.826  1.00  0.00     0.040 A 
ATOM     61  F   UNL A   1      42.643  27.148  35.549  1.00  0.00    -0.206 F 
ATOM     62  C   UNL A   1      46.260  27.347  35.549  1.00  0.00     0.006 A 
ENDBRANCH  38  55
ENDBRANCH  12  13
ENDBRANCH   5   7
ENDBRANCH   2   3
ENDBRANCH   1   2
BRANCH   1  63
ATOM     63  C   UNL A   1      31.419  30.948  26.352  1.00  0.00     0.117 C 
BRANCH  63  64
ATOM     64  N   UNL A   1      31.255  30.484  24.992  1.00  0.00    -0.356 N 
ATOM     65  C   UNL A   1      31.582  29.259  24.471  1.00  0.00     0.224 C 
ATOM     66  H   UNL A   1      30.859  31.127  24.361  1.00  0.00     0.163 HD
ATOM     67  O   UNL A   1      31.295  29.029  23.299  1.00  0.00    -0.275 OA
BRANCH  65  68
ATOM     68  C   UNL A   1      32.344  28.300  25.363  1.00  0.00     0.098 C 
ATOM     69  C   UNL A   1      31.717  26.893  25.650  1.00  0.00     0.100 C 
ATOM     70  C   UNL A   1      33.785  27.965  24.902  1.00  0.00     0.025 C 
ATOM     71  C   UNL A   1      32.950  25.954  25.420  1.00  0.00     0.025 C 
ATOM     72  C   UNL A   1      33.788  27.140  23.643  1.00  0.00    -0.027 C 
ATOM     73  C   UNL A   1      34.107  26.844  25.901  1.00  0.00     0.017 C 
ATOM     74  C   UNL A   1      33.326  25.924  23.958  1.00  0.00    -0.027 C 
BRANCH  69  75
ATOM     75  C   UNL A   1      30.491  26.473  24.825  1.00  0.00     0.242 C 
ATOM     76  O   UNL A   1      30.204  26.975  23.738  1.00  0.00    -0.273 OA
ATOM     77  N   UNL A   1      29.663  25.467  25.258  1.00  0.00    -0.267 N 
ATOM     78  H   UNL A   1      28.983  25.154  24.617  1.00  0.00     0.191 HD
BRANCH  77  79
ATOM     79  N   UNL A   1      29.679  24.845  26.496  1.00  0.00    -0.263 N 
ATOM     80  C   UNL A   1      30.247  23.598  26.697  1.00  0.00     0.271 C 
ATOM     81  H   UNL A   1      29.270  25.306  27.263  1.00  0.00     0.191 HD
ATOM     82  O   UNL A   1      29.884  22.904  27.642  1.00  0.00    -0.267 OA
BRANCH  80  83
ATOM     83  C   UNL A   1      31.245  23.076  25.737  1.00  0.00     0.060 A 
ATOM     84  C   UNL A   1      30.901  23.004  24.381  1.00  0.00     0.015 A 
ATOM     85  C   UNL A   1      32.483  22.587  26.161  1.00  0.00     0.053 A 
ATOM     86  C   UNL A   1      31.792  22.463  23.452  1.00  0.00     0.001 A 
ATOM     87  C   UNL A   1      33.377  22.054  25.225  1.00  0.00     0.021 A 
ATOM     88  Cl  UNL A   1      32.960  22.584  27.820  1.00  0.00    -0.083 Cl
ATOM     89  C   UNL A   1      33.032  21.992  23.873  1.00  0.00     0.002 A 
ENDBRANCH  80  83
ENDBRANCH  77  79
ENDBRANCH  69  75
ENDBRANCH  65  68
ENDBRANCH  63  64
ENDBRANCH   1  63
TORSDOF 13
ENDMDL
