MODEL 1
REMARK VINA RESULT:     -12.2      0.000      0.000
REMARK SMILES O=C(NCCCNC(=O)c1ccc(-c2c3nc(c(-c4c(F)cccc4F)c4ccc([nH]4)c(-c4c(F)cccc4F)c4nc(c(-c5c(F)cccc5F)c5ccc2[nH]5)C=C4)C=C3)cc1)C1=Cc2cc(Cl)c(Cl)c(Cl)c2O[C@@H]1C(F)(F)F
REMARK SMILES IDX 5 1 4 2 3 3 1 4 2 5 64 7 65 8 76 9 66 10 75 11 67 12 74 13
REMARK SMILES IDX 68 14 72 15 69 16 70 17 73 18 71 19 77 20 78 21 79 22 80 23
REMARK SMILES IDX 6 24 7 25 8 26 9 28 10 29 11 30 63 31 12 32 62 33 13 34
REMARK SMILES IDX 14 35 15 36 56 37 16 38 61 39 55 40 57 41 17 42 60 43 54 44
REMARK SMILES IDX 53 45 18 47 44 48 27 49 43 50 28 51 31 52 42 53 58 54 29 55
REMARK SMILES IDX 30 56 41 58 59 59 32 60 19 61 20 62 25 63 21 64 22 65 24 66
REMARK SMILES IDX 26 67 23 68 45 69 46 70 51 71 47 72 48 73 50 74 52 75 49 76
REMARK SMILES IDX 33 77 34 78 39 79 35 80 36 81 38 82 40 83 37 84
REMARK H PARENT 3 6 7 27 57 46 31 57
REMARK Flexibility Score: inf
ROOT
ATOM      1  C   UNL A   1      32.084  28.269  27.186  1.00  0.00     0.042 C 
ENDROOT
BRANCH   1   2
ATOM      2  C   UNL A   1      31.984  27.049  26.277  1.00  0.00     0.118 C 
BRANCH   2   3
ATOM      3  N   UNL A   1      31.550  25.840  26.982  1.00  0.00    -0.352 N 
ATOM      4  O   UNL A   1      31.572  23.645  27.558  1.00  0.00    -0.270 OA
ATOM      5  C   UNL A   1      31.866  24.522  26.761  1.00  0.00     0.251 C 
ATOM      6  H   UNL A   1      30.936  25.998  27.734  1.00  0.00     0.163 HD
BRANCH   5   7
ATOM      7  C   UNL A   1      32.606  24.220  25.523  1.00  0.00     0.067 C 
ATOM      8  C   UNL A   1      33.889  24.598  25.503  1.00  0.00     0.025 C 
ATOM      9  C   UNL A   1      32.031  23.189  24.607  1.00  0.00     0.314 C 
ATOM     10  C   UNL A   1      34.799  23.564  25.004  1.00  0.00     0.020 A 
ATOM     11  O   UNL A   1      32.954  22.101  24.357  1.00  0.00    -0.474 OA
ATOM     12  C   UNL A   1      36.148  23.695  25.338  1.00  0.00     0.034 A 
ATOM     13  C   UNL A   1      34.292  22.310  24.615  1.00  0.00     0.148 A 
ATOM     14  C   UNL A   1      36.960  22.563  25.419  1.00  0.00     0.062 A 
ATOM     15  C   UNL A   1      35.119  21.174  24.669  1.00  0.00     0.103 A 
ATOM     16  Cl  UNL A   1      38.557  22.800  26.046  1.00  0.00    -0.083 Cl
ATOM     17  C   UNL A   1      36.448  21.293  25.113  1.00  0.00     0.082 A 
ATOM     18  Cl  UNL A   1      34.417  19.616  24.348  1.00  0.00    -0.079 Cl
ATOM     19  Cl  UNL A   1      37.422  19.878  25.375  1.00  0.00    -0.081 Cl
BRANCH   9  20
ATOM     20  C   UNL A   1      31.550  23.812  23.286  1.00  0.00     0.429 C 
ATOM     21  F   UNL A   1      30.244  23.527  23.061  1.00  0.00    -0.167 F 
ATOM     22  F   UNL A   1      31.663  25.160  23.291  1.00  0.00    -0.167 F 
ATOM     23  F   UNL A   1      32.251  23.350  22.224  1.00  0.00    -0.167 F 
ENDBRANCH   9  20
ENDBRANCH   5   7
ENDBRANCH   2   3
ENDBRANCH   1   2
BRANCH   1  24
ATOM     24  C   UNL A   1      33.500  28.830  27.257  1.00  0.00     0.118 C 
BRANCH  24  25
ATOM     25  N   UNL A   1      33.579  30.183  27.797  1.00  0.00    -0.352 N 
ATOM     26  C   UNL A   1      34.640  30.852  28.376  1.00  0.00     0.251 C 
ATOM     27  H   UNL A   1      32.743  30.702  27.740  1.00  0.00     0.163 HD
ATOM     28  O   UNL A   1      34.480  31.979  28.818  1.00  0.00    -0.269 OA
BRANCH  26  29
ATOM     29  C   UNL A   1      35.961  30.190  28.501  1.00  0.00     0.039 A 
ATOM     30  C   UNL A   1      36.858  30.249  27.430  1.00  0.00     0.014 A 
ATOM     31  C   UNL A   1      36.327  29.538  29.676  1.00  0.00     0.014 A 
ATOM     32  C   UNL A   1      38.155  29.748  27.580  1.00  0.00     0.010 A 
ATOM     33  C   UNL A   1      37.648  29.152  29.866  1.00  0.00     0.010 A 
ATOM     34  C   UNL A   1      38.580  29.247  28.820  1.00  0.00    -0.014 A 
BRANCH  34  35
ATOM     35  C   UNL A   1      39.976  28.796  29.064  1.00  0.00     0.031 A 
ATOM     36  C   UNL A   1      40.976  29.759  29.651  1.00  0.00     0.074 A 
ATOM     37  C   UNL A   1      40.378  27.575  28.655  1.00  0.00     0.049 A 
ATOM     38  N   UNL A   1      42.275  29.644  29.759  1.00  0.00    -0.248 NA
ATOM     39  C   UNL A   1      40.448  31.049  30.127  1.00  0.00     0.031 C 
ATOM     40  C   UNL A   1      39.528  26.568  28.016  1.00  0.00     0.029 A 
ATOM     41  N   UNL A   1      41.615  26.982  28.699  1.00  0.00    -0.354 N 
ATOM     42  C   UNL A   1      42.719  30.860  30.265  1.00  0.00     0.074 A 
ATOM     43  C   UNL A   1      41.561  31.717  30.388  1.00  0.00     0.031 C 
ATOM     44  C   UNL A   1      40.262  25.474  27.756  1.00  0.00     0.029 A 
ATOM     45  C   UNL A   1      41.641  25.716  28.164  1.00  0.00     0.049 A 
ATOM     46  H   UNL A   1      42.411  27.422  29.078  1.00  0.00     0.167 HD
ATOM     47  C   UNL A   1      43.974  31.223  30.622  1.00  0.00     0.037 A 
ATOM     48  C   UNL A   1      42.663  24.853  28.014  1.00  0.00     0.037 A 
ATOM     49  C   UNL A   1      45.109  30.342  30.573  1.00  0.00     0.049 A 
ATOM     50  C   UNL A   1      44.036  25.255  28.475  1.00  0.00     0.074 A 
ATOM     51  C   UNL A   1      46.406  30.582  30.994  1.00  0.00     0.029 A 
ATOM     52  N   UNL A   1      45.075  29.043  30.091  1.00  0.00    -0.354 N 
ATOM     53  N   UNL A   1      44.432  26.391  28.997  1.00  0.00    -0.248 NA
ATOM     54  C   UNL A   1      45.105  24.256  28.330  1.00  0.00     0.031 C 
ATOM     55  C   UNL A   1      47.163  29.433  30.743  1.00  0.00     0.029 A 
ATOM     56  C   UNL A   1      46.330  28.468  30.199  1.00  0.00     0.049 A 
ATOM     57  H   UNL A   1      44.278  28.596  29.726  1.00  0.00     0.167 HD
ATOM     58  C   UNL A   1      45.783  26.232  29.272  1.00  0.00     0.074 A 
ATOM     59  C   UNL A   1      46.139  24.888  28.867  1.00  0.00     0.031 C 
ATOM     60  C   UNL A   1      46.654  27.121  29.810  1.00  0.00     0.037 A 
BRANCH  47  61
ATOM     61  C   UNL A   1      44.174  32.626  31.120  1.00  0.00     0.057 A 
ATOM     62  C   UNL A   1      44.059  32.954  32.477  1.00  0.00     0.134 A 
ATOM     63  C   UNL A   1      44.508  33.658  30.232  1.00  0.00     0.134 A 
ATOM     64  F   UNL A   1      43.728  32.016  33.377  1.00  0.00    -0.206 F 
ATOM     65  C   UNL A   1      44.233  34.263  32.930  1.00  0.00     0.040 A 
ATOM     66  C   UNL A   1      44.714  34.965  30.678  1.00  0.00     0.040 A 
ATOM     67  F   UNL A   1      44.642  33.413  28.920  1.00  0.00    -0.206 F 
ATOM     68  C   UNL A   1      44.568  35.272  32.030  1.00  0.00     0.006 A 
ENDBRANCH  47  61
BRANCH  48  69
ATOM     69  C   UNL A   1      42.424  23.507  27.431  1.00  0.00     0.057 A 
ATOM     70  C   UNL A   1      42.512  23.298  26.050  1.00  0.00     0.134 A 
ATOM     71  C   UNL A   1      42.096  22.406  28.229  1.00  0.00     0.134 A 
ATOM     72  F   UNL A   1      42.805  24.319  25.231  1.00  0.00    -0.206 F 
ATOM     73  C   UNL A   1      42.263  22.049  25.480  1.00  0.00     0.040 A 
ATOM     74  C   UNL A   1      41.868  21.144  27.676  1.00  0.00     0.040 A 
ATOM     75  F   UNL A   1      42.005  22.536  29.561  1.00  0.00    -0.206 F 
ATOM     76  C   UNL A   1      41.943  20.965  26.296  1.00  0.00     0.006 A 
ENDBRANCH  48  69
BRANCH  60  77
ATOM     77  C   UNL A   1      48.060  26.654  30.035  1.00  0.00     0.057 A 
ATOM     78  C   UNL A   1      48.439  25.991  31.208  1.00  0.00     0.134 A 
ATOM     79  C   UNL A   1      49.033  26.824  29.042  1.00  0.00     0.134 A 
ATOM     80  F   UNL A   1      47.555  25.807  32.201  1.00  0.00    -0.206 F 
ATOM     81  C   UNL A   1      49.742  25.527  31.393  1.00  0.00     0.040 A 
ATOM     82  C   UNL A   1      50.332  26.344  29.205  1.00  0.00     0.040 A 
ATOM     83  F   UNL A   1      48.730  27.444  27.891  1.00  0.00    -0.206 F 
ATOM     84  C   UNL A   1      50.690  25.698  30.386  1.00  0.00     0.006 A 
ENDBRANCH  60  77
ENDBRANCH  34  35
ENDBRANCH  26  29
ENDBRANCH  24  25
ENDBRANCH   1  24
TORSDOF 11
ENDMDL
MODEL 2
REMARK VINA RESULT:     -12.1      2.842      7.444
REMARK SMILES O=C(NCCCNC(=O)c1ccc(-c2c3nc(c(-c4c(F)cccc4F)c4ccc([nH]4)c(-c4c(F)cccc4F)c4nc(c(-c5c(F)cccc5F)c5ccc2[nH]5)C=C4)C=C3)cc1)C1=Cc2cc(Cl)c(Cl)c(Cl)c2O[C@@H]1C(F)(F)F
REMARK SMILES IDX 5 1 4 2 3 3 1 4 2 5 64 7 65 8 76 9 66 10 75 11 67 12 74 13
REMARK SMILES IDX 68 14 72 15 69 16 70 17 73 18 71 19 77 20 78 21 79 22 80 23
REMARK SMILES IDX 6 24 7 25 8 26 9 28 10 29 11 30 63 31 12 32 62 33 13 34
REMARK SMILES IDX 14 35 15 36 56 37 16 38 61 39 55 40 57 41 17 42 60 43 54 44
REMARK SMILES IDX 53 45 18 47 44 48 27 49 43 50 28 51 31 52 42 53 58 54 29 55
REMARK SMILES IDX 30 56 41 58 59 59 32 60 19 61 20 62 25 63 21 64 22 65 24 66
REMARK SMILES IDX 26 67 23 68 45 69 46 70 51 71 47 72 48 73 50 74 52 75 49 76
REMARK SMILES IDX 33 77 34 78 39 79 35 80 36 81 38 82 40 83 37 84
REMARK H PARENT 3 6 7 27 57 46 31 57
REMARK Flexibility Score: inf
ROOT
ATOM      1  C   UNL A   1      37.746  19.780  25.170  1.00  0.00     0.042 C 
ENDROOT
BRANCH   1   2
ATOM      2  C   UNL A   1      36.702  20.876  24.979  1.00  0.00     0.118 C 
BRANCH   2   3
ATOM      3  N   UNL A   1      37.022  21.787  23.877  1.00  0.00    -0.352 N 
ATOM      4  O   UNL A   1      36.851  23.665  22.612  1.00  0.00    -0.270 OA
ATOM      5  C   UNL A   1      36.353  22.898  23.422  1.00  0.00     0.251 C 
ATOM      6  H   UNL A   1      37.846  21.571  23.386  1.00  0.00     0.163 HD
BRANCH   5   7
ATOM      7  C   UNL A   1      35.012  23.137  23.984  1.00  0.00     0.067 C 
ATOM      8  C   UNL A   1      34.954  23.985  25.016  1.00  0.00     0.025 C 
ATOM      9  C   UNL A   1      33.834  22.778  23.138  1.00  0.00     0.314 C 
ATOM     10  C   UNL A   1      33.887  24.983  24.899  1.00  0.00     0.020 A 
ATOM     11  O   UNL A   1      32.956  23.908  22.913  1.00  0.00    -0.474 OA
ATOM     12  C   UNL A   1      34.011  26.135  25.676  1.00  0.00     0.034 A 
ATOM     13  C   UNL A   1      33.051  24.987  23.766  1.00  0.00     0.148 A 
ATOM     14  C   UNL A   1      33.419  27.327  25.256  1.00  0.00     0.062 A 
ATOM     15  C   UNL A   1      32.432  26.182  23.360  1.00  0.00     0.103 A 
ATOM     16  Cl  UNL A   1      33.805  28.746  26.170  1.00  0.00    -0.083 Cl
ATOM     17  C   UNL A   1      32.648  27.368  24.084  1.00  0.00     0.082 A 
ATOM     18  Cl  UNL A   1      31.547  26.195  21.863  1.00  0.00    -0.079 Cl
ATOM     19  Cl  UNL A   1      32.056  28.889  23.488  1.00  0.00    -0.081 Cl
BRANCH   9  20
ATOM     20  C   UNL A   1      33.056  21.590  23.727  1.00  0.00     0.429 C 
ATOM     21  F   UNL A   1      32.183  21.083  22.822  1.00  0.00    -0.167 F 
ATOM     22  F   UNL A   1      33.875  20.578  24.092  1.00  0.00    -0.167 F 
ATOM     23  F   UNL A   1      32.339  21.946  24.819  1.00  0.00    -0.167 F 
ENDBRANCH   9  20
ENDBRANCH   5   7
ENDBRANCH   2   3
ENDBRANCH   1   2
BRANCH   1  24
ATOM     24  C   UNL A   1      39.043  20.309  25.772  1.00  0.00     0.118 C 
BRANCH  24  25
ATOM     25  N   UNL A   1      40.134  19.339  25.785  1.00  0.00    -0.352 N 
ATOM     26  C   UNL A   1      41.462  19.495  26.131  1.00  0.00     0.251 C 
ATOM     27  H   UNL A   1      39.882  18.430  25.501  1.00  0.00     0.163 HD
ATOM     28  O   UNL A   1      42.233  18.555  26.019  1.00  0.00    -0.269 OA
BRANCH  26  29
ATOM     29  C   UNL A   1      41.963  20.810  26.597  1.00  0.00     0.039 A 
ATOM     30  C   UNL A   1      42.341  21.770  25.652  1.00  0.00     0.014 A 
ATOM     31  C   UNL A   1      42.035  21.110  27.955  1.00  0.00     0.014 A 
ATOM     32  C   UNL A   1      42.686  23.059  26.070  1.00  0.00     0.010 A 
ATOM     33  C   UNL A   1      42.259  22.420  28.360  1.00  0.00     0.010 A 
ATOM     34  C   UNL A   1      42.592  23.412  27.425  1.00  0.00    -0.014 A 
BRANCH  34  35
ATOM     35  C   UNL A   1      42.849  24.794  27.910  1.00  0.00     0.031 A 
ATOM     36  C   UNL A   1      44.243  25.190  28.322  1.00  0.00     0.074 A 
ATOM     37  C   UNL A   1      41.824  25.653  28.093  1.00  0.00     0.049 A 
ATOM     38  N   UNL A   1      44.650  26.261  28.954  1.00  0.00    -0.248 NA
ATOM     39  C   UNL A   1      45.315  24.222  28.035  1.00  0.00     0.031 C 
ATOM     40  C   UNL A   1      40.417  25.377  27.795  1.00  0.00     0.029 A 
ATOM     41  N   UNL A   1      41.810  26.930  28.597  1.00  0.00    -0.354 N 
ATOM     42  C   UNL A   1      46.008  26.069  29.182  1.00  0.00     0.074 A 
ATOM     43  C   UNL A   1      46.344  24.758  28.674  1.00  0.00     0.031 C 
ATOM     44  C   UNL A   1      39.683  26.461  28.093  1.00  0.00     0.029 A 
ATOM     45  C   UNL A   1      40.555  27.490  28.647  1.00  0.00     0.049 A 
ATOM     46  H   UNL A   1      42.621  27.400  28.896  1.00  0.00     0.167 HD
ATOM     47  C   UNL A   1      46.903  26.919  29.739  1.00  0.00     0.037 A 
ATOM     48  C   UNL A   1      40.155  28.695  29.096  1.00  0.00     0.037 A 
ATOM     49  C   UNL A   1      46.583  28.254  30.170  1.00  0.00     0.049 A 
ATOM     50  C   UNL A   1      41.176  29.646  29.653  1.00  0.00     0.074 A 
ATOM     51  C   UNL A   1      47.432  29.227  30.667  1.00  0.00     0.029 A 
ATOM     52  N   UNL A   1      45.312  28.806  30.135  1.00  0.00    -0.354 N 
ATOM     53  N   UNL A   1      42.466  29.470  29.818  1.00  0.00    -0.248 NA
ATOM     54  C   UNL A   1      40.691  30.964  30.085  1.00  0.00     0.031 C 
ATOM     55  C   UNL A   1      46.669  30.363  30.956  1.00  0.00     0.029 A 
ATOM     56  C   UNL A   1      45.352  30.108  30.606  1.00  0.00     0.049 A 
ATOM     57  H   UNL A   1      44.502  28.343  29.824  1.00  0.00     0.167 HD
ATOM     58  C   UNL A   1      42.948  30.662  30.340  1.00  0.00     0.074 A 
ATOM     59  C   UNL A   1      41.817  31.558  30.457  1.00  0.00     0.031 C 
ATOM     60  C   UNL A   1      44.216  30.987  30.693  1.00  0.00     0.037 A 
BRANCH  47  61
ATOM     61  C   UNL A   1      48.317  26.437  29.888  1.00  0.00     0.057 A 
ATOM     62  C   UNL A   1      48.750  25.758  31.035  1.00  0.00     0.134 A 
ATOM     63  C   UNL A   1      49.252  26.635  28.864  1.00  0.00     0.134 A 
ATOM     64  F   UNL A   1      47.909  25.547  32.058  1.00  0.00    -0.206 F 
ATOM     65  C   UNL A   1      50.070  25.325  31.173  1.00  0.00     0.040 A 
ATOM     66  C   UNL A   1      50.568  26.180  28.979  1.00  0.00     0.040 A 
ATOM     67  F   UNL A   1      48.904  27.272  27.736  1.00  0.00    -0.206 F 
ATOM     68  C   UNL A   1      50.981  25.530  30.140  1.00  0.00     0.006 A 
ENDBRANCH  47  61
BRANCH  48  69
ATOM     69  C   UNL A   1      38.725  29.087  29.006  1.00  0.00     0.057 A 
ATOM     70  C   UNL A   1      38.185  29.556  27.802  1.00  0.00     0.134 A 
ATOM     71  C   UNL A   1      37.869  29.014  30.110  1.00  0.00     0.134 A 
ATOM     72  F   UNL A   1      38.960  29.665  26.713  1.00  0.00    -0.206 F 
ATOM     73  C   UNL A   1      36.852  29.957  27.703  1.00  0.00     0.040 A 
ATOM     74  C   UNL A   1      36.527  29.389  30.021  1.00  0.00     0.040 A 
ATOM     75  F   UNL A   1      38.322  28.565  31.291  1.00  0.00    -0.206 F 
ATOM     76  C   UNL A   1      36.017  29.870  28.816  1.00  0.00     0.006 A 
ENDBRANCH  48  69
BRANCH  60  77
ATOM     77  C   UNL A   1      44.454  32.380  31.193  1.00  0.00     0.057 A 
ATOM     78  C   UNL A   1      44.413  32.691  32.557  1.00  0.00     0.134 A 
ATOM     79  C   UNL A   1      44.781  33.408  30.301  1.00  0.00     0.134 A 
ATOM     80  F   UNL A   1      44.095  31.751  33.460  1.00  0.00    -0.206 F 
ATOM     81  C   UNL A   1      44.674  33.983  33.016  1.00  0.00     0.040 A 
ATOM     82  C   UNL A   1      45.066  34.698  30.749  1.00  0.00     0.040 A 
ATOM     83  F   UNL A   1      44.844  33.171  28.982  1.00  0.00    -0.206 F 
ATOM     84  C   UNL A   1      45.007  34.988  32.111  1.00  0.00     0.006 A 
ENDBRANCH  60  77
ENDBRANCH  34  35
ENDBRANCH  26  29
ENDBRANCH  24  25
ENDBRANCH   1  24
TORSDOF 11
ENDMDL
MODEL 3
REMARK VINA RESULT:     -12.1      2.869      7.294
REMARK SMILES O=C(NCCCNC(=O)c1ccc(-c2c3nc(c(-c4c(F)cccc4F)c4ccc([nH]4)c(-c4c(F)cccc4F)c4nc(c(-c5c(F)cccc5F)c5ccc2[nH]5)C=C4)C=C3)cc1)C1=Cc2cc(Cl)c(Cl)c(Cl)c2O[C@@H]1C(F)(F)F
REMARK SMILES IDX 5 1 4 2 3 3 1 4 2 5 64 7 65 8 76 9 66 10 75 11 67 12 74 13
REMARK SMILES IDX 68 14 72 15 69 16 70 17 73 18 71 19 77 20 78 21 79 22 80 23
REMARK SMILES IDX 6 24 7 25 8 26 9 28 10 29 11 30 63 31 12 32 62 33 13 34
REMARK SMILES IDX 14 35 15 36 56 37 16 38 61 39 55 40 57 41 17 42 60 43 54 44
REMARK SMILES IDX 53 45 18 47 44 48 27 49 43 50 28 51 31 52 42 53 58 54 29 55
REMARK SMILES IDX 30 56 41 58 59 59 32 60 19 61 20 62 25 63 21 64 22 65 24 66
REMARK SMILES IDX 26 67 23 68 45 69 46 70 51 71 47 72 48 73 50 74 52 75 49 76
REMARK SMILES IDX 33 77 34 78 39 79 35 80 36 81 38 82 40 83 37 84
REMARK H PARENT 3 6 7 27 57 46 31 57
REMARK Flexibility Score: inf
ROOT
ATOM      1  C   UNL A   1      36.926  20.609  25.054  1.00  0.00     0.042 C 
ENDROOT
BRANCH   1   2
ATOM      2  C   UNL A   1      35.952  21.777  25.177  1.00  0.00     0.118 C 
BRANCH   2   3
ATOM      3  N   UNL A   1      35.524  22.306  23.879  1.00  0.00    -0.352 N 
ATOM      4  O   UNL A   1      34.479  23.731  22.455  1.00  0.00    -0.270 OA
ATOM      5  C   UNL A   1      34.585  23.262  23.577  1.00  0.00     0.251 C 
ATOM      6  H   UNL A   1      35.982  21.916  23.101  1.00  0.00     0.163 HD
BRANCH   5   7
ATOM      7  C   UNL A   1      33.728  23.718  24.686  1.00  0.00     0.067 C 
ATOM      8  C   UNL A   1      34.185  24.761  25.388  1.00  0.00     0.025 C 
ATOM      9  C   UNL A   1      32.296  23.292  24.673  1.00  0.00     0.314 C 
ATOM     10  C   UNL A   1      33.177  25.796  25.629  1.00  0.00     0.020 A 
ATOM     11  O   UNL A   1      31.388  24.420  24.699  1.00  0.00    -0.474 OA
ATOM     12  C   UNL A   1      33.645  27.069  25.960  1.00  0.00     0.034 A 
ATOM     13  C   UNL A   1      31.874  25.638  25.123  1.00  0.00     0.148 A 
ATOM     14  C   UNL A   1      32.876  28.195  25.662  1.00  0.00     0.062 A 
ATOM     15  C   UNL A   1      31.088  26.772  24.850  1.00  0.00     0.103 A 
ATOM     16  Cl  UNL A   1      33.629  29.734  25.913  1.00  0.00    -0.083 Cl
ATOM     17  C   UNL A   1      31.605  28.058  25.082  1.00  0.00     0.082 A 
ATOM     18  Cl  UNL A   1      29.551  26.551  24.067  1.00  0.00    -0.079 Cl
ATOM     19  Cl  UNL A   1      30.731  29.469  24.568  1.00  0.00    -0.081 Cl
BRANCH   9  20
ATOM     20  C   UNL A   1      31.987  22.315  25.820  1.00  0.00     0.429 C 
ATOM     21  F   UNL A   1      32.188  22.901  27.026  1.00  0.00    -0.167 F 
ATOM     22  F   UNL A   1      30.701  21.896  25.796  1.00  0.00    -0.167 F 
ATOM     23  F   UNL A   1      32.774  21.214  25.773  1.00  0.00    -0.167 F 
ENDBRANCH   9  20
ENDBRANCH   5   7
ENDBRANCH   2   3
ENDBRANCH   1   2
BRANCH   1  24
ATOM     24  C   UNL A   1      38.325  20.961  25.548  1.00  0.00     0.118 C 
BRANCH  24  25
ATOM     25  N   UNL A   1      39.268  19.849  25.514  1.00  0.00    -0.352 N 
ATOM     26  C   UNL A   1      40.583  19.780  25.931  1.00  0.00     0.251 C 
ATOM     27  H   UNL A   1      38.909  19.014  25.133  1.00  0.00     0.163 HD
ATOM     28  O   UNL A   1      41.221  18.753  25.762  1.00  0.00    -0.269 OA
BRANCH  26  29
ATOM     29  C   UNL A   1      41.234  20.963  26.543  1.00  0.00     0.039 A 
ATOM     30  C   UNL A   1      41.851  21.906  25.715  1.00  0.00     0.014 A 
ATOM     31  C   UNL A   1      41.215  21.159  27.922  1.00  0.00     0.014 A 
ATOM     32  C   UNL A   1      42.351  23.093  26.263  1.00  0.00     0.010 A 
ATOM     33  C   UNL A   1      41.600  22.386  28.448  1.00  0.00     0.010 A 
ATOM     34  C   UNL A   1      42.177  23.368  27.628  1.00  0.00    -0.014 A 
BRANCH  34  35
ATOM     35  C   UNL A   1      42.597  24.656  28.243  1.00  0.00     0.031 A 
ATOM     36  C   UNL A   1      41.571  25.731  28.491  1.00  0.00     0.074 A 
ATOM     37  C   UNL A   1      43.903  24.908  28.469  1.00  0.00     0.049 A 
ATOM     38  N   UNL A   1      41.745  26.984  28.826  1.00  0.00    -0.248 NA
ATOM     39  C   UNL A   1      40.162  25.359  28.278  1.00  0.00     0.031 C 
ATOM     40  C   UNL A   1      45.007  23.978  28.215  1.00  0.00     0.029 A 
ATOM     41  N   UNL A   1      44.525  26.035  28.945  1.00  0.00    -0.354 N 
ATOM     42  C   UNL A   1      40.478  27.556  28.811  1.00  0.00     0.074 A 
ATOM     43  C   UNL A   1      39.554  26.531  28.380  1.00  0.00     0.031 C 
ATOM     44  C   UNL A   1      46.164  24.563  28.566  1.00  0.00     0.029 A 
ATOM     45  C   UNL A   1      45.893  25.921  29.024  1.00  0.00     0.049 A 
ATOM     46  H   UNL A   1      44.037  26.850  29.206  1.00  0.00     0.167 HD
ATOM     47  C   UNL A   1      40.111  28.813  29.153  1.00  0.00     0.037 A 
ATOM     48  C   UNL A   1      46.822  26.814  29.413  1.00  0.00     0.037 A 
ATOM     49  C   UNL A   1      41.021  29.807  29.657  1.00  0.00     0.049 A 
ATOM     50  C   UNL A   1      46.385  28.185  29.847  1.00  0.00     0.074 A 
ATOM     51  C   UNL A   1      40.739  31.082  30.115  1.00  0.00     0.029 A 
ATOM     52  N   UNL A   1      42.389  29.624  29.788  1.00  0.00    -0.354 N 
ATOM     53  N   UNL A   1      45.177  28.696  29.875  1.00  0.00    -0.248 NA
ATOM     54  C   UNL A   1      47.436  29.103  30.307  1.00  0.00     0.031 C 
ATOM     55  C   UNL A   1      41.943  31.681  30.501  1.00  0.00     0.029 A 
ATOM     56  C   UNL A   1      42.967  30.766  30.316  1.00  0.00     0.049 A 
ATOM     57  H   UNL A   1      42.877  28.805  29.542  1.00  0.00     0.167 HD
ATOM     58  C   UNL A   1      45.320  29.980  30.384  1.00  0.00     0.074 A 
ATOM     59  C   UNL A   1      46.729  30.167  30.661  1.00  0.00     0.031 C 
ATOM     60  C   UNL A   1      44.369  30.921  30.602  1.00  0.00     0.037 A 
BRANCH  47  61
ATOM     61  C   UNL A   1      38.660  29.174  29.014  1.00  0.00     0.057 A 
ATOM     62  C   UNL A   1      37.775  29.113  30.099  1.00  0.00     0.134 A 
ATOM     63  C   UNL A   1      38.146  29.608  27.785  1.00  0.00     0.134 A 
ATOM     64  F   UNL A   1      38.200  28.694  31.300  1.00  0.00    -0.206 F 
ATOM     65  C   UNL A   1      36.424  29.436  29.959  1.00  0.00     0.040 A 
ATOM     66  C   UNL A   1      36.802  29.962  27.641  1.00  0.00     0.040 A 
ATOM     67  F   UNL A   1      38.938  29.696  26.706  1.00  0.00    -0.206 F 
ATOM     68  C   UNL A   1      35.936  29.869  28.728  1.00  0.00     0.006 A 
ENDBRANCH  47  61
BRANCH  48  69
ATOM     69  C   UNL A   1      48.257  26.431  29.446  1.00  0.00     0.057 A 
ATOM     70  C   UNL A   1      48.807  25.806  30.572  1.00  0.00     0.134 A 
ATOM     71  C   UNL A   1      49.113  26.685  28.368  1.00  0.00     0.134 A 
ATOM     72  F   UNL A   1      48.041  25.553  31.643  1.00  0.00    -0.206 F 
ATOM     73  C   UNL A   1      50.159  25.465  30.634  1.00  0.00     0.040 A 
ATOM     74  C   UNL A   1      50.462  26.328  28.407  1.00  0.00     0.040 A 
ATOM     75  F   UNL A   1      48.647  27.273  27.256  1.00  0.00    -0.206 F 
ATOM     76  C   UNL A   1      50.990  25.723  29.546  1.00  0.00     0.006 A 
ENDBRANCH  48  69
BRANCH  60  77
ATOM     77  C   UNL A   1      44.813  32.217  31.210  1.00  0.00     0.057 A 
ATOM     78  C   UNL A   1      45.179  33.314  30.421  1.00  0.00     0.134 A 
ATOM     79  C   UNL A   1      44.821  32.384  32.600  1.00  0.00     0.134 A 
ATOM     80  F   UNL A   1      45.202  33.213  29.083  1.00  0.00    -0.206 F 
ATOM     81  C   UNL A   1      45.555  34.529  30.995  1.00  0.00     0.040 A 
ATOM     82  C   UNL A   1      45.173  33.600  33.186  1.00  0.00     0.040 A 
ATOM     83  F   UNL A   1      44.473  31.372  33.409  1.00  0.00    -0.206 F 
ATOM     84  C   UNL A   1      45.546  34.676  32.382  1.00  0.00     0.006 A 
ENDBRANCH  60  77
ENDBRANCH  34  35
ENDBRANCH  26  29
ENDBRANCH  24  25
ENDBRANCH   1  24
TORSDOF 11
ENDMDL
