MODEL 1
REMARK VINA RESULT:      -9.0      0.000      0.000
REMARK SMILES Cc1nnc(SCCC(=O)NCCCNC(=O)c2ccc(-c3c4nc(c(-c5c(F)cccc5F)c5ccc([nH]5)c(-c5c(F)cccc5F)c5nc(c(-c6c(F)cccc6F)c6ccc3[nH]6)C=C5)C=C4)cc2)s1
REMARK SMILES IDX 12 1 11 2 9 3 10 4 8 6 7 7 6 8 5 9 1 10 2 11 3 12 72 13 4 14
REMARK SMILES IDX 13 15 14 16 15 17 16 18 17 20 18 21 19 22 71 23 20 24 70 25
REMARK SMILES IDX 21 26 22 27 23 28 64 29 24 30 69 31 63 32 65 33 25 34 68 35
REMARK SMILES IDX 62 36 61 37 26 39 52 40 35 41 51 42 36 43 39 44 50 45 66 46
REMARK SMILES IDX 37 47 38 48 49 50 67 51 40 52 27 53 28 54 33 55 29 56 30 57
REMARK SMILES IDX 32 58 34 59 31 60 53 61 54 62 59 63 55 64 56 65 58 66 60 67
REMARK SMILES IDX 57 68 41 69 42 70 47 71 43 72 44 73 46 74 48 75 45 76
REMARK H PARENT 11 5 15 19 65 38 39 49
REMARK Flexibility Score: inf
ROOT
ATOM      1  C   UNL A   1      34.674  35.818  32.871  1.00  0.00     0.117 C 
ENDROOT
BRANCH   1   2
ATOM      2  N   UNL A   1      34.688  35.125  34.148  1.00  0.00    -0.356 N 
ATOM      3  C   UNL A   1      35.436  34.062  34.561  1.00  0.00     0.220 C 
ATOM      4  O   UNL A   1      35.565  33.868  35.771  1.00  0.00    -0.275 OA
ATOM      5  H   UNL A   1      34.060  35.477  34.819  1.00  0.00     0.163 HD
BRANCH   3   6
ATOM      6  C   UNL A   1      36.101  33.152  33.555  1.00  0.00     0.111 C 
BRANCH   6   7
ATOM      7  C   UNL A   1      37.141  32.234  34.199  1.00  0.00     0.087 C 
BRANCH   7   8
ATOM      8  S   UNL A   1      37.411  30.654  33.320  1.00  0.00    -0.093 SA
BRANCH   8   9
ATOM      9  C   UNL A   1      39.001  30.193  33.877  1.00  0.00     0.174 A 
ATOM     10  C   UNL A   1      42.377  30.303  35.668  1.00  0.00     0.081 C 
ATOM     11  C   UNL A   1      41.142  30.060  34.883  1.00  0.00     0.115 A 
ATOM     12  N   UNL A   1      41.123  29.514  33.689  1.00  0.00    -0.143 NA
ATOM     13  S   UNL A   1      39.598  30.575  35.440  1.00  0.00    -0.091 S 
ATOM     14  N   UNL A   1      39.869  29.566  33.119  1.00  0.00    -0.132 NA
ENDBRANCH   8   9
ENDBRANCH   7   8
ENDBRANCH   6   7
ENDBRANCH   3   6
ENDBRANCH   1   2
BRANCH   1  15
ATOM     15  C   UNL A   1      33.355  35.732  32.104  1.00  0.00     0.042 C 
BRANCH  15  16
ATOM     16  C   UNL A   1      33.318  36.481  30.771  1.00  0.00     0.118 C 
BRANCH  16  17
ATOM     17  N   UNL A   1      32.668  35.754  29.694  1.00  0.00    -0.352 N 
ATOM     18  C   UNL A   1      33.094  34.667  28.963  1.00  0.00     0.251 C 
ATOM     19  H   UNL A   1      31.779  36.095  29.446  1.00  0.00     0.163 HD
ATOM     20  O   UNL A   1      32.404  34.276  28.025  1.00  0.00    -0.269 OA
BRANCH  18  21
ATOM     21  C   UNL A   1      34.374  33.962  29.252  1.00  0.00     0.039 A 
ATOM     22  C   UNL A   1      35.525  34.363  28.564  1.00  0.00     0.014 A 
ATOM     23  C   UNL A   1      34.455  32.874  30.126  1.00  0.00     0.014 A 
ATOM     24  C   UNL A   1      36.752  33.730  28.800  1.00  0.00     0.010 A 
ATOM     25  C   UNL A   1      35.690  32.270  30.400  1.00  0.00     0.010 A 
ATOM     26  C   UNL A   1      36.856  32.697  29.746  1.00  0.00    -0.014 A 
BRANCH  26  27
ATOM     27  C   UNL A   1      38.180  32.113  30.098  1.00  0.00     0.031 A 
ATOM     28  C   UNL A   1      39.168  32.859  30.953  1.00  0.00     0.074 A 
ATOM     29  C   UNL A   1      38.520  30.909  29.598  1.00  0.00     0.049 A 
ATOM     30  N   UNL A   1      40.367  32.494  31.339  1.00  0.00    -0.248 NA
ATOM     31  C   UNL A   1      38.765  34.191  31.426  1.00  0.00     0.031 C 
ATOM     32  C   UNL A   1      37.680  30.093  28.720  1.00  0.00     0.029 A 
ATOM     33  N   UNL A   1      39.668  30.167  29.742  1.00  0.00    -0.354 N 
ATOM     34  C   UNL A   1      40.861  33.545  32.101  1.00  0.00     0.074 A 
ATOM     35  C   UNL A   1      39.848  34.581  32.087  1.00  0.00     0.031 C 
ATOM     36  C   UNL A   1      38.334  28.963  28.412  1.00  0.00     0.029 A 
ATOM     37  C   UNL A   1      39.650  28.983  29.044  1.00  0.00     0.049 A 
ATOM     38  H   UNL A   1      40.430  30.454  30.295  1.00  0.00     0.167 HD
ATOM     39  C   UNL A   1      42.041  33.633  32.764  1.00  0.00     0.037 A 
ATOM     40  C   UNL A   1      40.586  28.024  28.915  1.00  0.00     0.037 A 
ATOM     41  C   UNL A   1      43.048  32.603  32.789  1.00  0.00     0.049 A 
ATOM     42  C   UNL A   1      41.899  28.159  29.635  1.00  0.00     0.074 A 
ATOM     43  C   UNL A   1      44.237  32.578  33.500  1.00  0.00     0.029 A 
ATOM     44  N   UNL A   1      42.995  31.423  32.063  1.00  0.00    -0.354 N 
ATOM     45  N   UNL A   1      42.312  29.120  30.424  1.00  0.00    -0.248 NA
ATOM     46  C   UNL A   1      42.873  27.073  29.451  1.00  0.00     0.031 C 
ATOM     47  C   UNL A   1      44.927  31.407  33.165  1.00  0.00     0.029 A 
ATOM     48  C   UNL A   1      44.146  30.681  32.281  1.00  0.00     0.049 A 
ATOM     49  H   UNL A   1      42.250  31.152  31.479  1.00  0.00     0.167 HD
ATOM     50  C   UNL A   1      43.580  28.745  30.848  1.00  0.00     0.074 A 
ATOM     51  C   UNL A   1      43.865  27.463  30.240  1.00  0.00     0.031 C 
ATOM     52  C   UNL A   1      44.428  29.407  31.672  1.00  0.00     0.037 A 
BRANCH  39  53
ATOM     53  C   UNL A   1      42.316  34.893  33.535  1.00  0.00     0.057 A 
ATOM     54  C   UNL A   1      41.951  35.028  34.881  1.00  0.00     0.134 A 
ATOM     55  C   UNL A   1      43.018  35.954  32.947  1.00  0.00     0.134 A 
ATOM     56  F   UNL A   1      41.275  34.050  35.502  1.00  0.00    -0.206 F 
ATOM     57  C   UNL A   1      42.258  36.179  35.608  1.00  0.00     0.040 A 
ATOM     58  C   UNL A   1      43.351  37.100  33.671  1.00  0.00     0.040 A 
ATOM     59  F   UNL A   1      43.408  35.885  31.665  1.00  0.00    -0.206 F 
ATOM     60  C   UNL A   1      42.967  37.216  35.005  1.00  0.00     0.006 A 
ENDBRANCH  39  53
BRANCH  40  61
ATOM     61  C   UNL A   1      40.310  26.835  28.073  1.00  0.00     0.057 A 
ATOM     62  C   UNL A   1      40.846  26.721  26.786  1.00  0.00     0.134 A 
ATOM     63  C   UNL A   1      39.508  25.784  28.535  1.00  0.00     0.134 A 
ATOM     64  F   UNL A   1      41.604  27.706  26.281  1.00  0.00    -0.206 F 
ATOM     65  C   UNL A   1      40.586  25.610  25.981  1.00  0.00     0.040 A 
ATOM     66  C   UNL A   1      39.258  24.657  27.751  1.00  0.00     0.040 A 
ATOM     67  F   UNL A   1      38.970  25.833  29.763  1.00  0.00    -0.206 F 
ATOM     68  C   UNL A   1      39.794  24.571  26.467  1.00  0.00     0.006 A 
ENDBRANCH  40  61
BRANCH  52  69
ATOM     69  C   UNL A   1      45.741  28.750  31.981  1.00  0.00     0.057 A 
ATOM     70  C   UNL A   1      45.889  27.862  33.055  1.00  0.00     0.134 A 
ATOM     71  C   UNL A   1      46.864  28.978  31.173  1.00  0.00     0.134 A 
ATOM     72  F   UNL A   1      44.857  27.613  33.876  1.00  0.00    -0.206 F 
ATOM     73  C   UNL A   1      47.108  27.238  33.323  1.00  0.00     0.040 A 
ATOM     74  C   UNL A   1      48.081  28.341  31.418  1.00  0.00     0.040 A 
ATOM     75  F   UNL A   1      46.790  29.812  30.126  1.00  0.00    -0.206 F 
ATOM     76  C   UNL A   1      48.207  27.471  32.499  1.00  0.00     0.006 A 
ENDBRANCH  52  69
ENDBRANCH  26  27
ENDBRANCH  18  21
ENDBRANCH  16  17
ENDBRANCH  15  16
ENDBRANCH   1  15
TORSDOF 13
ENDMDL
MODEL 2
REMARK VINA RESULT:      -8.9      0.631      6.550
REMARK SMILES Cc1nnc(SCCC(=O)NCCCNC(=O)c2ccc(-c3c4nc(c(-c5c(F)cccc5F)c5ccc([nH]5)c(-c5c(F)cccc5F)c5nc(c(-c6c(F)cccc6F)c6ccc3[nH]6)C=C5)C=C4)cc2)s1
REMARK SMILES IDX 12 1 11 2 9 3 10 4 8 6 7 7 6 8 5 9 1 10 2 11 3 12 72 13 4 14
REMARK SMILES IDX 13 15 14 16 15 17 16 18 17 20 18 21 19 22 71 23 20 24 70 25
REMARK SMILES IDX 21 26 22 27 23 28 64 29 24 30 69 31 63 32 65 33 25 34 68 35
REMARK SMILES IDX 62 36 61 37 26 39 52 40 35 41 51 42 36 43 39 44 50 45 66 46
REMARK SMILES IDX 37 47 38 48 49 50 67 51 40 52 27 53 28 54 33 55 29 56 30 57
REMARK SMILES IDX 32 58 34 59 31 60 53 61 54 62 59 63 55 64 56 65 58 66 60 67
REMARK SMILES IDX 57 68 41 69 42 70 47 71 43 72 44 73 46 74 48 75 45 76
REMARK H PARENT 11 5 15 19 65 38 39 49
REMARK Flexibility Score: inf
ROOT
ATOM      1  C   UNL A   1      34.736  35.653  32.816  1.00  0.00     0.117 C 
ENDROOT
BRANCH   1   2
ATOM      2  N   UNL A   1      34.702  34.933  34.077  1.00  0.00    -0.356 N 
ATOM      3  C   UNL A   1      35.577  34.021  34.591  1.00  0.00     0.220 C 
ATOM      4  O   UNL A   1      35.567  33.815  35.805  1.00  0.00    -0.275 OA
ATOM      5  H   UNL A   1      33.928  35.135  34.650  1.00  0.00     0.163 HD
BRANCH   3   6
ATOM      6  C   UNL A   1      36.543  33.290  33.689  1.00  0.00     0.111 C 
BRANCH   6   7
ATOM      7  C   UNL A   1      37.180  32.081  34.376  1.00  0.00     0.087 C 
BRANCH   7   8
ATOM      8  S   UNL A   1      38.920  32.322  34.883  1.00  0.00    -0.093 SA
BRANCH   8   9
ATOM      9  C   UNL A   1      39.675  30.857  34.302  1.00  0.00     0.174 A 
ATOM     10  C   UNL A   1      42.239  28.065  33.803  1.00  0.00     0.081 C 
ATOM     11  C   UNL A   1      41.120  29.037  33.837  1.00  0.00     0.115 A 
ATOM     12  N   UNL A   1      40.428  29.402  32.781  1.00  0.00    -0.143 NA
ATOM     13  S   UNL A   1      40.681  29.867  35.279  1.00  0.00    -0.091 S 
ATOM     14  N   UNL A   1      39.567  30.441  33.063  1.00  0.00    -0.132 NA
ENDBRANCH   8   9
ENDBRANCH   7   8
ENDBRANCH   6   7
ENDBRANCH   3   6
ENDBRANCH   1   2
BRANCH   1  15
ATOM     15  C   UNL A   1      33.375  35.853  32.150  1.00  0.00     0.042 C 
BRANCH  15  16
ATOM     16  C   UNL A   1      33.410  36.487  30.758  1.00  0.00     0.118 C 
BRANCH  16  17
ATOM     17  N   UNL A   1      32.718  35.721  29.735  1.00  0.00    -0.352 N 
ATOM     18  C   UNL A   1      33.126  34.624  29.009  1.00  0.00     0.251 C 
ATOM     19  H   UNL A   1      31.810  36.040  29.526  1.00  0.00     0.163 HD
ATOM     20  O   UNL A   1      32.395  34.197  28.118  1.00  0.00    -0.269 OA
BRANCH  18  21
ATOM     21  C   UNL A   1      34.432  33.949  29.246  1.00  0.00     0.039 A 
ATOM     22  C   UNL A   1      35.515  34.289  28.428  1.00  0.00     0.014 A 
ATOM     23  C   UNL A   1      34.598  32.943  30.203  1.00  0.00     0.014 A 
ATOM     24  C   UNL A   1      36.765  33.681  28.612  1.00  0.00     0.010 A 
ATOM     25  C   UNL A   1      35.857  32.367  30.420  1.00  0.00     0.010 A 
ATOM     26  C   UNL A   1      36.959  32.737  29.633  1.00  0.00    -0.014 A 
BRANCH  26  27
ATOM     27  C   UNL A   1      38.314  32.188  29.918  1.00  0.00     0.031 A 
ATOM     28  C   UNL A   1      38.741  30.838  29.409  1.00  0.00     0.074 A 
ATOM     29  C   UNL A   1      39.159  32.897  30.692  1.00  0.00     0.049 A 
ATOM     30  N   UNL A   1      39.881  30.214  29.581  1.00  0.00    -0.248 NA
ATOM     31  C   UNL A   1      37.758  30.086  28.616  1.00  0.00     0.031 C 
ATOM     32  C   UNL A   1      38.863  34.200  31.290  1.00  0.00     0.029 A 
ATOM     33  N   UNL A   1      40.434  32.617  31.122  1.00  0.00    -0.354 N 
ATOM     34  C   UNL A   1      39.757  29.000  28.918  1.00  0.00     0.074 A 
ATOM     35  C   UNL A   1      38.413  28.958  28.375  1.00  0.00     0.031 C 
ATOM     36  C   UNL A   1      39.926  34.610  31.999  1.00  0.00     0.029 A 
ATOM     37  C   UNL A   1      40.968  33.589  31.934  1.00  0.00     0.049 A 
ATOM     38  H   UNL A   1      40.920  31.799  30.871  1.00  0.00     0.167 HD
ATOM     39  C   UNL A   1      40.680  28.020  28.760  1.00  0.00     0.037 A 
ATOM     40  C   UNL A   1      42.157  33.654  32.563  1.00  0.00     0.037 A 
ATOM     41  C   UNL A   1      42.021  28.060  29.288  1.00  0.00     0.049 A 
ATOM     42  C   UNL A   1      43.152  32.539  32.398  1.00  0.00     0.074 A 
ATOM     43  C   UNL A   1      43.045  27.145  29.109  1.00  0.00     0.029 A 
ATOM     44  N   UNL A   1      42.519  29.058  30.111  1.00  0.00    -0.354 N 
ATOM     45  N   UNL A   1      43.049  31.440  31.693  1.00  0.00    -0.248 NA
ATOM     46  C   UNL A   1      44.430  32.678  33.113  1.00  0.00     0.031 C 
ATOM     47  C   UNL A   1      44.147  27.564  29.863  1.00  0.00     0.029 A 
ATOM     48  C   UNL A   1      43.825  28.763  30.476  1.00  0.00     0.049 A 
ATOM     49  H   UNL A   1      42.020  29.858  30.395  1.00  0.00     0.167 HD
ATOM     50  C   UNL A   1      44.254  30.768  31.858  1.00  0.00     0.074 A 
ATOM     51  C   UNL A   1      45.078  31.589  32.721  1.00  0.00     0.031 C 
ATOM     52  C   UNL A   1      44.640  29.579  31.337  1.00  0.00     0.037 A 
BRANCH  39  53
ATOM     53  C   UNL A   1      40.281  26.805  27.971  1.00  0.00     0.057 A 
ATOM     54  C   UNL A   1      40.726  26.600  26.658  1.00  0.00     0.134 A 
ATOM     55  C   UNL A   1      39.504  25.795  28.554  1.00  0.00     0.134 A 
ATOM     56  F   UNL A   1      41.471  27.530  26.041  1.00  0.00    -0.206 F 
ATOM     57  C   UNL A   1      40.398  25.444  25.948  1.00  0.00     0.040 A 
ATOM     58  C   UNL A   1      39.189  24.624  27.862  1.00  0.00     0.040 A 
ATOM     59  F   UNL A   1      39.056  25.922  29.812  1.00  0.00    -0.206 F 
ATOM     60  C   UNL A   1      39.633  24.448  26.553  1.00  0.00     0.006 A 
ENDBRANCH  39  53
BRANCH  40  61
ATOM     61  C   UNL A   1      42.479  34.831  33.406  1.00  0.00     0.057 A 
ATOM     62  C   UNL A   1      43.008  35.998  32.845  1.00  0.00     0.134 A 
ATOM     63  C   UNL A   1      42.265  34.818  34.790  1.00  0.00     0.134 A 
ATOM     64  F   UNL A   1      43.254  36.062  31.528  1.00  0.00    -0.206 F 
ATOM     65  C   UNL A   1      43.322  37.109  33.630  1.00  0.00     0.040 A 
ATOM     66  C   UNL A   1      42.553  35.929  35.584  1.00  0.00     0.040 A 
ATOM     67  F   UNL A   1      41.757  33.729  35.385  1.00  0.00    -0.206 F 
ATOM     68  C   UNL A   1      43.089  37.077  35.004  1.00  0.00     0.006 A 
ENDBRANCH  40  61
BRANCH  52  69
ATOM     69  C   UNL A   1      46.022  29.097  31.668  1.00  0.00     0.057 A 
ATOM     70  C   UNL A   1      46.271  28.273  32.773  1.00  0.00     0.134 A 
ATOM     71  C   UNL A   1      47.111  29.429  30.851  1.00  0.00     0.134 A 
ATOM     72  F   UNL A   1      45.274  27.931  33.603  1.00  0.00    -0.206 F 
ATOM     73  C   UNL A   1      47.555  27.810  33.063  1.00  0.00     0.040 A 
ATOM     74  C   UNL A   1      48.396  28.953  31.118  1.00  0.00     0.040 A 
ATOM     75  F   UNL A   1      46.941  30.210  29.775  1.00  0.00    -0.206 F 
ATOM     76  C   UNL A   1      48.622  28.144  32.230  1.00  0.00     0.006 A 
ENDBRANCH  52  69
ENDBRANCH  26  27
ENDBRANCH  18  21
ENDBRANCH  16  17
ENDBRANCH  15  16
ENDBRANCH   1  15
TORSDOF 13
ENDMDL
MODEL 3
REMARK VINA RESULT:      -8.6      4.791      7.354
REMARK SMILES Cc1nnc(SCCC(=O)NCCCNC(=O)c2ccc(-c3c4nc(c(-c5c(F)cccc5F)c5ccc([nH]5)c(-c5c(F)cccc5F)c5nc(c(-c6c(F)cccc6F)c6ccc3[nH]6)C=C5)C=C4)cc2)s1
REMARK SMILES IDX 12 1 11 2 9 3 10 4 8 6 7 7 6 8 5 9 1 10 2 11 3 12 72 13 4 14
REMARK SMILES IDX 13 15 14 16 15 17 16 18 17 20 18 21 19 22 71 23 20 24 70 25
REMARK SMILES IDX 21 26 22 27 23 28 64 29 24 30 69 31 63 32 65 33 25 34 68 35
REMARK SMILES IDX 62 36 61 37 26 39 52 40 35 41 51 42 36 43 39 44 50 45 66 46
REMARK SMILES IDX 37 47 38 48 49 50 67 51 40 52 27 53 28 54 33 55 29 56 30 57
REMARK SMILES IDX 32 58 34 59 31 60 53 61 54 62 59 63 55 64 56 65 58 66 60 67
REMARK SMILES IDX 57 68 41 69 42 70 47 71 43 72 44 73 46 74 48 75 45 76
REMARK H PARENT 11 5 15 19 65 38 39 49
REMARK Flexibility Score: inf
ROOT
ATOM      1  C   UNL A   1      33.415  29.031  24.968  1.00  0.00     0.117 C 
ENDROOT
BRANCH   1   2
ATOM      2  N   UNL A   1      34.059  28.827  23.682  1.00  0.00    -0.356 N 
ATOM      3  C   UNL A   1      33.728  27.989  22.658  1.00  0.00     0.220 C 
ATOM      4  O   UNL A   1      34.168  28.231  21.533  1.00  0.00    -0.275 OA
ATOM      5  H   UNL A   1      34.859  29.379  23.525  1.00  0.00     0.163 HD
BRANCH   3   6
ATOM      6  C   UNL A   1      32.830  26.798  22.899  1.00  0.00     0.111 C 
BRANCH   6   7
ATOM      7  C   UNL A   1      31.425  27.004  22.329  1.00  0.00     0.087 C 
BRANCH   7   8
ATOM      8  S   UNL A   1      30.072  26.778  23.538  1.00  0.00    -0.093 SA
BRANCH   8   9
ATOM      9  C   UNL A   1      29.065  28.170  23.223  1.00  0.00     0.174 A 
ATOM     10  C   UNL A   1      27.768  31.767  23.218  1.00  0.00     0.081 C 
ATOM     11  C   UNL A   1      28.077  30.321  23.105  1.00  0.00     0.115 A 
ATOM     12  N   UNL A   1      27.177  29.366  23.176  1.00  0.00    -0.143 NA
ATOM     13  S   UNL A   1      29.693  29.746  22.965  1.00  0.00    -0.091 S 
ATOM     14  N   UNL A   1      27.755  28.116  23.214  1.00  0.00    -0.132 NA
ENDBRANCH   8   9
ENDBRANCH   7   8
ENDBRANCH   6   7
ENDBRANCH   3   6
ENDBRANCH   1   2
BRANCH   1  15
ATOM     15  C   UNL A   1      33.939  28.148  26.100  1.00  0.00     0.042 C 
BRANCH  15  16
ATOM     16  C   UNL A   1      33.489  28.544  27.507  1.00  0.00     0.118 C 
BRANCH  16  17
ATOM     17  N   UNL A   1      33.530  29.973  27.768  1.00  0.00    -0.352 N 
ATOM     18  C   UNL A   1      34.553  30.769  28.237  1.00  0.00     0.251 C 
ATOM     19  H   UNL A   1      32.690  30.450  27.580  1.00  0.00     0.163 HD
ATOM     20  O   UNL A   1      34.323  31.953  28.471  1.00  0.00    -0.269 OA
BRANCH  18  21
ATOM     21  C   UNL A   1      35.921  30.241  28.494  1.00  0.00     0.039 A 
ATOM     22  C   UNL A   1      36.848  30.254  27.445  1.00  0.00     0.014 A 
ATOM     23  C   UNL A   1      36.292  29.669  29.714  1.00  0.00     0.014 A 
ATOM     24  C   UNL A   1      38.148  29.767  27.637  1.00  0.00     0.010 A 
ATOM     25  C   UNL A   1      37.605  29.225  29.924  1.00  0.00     0.010 A 
ATOM     26  C   UNL A   1      38.552  29.277  28.889  1.00  0.00    -0.014 A 
BRANCH  26  27
ATOM     27  C   UNL A   1      39.967  28.885  29.136  1.00  0.00     0.031 A 
ATOM     28  C   UNL A   1      40.950  29.833  29.767  1.00  0.00     0.074 A 
ATOM     29  C   UNL A   1      40.389  27.667  28.740  1.00  0.00     0.049 A 
ATOM     30  N   UNL A   1      42.219  29.648  30.037  1.00  0.00    -0.248 NA
ATOM     31  C   UNL A   1      40.448  31.167  30.129  1.00  0.00     0.031 C 
ATOM     32  C   UNL A   1      39.557  26.662  28.077  1.00  0.00     0.029 A 
ATOM     33  N   UNL A   1      41.625  27.073  28.823  1.00  0.00    -0.354 N 
ATOM     34  C   UNL A   1      42.669  30.834  30.603  1.00  0.00     0.074 A 
ATOM     35  C   UNL A   1      41.544  31.749  30.597  1.00  0.00     0.031 C 
ATOM     36  C   UNL A   1      40.302  25.575  27.822  1.00  0.00     0.029 A 
ATOM     37  C   UNL A   1      41.669  25.814  28.274  1.00  0.00     0.049 A 
ATOM     38  H   UNL A   1      42.405  27.508  29.237  1.00  0.00     0.167 HD
ATOM     39  C   UNL A   1      43.897  31.129  31.096  1.00  0.00     0.037 A 
ATOM     40  C   UNL A   1      42.692  24.948  28.141  1.00  0.00     0.037 A 
ATOM     41  C   UNL A   1      45.016  30.221  31.113  1.00  0.00     0.049 A 
ATOM     42  C   UNL A   1      44.053  25.311  28.668  1.00  0.00     0.074 A 
ATOM     43  C   UNL A   1      46.272  30.412  31.665  1.00  0.00     0.029 A 
ATOM     44  N   UNL A   1      45.021  28.958  30.541  1.00  0.00    -0.354 N 
ATOM     45  N   UNL A   1      44.435  26.404  29.280  1.00  0.00    -0.248 NA
ATOM     46  C   UNL A   1      45.122  24.317  28.489  1.00  0.00     0.031 C 
ATOM     47  C   UNL A   1      47.053  29.285  31.383  1.00  0.00     0.029 A 
ATOM     48  C   UNL A   1      46.269  28.374  30.696  1.00  0.00     0.049 A 
ATOM     49  H   UNL A   1      44.252  28.538  30.091  1.00  0.00     0.167 HD
ATOM     50  C   UNL A   1      45.779  26.221  29.581  1.00  0.00     0.074 A 
ATOM     51  C   UNL A   1      46.143  24.907  29.095  1.00  0.00     0.031 C 
ATOM     52  C   UNL A   1      46.630  27.068  30.208  1.00  0.00     0.037 A 
BRANCH  39  53
ATOM     53  C   UNL A   1      44.106  32.500  31.674  1.00  0.00     0.057 A 
ATOM     54  C   UNL A   1      43.876  32.771  33.029  1.00  0.00     0.134 A 
ATOM     55  C   UNL A   1      44.613  33.541  30.885  1.00  0.00     0.134 A 
ATOM     56  F   UNL A   1      43.388  31.819  33.839  1.00  0.00    -0.206 F 
ATOM     57  C   UNL A   1      44.123  34.033  33.574  1.00  0.00     0.040 A 
ATOM     58  C   UNL A   1      44.888  34.800  31.423  1.00  0.00     0.040 A 
ATOM     59  F   UNL A   1      44.868  33.345  29.582  1.00  0.00    -0.206 F 
ATOM     60  C   UNL A   1      44.639  35.049  32.771  1.00  0.00     0.006 A 
ENDBRANCH  39  53
BRANCH  40  61
ATOM     61  C   UNL A   1      42.466  23.638  27.484  1.00  0.00     0.057 A 
ATOM     62  C   UNL A   1      42.525  23.507  26.092  1.00  0.00     0.134 A 
ATOM     63  C   UNL A   1      42.188  22.486  28.231  1.00  0.00     0.134 A 
ATOM     64  F   UNL A   1      42.767  24.580  25.324  1.00  0.00    -0.206 F 
ATOM     65  C   UNL A   1      42.305  22.280  25.464  1.00  0.00     0.040 A 
ATOM     66  C   UNL A   1      41.989  21.249  27.617  1.00  0.00     0.040 A 
ATOM     67  F   UNL A   1      42.122  22.547  29.569  1.00  0.00    -0.206 F 
ATOM     68  C   UNL A   1      42.042  21.145  26.228  1.00  0.00     0.006 A 
ENDBRANCH  40  61
BRANCH  52  69
ATOM     69  C   UNL A   1      48.038  26.596  30.423  1.00  0.00     0.057 A 
ATOM     70  C   UNL A   1      48.408  25.865  31.559  1.00  0.00     0.134 A 
ATOM     71  C   UNL A   1      49.029  26.843  29.463  1.00  0.00     0.134 A 
ATOM     72  F   UNL A   1      47.510  25.608  32.522  1.00  0.00    -0.206 F 
ATOM     73  C   UNL A   1      49.715  25.411  31.741  1.00  0.00     0.040 A 
ATOM     74  C   UNL A   1      50.334  26.374  29.624  1.00  0.00     0.040 A 
ATOM     75  F   UNL A   1      48.742  27.533  28.350  1.00  0.00    -0.206 F 
ATOM     76  C   UNL A   1      50.681  25.659  30.768  1.00  0.00     0.006 A 
ENDBRANCH  52  69
ENDBRANCH  26  27
ENDBRANCH  18  21
ENDBRANCH  16  17
ENDBRANCH  15  16
ENDBRANCH   1  15
TORSDOF 13
ENDMDL
