MODEL 1
REMARK VINA RESULT:     -11.9      0.000      0.000
REMARK SMILES Nc1cccc(C(=O)N2CCC[C@H]2C(=O)NCCCNC(=O)c2ccc(-c3c4nc(c(-c5c(F)cccc5F)c5ccc([nH]5)c(-c5c(F)cccc5F)c5nc(c(-c6c(F)cccc6F)c6ccc3[nH]6)C=C5)C=C4)cc2)c1
REMARK SMILES IDX 17 1 16 2 14 3 15 4 13 6 9 7 10 8 11 9 12 10 7 11 8 12 6 13
REMARK SMILES IDX 2 14 3 15 77 16 4 17 5 18 1 19 18 22 19 23 20 24 21 25 22 27
REMARK SMILES IDX 23 28 24 29 76 30 25 31 75 32 26 33 27 34 28 35 69 36 29 37
REMARK SMILES IDX 74 38 68 39 70 40 30 41 73 42 67 43 66 44 31 46 57 47 40 48
REMARK SMILES IDX 56 49 41 50 44 51 55 52 71 53 42 54 43 55 54 57 72 58 45 59
REMARK SMILES IDX 32 60 33 61 38 62 34 63 35 64 37 65 39 66 36 67 58 68 59 69
REMARK SMILES IDX 64 70 60 71 61 72 63 73 65 74 62 75 46 76 47 77 52 78 48 79
REMARK SMILES IDX 49 80 51 81 53 82 50 83
REMARK H PARENT 16 5 1 20 1 21 20 26 70 45 44 56
REMARK Flexibility Score: inf
ROOT
ATOM      1  C   UNL A   1      31.055  30.888  25.392  1.00  0.00     0.117 C 
ENDROOT
BRANCH   1   2
ATOM      2  N   UNL A   1      32.251  30.078  25.349  1.00  0.00    -0.354 N 
ATOM      3  C   UNL A   1      32.415  28.733  25.198  1.00  0.00     0.242 C 
ATOM      4  O   UNL A   1      33.562  28.353  24.932  1.00  0.00    -0.273 OA
ATOM      5  H   UNL A   1      33.090  30.582  25.446  1.00  0.00     0.163 HD
BRANCH   3   6
ATOM      6  C   UNL A   1      31.236  27.738  25.143  1.00  0.00     0.174 C 
ATOM      7  N   UNL A   1      31.122  26.846  23.985  1.00  0.00    -0.327 N 
ATOM      8  C   UNL A   1      31.208  25.450  24.379  1.00  0.00     0.121 C 
ATOM      9  C   UNL A   1      30.735  25.458  25.821  1.00  0.00     0.024 C 
ATOM     10  C   UNL A   1      31.209  26.806  26.363  1.00  0.00     0.037 C 
BRANCH   7  11
ATOM     11  C   UNL A   1      30.689  27.399  22.788  1.00  0.00     0.254 C 
ATOM     12  O   UNL A   1      31.188  27.067  21.714  1.00  0.00    -0.269 OA
BRANCH  11  13
ATOM     13  C   UNL A   1      29.662  28.477  22.773  1.00  0.00     0.042 A 
ATOM     14  C   UNL A   1      28.944  30.722  22.152  1.00  0.00     0.032 A 
ATOM     15  C   UNL A   1      27.644  30.394  22.538  1.00  0.00     0.025 A 
ATOM     16  C   UNL A   1      29.928  29.733  22.209  1.00  0.00     0.039 A 
ATOM     17  C   UNL A   1      27.346  29.125  23.041  1.00  0.00     0.003 A 
ATOM     18  C   UNL A   1      28.356  28.170  23.168  1.00  0.00     0.014 A 
BRANCH  14  19
ATOM     19  N   UNL A   1      29.225  31.957  21.590  1.00  0.00    -0.399 N 
ATOM     20  H   UNL A   1      28.790  32.768  21.940  1.00  0.00     0.156 HD
ATOM     21  H   UNL A   1      29.860  32.023  20.840  1.00  0.00     0.156 HD
ENDBRANCH  14  19
ENDBRANCH  11  13
ENDBRANCH   7  11
ENDBRANCH   3   6
ENDBRANCH   1   2
BRANCH   1  22
ATOM     22  C   UNL A   1      31.050  31.895  26.532  1.00  0.00     0.042 C 
BRANCH  22  23
ATOM     23  C   UNL A   1      32.431  32.433  26.875  1.00  0.00     0.118 C 
BRANCH  23  24
ATOM     24  N   UNL A   1      32.390  33.819  27.327  1.00  0.00    -0.352 N 
ATOM     25  C   UNL A   1      33.105  34.452  28.308  1.00  0.00     0.251 C 
ATOM     26  H   UNL A   1      31.746  34.390  26.849  1.00  0.00     0.163 HD
ATOM     27  O   UNL A   1      32.767  35.582  28.670  1.00  0.00    -0.269 OA
BRANCH  25  28
ATOM     28  C   UNL A   1      34.267  33.799  28.947  1.00  0.00     0.039 A 
ATOM     29  C   UNL A   1      35.552  34.260  28.643  1.00  0.00     0.014 A 
ATOM     30  C   UNL A   1      34.105  32.707  29.804  1.00  0.00     0.014 A 
ATOM     31  C   UNL A   1      36.666  33.660  29.235  1.00  0.00     0.010 A 
ATOM     32  C   UNL A   1      35.208  32.166  30.459  1.00  0.00     0.010 A 
ATOM     33  C   UNL A   1      36.501  32.624  30.167  1.00  0.00    -0.014 A 
BRANCH  33  34
ATOM     34  C   UNL A   1      37.666  31.985  30.826  1.00  0.00     0.031 A 
ATOM     35  C   UNL A   1      38.442  30.915  30.110  1.00  0.00     0.074 A 
ATOM     36  C   UNL A   1      37.983  32.317  32.092  1.00  0.00     0.049 A 
ATOM     37  N   UNL A   1      39.442  30.188  30.540  1.00  0.00    -0.248 NA
ATOM     38  C   UNL A   1      38.018  30.599  28.737  1.00  0.00     0.031 C 
ATOM     39  C   UNL A   1      37.275  33.301  32.912  1.00  0.00     0.029 A 
ATOM     40  N   UNL A   1      38.977  31.850  32.915  1.00  0.00    -0.354 N 
ATOM     41  C   UNL A   1      39.748  29.316  29.503  1.00  0.00     0.074 A 
ATOM     42  C   UNL A   1      38.797  29.569  28.444  1.00  0.00     0.031 C 
ATOM     43  C   UNL A   1      37.869  33.379  34.114  1.00  0.00     0.029 A 
ATOM     44  C   UNL A   1      38.975  32.427  34.160  1.00  0.00     0.049 A 
ATOM     45  H   UNL A   1      39.629  31.167  32.638  1.00  0.00     0.167 HD
ATOM     46  C   UNL A   1      40.746  28.402  29.431  1.00  0.00     0.037 A 
ATOM     47  C   UNL A   1      39.774  32.210  35.222  1.00  0.00     0.037 A 
ATOM     48  C   UNL A   1      41.709  28.174  30.476  1.00  0.00     0.049 A 
ATOM     49  C   UNL A   1      40.885  31.205  35.115  1.00  0.00     0.074 A 
ATOM     50  C   UNL A   1      42.798  27.320  30.475  1.00  0.00     0.029 A 
ATOM     51  N   UNL A   1      41.694  28.803  31.712  1.00  0.00    -0.354 N 
ATOM     52  N   UNL A   1      41.208  30.437  34.102  1.00  0.00    -0.248 NA
ATOM     53  C   UNL A   1      41.749  31.045  36.292  1.00  0.00     0.031 C 
ATOM     54  C   UNL A   1      43.419  27.404  31.725  1.00  0.00     0.029 A 
ATOM     55  C   UNL A   1      42.744  28.343  32.489  1.00  0.00     0.049 A 
ATOM     56  H   UNL A   1      41.035  29.477  31.995  1.00  0.00     0.167 HD
ATOM     57  C   UNL A   1      42.326  29.720  34.510  1.00  0.00     0.074 A 
ATOM     58  C   UNL A   1      42.632  30.155  35.858  1.00  0.00     0.031 C 
ATOM     59  C   UNL A   1      43.037  28.790  33.827  1.00  0.00     0.037 A 
BRANCH  46  60
ATOM     60  C   UNL A   1      40.838  27.585  28.174  1.00  0.00     0.057 A 
ATOM     61  C   UNL A   1      41.575  28.015  27.062  1.00  0.00     0.134 A 
ATOM     62  C   UNL A   1      40.185  26.350  28.076  1.00  0.00     0.134 A 
ATOM     63  F   UNL A   1      42.213  29.194  27.085  1.00  0.00    -0.206 F 
ATOM     64  C   UNL A   1      41.627  27.265  25.886  1.00  0.00     0.040 A 
ATOM     65  C   UNL A   1      40.255  25.577  26.915  1.00  0.00     0.040 A 
ATOM     66  F   UNL A   1      39.468  25.874  29.105  1.00  0.00    -0.206 F 
ATOM     67  C   UNL A   1      40.970  26.039  25.812  1.00  0.00     0.006 A 
ENDBRANCH  46  60
BRANCH  47  68
ATOM     68  C   UNL A   1      39.566  32.989  36.467  1.00  0.00     0.057 A 
ATOM     69  C   UNL A   1      40.239  34.198  36.680  1.00  0.00     0.134 A 
ATOM     70  C   UNL A   1      38.679  32.559  37.461  1.00  0.00     0.134 A 
ATOM     71  F   UNL A   1      41.113  34.653  35.770  1.00  0.00    -0.206 F 
ATOM     72  C   UNL A   1      40.045  34.947  37.841  1.00  0.00     0.040 A 
ATOM     73  C   UNL A   1      38.459  33.311  38.617  1.00  0.00     0.040 A 
ATOM     74  F   UNL A   1      37.997  31.415  37.312  1.00  0.00    -0.206 F 
ATOM     75  C   UNL A   1      39.147  34.507  38.811  1.00  0.00     0.006 A 
ENDBRANCH  47  68
BRANCH  59  76
ATOM     76  C   UNL A   1      44.234  28.202  34.515  1.00  0.00     0.057 A 
ATOM     77  C   UNL A   1      45.499  28.800  34.440  1.00  0.00     0.134 A 
ATOM     78  C   UNL A   1      44.111  27.043  35.290  1.00  0.00     0.134 A 
ATOM     79  F   UNL A   1      45.686  29.905  33.702  1.00  0.00    -0.206 F 
ATOM     80  C   UNL A   1      46.602  28.254  35.098  1.00  0.00     0.040 A 
ATOM     81  C   UNL A   1      45.201  26.502  35.973  1.00  0.00     0.040 A 
ATOM     82  F   UNL A   1      42.925  26.425  35.409  1.00  0.00    -0.206 F 
ATOM     83  C   UNL A   1      46.453  27.105  35.872  1.00  0.00     0.006 A 
ENDBRANCH  59  76
ENDBRANCH  33  34
ENDBRANCH  25  28
ENDBRANCH  23  24
ENDBRANCH  22  23
ENDBRANCH   1  22
TORSDOF 13
ENDMDL
MODEL 2
REMARK VINA RESULT:     -11.8      5.499     10.166
REMARK SMILES Nc1cccc(C(=O)N2CCC[C@H]2C(=O)NCCCNC(=O)c2ccc(-c3c4nc(c(-c5c(F)cccc5F)c5ccc([nH]5)c(-c5c(F)cccc5F)c5nc(c(-c6c(F)cccc6F)c6ccc3[nH]6)C=C5)C=C4)cc2)c1
REMARK SMILES IDX 17 1 16 2 14 3 15 4 13 6 9 7 10 8 11 9 12 10 7 11 8 12 6 13
REMARK SMILES IDX 2 14 3 15 77 16 4 17 5 18 1 19 18 22 19 23 20 24 21 25 22 27
REMARK SMILES IDX 23 28 24 29 76 30 25 31 75 32 26 33 27 34 28 35 69 36 29 37
REMARK SMILES IDX 74 38 68 39 70 40 30 41 73 42 67 43 66 44 31 46 57 47 40 48
REMARK SMILES IDX 56 49 41 50 44 51 55 52 71 53 42 54 43 55 54 57 72 58 45 59
REMARK SMILES IDX 32 60 33 61 38 62 34 63 35 64 37 65 39 66 36 67 58 68 59 69
REMARK SMILES IDX 64 70 60 71 61 72 63 73 65 74 62 75 46 76 47 77 52 78 48 79
REMARK SMILES IDX 49 80 51 81 53 82 50 83
REMARK H PARENT 16 5 1 20 1 21 20 26 70 45 44 56
REMARK Flexibility Score: inf
ROOT
ATOM      1  C   UNL A   1      36.352  20.014  25.001  1.00  0.00     0.117 C 
ENDROOT
BRANCH   1   2
ATOM      2  N   UNL A   1      36.083  21.273  25.659  1.00  0.00    -0.354 N 
ATOM      3  C   UNL A   1      35.179  22.253  25.378  1.00  0.00     0.242 C 
ATOM      4  O   UNL A   1      34.995  23.092  26.269  1.00  0.00    -0.273 OA
ATOM      5  H   UNL A   1      36.649  21.453  26.444  1.00  0.00     0.163 HD
BRANCH   3   6
ATOM      6  C   UNL A   1      34.270  22.234  24.130  1.00  0.00     0.174 C 
ATOM      7  N   UNL A   1      32.822  22.373  24.314  1.00  0.00    -0.327 N 
ATOM      8  C   UNL A   1      32.315  23.562  23.650  1.00  0.00     0.121 C 
ATOM      9  C   UNL A   1      33.318  23.803  22.538  1.00  0.00     0.024 C 
ATOM     10  C   UNL A   1      34.648  23.329  23.123  1.00  0.00     0.037 C 
BRANCH   7  11
ATOM     11  C   UNL A   1      32.130  21.280  24.815  1.00  0.00     0.254 C 
ATOM     12  O   UNL A   1      31.232  21.418  25.643  1.00  0.00    -0.269 OA
BRANCH  11  13
ATOM     13  C   UNL A   1      32.511  19.894  24.429  1.00  0.00     0.042 A 
ATOM     14  C   UNL A   1      33.208  17.635  25.024  1.00  0.00     0.032 A 
ATOM     15  C   UNL A   1      32.982  17.236  23.706  1.00  0.00     0.025 A 
ATOM     16  C   UNL A   1      32.903  18.948  25.388  1.00  0.00     0.039 A 
ATOM     17  C   UNL A   1      32.528  18.149  22.752  1.00  0.00     0.003 A 
ATOM     18  C   UNL A   1      32.302  19.479  23.109  1.00  0.00     0.014 A 
BRANCH  14  19
ATOM     19  N   UNL A   1      33.592  16.714  25.986  1.00  0.00    -0.399 N 
ATOM     20  H   UNL A   1      33.332  15.769  25.895  1.00  0.00     0.156 HD
ATOM     21  H   UNL A   1      34.125  17.005  26.761  1.00  0.00     0.156 HD
ENDBRANCH  14  19
ENDBRANCH  11  13
ENDBRANCH   7  11
ENDBRANCH   3   6
ENDBRANCH   1   2
BRANCH   1  22
ATOM     22  C   UNL A   1      37.816  19.826  24.635  1.00  0.00     0.042 C 
BRANCH  22  23
ATOM     23  C   UNL A   1      38.777  20.213  25.751  1.00  0.00     0.118 C 
BRANCH  23  24
ATOM     24  N   UNL A   1      39.911  19.302  25.846  1.00  0.00    -0.352 N 
ATOM     25  C   UNL A   1      41.228  19.554  26.126  1.00  0.00     0.251 C 
ATOM     26  H   UNL A   1      39.696  18.355  25.684  1.00  0.00     0.163 HD
ATOM     27  O   UNL A   1      42.065  18.664  25.953  1.00  0.00    -0.269 OA
BRANCH  25  28
ATOM     28  C   UNL A   1      41.663  20.877  26.622  1.00  0.00     0.039 A 
ATOM     29  C   UNL A   1      42.063  21.847  25.697  1.00  0.00     0.014 A 
ATOM     30  C   UNL A   1      41.725  21.154  27.991  1.00  0.00     0.014 A 
ATOM     31  C   UNL A   1      42.476  23.105  26.141  1.00  0.00     0.010 A 
ATOM     32  C   UNL A   1      42.054  22.433  28.428  1.00  0.00     0.010 A 
ATOM     33  C   UNL A   1      42.451  23.416  27.510  1.00  0.00    -0.014 A 
BRANCH  33  34
ATOM     34  C   UNL A   1      42.865  24.751  28.006  1.00  0.00     0.031 A 
ATOM     35  C   UNL A   1      41.828  25.802  28.292  1.00  0.00     0.074 A 
ATOM     36  C   UNL A   1      44.173  25.041  28.134  1.00  0.00     0.049 A 
ATOM     37  N   UNL A   1      41.991  27.047  28.661  1.00  0.00    -0.248 NA
ATOM     38  C   UNL A   1      40.422  25.409  28.109  1.00  0.00     0.031 C 
ATOM     39  C   UNL A   1      45.277  24.126  27.838  1.00  0.00     0.029 A 
ATOM     40  N   UNL A   1      44.797  26.197  28.534  1.00  0.00    -0.354 N 
ATOM     41  C   UNL A   1      40.713  27.590  28.730  1.00  0.00     0.074 A 
ATOM     42  C   UNL A   1      39.792  26.555  28.315  1.00  0.00     0.031 C 
ATOM     43  C   UNL A   1      46.441  24.748  28.085  1.00  0.00     0.029 A 
ATOM     44  C   UNL A   1      46.167  26.114  28.522  1.00  0.00     0.049 A 
ATOM     45  H   UNL A   1      44.308  27.007  28.803  1.00  0.00     0.167 HD
ATOM     46  C   UNL A   1      40.340  28.831  29.124  1.00  0.00     0.037 A 
ATOM     47  C   UNL A   1      47.099  27.037  28.827  1.00  0.00     0.037 A 
ATOM     48  C   UNL A   1      41.257  29.849  29.564  1.00  0.00     0.049 A 
ATOM     49  C   UNL A   1      46.662  28.402  29.279  1.00  0.00     0.074 A 
ATOM     50  C   UNL A   1      40.976  31.114  30.048  1.00  0.00     0.029 A 
ATOM     51  N   UNL A   1      42.638  29.715  29.570  1.00  0.00    -0.354 N 
ATOM     52  N   UNL A   1      45.448  28.880  29.407  1.00  0.00    -0.248 NA
ATOM     53  C   UNL A   1      47.724  29.351  29.639  1.00  0.00     0.031 C 
ATOM     54  C   UNL A   1      42.189  31.761  30.309  1.00  0.00     0.029 A 
ATOM     55  C   UNL A   1      43.224  30.882  30.031  1.00  0.00     0.049 A 
ATOM     56  H   UNL A   1      43.129  28.910  29.288  1.00  0.00     0.167 HD
ATOM     57  C   UNL A   1      45.598  30.175  29.886  1.00  0.00     0.074 A 
ATOM     58  C   UNL A   1      47.021  30.403  30.036  1.00  0.00     0.031 C 
ATOM     59  C   UNL A   1      44.642  31.091  30.178  1.00  0.00     0.037 A 
BRANCH  46  60
ATOM     60  C   UNL A   1      38.872  29.148  29.093  1.00  0.00     0.057 A 
ATOM     61  C   UNL A   1      38.228  29.561  27.919  1.00  0.00     0.134 A 
ATOM     62  C   UNL A   1      38.092  29.034  30.250  1.00  0.00     0.134 A 
ATOM     63  F   UNL A   1      38.919  29.703  26.779  1.00  0.00    -0.206 F 
ATOM     64  C   UNL A   1      36.870  29.886  27.906  1.00  0.00     0.040 A 
ATOM     65  C   UNL A   1      36.726  29.328  30.243  1.00  0.00     0.040 A 
ATOM     66  F   UNL A   1      38.642  28.637  31.408  1.00  0.00    -0.206 F 
ATOM     67  C   UNL A   1      36.114  29.765  29.070  1.00  0.00     0.006 A 
ENDBRANCH  46  60
BRANCH  47  68
ATOM     68  C   UNL A   1      48.537  26.683  28.744  1.00  0.00     0.057 A 
ATOM     69  C   UNL A   1      49.179  26.032  29.804  1.00  0.00     0.134 A 
ATOM     70  C   UNL A   1      49.296  26.964  27.602  1.00  0.00     0.134 A 
ATOM     71  F   UNL A   1      48.507  25.751  30.930  1.00  0.00    -0.206 F 
ATOM     72  C   UNL A   1      50.528  25.683  29.737  1.00  0.00     0.040 A 
ATOM     73  C   UNL A   1      50.641  26.600  27.513  1.00  0.00     0.040 A 
ATOM     74  F   UNL A   1      48.735  27.576  26.550  1.00  0.00    -0.206 F 
ATOM     75  C   UNL A   1      51.262  25.961  28.585  1.00  0.00     0.006 A 
ENDBRANCH  47  68
BRANCH  59  76
ATOM     76  C   UNL A   1      45.102  32.412  30.720  1.00  0.00     0.057 A 
ATOM     77  C   UNL A   1      45.296  32.623  32.091  1.00  0.00     0.134 A 
ATOM     78  C   UNL A   1      45.391  33.474  29.854  1.00  0.00     0.134 A 
ATOM     79  F   UNL A   1      45.025  31.650  32.974  1.00  0.00    -0.206 F 
ATOM     80  C   UNL A   1      45.741  33.852  32.583  1.00  0.00     0.040 A 
ATOM     81  C   UNL A   1      45.860  34.699  30.331  1.00  0.00     0.040 A 
ATOM     82  F   UNL A   1      45.234  33.335  28.529  1.00  0.00    -0.206 F 
ATOM     83  C   UNL A   1      46.030  34.891  31.700  1.00  0.00     0.006 A 
ENDBRANCH  59  76
ENDBRANCH  33  34
ENDBRANCH  25  28
ENDBRANCH  23  24
ENDBRANCH  22  23
ENDBRANCH   1  22
TORSDOF 13
ENDMDL
MODEL 3
REMARK VINA RESULT:     -11.8      0.494      6.340
REMARK SMILES Nc1cccc(C(=O)N2CCC[C@H]2C(=O)NCCCNC(=O)c2ccc(-c3c4nc(c(-c5c(F)cccc5F)c5ccc([nH]5)c(-c5c(F)cccc5F)c5nc(c(-c6c(F)cccc6F)c6ccc3[nH]6)C=C5)C=C4)cc2)c1
REMARK SMILES IDX 17 1 16 2 14 3 15 4 13 6 9 7 10 8 11 9 12 10 7 11 8 12 6 13
REMARK SMILES IDX 2 14 3 15 77 16 4 17 5 18 1 19 18 22 19 23 20 24 21 25 22 27
REMARK SMILES IDX 23 28 24 29 76 30 25 31 75 32 26 33 27 34 28 35 69 36 29 37
REMARK SMILES IDX 74 38 68 39 70 40 30 41 73 42 67 43 66 44 31 46 57 47 40 48
REMARK SMILES IDX 56 49 41 50 44 51 55 52 71 53 42 54 43 55 54 57 72 58 45 59
REMARK SMILES IDX 32 60 33 61 38 62 34 63 35 64 37 65 39 66 36 67 58 68 59 69
REMARK SMILES IDX 64 70 60 71 61 72 63 73 65 74 62 75 46 76 47 77 52 78 48 79
REMARK SMILES IDX 49 80 51 81 53 82 50 83
REMARK H PARENT 16 5 1 20 1 21 20 26 70 45 44 56
REMARK Flexibility Score: inf
ROOT
ATOM      1  C   UNL A   1      30.995  31.025  25.777  1.00  0.00     0.117 C 
ENDROOT
BRANCH   1   2
ATOM      2  N   UNL A   1      32.216  30.356  25.390  1.00  0.00    -0.354 N 
ATOM      3  C   UNL A   1      32.458  29.057  25.056  1.00  0.00     0.242 C 
ATOM      4  O   UNL A   1      33.546  28.830  24.512  1.00  0.00    -0.273 OA
ATOM      5  H   UNL A   1      33.010  30.938  25.363  1.00  0.00     0.163 HD
BRANCH   3   6
ATOM      6  C   UNL A   1      31.387  27.948  25.141  1.00  0.00     0.174 C 
ATOM      7  N   UNL A   1      31.282  26.987  24.038  1.00  0.00    -0.327 N 
ATOM      8  C   UNL A   1      31.538  25.630  24.491  1.00  0.00     0.121 C 
ATOM      9  C   UNL A   1      31.172  25.671  25.962  1.00  0.00     0.024 C 
ATOM     10  C   UNL A   1      31.544  27.087  26.402  1.00  0.00     0.037 C 
BRANCH   7  11
ATOM     11  C   UNL A   1      30.708  27.428  22.854  1.00  0.00     0.254 C 
ATOM     12  O   UNL A   1      31.084  26.998  21.764  1.00  0.00    -0.269 OA
BRANCH  11  13
ATOM     13  C   UNL A   1      29.677  28.501  22.858  1.00  0.00     0.042 A 
ATOM     14  C   UNL A   1      28.977  30.782  22.356  1.00  0.00     0.032 A 
ATOM     15  C   UNL A   1      27.661  30.423  22.648  1.00  0.00     0.025 A 
ATOM     16  C   UNL A   1      29.964  29.795  22.397  1.00  0.00     0.039 A 
ATOM     17  C   UNL A   1      27.346  29.122  23.045  1.00  0.00     0.003 A 
ATOM     18  C   UNL A   1      28.353  28.163  23.160  1.00  0.00     0.014 A 
BRANCH  14  19
ATOM     19  N   UNL A   1      29.280  32.053  21.896  1.00  0.00    -0.399 N 
ATOM     20  H   UNL A   1      30.096  32.508  22.206  1.00  0.00     0.156 HD
ATOM     21  H   UNL A   1      28.678  32.503  21.259  1.00  0.00     0.156 HD
ENDBRANCH  14  19
ENDBRANCH  11  13
ENDBRANCH   7  11
ENDBRANCH   3   6
ENDBRANCH   1   2
BRANCH   1  22
ATOM     22  C   UNL A   1      31.206  32.471  26.195  1.00  0.00     0.042 C 
BRANCH  22  23
ATOM     23  C   UNL A   1      32.354  32.660  27.175  1.00  0.00     0.118 C 
BRANCH  23  24
ATOM     24  N   UNL A   1      32.502  34.048  27.596  1.00  0.00    -0.352 N 
ATOM     25  C   UNL A   1      33.358  34.612  28.505  1.00  0.00     0.251 C 
ATOM     26  H   UNL A   1      31.889  34.681  27.155  1.00  0.00     0.163 HD
ATOM     27  O   UNL A   1      33.176  35.779  28.863  1.00  0.00    -0.269 OA
BRANCH  25  28
ATOM     28  C   UNL A   1      34.487  33.843  29.068  1.00  0.00     0.039 A 
ATOM     29  C   UNL A   1      35.793  34.220  28.737  1.00  0.00     0.014 A 
ATOM     30  C   UNL A   1      34.271  32.727  29.881  1.00  0.00     0.014 A 
ATOM     31  C   UNL A   1      36.876  33.510  29.258  1.00  0.00     0.010 A 
ATOM     32  C   UNL A   1      35.350  32.073  30.468  1.00  0.00     0.010 A 
ATOM     33  C   UNL A   1      36.663  32.446  30.148  1.00  0.00    -0.014 A 
BRANCH  33  34
ATOM     34  C   UNL A   1      37.797  31.689  30.732  1.00  0.00     0.031 A 
ATOM     35  C   UNL A   1      38.258  31.985  32.133  1.00  0.00     0.074 A 
ATOM     36  C   UNL A   1      38.456  30.786  29.982  1.00  0.00     0.049 A 
ATOM     37  N   UNL A   1      39.271  31.487  32.794  1.00  0.00    -0.248 NA
ATOM     38  C   UNL A   1      37.495  32.999  32.878  1.00  0.00     0.031 C 
ATOM     39  C   UNL A   1      38.140  30.447  28.593  1.00  0.00     0.029 A 
ATOM     40  N   UNL A   1      39.539  29.997  30.279  1.00  0.00    -0.354 N 
ATOM     41  C   UNL A   1      39.281  32.143  34.020  1.00  0.00     0.074 A 
ATOM     42  C   UNL A   1      38.206  33.110  33.989  1.00  0.00     0.031 C 
ATOM     43  C   UNL A   1      38.997  29.505  28.166  1.00  0.00     0.029 A 
ATOM     44  C   UNL A   1      39.941  29.201  29.237  1.00  0.00     0.049 A 
ATOM     45  H   UNL A   1      39.983  30.002  31.158  1.00  0.00     0.167 HD
ATOM     46  C   UNL A   1      40.097  31.942  35.082  1.00  0.00     0.037 A 
ATOM     47  C   UNL A   1      40.961  28.325  29.152  1.00  0.00     0.037 A 
ATOM     48  C   UNL A   1      41.147  30.958  35.119  1.00  0.00     0.049 A 
ATOM     49  C   UNL A   1      41.844  28.105  30.348  1.00  0.00     0.074 A 
ATOM     50  C   UNL A   1      41.986  30.630  36.169  1.00  0.00     0.029 A 
ATOM     51  N   UNL A   1      41.504  30.146  34.052  1.00  0.00    -0.354 N 
ATOM     52  N   UNL A   1      41.798  28.682  31.525  1.00  0.00    -0.248 NA
ATOM     53  C   UNL A   1      42.912  27.106  30.208  1.00  0.00     0.031 C 
ATOM     54  C   UNL A   1      42.876  29.646  35.726  1.00  0.00     0.029 A 
ATOM     55  C   UNL A   1      42.562  29.330  34.413  1.00  0.00     0.049 A 
ATOM     56  H   UNL A   1      41.068  30.150  33.169  1.00  0.00     0.167 HD
ATOM     57  C   UNL A   1      42.813  28.099  32.273  1.00  0.00     0.074 A 
ATOM     58  C   UNL A   1      43.449  27.116  31.420  1.00  0.00     0.031 C 
ATOM     59  C   UNL A   1      43.181  28.353  33.553  1.00  0.00     0.037 A 
BRANCH  46  60
ATOM     60  C   UNL A   1      39.879  32.810  36.288  1.00  0.00     0.057 A 
ATOM     61  C   UNL A   1      40.629  33.974  36.508  1.00  0.00     0.134 A 
ATOM     62  C   UNL A   1      38.905  32.481  37.238  1.00  0.00     0.134 A 
ATOM     63  F   UNL A   1      41.587  34.339  35.644  1.00  0.00    -0.206 F 
ATOM     64  C   UNL A   1      40.444  34.757  37.649  1.00  0.00     0.040 A 
ATOM     65  C   UNL A   1      38.690  33.273  38.368  1.00  0.00     0.040 A 
ATOM     66  F   UNL A   1      38.146  31.385  37.086  1.00  0.00    -0.206 F 
ATOM     67  C   UNL A   1      39.468  34.410  38.581  1.00  0.00     0.006 A 
ENDBRANCH  46  60
BRANCH  47  68
ATOM     68  C   UNL A   1      41.176  27.569  27.894  1.00  0.00     0.057 A 
ATOM     69  C   UNL A   1      40.594  26.311  27.704  1.00  0.00     0.134 A 
ATOM     70  C   UNL A   1      41.945  28.091  26.848  1.00  0.00     0.134 A 
ATOM     71  F   UNL A   1      39.859  25.752  28.677  1.00  0.00    -0.206 F 
ATOM     72  C   UNL A   1      40.778  25.592  26.522  1.00  0.00     0.040 A 
ATOM     73  C   UNL A   1      42.119  27.392  25.651  1.00  0.00     0.040 A 
ATOM     74  F   UNL A   1      42.520  29.296  26.965  1.00  0.00    -0.206 F 
ATOM     75  C   UNL A   1      41.537  26.136  25.488  1.00  0.00     0.006 A 
ENDBRANCH  47  68
BRANCH  59  76
ATOM     76  C   UNL A   1      44.303  27.533  34.119  1.00  0.00     0.057 A 
ATOM     77  C   UNL A   1      45.630  27.981  34.101  1.00  0.00     0.134 A 
ATOM     78  C   UNL A   1      44.045  26.296  34.722  1.00  0.00     0.134 A 
ATOM     79  F   UNL A   1      45.945  29.152  33.527  1.00  0.00    -0.206 F 
ATOM     80  C   UNL A   1      46.663  27.217  34.647  1.00  0.00     0.040 A 
ATOM     81  C   UNL A   1      45.065  25.534  35.292  1.00  0.00     0.040 A 
ATOM     82  F   UNL A   1      42.794  25.812  34.778  1.00  0.00    -0.206 F 
ATOM     83  C   UNL A   1      46.380  25.993  35.250  1.00  0.00     0.006 A 
ENDBRANCH  59  76
ENDBRANCH  33  34
ENDBRANCH  25  28
ENDBRANCH  23  24
ENDBRANCH  22  23
ENDBRANCH   1  22
TORSDOF 13
ENDMDL
