MODEL 1
REMARK VINA RESULT:     -11.8      0.000      0.000
REMARK SMILES [NH3+][C@@](Cc1ccc(F)cc1)(C(=O)NCCCNC(=O)c1ccc(-c2c3nc(c(-c4c(F)cccc4F)c4ccc([nH]4)c(-c4c(F)cccc4F)c4nc(c(-c5c(F)cccc5F)c5ccc2[nH]5)C=C4)C=C3)cc1)c1ccccc1
REMARK SMILES IDX 15 1 14 2 13 3 11 4 12 5 2 7 1 8 3 12 4 13 5 14 10 15 6 16
REMARK SMILES IDX 9 17 7 18 8 19 74 20 75 21 79 22 76 23 78 24 77 25 16 26
REMARK SMILES IDX 17 27 18 28 19 30 20 31 21 32 73 33 22 34 72 35 23 36 24 37
REMARK SMILES IDX 25 38 66 39 26 40 71 41 65 42 67 43 27 44 70 45 64 46 63 47
REMARK SMILES IDX 28 49 54 50 37 51 53 52 38 53 41 54 52 55 68 56 39 57 40 58
REMARK SMILES IDX 51 60 69 61 42 62 29 63 30 64 35 65 31 66 32 67 34 68 36 69
REMARK SMILES IDX 33 70 55 71 56 72 61 73 57 74 58 75 60 76 62 77 59 78 43 79
REMARK SMILES IDX 44 80 49 81 45 82 46 83 48 84 50 85 47 86
REMARK H PARENT 13 6 1 9 1 10 1 11 17 29 67 48 41 59
REMARK Flexibility Score: inf
ROOT
ATOM      1  C   UNL A   1      37.815  19.623  25.030  1.00  0.00     0.042 C 
ENDROOT
BRANCH   1   2
ATOM      2  C   UNL A   1      36.772  20.692  24.811  1.00  0.00     0.118 C 
BRANCH   2   3
ATOM      3  N   UNL A   1      36.104  21.164  25.984  1.00  0.00    -0.350 N 
ATOM      4  C   UNL A   1      34.756  21.343  26.154  1.00  0.00     0.286 C 
ATOM      5  O   UNL A   1      34.370  21.232  27.325  1.00  0.00    -0.267 OA
ATOM      6  H   UNL A   1      36.676  21.385  26.754  1.00  0.00     0.163 HD
BRANCH   4   7
ATOM      7  C   UNL A   1      33.755  21.697  24.945  1.00  0.00     0.203 C 
BRANCH   7   8
ATOM      8  N   UNL A   1      34.446  22.591  23.972  1.00  0.00    -0.341 N 
ATOM      9  H   UNL A   1      34.098  22.403  23.031  1.00  0.00     0.345 HD
ATOM     10  H   UNL A   1      35.450  22.415  24.003  1.00  0.00     0.345 HD
ATOM     11  H   UNL A   1      34.263  23.565  24.214  1.00  0.00     0.345 HD
ENDBRANCH   7   8
BRANCH   7  12
ATOM     12  C   UNL A   1      33.135  20.416  24.238  1.00  0.00     0.120 C 
BRANCH  12  13
ATOM     13  C   UNL A   1      33.387  18.977  24.684  1.00  0.00    -0.041 A 
ATOM     14  C   UNL A   1      34.437  18.249  24.088  1.00  0.00     0.007 A 
ATOM     15  C   UNL A   1      32.600  18.328  25.654  1.00  0.00     0.007 A 
ATOM     16  C   UNL A   1      34.621  16.892  24.369  1.00  0.00     0.039 A 
ATOM     17  C   UNL A   1      32.753  16.958  25.894  1.00  0.00     0.039 A 
ATOM     18  C   UNL A   1      33.756  16.250  25.243  1.00  0.00     0.123 A 
ATOM     19  F   UNL A   1      33.887  14.935  25.460  1.00  0.00    -0.207 F 
ENDBRANCH  12  13
ENDBRANCH   7  12
BRANCH   7  20
ATOM     20  C   UNL A   1      32.612  22.559  25.588  1.00  0.00     0.022 A 
ATOM     21  C   UNL A   1      32.746  23.934  25.862  1.00  0.00     0.011 A 
ATOM     22  C   UNL A   1      31.346  21.976  25.815  1.00  0.00     0.011 A 
ATOM     23  C   UNL A   1      31.671  24.682  26.353  1.00  0.00     0.001 A 
ATOM     24  C   UNL A   1      30.271  22.726  26.300  1.00  0.00     0.001 A 
ATOM     25  C   UNL A   1      30.435  24.080  26.571  1.00  0.00     0.000 A 
ENDBRANCH   7  20
ENDBRANCH   4   7
ENDBRANCH   2   3
ENDBRANCH   1   2
BRANCH   1  26
ATOM     26  C   UNL A   1      38.996  20.098  25.848  1.00  0.00     0.118 C 
BRANCH  26  27
ATOM     27  N   UNL A   1      40.131  19.179  25.818  1.00  0.00    -0.352 N 
ATOM     28  C   UNL A   1      41.466  19.375  26.057  1.00  0.00     0.251 C 
ATOM     29  H   UNL A   1      39.895  18.252  25.584  1.00  0.00     0.163 HD
ATOM     30  O   UNL A   1      42.251  18.448  25.870  1.00  0.00    -0.269 OA
BRANCH  28  31
ATOM     31  C   UNL A   1      41.971  20.688  26.503  1.00  0.00     0.039 A 
ATOM     32  C   UNL A   1      42.240  21.666  25.542  1.00  0.00     0.014 A 
ATOM     33  C   UNL A   1      42.181  20.966  27.854  1.00  0.00     0.014 A 
ATOM     34  C   UNL A   1      42.651  22.934  25.948  1.00  0.00     0.010 A 
ATOM     35  C   UNL A   1      42.441  22.265  28.262  1.00  0.00     0.010 A 
ATOM     36  C   UNL A   1      42.709  23.258  27.314  1.00  0.00    -0.014 A 
BRANCH  36  37
ATOM     37  C   UNL A   1      43.074  24.620  27.764  1.00  0.00     0.031 A 
ATOM     38  C   UNL A   1      44.517  25.049  27.795  1.00  0.00     0.074 A 
ATOM     39  C   UNL A   1      42.104  25.458  28.178  1.00  0.00     0.049 A 
ATOM     40  N   UNL A   1      45.026  26.200  28.149  1.00  0.00    -0.248 NA
ATOM     41  C   UNL A   1      45.526  24.044  27.414  1.00  0.00     0.031 C 
ATOM     42  C   UNL A   1      40.679  25.126  28.267  1.00  0.00     0.029 A 
ATOM     43  N   UNL A   1      42.165  26.765  28.588  1.00  0.00    -0.354 N 
ATOM     44  C   UNL A   1      46.403  26.052  28.042  1.00  0.00     0.074 A 
ATOM     45  C   UNL A   1      46.658  24.681  27.670  1.00  0.00     0.031 C 
ATOM     46  C   UNL A   1      39.996  26.218  28.640  1.00  0.00     0.029 A 
ATOM     47  C   UNL A   1      40.934  27.314  28.855  1.00  0.00     0.049 A 
ATOM     48  H   UNL A   1      43.010  27.262  28.682  1.00  0.00     0.167 HD
ATOM     49  C   UNL A   1      47.368  26.988  28.199  1.00  0.00     0.037 A 
ATOM     50  C   UNL A   1      40.601  28.566  29.215  1.00  0.00     0.037 A 
ATOM     51  C   UNL A   1      47.102  28.361  28.530  1.00  0.00     0.049 A 
ATOM     52  C   UNL A   1      41.687  29.594  29.357  1.00  0.00     0.074 A 
ATOM     53  C   UNL A   1      48.000  29.406  28.654  1.00  0.00     0.029 A 
ATOM     54  N   UNL A   1      45.842  28.881  28.786  1.00  0.00    -0.354 N 
ATOM     55  N   UNL A   1      42.980  29.458  29.184  1.00  0.00    -0.248 NA
ATOM     56  C   UNL A   1      41.268  30.951  29.732  1.00  0.00     0.031 C 
ATOM     57  C   UNL A   1      47.290  30.548  29.029  1.00  0.00     0.029 A 
ATOM     58  C   UNL A   1      45.942  30.230  29.085  1.00  0.00     0.049 A 
ATOM     59  H   UNL A   1      45.002  28.369  28.759  1.00  0.00     0.167 HD
ATOM     60  C   UNL A   1      43.528  30.713  29.413  1.00  0.00     0.074 A 
ATOM     61  C   UNL A   1      42.423  31.602  29.709  1.00  0.00     0.031 C 
ATOM     62  C   UNL A   1      44.829  31.095  29.385  1.00  0.00     0.037 A 
BRANCH  49  63
ATOM     63  C   UNL A   1      48.793  26.567  27.984  1.00  0.00     0.057 A 
ATOM     64  C   UNL A   1      49.353  26.560  26.701  1.00  0.00     0.134 A 
ATOM     65  C   UNL A   1      49.595  26.113  29.040  1.00  0.00     0.134 A 
ATOM     66  F   UNL A   1      48.643  26.981  25.644  1.00  0.00    -0.206 F 
ATOM     67  C   UNL A   1      50.654  26.105  26.475  1.00  0.00     0.040 A 
ATOM     68  C   UNL A   1      50.906  25.683  28.832  1.00  0.00     0.040 A 
ATOM     69  F   UNL A   1      49.126  26.110  30.298  1.00  0.00    -0.206 F 
ATOM     70  C   UNL A   1      51.435  25.667  27.542  1.00  0.00     0.006 A 
ENDBRANCH  49  63
BRANCH  50  71
ATOM     71  C   UNL A   1      39.172  28.921  29.405  1.00  0.00     0.057 A 
ATOM     72  C   UNL A   1      38.400  29.446  28.362  1.00  0.00     0.134 A 
ATOM     73  C   UNL A   1      38.552  28.774  30.652  1.00  0.00     0.134 A 
ATOM     74  F   UNL A   1      38.938  29.624  27.145  1.00  0.00    -0.206 F 
ATOM     75  C   UNL A   1      37.071  29.826  28.554  1.00  0.00     0.040 A 
ATOM     76  C   UNL A   1      37.217  29.125  30.853  1.00  0.00     0.040 A 
ATOM     77  F   UNL A   1      39.235  28.264  31.688  1.00  0.00    -0.206 F 
ATOM     78  C   UNL A   1      36.475  29.662  29.803  1.00  0.00     0.006 A 
ENDBRANCH  50  71
BRANCH  62  79
ATOM     79  C   UNL A   1      45.127  32.536  29.674  1.00  0.00     0.057 A 
ATOM     80  C   UNL A   1      45.156  33.482  28.642  1.00  0.00     0.134 A 
ATOM     81  C   UNL A   1      45.435  32.979  30.967  1.00  0.00     0.134 A 
ATOM     82  F   UNL A   1      44.885  33.121  27.378  1.00  0.00    -0.206 F 
ATOM     83  C   UNL A   1      45.485  34.815  28.883  1.00  0.00     0.040 A 
ATOM     84  C   UNL A   1      45.735  34.317  31.226  1.00  0.00     0.040 A 
ATOM     85  F   UNL A   1      45.417  32.125  32.002  1.00  0.00    -0.206 F 
ATOM     86  C   UNL A   1      45.769  35.238  30.180  1.00  0.00     0.006 A 
ENDBRANCH  62  79
ENDBRANCH  36  37
ENDBRANCH  28  31
ENDBRANCH  26  27
ENDBRANCH   1  26
TORSDOF 14
ENDMDL
MODEL 2
REMARK VINA RESULT:     -11.7      1.191      2.022
REMARK SMILES [NH3+][C@@](Cc1ccc(F)cc1)(C(=O)NCCCNC(=O)c1ccc(-c2c3nc(c(-c4c(F)cccc4F)c4ccc([nH]4)c(-c4c(F)cccc4F)c4nc(c(-c5c(F)cccc5F)c5ccc2[nH]5)C=C4)C=C3)cc1)c1ccccc1
REMARK SMILES IDX 15 1 14 2 13 3 11 4 12 5 2 7 1 8 3 12 4 13 5 14 10 15 6 16
REMARK SMILES IDX 9 17 7 18 8 19 74 20 75 21 79 22 76 23 78 24 77 25 16 26
REMARK SMILES IDX 17 27 18 28 19 30 20 31 21 32 73 33 22 34 72 35 23 36 24 37
REMARK SMILES IDX 25 38 66 39 26 40 71 41 65 42 67 43 27 44 70 45 64 46 63 47
REMARK SMILES IDX 28 49 54 50 37 51 53 52 38 53 41 54 52 55 68 56 39 57 40 58
REMARK SMILES IDX 51 60 69 61 42 62 29 63 30 64 35 65 31 66 32 67 34 68 36 69
REMARK SMILES IDX 33 70 55 71 56 72 61 73 57 74 58 75 60 76 62 77 59 78 43 79
REMARK SMILES IDX 44 80 49 81 45 82 46 83 48 84 50 85 47 86
REMARK H PARENT 13 6 1 9 1 10 1 11 17 29 67 48 41 59
REMARK Flexibility Score: inf
ROOT
ATOM      1  C   UNL A   1      37.624  20.202  24.700  1.00  0.00     0.042 C 
ENDROOT
BRANCH   1   2
ATOM      2  C   UNL A   1      36.176  20.348  25.099  1.00  0.00     0.118 C 
BRANCH   2   3
ATOM      3  N   UNL A   1      35.904  21.296  26.135  1.00  0.00    -0.350 N 
ATOM      4  C   UNL A   1      34.724  21.951  26.370  1.00  0.00     0.286 C 
ATOM      5  O   UNL A   1      34.546  22.275  27.552  1.00  0.00    -0.267 OA
ATOM      6  H   UNL A   1      36.648  21.500  26.748  1.00  0.00     0.163 HD
BRANCH   4   7
ATOM      7  C   UNL A   1      33.665  22.303  25.210  1.00  0.00     0.203 C 
BRANCH   7   8
ATOM      8  N   UNL A   1      34.375  22.406  23.903  1.00  0.00    -0.341 N 
ATOM      9  H   UNL A   1      33.864  23.038  23.287  1.00  0.00     0.345 HD
ATOM     10  H   UNL A   1      34.430  21.483  23.472  1.00  0.00     0.345 HD
ATOM     11  H   UNL A   1      35.318  22.766  24.054  1.00  0.00     0.345 HD
ENDBRANCH   7   8
BRANCH   7  12
ATOM     12  C   UNL A   1      32.440  21.293  25.143  1.00  0.00     0.120 C 
BRANCH  12  13
ATOM     13  C   UNL A   1      32.546  19.835  24.703  1.00  0.00    -0.041 A 
ATOM     14  C   UNL A   1      32.829  18.847  25.668  1.00  0.00     0.007 A 
ATOM     15  C   UNL A   1      32.398  19.428  23.364  1.00  0.00     0.007 A 
ATOM     16  C   UNL A   1      33.065  17.521  25.292  1.00  0.00     0.039 A 
ATOM     17  C   UNL A   1      32.686  18.111  22.984  1.00  0.00     0.039 A 
ATOM     18  C   UNL A   1      33.026  17.173  23.950  1.00  0.00     0.123 A 
ATOM     19  F   UNL A   1      33.321  15.919  23.582  1.00  0.00    -0.207 F 
ENDBRANCH  12  13
ENDBRANCH   7  12
BRANCH   7  20
ATOM     20  C   UNL A   1      33.151  23.748  25.538  1.00  0.00     0.022 A 
ATOM     21  C   UNL A   1      31.844  24.017  25.988  1.00  0.00     0.011 A 
ATOM     22  C   UNL A   1      34.053  24.835  25.489  1.00  0.00     0.011 A 
ATOM     23  C   UNL A   1      31.456  25.310  26.355  1.00  0.00     0.001 A 
ATOM     24  C   UNL A   1      33.665  26.125  25.860  1.00  0.00     0.001 A 
ATOM     25  C   UNL A   1      32.365  26.362  26.292  1.00  0.00     0.000 A 
ENDBRANCH   7  20
ENDBRANCH   4   7
ENDBRANCH   2   3
ENDBRANCH   1   2
BRANCH   1  26
ATOM     26  C   UNL A   1      38.581  20.344  25.863  1.00  0.00     0.118 C 
BRANCH  26  27
ATOM     27  N   UNL A   1      39.742  19.461  25.772  1.00  0.00    -0.352 N 
ATOM     28  C   UNL A   1      41.066  19.667  26.058  1.00  0.00     0.251 C 
ATOM     29  H   UNL A   1      39.536  18.555  25.447  1.00  0.00     0.163 HD
ATOM     30  O   UNL A   1      41.880  18.781  25.801  1.00  0.00    -0.269 OA
BRANCH  28  31
ATOM     31  C   UNL A   1      41.527  20.944  26.637  1.00  0.00     0.039 A 
ATOM     32  C   UNL A   1      41.957  21.955  25.774  1.00  0.00     0.014 A 
ATOM     33  C   UNL A   1      41.537  21.156  28.015  1.00  0.00     0.014 A 
ATOM     34  C   UNL A   1      42.330  23.192  26.298  1.00  0.00     0.010 A 
ATOM     35  C   UNL A   1      41.760  22.428  28.519  1.00  0.00     0.010 A 
ATOM     36  C   UNL A   1      42.189  23.453  27.671  1.00  0.00    -0.014 A 
BRANCH  36  37
ATOM     37  C   UNL A   1      42.511  24.784  28.235  1.00  0.00     0.031 A 
ATOM     38  C   UNL A   1      43.929  25.128  28.606  1.00  0.00     0.074 A 
ATOM     39  C   UNL A   1      41.517  25.668  28.445  1.00  0.00     0.049 A 
ATOM     40  N   UNL A   1      44.402  26.241  29.103  1.00  0.00    -0.248 NA
ATOM     41  C   UNL A   1      44.946  24.075  28.431  1.00  0.00     0.031 C 
ATOM     42  C   UNL A   1      40.094  25.416  28.198  1.00  0.00     0.029 A 
ATOM     43  N   UNL A   1      41.550  26.961  28.899  1.00  0.00    -0.354 N 
ATOM     44  C   UNL A   1      45.758  26.016  29.306  1.00  0.00     0.074 A 
ATOM     45  C   UNL A   1      46.021  24.641  28.957  1.00  0.00     0.031 C 
ATOM     46  C   UNL A   1      39.401  26.539  28.441  1.00  0.00     0.029 A 
ATOM     47  C   UNL A   1      40.321  27.575  28.898  1.00  0.00     0.049 A 
ATOM     48  H   UNL A   1      42.376  27.407  29.198  1.00  0.00     0.167 HD
ATOM     49  C   UNL A   1      46.709  26.892  29.707  1.00  0.00     0.037 A 
ATOM     50  C   UNL A   1      39.979  28.836  29.212  1.00  0.00     0.037 A 
ATOM     51  C   UNL A   1      46.445  28.272  30.013  1.00  0.00     0.049 A 
ATOM     52  C   UNL A   1      41.056  29.798  29.629  1.00  0.00     0.074 A 
ATOM     53  C   UNL A   1      47.345  29.261  30.370  1.00  0.00     0.029 A 
ATOM     54  N   UNL A   1      45.189  28.859  29.993  1.00  0.00    -0.354 N 
ATOM     55  N   UNL A   1      42.345  29.591  29.749  1.00  0.00    -0.248 NA
ATOM     56  C   UNL A   1      40.632  31.169  29.942  1.00  0.00     0.031 C 
ATOM     57  C   UNL A   1      46.627  30.434  30.610  1.00  0.00     0.029 A 
ATOM     58  C   UNL A   1      45.287  30.194  30.350  1.00  0.00     0.049 A 
ATOM     59  H   UNL A   1      44.352  28.396  29.759  1.00  0.00     0.167 HD
ATOM     60  C   UNL A   1      42.890  30.808  30.137  1.00  0.00     0.074 A 
ATOM     61  C   UNL A   1      41.794  31.753  30.203  1.00  0.00     0.031 C 
ATOM     62  C   UNL A   1      44.181  31.115  30.417  1.00  0.00     0.037 A 
BRANCH  49  63
ATOM     63  C   UNL A   1      48.121  26.394  29.808  1.00  0.00     0.057 A 
ATOM     64  C   UNL A   1      48.967  26.404  28.691  1.00  0.00     0.134 A 
ATOM     65  C   UNL A   1      48.629  25.852  30.996  1.00  0.00     0.134 A 
ATOM     66  F   UNL A   1      48.546  26.907  27.521  1.00  0.00    -0.206 F 
ATOM     67  C   UNL A   1      50.260  25.880  28.751  1.00  0.00     0.040 A 
ATOM     68  C   UNL A   1      49.930  25.352  31.076  1.00  0.00     0.040 A 
ATOM     69  F   UNL A   1      47.879  25.829  32.109  1.00  0.00    -0.206 F 
ATOM     70  C   UNL A   1      50.745  25.354  29.946  1.00  0.00     0.006 A 
ENDBRANCH  49  63
BRANCH  50  71
ATOM     71  C   UNL A   1      38.564  29.269  29.084  1.00  0.00     0.057 A 
ATOM     72  C   UNL A   1      37.689  29.250  30.176  1.00  0.00     0.134 A 
ATOM     73  C   UNL A   1      38.045  29.681  27.851  1.00  0.00     0.134 A 
ATOM     74  F   UNL A   1      38.120  28.854  31.384  1.00  0.00    -0.206 F 
ATOM     75  C   UNL A   1      36.346  29.609  30.045  1.00  0.00     0.040 A 
ATOM     76  C   UNL A   1      36.712  30.068  27.709  1.00  0.00     0.040 A 
ATOM     77  F   UNL A   1      38.838  29.733  26.770  1.00  0.00    -0.206 F 
ATOM     78  C   UNL A   1      35.856  30.023  28.808  1.00  0.00     0.006 A 
ENDBRANCH  50  71
BRANCH  62  79
ATOM     79  C   UNL A   1      44.479  32.531  30.812  1.00  0.00     0.057 A 
ATOM     80  C   UNL A   1      44.436  32.923  32.156  1.00  0.00     0.134 A 
ATOM     81  C   UNL A   1      44.757  33.519  29.858  1.00  0.00     0.134 A 
ATOM     82  F   UNL A   1      44.160  32.029  33.118  1.00  0.00    -0.206 F 
ATOM     83  C   UNL A   1      44.654  34.246  32.537  1.00  0.00     0.040 A 
ATOM     84  C   UNL A   1      45.009  34.840  30.230  1.00  0.00     0.040 A 
ATOM     85  F   UNL A   1      44.820  33.207  28.554  1.00  0.00    -0.206 F 
ATOM     86  C   UNL A   1      44.949  35.208  31.572  1.00  0.00     0.006 A 
ENDBRANCH  62  79
ENDBRANCH  36  37
ENDBRANCH  28  31
ENDBRANCH  26  27
ENDBRANCH   1  26
TORSDOF 14
ENDMDL
MODEL 3
REMARK VINA RESULT:     -11.7      5.512     10.114
REMARK SMILES [NH3+][C@@](Cc1ccc(F)cc1)(C(=O)NCCCNC(=O)c1ccc(-c2c3nc(c(-c4c(F)cccc4F)c4ccc([nH]4)c(-c4c(F)cccc4F)c4nc(c(-c5c(F)cccc5F)c5ccc2[nH]5)C=C4)C=C3)cc1)c1ccccc1
REMARK SMILES IDX 15 1 14 2 13 3 11 4 12 5 2 7 1 8 3 12 4 13 5 14 10 15 6 16
REMARK SMILES IDX 9 17 7 18 8 19 74 20 75 21 79 22 76 23 78 24 77 25 16 26
REMARK SMILES IDX 17 27 18 28 19 30 20 31 21 32 73 33 22 34 72 35 23 36 24 37
REMARK SMILES IDX 25 38 66 39 26 40 71 41 65 42 67 43 27 44 70 45 64 46 63 47
REMARK SMILES IDX 28 49 54 50 37 51 53 52 38 53 41 54 52 55 68 56 39 57 40 58
REMARK SMILES IDX 51 60 69 61 42 62 29 63 30 64 35 65 31 66 32 67 34 68 36 69
REMARK SMILES IDX 33 70 55 71 56 72 61 73 57 74 58 75 60 76 62 77 59 78 43 79
REMARK SMILES IDX 44 80 49 81 45 82 46 83 48 84 50 85 47 86
REMARK H PARENT 13 6 1 9 1 10 1 11 17 29 67 48 41 59
REMARK Flexibility Score: inf
ROOT
ATOM      1  C   UNL A   1      31.194  32.237  26.529  1.00  0.00     0.042 C 
ENDROOT
BRANCH   1   2
ATOM      2  C   UNL A   1      31.432  30.882  25.907  1.00  0.00     0.118 C 
BRANCH   2   3
ATOM      3  N   UNL A   1      32.045  29.905  26.753  1.00  0.00    -0.350 N 
ATOM      4  C   UNL A   1      32.927  28.924  26.380  1.00  0.00     0.286 C 
ATOM      5  O   UNL A   1      33.706  28.571  27.275  1.00  0.00    -0.267 OA
ATOM      6  H   UNL A   1      31.808  29.941  27.707  1.00  0.00     0.163 HD
BRANCH   4   7
ATOM      7  C   UNL A   1      32.937  28.259  24.915  1.00  0.00     0.203 C 
BRANCH   7   8
ATOM      8  N   UNL A   1      33.060  29.328  23.883  1.00  0.00    -0.341 N 
ATOM      9  H   UNL A   1      32.715  30.209  24.264  1.00  0.00     0.345 HD
ATOM     10  H   UNL A   1      32.510  29.075  23.063  1.00  0.00     0.345 HD
ATOM     11  H   UNL A   1      34.039  29.433  23.616  1.00  0.00     0.345 HD
ENDBRANCH   7   8
BRANCH   7  12
ATOM     12  C   UNL A   1      34.045  27.132  24.738  1.00  0.00     0.120 C 
BRANCH  12  13
ATOM     13  C   UNL A   1      33.868  25.873  23.892  1.00  0.00    -0.041 A 
ATOM     14  C   UNL A   1      33.480  26.002  22.543  1.00  0.00     0.007 A 
ATOM     15  C   UNL A   1      34.052  24.576  24.406  1.00  0.00     0.007 A 
ATOM     16  C   UNL A   1      33.179  24.876  21.771  1.00  0.00     0.039 A 
ATOM     17  C   UNL A   1      33.700  23.453  23.647  1.00  0.00     0.039 A 
ATOM     18  C   UNL A   1      33.258  23.614  22.340  1.00  0.00     0.123 A 
ATOM     19  F   UNL A   1      32.903  22.540  21.623  1.00  0.00    -0.207 F 
ENDBRANCH  12  13
ENDBRANCH   7  12
BRANCH   7  20
ATOM     20  C   UNL A   1      31.508  27.638  24.728  1.00  0.00     0.022 A 
ATOM     21  C   UNL A   1      30.649  27.990  23.669  1.00  0.00     0.011 A 
ATOM     22  C   UNL A   1      31.083  26.601  25.587  1.00  0.00     0.011 A 
ATOM     23  C   UNL A   1      29.420  27.346  23.490  1.00  0.00     0.001 A 
ATOM     24  C   UNL A   1      29.858  25.955  25.403  1.00  0.00     0.001 A 
ATOM     25  C   UNL A   1      29.026  26.329  24.354  1.00  0.00     0.000 A 
ENDBRANCH   7  20
ENDBRANCH   4   7
ENDBRANCH   2   3
ENDBRANCH   1   2
BRANCH   1  26
ATOM     26  C   UNL A   1      32.431  32.827  27.169  1.00  0.00     0.118 C 
BRANCH  26  27
ATOM     27  N   UNL A   1      32.250  34.203  27.626  1.00  0.00    -0.352 N 
ATOM     28  C   UNL A   1      32.943  34.957  28.536  1.00  0.00     0.251 C 
ATOM     29  H   UNL A   1      31.495  34.672  27.204  1.00  0.00     0.163 HD
ATOM     30  O   UNL A   1      32.528  36.078  28.824  1.00  0.00    -0.269 OA
BRANCH  28  31
ATOM     31  C   UNL A   1      34.154  34.429  29.193  1.00  0.00     0.039 A 
ATOM     32  C   UNL A   1      34.013  33.702  30.377  1.00  0.00     0.014 A 
ATOM     33  C   UNL A   1      35.424  34.640  28.655  1.00  0.00     0.014 A 
ATOM     34  C   UNL A   1      35.138  33.137  30.975  1.00  0.00     0.010 A 
ATOM     35  C   UNL A   1      36.515  33.953  29.164  1.00  0.00     0.010 A 
ATOM     36  C   UNL A   1      36.392  33.217  30.346  1.00  0.00    -0.014 A 
BRANCH  36  37
ATOM     37  C   UNL A   1      37.585  32.562  30.929  1.00  0.00     0.031 A 
ATOM     38  C   UNL A   1      38.164  33.056  32.227  1.00  0.00     0.074 A 
ATOM     39  C   UNL A   1      38.165  31.543  30.265  1.00  0.00     0.049 A 
ATOM     40  N   UNL A   1      39.196  32.604  32.892  1.00  0.00    -0.248 NA
ATOM     41  C   UNL A   1      37.527  34.233  32.845  1.00  0.00     0.031 C 
ATOM     42  C   UNL A   1      37.739  31.031  28.960  1.00  0.00     0.029 A 
ATOM     43  N   UNL A   1      39.228  30.746  30.603  1.00  0.00    -0.354 N 
ATOM     44  C   UNL A   1      39.332  33.443  33.991  1.00  0.00     0.074 A 
ATOM     45  C   UNL A   1      38.334  34.478  33.866  1.00  0.00     0.031 C 
ATOM     46  C   UNL A   1      38.490  29.966  28.640  1.00  0.00     0.029 A 
ATOM     47  C   UNL A   1      39.474  29.745  29.693  1.00  0.00     0.049 A 
ATOM     48  H   UNL A   1      39.764  30.878  31.418  1.00  0.00     0.167 HD
ATOM     49  C   UNL A   1      40.187  33.335  35.035  1.00  0.00     0.037 A 
ATOM     50  C   UNL A   1      40.379  28.751  29.718  1.00  0.00     0.037 A 
ATOM     51  C   UNL A   1      41.152  32.278  35.172  1.00  0.00     0.049 A 
ATOM     52  C   UNL A   1      41.299  28.637  30.900  1.00  0.00     0.074 A 
ATOM     53  C   UNL A   1      42.024  32.040  36.218  1.00  0.00     0.029 A 
ATOM     54  N   UNL A   1      41.366  31.279  34.234  1.00  0.00    -0.354 N 
ATOM     55  N   UNL A   1      41.370  29.396  31.967  1.00  0.00    -0.248 NA
ATOM     56  C   UNL A   1      42.255  27.522  30.888  1.00  0.00     0.031 C 
ATOM     57  C   UNL A   1      42.798  30.924  35.893  1.00  0.00     0.029 A 
ATOM     58  C   UNL A   1      42.371  30.432  34.670  1.00  0.00     0.049 A 
ATOM     59  H   UNL A   1      40.875  31.186  33.386  1.00  0.00     0.167 HD
ATOM     60  C   UNL A   1      42.367  28.844  32.761  1.00  0.00     0.074 A 
ATOM     61  C   UNL A   1      42.851  27.670  32.064  1.00  0.00     0.031 C 
ATOM     62  C   UNL A   1      42.842  29.272  33.957  1.00  0.00     0.037 A 
BRANCH  49  63
ATOM     63  C   UNL A   1      40.097  34.367  36.122  1.00  0.00     0.057 A 
ATOM     64  C   UNL A   1      40.890  35.520  36.084  1.00  0.00     0.134 A 
ATOM     65  C   UNL A   1      39.266  34.193  37.237  1.00  0.00     0.134 A 
ATOM     66  F   UNL A   1      41.709  35.751  35.047  1.00  0.00    -0.206 F 
ATOM     67  C   UNL A   1      40.869  36.455  37.121  1.00  0.00     0.040 A 
ATOM     68  C   UNL A   1      39.214  35.134  38.266  1.00  0.00     0.040 A 
ATOM     69  F   UNL A   1      38.465  33.119  37.328  1.00  0.00    -0.206 F 
ATOM     70  C   UNL A   1      40.028  36.264  38.215  1.00  0.00     0.006 A 
ENDBRANCH  49  63
BRANCH  50  71
ATOM     71  C   UNL A   1      40.411  27.758  28.615  1.00  0.00     0.057 A 
ATOM     72  C   UNL A   1      41.173  27.969  27.460  1.00  0.00     0.134 A 
ATOM     73  C   UNL A   1      39.650  26.586  28.679  1.00  0.00     0.134 A 
ATOM     74  F   UNL A   1      41.915  29.079  27.330  1.00  0.00    -0.206 F 
ATOM     75  C   UNL A   1      41.164  27.058  26.401  1.00  0.00     0.040 A 
ATOM     76  C   UNL A   1      39.651  25.654  27.640  1.00  0.00     0.040 A 
ATOM     77  F   UNL A   1      38.910  26.320  29.766  1.00  0.00    -0.206 F 
ATOM     78  C   UNL A   1      40.403  25.894  26.492  1.00  0.00     0.006 A 
ENDBRANCH  50  71
BRANCH  62  79
ATOM     79  C   UNL A   1      43.934  28.463  34.590  1.00  0.00     0.057 A 
ATOM     80  C   UNL A   1      43.631  27.398  35.448  1.00  0.00     0.134 A 
ATOM     81  C   UNL A   1      45.287  28.768  34.391  1.00  0.00     0.134 A 
ATOM     82  F   UNL A   1      42.354  27.063  35.693  1.00  0.00    -0.206 F 
ATOM     83  C   UNL A   1      44.631  26.670  36.090  1.00  0.00     0.040 A 
ATOM     84  C   UNL A   1      46.299  28.026  35.002  1.00  0.00     0.040 A 
ATOM     85  F   UNL A   1      45.646  29.770  33.574  1.00  0.00    -0.206 F 
ATOM     86  C   UNL A   1      45.971  26.979  35.861  1.00  0.00     0.006 A 
ENDBRANCH  62  79
ENDBRANCH  36  37
ENDBRANCH  28  31
ENDBRANCH  26  27
ENDBRANCH   1  26
TORSDOF 14
ENDMDL
