MODEL 1
REMARK VINA RESULT:     -13.5      0.000      0.000
REMARK SMILES O=C(NCCCNC(=O)c1ccc(-n2cc(CSc3nc4ccccc4c(=O)n3-c3ccc(Cl)cc3)nn2)cc1)c1ccc(-c2c3nc(c(-c4c(F)cccc4F)c4ccc([nH]4)c(-c4c(F)cccc4F)c4nc(c(-c5c(F)cccc5F)c5ccc2[nH]5)C=C4)C=C3)cc1
REMARK SMILES IDX 7 1 8 2 9 3 6 5 5 6 4 7 3 8 1 9 2 10 41 12 42 13 94 14 43 15
REMARK SMILES IDX 93 16 44 17 45 18 46 19 87 20 47 21 92 22 86 23 88 24 48 25
REMARK SMILES IDX 91 26 85 27 84 28 49 30 75 31 58 32 74 33 59 34 62 35 73 36
REMARK SMILES IDX 89 37 60 38 61 39 72 41 90 42 63 43 50 44 51 45 56 46 52 47
REMARK SMILES IDX 53 48 55 49 57 50 54 51 76 52 77 53 82 54 78 55 79 56 81 57
REMARK SMILES IDX 83 58 80 59 64 60 65 61 70 62 66 63 67 64 69 65 71 66 68 67
REMARK SMILES IDX 10 68 11 69 40 70 12 71 39 72 13 73 14 74 15 75 38 76 16 77
REMARK SMILES IDX 37 78 17 79 18 80 19 81 20 82 29 83 21 84 27 85 22 86 26 87
REMARK SMILES IDX 28 88 23 89 25 90 24 91 30 92 31 93 36 94 32 95 35 96 33 97
REMARK SMILES IDX 34 98
REMARK H PARENT 7 4 3 11 88 29 62 40
REMARK Flexibility Score: inf
ROOT
ATOM      1  N   UNL A   1      33.191  31.697  27.393  1.00  0.00    -0.352 N 
ATOM      2  C   UNL A   1      31.991  31.321  26.832  1.00  0.00     0.251 C 
ATOM      3  O   UNL A   1      31.087  32.123  26.714  1.00  0.00    -0.269 OA
ATOM      4  H   UNL A   1      33.213  32.618  27.739  1.00  0.00     0.163 HD
ENDROOT
BRANCH   1   5
ATOM      5  C   UNL A   1      34.430  30.955  27.555  1.00  0.00     0.118 C 
BRANCH   5   6
ATOM      6  C   UNL A   1      35.633  31.842  27.871  1.00  0.00     0.042 C 
BRANCH   6   7
ATOM      7  C   UNL A   1      35.336  33.033  28.781  1.00  0.00     0.118 C 
BRANCH   7   8
ATOM      8  N   UNL A   1      34.997  32.675  30.146  1.00  0.00    -0.352 N 
ATOM      9  O   UNL A   1      34.983  31.979  32.232  1.00  0.00    -0.269 OA
ATOM     10  C   UNL A   1      35.594  31.980  31.159  1.00  0.00     0.251 C 
ATOM     11  H   UNL A   1      34.112  33.018  30.407  1.00  0.00     0.163 HD
BRANCH  10  12
ATOM     12  C   UNL A   1      36.873  31.217  31.074  1.00  0.00     0.039 A 
ATOM     13  C   UNL A   1      38.158  31.759  31.037  1.00  0.00     0.014 A 
ATOM     14  C   UNL A   1      36.746  29.813  31.007  1.00  0.00     0.014 A 
ATOM     15  C   UNL A   1      39.276  30.927  30.896  1.00  0.00     0.010 A 
ATOM     16  C   UNL A   1      37.858  28.981  30.879  1.00  0.00     0.010 A 
ATOM     17  C   UNL A   1      39.130  29.538  30.799  1.00  0.00    -0.014 A 
BRANCH  17  18
ATOM     18  C   UNL A   1      40.337  28.709  30.695  1.00  0.00     0.031 A 
ATOM     19  C   UNL A   1      41.164  28.552  31.931  1.00  0.00     0.074 A 
ATOM     20  C   UNL A   1      40.657  27.952  29.625  1.00  0.00     0.049 A 
ATOM     21  N   UNL A   1      42.417  28.833  32.109  1.00  0.00    -0.248 NA
ATOM     22  C   UNL A   1      40.499  28.010  33.125  1.00  0.00     0.031 C 
ATOM     23  C   UNL A   1      39.842  27.654  28.445  1.00  0.00     0.029 A 
ATOM     24  N   UNL A   1      41.782  27.200  29.426  1.00  0.00    -0.354 N 
ATOM     25  C   UNL A   1      42.745  28.378  33.388  1.00  0.00     0.074 A 
ATOM     26  C   UNL A   1      41.510  27.945  33.994  1.00  0.00     0.031 C 
ATOM     27  C   UNL A   1      40.412  26.638  27.758  1.00  0.00     0.029 A 
ATOM     28  C   UNL A   1      41.692  26.312  28.366  1.00  0.00     0.049 A 
ATOM     29  H   UNL A   1      42.586  27.281  29.987  1.00  0.00     0.167 HD
ATOM     30  C   UNL A   1      44.031  28.254  33.821  1.00  0.00     0.037 A 
ATOM     31  C   UNL A   1      42.580  25.345  28.035  1.00  0.00     0.037 A 
ATOM     32  C   UNL A   1      44.954  28.991  33.005  1.00  0.00     0.049 A 
ATOM     33  C   UNL A   1      43.878  25.663  28.672  1.00  0.00     0.074 A 
ATOM     34  C   UNL A   1      45.126  30.321  32.674  1.00  0.00     0.029 A 
ATOM     35  N   UNL A   1      45.773  28.294  32.155  1.00  0.00    -0.354 N 
ATOM     36  N   UNL A   1      44.661  26.642  28.318  1.00  0.00    -0.248 NA
ATOM     37  C   UNL A   1      44.178  25.059  29.962  1.00  0.00     0.031 C 
ATOM     38  C   UNL A   1      45.645  30.309  31.347  1.00  0.00     0.029 A 
ATOM     39  C   UNL A   1      45.760  28.972  30.964  1.00  0.00     0.049 A 
ATOM     40  H   UNL A   1      46.271  27.471  32.359  1.00  0.00     0.167 HD
ATOM     41  C   UNL A   1      45.281  27.040  29.492  1.00  0.00     0.074 A 
ATOM     42  C   UNL A   1      45.047  25.954  30.434  1.00  0.00     0.031 C 
ATOM     43  C   UNL A   1      45.688  28.330  29.674  1.00  0.00     0.037 A 
BRANCH  30  44
ATOM     44  C   UNL A   1      44.515  27.251  34.838  1.00  0.00     0.057 A 
ATOM     45  C   UNL A   1      44.309  25.874  34.620  1.00  0.00     0.134 A 
ATOM     46  C   UNL A   1      44.914  27.598  36.142  1.00  0.00     0.134 A 
ATOM     47  F   UNL A   1      43.901  25.419  33.425  1.00  0.00    -0.206 F 
ATOM     48  C   UNL A   1      44.434  24.922  35.639  1.00  0.00     0.040 A 
ATOM     49  C   UNL A   1      45.091  26.649  37.156  1.00  0.00     0.040 A 
ATOM     50  F   UNL A   1      45.057  28.874  36.521  1.00  0.00    -0.206 F 
ATOM     51  C   UNL A   1      44.823  25.310  36.915  1.00  0.00     0.006 A 
ENDBRANCH  30  44
BRANCH  31  52
ATOM     52  C   UNL A   1      42.334  24.041  27.384  1.00  0.00     0.057 A 
ATOM     53  C   UNL A   1      42.533  23.860  26.009  1.00  0.00     0.134 A 
ATOM     54  C   UNL A   1      42.151  22.873  28.144  1.00  0.00     0.134 A 
ATOM     55  F   UNL A   1      42.759  24.911  25.209  1.00  0.00    -0.206 F 
ATOM     56  C   UNL A   1      42.566  22.587  25.424  1.00  0.00     0.040 A 
ATOM     57  C   UNL A   1      42.173  21.597  27.572  1.00  0.00     0.040 A 
ATOM     58  F   UNL A   1      42.033  22.927  29.479  1.00  0.00    -0.206 F 
ATOM     59  C   UNL A   1      42.395  21.450  26.208  1.00  0.00     0.006 A 
ENDBRANCH  31  52
BRANCH  43  60
ATOM     60  C   UNL A   1      45.750  29.230  28.476  1.00  0.00     0.057 A 
ATOM     61  C   UNL A   1      44.649  29.951  27.991  1.00  0.00     0.134 A 
ATOM     62  C   UNL A   1      46.996  29.511  27.906  1.00  0.00     0.134 A 
ATOM     63  F   UNL A   1      43.436  29.823  28.546  1.00  0.00    -0.206 F 
ATOM     64  C   UNL A   1      44.779  30.880  26.955  1.00  0.00     0.040 A 
ATOM     65  C   UNL A   1      47.145  30.461  26.894  1.00  0.00     0.040 A 
ATOM     66  F   UNL A   1      48.103  28.903  28.364  1.00  0.00    -0.206 F 
ATOM     67  C   UNL A   1      46.033  31.144  26.410  1.00  0.00     0.006 A 
ENDBRANCH  43  60
ENDBRANCH  17  18
ENDBRANCH  10  12
ENDBRANCH   7   8
ENDBRANCH   6   7
ENDBRANCH   5   6
ENDBRANCH   1   5
BRANCH   2  68
ATOM     68  C   UNL A   1      31.807  29.934  26.348  1.00  0.00     0.039 A 
ATOM     69  C   UNL A   1      31.573  29.726  24.984  1.00  0.00     0.016 A 
ATOM     70  C   UNL A   1      31.806  28.859  27.237  1.00  0.00     0.016 A 
ATOM     71  C   UNL A   1      31.408  28.427  24.492  1.00  0.00     0.029 A 
ATOM     72  C   UNL A   1      31.617  27.564  26.754  1.00  0.00     0.029 A 
ATOM     73  C   UNL A   1      31.421  27.344  25.378  1.00  0.00     0.066 A 
BRANCH  73  74
ATOM     74  N   UNL A   1      31.203  26.031  24.895  1.00  0.00    -0.220 N 
ATOM     75  C   UNL A   1      31.885  24.897  25.252  1.00  0.00     0.141 A 
ATOM     76  N   UNL A   1      30.282  25.715  23.954  1.00  0.00    -0.062 NA
ATOM     77  C   UNL A   1      31.343  23.878  24.504  1.00  0.00     0.093 A 
ATOM     78  N   UNL A   1      30.390  24.416  23.680  1.00  0.00    -0.134 NA
BRANCH  77  79
ATOM     79  C   UNL A   1      31.817  22.482  24.373  1.00  0.00     0.138 C 
BRANCH  79  80
ATOM     80  S   UNL A   1      33.185  22.020  23.305  1.00  0.00    -0.081 SA
BRANCH  80  81
ATOM     81  C   UNL A   1      34.637  21.766  24.236  1.00  0.00     0.176 A 
ATOM     82  N   UNL A   1      35.177  22.892  24.596  1.00  0.00    -0.223 NA
ATOM     83  N   UNL A   1      35.160  20.529  24.608  1.00  0.00    -0.255 N 
ATOM     84  C   UNL A   1      36.372  22.866  25.318  1.00  0.00     0.079 A 
ATOM     85  C   UNL A   1      36.558  20.521  24.742  1.00  0.00     0.266 A 
ATOM     86  C   UNL A   1      36.830  24.004  25.984  1.00  0.00     0.029 A 
ATOM     87  C   UNL A   1      37.163  21.730  25.315  1.00  0.00     0.066 A 
ATOM     88  O   UNL A   1      37.316  19.616  24.399  1.00  0.00    -0.268 OA
ATOM     89  C   UNL A   1      38.090  24.007  26.593  1.00  0.00     0.002 A 
ATOM     90  C   UNL A   1      38.442  21.728  25.882  1.00  0.00     0.016 A 
ATOM     91  C   UNL A   1      38.907  22.878  26.518  1.00  0.00     0.001 A 
BRANCH  83  92
ATOM     92  C   UNL A   1      34.442  19.271  24.782  1.00  0.00     0.051 A 
ATOM     93  C   UNL A   1      33.204  19.244  25.462  1.00  0.00     0.028 A 
ATOM     94  C   UNL A   1      34.878  18.028  24.299  1.00  0.00     0.028 A 
ATOM     95  C   UNL A   1      32.575  18.051  25.844  1.00  0.00     0.022 A 
ATOM     96  C   UNL A   1      34.282  16.822  24.708  1.00  0.00     0.022 A 
ATOM     97  C   UNL A   1      33.156  16.839  25.517  1.00  0.00     0.041 A 
ATOM     98  Cl  UNL A   1      32.494  15.374  26.116  1.00  0.00    -0.084 Cl
ENDBRANCH  83  92
ENDBRANCH  80  81
ENDBRANCH  79  80
ENDBRANCH  77  79
ENDBRANCH  73  74
ENDBRANCH   2  68
TORSDOF 15
ENDMDL
MODEL 2
REMARK VINA RESULT:     -13.5      3.451      9.375
REMARK SMILES O=C(NCCCNC(=O)c1ccc(-n2cc(CSc3nc4ccccc4c(=O)n3-c3ccc(Cl)cc3)nn2)cc1)c1ccc(-c2c3nc(c(-c4c(F)cccc4F)c4ccc([nH]4)c(-c4c(F)cccc4F)c4nc(c(-c5c(F)cccc5F)c5ccc2[nH]5)C=C4)C=C3)cc1
REMARK SMILES IDX 7 1 8 2 9 3 6 5 5 6 4 7 3 8 1 9 2 10 41 12 42 13 94 14 43 15
REMARK SMILES IDX 93 16 44 17 45 18 46 19 87 20 47 21 92 22 86 23 88 24 48 25
REMARK SMILES IDX 91 26 85 27 84 28 49 30 75 31 58 32 74 33 59 34 62 35 73 36
REMARK SMILES IDX 89 37 60 38 61 39 72 41 90 42 63 43 50 44 51 45 56 46 52 47
REMARK SMILES IDX 53 48 55 49 57 50 54 51 76 52 77 53 82 54 78 55 79 56 81 57
REMARK SMILES IDX 83 58 80 59 64 60 65 61 70 62 66 63 67 64 69 65 71 66 68 67
REMARK SMILES IDX 10 68 11 69 40 70 12 71 39 72 13 73 14 74 15 75 38 76 16 77
REMARK SMILES IDX 37 78 17 79 18 80 19 81 20 82 29 83 21 84 27 85 22 86 26 87
REMARK SMILES IDX 28 88 23 89 25 90 24 91 30 92 31 93 36 94 32 95 35 96 33 97
REMARK SMILES IDX 34 98
REMARK H PARENT 7 4 3 11 88 29 62 40
REMARK Flexibility Score: inf
ROOT
ATOM      1  N   UNL A   1      38.855  21.247  25.689  1.00  0.00    -0.352 N 
ATOM      2  C   UNL A   1      37.849  20.601  25.006  1.00  0.00     0.251 C 
ATOM      3  O   UNL A   1      37.972  19.436  24.683  1.00  0.00    -0.269 OA
ATOM      4  H   UNL A   1      39.673  20.716  25.816  1.00  0.00     0.163 HD
ENDROOT
BRANCH   1   5
ATOM      5  C   UNL A   1      38.902  22.586  26.252  1.00  0.00     0.118 C 
BRANCH   5   6
ATOM      6  C   UNL A   1      40.058  22.793  27.230  1.00  0.00     0.042 C 
BRANCH   6   7
ATOM      7  C   UNL A   1      41.320  21.991  26.916  1.00  0.00     0.118 C 
BRANCH   7   8
ATOM      8  N   UNL A   1      42.122  22.533  25.835  1.00  0.00    -0.352 N 
ATOM      9  O   UNL A   1      43.391  23.760  24.524  1.00  0.00    -0.269 OA
ATOM     10  C   UNL A   1      42.690  23.740  25.539  1.00  0.00     0.251 C 
ATOM     11  H   UNL A   1      42.301  21.862  25.138  1.00  0.00     0.163 HD
BRANCH  10  12
ATOM     12  C   UNL A   1      42.516  25.009  26.303  1.00  0.00     0.039 A 
ATOM     13  C   UNL A   1      43.034  25.291  27.568  1.00  0.00     0.014 A 
ATOM     14  C   UNL A   1      41.734  26.001  25.674  1.00  0.00     0.014 A 
ATOM     15  C   UNL A   1      42.744  26.507  28.200  1.00  0.00     0.010 A 
ATOM     16  C   UNL A   1      41.454  27.218  26.294  1.00  0.00     0.010 A 
ATOM     17  C   UNL A   1      41.939  27.467  27.574  1.00  0.00    -0.014 A 
BRANCH  17  18
ATOM     18  C   UNL A   1      41.702  28.742  28.262  1.00  0.00     0.031 A 
ATOM     19  C   UNL A   1      42.765  29.787  28.146  1.00  0.00     0.074 A 
ATOM     20  C   UNL A   1      40.535  29.094  28.840  1.00  0.00     0.049 A 
ATOM     21  N   UNL A   1      43.417  30.388  29.092  1.00  0.00    -0.248 NA
ATOM     22  C   UNL A   1      43.149  30.215  26.793  1.00  0.00     0.031 C 
ATOM     23  C   UNL A   1      39.244  28.406  28.778  1.00  0.00     0.029 A 
ATOM     24  N   UNL A   1      40.248  30.232  29.545  1.00  0.00    -0.354 N 
ATOM     25  C   UNL A   1      44.194  31.369  28.473  1.00  0.00     0.074 A 
ATOM     26  C   UNL A   1      44.043  31.170  27.053  1.00  0.00     0.031 C 
ATOM     27  C   UNL A   1      38.278  29.230  29.243  1.00  0.00     0.029 A 
ATOM     28  C   UNL A   1      38.896  30.440  29.763  1.00  0.00     0.049 A 
ATOM     29  H   UNL A   1      40.943  30.848  29.870  1.00  0.00     0.167 HD
ATOM     30  C   UNL A   1      44.803  32.374  29.163  1.00  0.00     0.037 A 
ATOM     31  C   UNL A   1      38.316  31.544  30.289  1.00  0.00     0.037 A 
ATOM     32  C   UNL A   1      44.893  32.093  30.568  1.00  0.00     0.049 A 
ATOM     33  C   UNL A   1      39.347  32.310  31.026  1.00  0.00     0.074 A 
ATOM     34  C   UNL A   1      45.491  31.115  31.338  1.00  0.00     0.029 A 
ATOM     35  N   UNL A   1      44.065  32.776  31.423  1.00  0.00    -0.354 N 
ATOM     36  N   UNL A   1      39.888  31.938  32.150  1.00  0.00    -0.248 NA
ATOM     37  C   UNL A   1      40.034  33.386  30.328  1.00  0.00     0.031 C 
ATOM     38  C   UNL A   1      44.633  30.954  32.466  1.00  0.00     0.029 A 
ATOM     39  C   UNL A   1      43.577  31.851  32.307  1.00  0.00     0.049 A 
ATOM     40  H   UNL A   1      43.864  33.738  31.405  1.00  0.00     0.167 HD
ATOM     41  C   UNL A   1      41.180  32.436  32.103  1.00  0.00     0.074 A 
ATOM     42  C   UNL A   1      41.169  33.421  31.029  1.00  0.00     0.031 C 
ATOM     43  C   UNL A   1      42.205  31.810  32.752  1.00  0.00     0.037 A 
BRANCH  30  44
ATOM     44  C   UNL A   1      45.099  33.750  28.620  1.00  0.00     0.057 A 
ATOM     45  C   UNL A   1      44.040  34.590  28.223  1.00  0.00     0.134 A 
ATOM     46  C   UNL A   1      46.380  34.164  28.210  1.00  0.00     0.134 A 
ATOM     47  F   UNL A   1      42.769  34.290  28.531  1.00  0.00    -0.206 F 
ATOM     48  C   UNL A   1      44.237  35.726  27.428  1.00  0.00     0.040 A 
ATOM     49  C   UNL A   1      46.593  35.325  27.456  1.00  0.00     0.040 A 
ATOM     50  F   UNL A   1      47.469  33.418  28.433  1.00  0.00    -0.206 F 
ATOM     51  C   UNL A   1      45.518  36.094  27.038  1.00  0.00     0.006 A 
ENDBRANCH  30  44
BRANCH  31  52
ATOM     52  C   UNL A   1      36.977  32.108  30.017  1.00  0.00     0.057 A 
ATOM     53  C   UNL A   1      35.893  31.865  30.872  1.00  0.00     0.134 A 
ATOM     54  C   UNL A   1      36.794  33.117  29.056  1.00  0.00     0.134 A 
ATOM     55  F   UNL A   1      35.987  30.951  31.849  1.00  0.00    -0.206 F 
ATOM     56  C   UNL A   1      34.700  32.594  30.787  1.00  0.00     0.040 A 
ATOM     57  C   UNL A   1      35.605  33.847  28.955  1.00  0.00     0.040 A 
ATOM     58  F   UNL A   1      37.794  33.487  28.243  1.00  0.00    -0.206 F 
ATOM     59  C   UNL A   1      34.557  33.596  29.831  1.00  0.00     0.006 A 
ENDBRANCH  31  52
BRANCH  43  60
ATOM     60  C   UNL A   1      41.864  30.766  33.773  1.00  0.00     0.057 A 
ATOM     61  C   UNL A   1      41.617  29.422  33.455  1.00  0.00     0.134 A 
ATOM     62  C   UNL A   1      41.961  31.092  35.130  1.00  0.00     0.134 A 
ATOM     63  F   UNL A   1      41.610  29.000  32.184  1.00  0.00    -0.206 F 
ATOM     64  C   UNL A   1      41.436  28.455  34.448  1.00  0.00     0.040 A 
ATOM     65  C   UNL A   1      41.815  30.129  36.130  1.00  0.00     0.040 A 
ATOM     66  F   UNL A   1      42.256  32.348  35.505  1.00  0.00    -0.206 F 
ATOM     67  C   UNL A   1      41.543  28.807  35.791  1.00  0.00     0.006 A 
ENDBRANCH  43  60
ENDBRANCH  17  18
ENDBRANCH  10  12
ENDBRANCH   7   8
ENDBRANCH   6   7
ENDBRANCH   5   6
ENDBRANCH   1   5
BRANCH   2  68
ATOM     68  C   UNL A   1      36.597  21.321  24.682  1.00  0.00     0.039 A 
ATOM     69  C   UNL A   1      35.394  20.851  25.219  1.00  0.00     0.016 A 
ATOM     70  C   UNL A   1      36.603  22.410  23.809  1.00  0.00     0.016 A 
ATOM     71  C   UNL A   1      34.195  21.518  24.943  1.00  0.00     0.029 A 
ATOM     72  C   UNL A   1      35.406  23.062  23.511  1.00  0.00     0.029 A 
ATOM     73  C   UNL A   1      34.198  22.620  24.081  1.00  0.00     0.066 A 
BRANCH  73  74
ATOM     74  N   UNL A   1      32.983  23.267  23.754  1.00  0.00    -0.220 N 
ATOM     75  C   UNL A   1      32.783  24.613  23.592  1.00  0.00     0.141 A 
ATOM     76  N   UNL A   1      31.803  22.622  23.590  1.00  0.00    -0.062 NA
ATOM     77  C   UNL A   1      31.445  24.767  23.314  1.00  0.00     0.093 A 
ATOM     78  N   UNL A   1      30.856  23.531  23.364  1.00  0.00    -0.134 NA
BRANCH  77  79
ATOM     79  C   UNL A   1      30.665  26.020  23.217  1.00  0.00     0.138 C 
BRANCH  79  80
ATOM     80  S   UNL A   1      30.015  26.871  24.659  1.00  0.00    -0.081 SA
BRANCH  80  81
ATOM     81  C   UNL A   1      31.053  28.195  25.117  1.00  0.00     0.176 A 
ATOM     82  N   UNL A   1      32.132  27.775  25.708  1.00  0.00    -0.223 NA
ATOM     83  N   UNL A   1      30.816  29.543  24.856  1.00  0.00    -0.255 N 
ATOM     84  C   UNL A   1      33.055  28.713  26.173  1.00  0.00     0.079 A 
ATOM     85  C   UNL A   1      31.366  30.411  25.815  1.00  0.00     0.266 A 
ATOM     86  C   UNL A   1      34.347  28.328  26.534  1.00  0.00     0.029 A 
ATOM     87  C   UNL A   1      32.674  30.031  26.362  1.00  0.00     0.066 A 
ATOM     88  O   UNL A   1      30.842  31.434  26.254  1.00  0.00    -0.268 OA
ATOM     89  C   UNL A   1      35.221  29.248  27.122  1.00  0.00     0.002 A 
ATOM     90  C   UNL A   1      33.519  30.954  26.987  1.00  0.00     0.016 A 
ATOM     91  C   UNL A   1      34.798  30.554  27.374  1.00  0.00     0.001 A 
BRANCH  83  92
ATOM     92  C   UNL A   1      30.015  30.119  23.782  1.00  0.00     0.051 A 
ATOM     93  C   UNL A   1      30.217  29.711  22.444  1.00  0.00     0.028 A 
ATOM     94  C   UNL A   1      29.002  31.073  23.962  1.00  0.00     0.028 A 
ATOM     95  C   UNL A   1      29.634  30.373  21.354  1.00  0.00     0.022 A 
ATOM     96  C   UNL A   1      28.440  31.773  22.879  1.00  0.00     0.022 A 
ATOM     97  C   UNL A   1      28.794  31.447  21.579  1.00  0.00     0.041 A 
ATOM     98  Cl  UNL A   1      28.204  32.373  20.260  1.00  0.00    -0.084 Cl
ENDBRANCH  83  92
ENDBRANCH  80  81
ENDBRANCH  79  80
ENDBRANCH  77  79
ENDBRANCH  73  74
ENDBRANCH   2  68
TORSDOF 15
ENDMDL
MODEL 3
REMARK VINA RESULT:     -12.8      3.147      8.923
REMARK SMILES O=C(NCCCNC(=O)c1ccc(-n2cc(CSc3nc4ccccc4c(=O)n3-c3ccc(Cl)cc3)nn2)cc1)c1ccc(-c2c3nc(c(-c4c(F)cccc4F)c4ccc([nH]4)c(-c4c(F)cccc4F)c4nc(c(-c5c(F)cccc5F)c5ccc2[nH]5)C=C4)C=C3)cc1
REMARK SMILES IDX 7 1 8 2 9 3 6 5 5 6 4 7 3 8 1 9 2 10 41 12 42 13 94 14 43 15
REMARK SMILES IDX 93 16 44 17 45 18 46 19 87 20 47 21 92 22 86 23 88 24 48 25
REMARK SMILES IDX 91 26 85 27 84 28 49 30 75 31 58 32 74 33 59 34 62 35 73 36
REMARK SMILES IDX 89 37 60 38 61 39 72 41 90 42 63 43 50 44 51 45 56 46 52 47
REMARK SMILES IDX 53 48 55 49 57 50 54 51 76 52 77 53 82 54 78 55 79 56 81 57
REMARK SMILES IDX 83 58 80 59 64 60 65 61 70 62 66 63 67 64 69 65 71 66 68 67
REMARK SMILES IDX 10 68 11 69 40 70 12 71 39 72 13 73 14 74 15 75 38 76 16 77
REMARK SMILES IDX 37 78 17 79 18 80 19 81 20 82 29 83 21 84 27 85 22 86 26 87
REMARK SMILES IDX 28 88 23 89 25 90 24 91 30 92 31 93 36 94 32 95 35 96 33 97
REMARK SMILES IDX 34 98
REMARK H PARENT 7 4 3 11 88 29 62 40
REMARK Flexibility Score: inf
ROOT
ATOM      1  N   UNL A   1      44.183  18.043  26.433  1.00  0.00    -0.352 N 
ATOM      2  C   UNL A   1      43.083  18.130  27.256  1.00  0.00     0.251 C 
ATOM      3  O   UNL A   1      42.919  17.328  28.153  1.00  0.00    -0.269 OA
ATOM      4  H   UNL A   1      44.755  17.259  26.591  1.00  0.00     0.163 HD
ENDROOT
BRANCH   1   5
ATOM      5  C   UNL A   1      44.636  18.924  25.369  1.00  0.00     0.118 C 
BRANCH   5   6
ATOM      6  C   UNL A   1      46.154  19.090  25.323  1.00  0.00     0.042 C 
BRANCH   6   7
ATOM      7  C   UNL A   1      46.647  20.293  24.520  1.00  0.00     0.118 C 
BRANCH   7   8
ATOM      8  N   UNL A   1      45.634  20.916  23.689  1.00  0.00    -0.352 N 
ATOM      9  O   UNL A   1      44.152  22.254  22.768  1.00  0.00    -0.269 OA
ATOM     10  C   UNL A   1      44.846  22.030  23.763  1.00  0.00     0.251 C 
ATOM     11  H   UNL A   1      45.473  20.407  22.862  1.00  0.00     0.163 HD
BRANCH  10  12
ATOM     12  C   UNL A   1      44.735  22.956  24.927  1.00  0.00     0.039 A 
ATOM     13  C   UNL A   1      45.019  22.650  26.258  1.00  0.00     0.014 A 
ATOM     14  C   UNL A   1      44.279  24.259  24.632  1.00  0.00     0.014 A 
ATOM     15  C   UNL A   1      44.814  23.601  27.266  1.00  0.00     0.010 A 
ATOM     16  C   UNL A   1      44.087  25.213  25.631  1.00  0.00     0.010 A 
ATOM     17  C   UNL A   1      44.331  24.879  26.959  1.00  0.00    -0.014 A 
BRANCH  17  18
ATOM     18  C   UNL A   1      44.175  25.852  28.047  1.00  0.00     0.031 A 
ATOM     19  C   UNL A   1      45.355  26.715  28.364  1.00  0.00     0.074 A 
ATOM     20  C   UNL A   1      43.006  26.136  28.658  1.00  0.00     0.049 A 
ATOM     21  N   UNL A   1      45.979  26.850  29.491  1.00  0.00    -0.248 NA
ATOM     22  C   UNL A   1      45.908  27.532  27.274  1.00  0.00     0.031 C 
ATOM     23  C   UNL A   1      41.658  25.698  28.293  1.00  0.00     0.029 A 
ATOM     24  N   UNL A   1      42.785  26.983  29.710  1.00  0.00    -0.354 N 
ATOM     25  C   UNL A   1      46.915  27.870  29.303  1.00  0.00     0.074 A 
ATOM     26  C   UNL A   1      46.875  28.203  27.901  1.00  0.00     0.031 C 
ATOM     27  C   UNL A   1      40.751  26.432  28.977  1.00  0.00     0.029 A 
ATOM     28  C   UNL A   1      41.450  27.286  29.925  1.00  0.00     0.049 A 
ATOM     29  H   UNL A   1      43.511  27.345  30.266  1.00  0.00     0.167 HD
ATOM     30  C   UNL A   1      47.567  28.475  30.336  1.00  0.00     0.037 A 
ATOM     31  C   UNL A   1      40.951  28.205  30.785  1.00  0.00     0.037 A 
ATOM     32  C   UNL A   1      47.494  27.710  31.549  1.00  0.00     0.049 A 
ATOM     33  C   UNL A   1      41.989  28.514  31.794  1.00  0.00     0.074 A 
ATOM     34  C   UNL A   1      47.904  26.453  31.942  1.00  0.00     0.029 A 
ATOM     35  N   UNL A   1      46.672  28.157  32.552  1.00  0.00    -0.354 N 
ATOM     36  N   UNL A   1      42.379  27.701  32.734  1.00  0.00    -0.248 NA
ATOM     37  C   UNL A   1      42.854  29.661  31.563  1.00  0.00     0.031 C 
ATOM     38  C   UNL A   1      46.934  26.026  32.896  1.00  0.00     0.029 A 
ATOM     39  C   UNL A   1      46.003  27.059  33.022  1.00  0.00     0.049 A 
ATOM     40  H   UNL A   1      46.582  29.083  32.871  1.00  0.00     0.167 HD
ATOM     41  C   UNL A   1      43.716  28.002  32.930  1.00  0.00     0.074 A 
ATOM     42  C   UNL A   1      43.915  29.292  32.282  1.00  0.00     0.031 C 
ATOM     43  C   UNL A   1      44.600  27.054  33.357  1.00  0.00     0.037 A 
BRANCH  30  44
ATOM     44  C   UNL A   1      48.063  29.899  30.338  1.00  0.00     0.057 A 
ATOM     45  C   UNL A   1      49.423  30.169  30.591  1.00  0.00     0.134 A 
ATOM     46  C   UNL A   1      47.211  31.018  30.385  1.00  0.00     0.134 A 
ATOM     47  F   UNL A   1      50.331  29.182  30.600  1.00  0.00    -0.206 F 
ATOM     48  C   UNL A   1      49.889  31.447  30.923  1.00  0.00     0.040 A 
ATOM     49  C   UNL A   1      47.674  32.309  30.666  1.00  0.00     0.040 A 
ATOM     50  F   UNL A   1      45.883  30.901  30.257  1.00  0.00    -0.206 F 
ATOM     51  C   UNL A   1      49.011  32.523  30.965  1.00  0.00     0.006 A 
ENDBRANCH  30  44
BRANCH  31  52
ATOM     52  C   UNL A   1      39.714  29.007  30.672  1.00  0.00     0.057 A 
ATOM     53  C   UNL A   1      39.611  30.068  29.764  1.00  0.00     0.134 A 
ATOM     54  C   UNL A   1      38.515  28.579  31.266  1.00  0.00     0.134 A 
ATOM     55  F   UNL A   1      40.693  30.518  29.114  1.00  0.00    -0.206 F 
ATOM     56  C   UNL A   1      38.381  30.662  29.451  1.00  0.00     0.040 A 
ATOM     57  C   UNL A   1      37.281  29.168  30.970  1.00  0.00     0.040 A 
ATOM     58  F   UNL A   1      38.488  27.519  32.087  1.00  0.00    -0.206 F 
ATOM     59  C   UNL A   1      37.209  30.206  30.049  1.00  0.00     0.006 A 
ENDBRANCH  31  52
BRANCH  43  60
ATOM     60  C   UNL A   1      44.052  25.775  33.918  1.00  0.00     0.057 A 
ATOM     61  C   UNL A   1      43.885  24.606  33.162  1.00  0.00     0.134 A 
ATOM     62  C   UNL A   1      43.852  25.675  35.299  1.00  0.00     0.134 A 
ATOM     63  F   UNL A   1      44.155  24.583  31.850  1.00  0.00    -0.206 F 
ATOM     64  C   UNL A   1      43.498  23.399  33.753  1.00  0.00     0.040 A 
ATOM     65  C   UNL A   1      43.497  24.469  35.905  1.00  0.00     0.040 A 
ATOM     66  F   UNL A   1      44.054  26.741  36.091  1.00  0.00    -0.206 F 
ATOM     67  C   UNL A   1      43.312  23.327  35.131  1.00  0.00     0.006 A 
ENDBRANCH  43  60
ENDBRANCH  17  18
ENDBRANCH  10  12
ENDBRANCH   7   8
ENDBRANCH   6   7
ENDBRANCH   5   6
ENDBRANCH   1   5
BRANCH   2  68
ATOM     68  C   UNL A   1      42.103  19.224  27.064  1.00  0.00     0.039 A 
ATOM     69  C   UNL A   1      41.020  19.010  26.204  1.00  0.00     0.016 A 
ATOM     70  C   UNL A   1      42.285  20.464  27.677  1.00  0.00     0.016 A 
ATOM     71  C   UNL A   1      40.070  20.019  26.011  1.00  0.00     0.029 A 
ATOM     72  C   UNL A   1      41.353  21.481  27.467  1.00  0.00     0.029 A 
ATOM     73  C   UNL A   1      40.240  21.259  26.635  1.00  0.00     0.066 A 
BRANCH  73  74
ATOM     74  N   UNL A   1      39.311  22.302  26.404  1.00  0.00    -0.220 N 
ATOM     75  C   UNL A   1      38.115  22.209  25.741  1.00  0.00     0.141 A 
ATOM     76  N   UNL A   1      39.506  23.586  26.787  1.00  0.00    -0.062 NA
ATOM     77  C   UNL A   1      37.583  23.477  25.742  1.00  0.00     0.093 A 
ATOM     78  N   UNL A   1      38.479  24.315  26.351  1.00  0.00    -0.134 NA
BRANCH  77  79
ATOM     79  C   UNL A   1      36.390  23.973  25.019  1.00  0.00     0.138 C 
BRANCH  79  80
ATOM     80  S   UNL A   1      35.477  22.964  23.848  1.00  0.00    -0.081 SA
BRANCH  80  81
ATOM     81  C   UNL A   1      33.798  23.429  23.806  1.00  0.00     0.176 A 
ATOM     82  N   UNL A   1      33.652  24.658  23.409  1.00  0.00    -0.223 NA
ATOM     83  N   UNL A   1      32.717  22.603  24.106  1.00  0.00    -0.255 N 
ATOM     84  C   UNL A   1      32.367  25.201  23.356  1.00  0.00     0.079 A 
ATOM     85  C   UNL A   1      31.608  23.288  24.632  1.00  0.00     0.266 A 
ATOM     86  C   UNL A   1      32.120  26.387  22.663  1.00  0.00     0.029 A 
ATOM     87  C   UNL A   1      31.332  24.612  24.062  1.00  0.00     0.066 A 
ATOM     88  O   UNL A   1      30.875  22.896  25.539  1.00  0.00    -0.268 OA
ATOM     89  C   UNL A   1      30.860  26.992  22.724  1.00  0.00     0.002 A 
ATOM     90  C   UNL A   1      30.078  25.225  24.169  1.00  0.00     0.016 A 
ATOM     91  C   UNL A   1      29.847  26.426  23.500  1.00  0.00     0.001 A 
BRANCH  83  92
ATOM     92  C   UNL A   1      32.649  21.148  24.015  1.00  0.00     0.051 A 
ATOM     93  C   UNL A   1      33.083  20.345  25.093  1.00  0.00     0.028 A 
ATOM     94  C   UNL A   1      32.154  20.439  22.911  1.00  0.00     0.028 A 
ATOM     95  C   UNL A   1      33.241  18.956  24.987  1.00  0.00     0.022 A 
ATOM     96  C   UNL A   1      32.343  19.052  22.774  1.00  0.00     0.022 A 
ATOM     97  C   UNL A   1      32.928  18.323  23.799  1.00  0.00     0.041 A 
ATOM     98  Cl  UNL A   1      33.270  16.654  23.593  1.00  0.00    -0.084 Cl
ENDBRANCH  83  92
ENDBRANCH  80  81
ENDBRANCH  79  80
ENDBRANCH  77  79
ENDBRANCH  73  74
ENDBRANCH   2  68
TORSDOF 15
ENDMDL
