MODEL 1
REMARK VINA RESULT:     -13.2      0.000      0.000
REMARK SMILES O=C(NCCCNC(=O)[C@H]1O[C@@H](Oc2c(-c3cc(O)c(O)c(O)c3)oc3cc(O)cc(O)c3c2=O)[C@H](O)[C@@H](O)[C@@H]1O)c1ccc(-c2c3nc(c(-c4c(F)cccc4F)c4ccc([nH]4)c(-c4c(F)cccc4F)c4nc(c(-c5c(F)cccc5F)c5ccc2[nH]5)C=C4)C=C3)cc1
REMARK SMILES IDX 6 1 5 2 4 3 3 4 1 5 2 6 42 8 43 9 95 10 44 11 94 12 45 13
REMARK SMILES IDX 46 14 47 15 88 16 48 17 93 18 87 19 89 20 49 21 92 22 86 23
REMARK SMILES IDX 85 24 50 26 76 27 59 28 75 29 60 30 63 31 74 32 90 33 61 34
REMARK SMILES IDX 62 35 73 37 91 38 64 39 51 40 52 41 57 42 53 43 54 44 56 45
REMARK SMILES IDX 58 46 55 47 77 48 78 49 83 50 79 51 80 52 82 53 84 54 81 55
REMARK SMILES IDX 65 56 66 57 71 58 67 59 68 60 70 61 72 62 69 63 7 64 8 65
REMARK SMILES IDX 9 67 10 68 11 69 40 70 12 71 38 72 36 73 41 74 13 76 14 77
REMARK SMILES IDX 15 78 34 79 25 80 33 81 35 82 26 83 31 84 27 85 30 86 28 87
REMARK SMILES IDX 16 88 17 89 24 90 18 91 22 92 20 93 19 94 23 96 21 98 32 100
REMARK SMILES IDX 29 102 39 104 37 106
REMARK H PARENT 3 7 89 25 63 36 7 66 41 75 19 95 23 97 21 99 32 101 29 103
REMARK H PARENT 39 105 37 107
REMARK Flexibility Score: inf
ROOT
ATOM      1  C   UNL A   1      31.913  29.300  24.938  1.00  0.00     0.117 C 
ENDROOT
BRANCH   1   2
ATOM      2  C   UNL A   1      31.428  30.680  25.390  1.00  0.00     0.042 C 
BRANCH   2   3
ATOM      3  C   UNL A   1      32.020  31.110  26.727  1.00  0.00     0.118 C 
BRANCH   3   4
ATOM      4  N   UNL A   1      32.026  32.558  26.879  1.00  0.00    -0.352 N 
ATOM      5  O   UNL A   1      32.539  34.522  27.856  1.00  0.00    -0.269 OA
ATOM      6  C   UNL A   1      32.828  33.341  27.662  1.00  0.00     0.251 C 
ATOM      7  H   UNL A   1      31.358  33.042  26.341  1.00  0.00     0.163 HD
BRANCH   6   8
ATOM      8  C   UNL A   1      34.042  32.768  28.273  1.00  0.00     0.039 A 
ATOM      9  C   UNL A   1      35.088  33.603  28.677  1.00  0.00     0.014 A 
ATOM     10  C   UNL A   1      34.118  31.390  28.482  1.00  0.00     0.014 A 
ATOM     11  C   UNL A   1      36.257  33.049  29.180  1.00  0.00     0.010 A 
ATOM     12  C   UNL A   1      35.259  30.842  29.072  1.00  0.00     0.010 A 
ATOM     13  C   UNL A   1      36.342  31.667  29.413  1.00  0.00    -0.014 A 
BRANCH  13  14
ATOM     14  C   UNL A   1      37.540  31.121  30.093  1.00  0.00     0.031 A 
ATOM     15  C   UNL A   1      37.819  31.421  31.535  1.00  0.00     0.074 A 
ATOM     16  C   UNL A   1      38.370  30.329  29.386  1.00  0.00     0.049 A 
ATOM     17  N   UNL A   1      38.822  31.024  32.278  1.00  0.00    -0.248 NA
ATOM     18  C   UNL A   1      36.856  32.282  32.237  1.00  0.00     0.031 C 
ATOM     19  C   UNL A   1      38.197  29.977  27.973  1.00  0.00     0.029 A 
ATOM     20  N   UNL A   1      39.510  29.667  29.754  1.00  0.00    -0.354 N 
ATOM     21  C   UNL A   1      38.618  31.593  33.528  1.00  0.00     0.074 A 
ATOM     22  C   UNL A   1      37.413  32.391  33.436  1.00  0.00     0.031 C 
ATOM     23  C   UNL A   1      39.166  29.127  27.610  1.00  0.00     0.029 A 
ATOM     24  C   UNL A   1      40.069  28.932  28.737  1.00  0.00     0.049 A 
ATOM     25  H   UNL A   1      39.893  29.713  30.660  1.00  0.00     0.167 HD
ATOM     26  C   UNL A   1      39.363  31.451  34.649  1.00  0.00     0.037 A 
ATOM     27  C   UNL A   1      41.195  28.199  28.707  1.00  0.00     0.037 A 
ATOM     28  C   UNL A   1      40.563  30.654  34.727  1.00  0.00     0.049 A 
ATOM     29  C   UNL A   1      42.031  28.106  29.950  1.00  0.00     0.074 A 
ATOM     30  C   UNL A   1      41.380  30.429  35.822  1.00  0.00     0.029 A 
ATOM     31  N   UNL A   1      41.121  29.957  33.664  1.00  0.00    -0.354 N 
ATOM     32  N   UNL A   1      41.811  28.625  31.134  1.00  0.00    -0.248 NA
ATOM     33  C   UNL A   1      43.273  27.330  29.851  1.00  0.00     0.031 C 
ATOM     34  C   UNL A   1      42.459  29.642  35.409  1.00  0.00     0.029 A 
ATOM     35  C   UNL A   1      42.284  29.324  34.071  1.00  0.00     0.049 A 
ATOM     36  H   UNL A   1      40.745  29.917  32.756  1.00  0.00     0.167 HD
ATOM     37  C   UNL A   1      42.873  28.220  31.928  1.00  0.00     0.074 A 
ATOM     38  C   UNL A   1      43.727  27.395  31.096  1.00  0.00     0.031 C 
ATOM     39  C   UNL A   1      43.121  28.505  33.230  1.00  0.00     0.037 A 
BRANCH  26  40
ATOM     40  C   UNL A   1      38.919  32.189  35.880  1.00  0.00     0.057 A 
ATOM     41  C   UNL A   1      38.146  31.574  36.875  1.00  0.00     0.134 A 
ATOM     42  C   UNL A   1      39.308  33.517  36.097  1.00  0.00     0.134 A 
ATOM     43  F   UNL A   1      37.731  30.307  36.729  1.00  0.00    -0.206 F 
ATOM     44  C   UNL A   1      37.758  32.261  38.028  1.00  0.00     0.040 A 
ATOM     45  C   UNL A   1      38.949  34.205  37.257  1.00  0.00     0.040 A 
ATOM     46  F   UNL A   1      40.054  34.166  35.190  1.00  0.00    -0.206 F 
ATOM     47  C   UNL A   1      38.166  33.579  38.224  1.00  0.00     0.006 A 
ENDBRANCH  26  40
BRANCH  27  48
ATOM     48  C   UNL A   1      41.597  27.508  27.457  1.00  0.00     0.057 A 
ATOM     49  C   UNL A   1      42.336  28.168  26.470  1.00  0.00     0.134 A 
ATOM     50  C   UNL A   1      41.258  26.169  27.222  1.00  0.00     0.134 A 
ATOM     51  F   UNL A   1      42.679  29.455  26.630  1.00  0.00    -0.206 F 
ATOM     52  C   UNL A   1      42.710  27.529  25.286  1.00  0.00     0.040 A 
ATOM     53  C   UNL A   1      41.651  25.508  26.058  1.00  0.00     0.040 A 
ATOM     54  F   UNL A   1      40.559  25.477  28.133  1.00  0.00    -0.206 F 
ATOM     55  C   UNL A   1      42.372  26.192  25.081  1.00  0.00     0.006 A 
ENDBRANCH  27  48
BRANCH  39  56
ATOM     56  C   UNL A   1      44.345  27.888  33.841  1.00  0.00     0.057 A 
ATOM     57  C   UNL A   1      44.327  26.606  34.404  1.00  0.00     0.134 A 
ATOM     58  C   UNL A   1      45.564  28.578  33.842  1.00  0.00     0.134 A 
ATOM     59  F   UNL A   1      43.189  25.897  34.449  1.00  0.00    -0.206 F 
ATOM     60  C   UNL A   1      45.473  26.042  34.970  1.00  0.00     0.040 A 
ATOM     61  C   UNL A   1      46.722  28.014  34.377  1.00  0.00     0.040 A 
ATOM     62  F   UNL A   1      45.652  29.807  33.312  1.00  0.00    -0.206 F 
ATOM     63  C   UNL A   1      46.677  26.744  34.950  1.00  0.00     0.006 A 
ENDBRANCH  39  56
ENDBRANCH  13  14
ENDBRANCH   6   8
ENDBRANCH   3   4
ENDBRANCH   2   3
ENDBRANCH   1   2
BRANCH   1  64
ATOM     64  N   UNL A   1      30.846  28.333  25.083  1.00  0.00    -0.354 N 
ATOM     65  C   UNL A   1      30.607  27.189  24.382  1.00  0.00     0.252 C 
ATOM     66  H   UNL A   1      30.195  28.530  25.794  1.00  0.00     0.163 HD
ATOM     67  O   UNL A   1      29.437  26.794  24.398  1.00  0.00    -0.272 OA
BRANCH  65  68
ATOM     68  C   UNL A   1      31.750  26.366  23.754  1.00  0.00     0.242 C 
ATOM     69  O   UNL A   1      31.771  25.114  24.485  1.00  0.00    -0.324 OA
ATOM     70  C   UNL A   1      31.651  25.981  22.275  1.00  0.00     0.184 C 
ATOM     71  C   UNL A   1      32.973  24.380  24.327  1.00  0.00     0.340 C 
ATOM     72  C   UNL A   1      32.960  25.279  21.902  1.00  0.00     0.181 C 
ATOM     73  C   UNL A   1      33.318  24.136  22.840  1.00  0.00     0.214 C 
BRANCH  70  74
ATOM     74  O   UNL A   1      31.530  27.044  21.336  1.00  0.00    -0.387 OA
ATOM     75  H   UNL A   1      30.651  27.445  21.414  1.00  0.00     0.211 HD
ENDBRANCH  70  74
BRANCH  71  76
ATOM     76  O   UNL A   1      32.986  23.092  25.004  1.00  0.00    -0.454 OA
BRANCH  76  77
ATOM     77  C   UNL A   1      34.230  22.510  25.242  1.00  0.00     0.214 A 
ATOM     78  C   UNL A   1      34.562  21.262  24.840  1.00  0.00     0.181 A 
ATOM     79  C   UNL A   1      35.335  23.379  25.767  1.00  0.00     0.239 A 
ATOM     80  O   UNL A   1      35.787  20.663  25.026  1.00  0.00    -0.452 OA
ATOM     81  C   UNL A   1      36.693  22.763  25.854  1.00  0.00     0.111 A 
ATOM     82  O   UNL A   1      35.114  24.551  26.047  1.00  0.00    -0.285 OA
ATOM     83  C   UNL A   1      36.825  21.424  25.484  1.00  0.00     0.146 A 
ATOM     84  C   UNL A   1      37.847  23.454  26.254  1.00  0.00     0.134 A 
ATOM     85  C   UNL A   1      38.062  20.775  25.531  1.00  0.00     0.094 A 
ATOM     86  C   UNL A   1      39.096  22.813  26.292  1.00  0.00     0.093 A 
ATOM     87  C   UNL A   1      39.189  21.475  25.930  1.00  0.00     0.123 A 
BRANCH  78  88
ATOM     88  C   UNL A   1      33.597  20.349  24.210  1.00  0.00     0.029 A 
ATOM     89  C   UNL A   1      32.827  20.819  23.129  1.00  0.00     0.062 A 
ATOM     90  C   UNL A   1      33.559  18.988  24.558  1.00  0.00     0.062 A 
ATOM     91  C   UNL A   1      32.156  19.907  22.325  1.00  0.00     0.162 A 
ATOM     92  C   UNL A   1      32.862  18.097  23.752  1.00  0.00     0.162 A 
ATOM     93  C   UNL A   1      32.198  18.550  22.617  1.00  0.00     0.200 A 
BRANCH  91  94
ATOM     94  O   UNL A   1      31.555  20.358  21.186  1.00  0.00    -0.504 OA
ATOM     95  H   UNL A   1      31.824  21.170  20.804  1.00  0.00     0.293 HD
ENDBRANCH  91  94
BRANCH  92  96
ATOM     96  O   UNL A   1      32.934  16.763  24.027  1.00  0.00    -0.504 OA
ATOM     97  H   UNL A   1      33.479  16.458  24.726  1.00  0.00     0.293 HD
ENDBRANCH  92  96
BRANCH  93  98
ATOM     98  O   UNL A   1      31.693  17.636  21.733  1.00  0.00    -0.502 OA
ATOM     99  H   UNL A   1      31.971  17.646  20.839  1.00  0.00     0.293 HD
ENDBRANCH  93  98
ENDBRANCH  78  88
BRANCH  84 100
ATOM    100  O   UNL A   1      37.789  24.776  26.596  1.00  0.00    -0.507 OA
ATOM    101  H   UNL A   1      37.091  25.090  27.135  1.00  0.00     0.293 HD
ENDBRANCH  84 100
BRANCH  87 102
ATOM    102  O   UNL A   1      40.377  20.806  25.936  1.00  0.00    -0.508 OA
ATOM    103  H   UNL A   1      41.154  21.233  26.236  1.00  0.00     0.293 HD
ENDBRANCH  87 102
ENDBRANCH  76  77
ENDBRANCH  71  76
BRANCH  72 104
ATOM    104  O   UNL A   1      32.836  24.825  20.530  1.00  0.00    -0.387 OA
ATOM    105  H   UNL A   1      33.626  24.319  20.284  1.00  0.00     0.211 HD
ENDBRANCH  72 104
BRANCH  73 106
ATOM    106  O   UNL A   1      34.698  23.800  22.643  1.00  0.00    -0.384 OA
ATOM    107  H   UNL A   1      34.763  22.912  22.257  1.00  0.00     0.211 HD
ENDBRANCH  73 106
ENDBRANCH  65  68
ENDBRANCH   1  64
TORSDOF 21
ENDMDL
MODEL 2
REMARK VINA RESULT:     -13.1      2.050      3.228
REMARK SMILES O=C(NCCCNC(=O)[C@H]1O[C@@H](Oc2c(-c3cc(O)c(O)c(O)c3)oc3cc(O)cc(O)c3c2=O)[C@H](O)[C@@H](O)[C@@H]1O)c1ccc(-c2c3nc(c(-c4c(F)cccc4F)c4ccc([nH]4)c(-c4c(F)cccc4F)c4nc(c(-c5c(F)cccc5F)c5ccc2[nH]5)C=C4)C=C3)cc1
REMARK SMILES IDX 6 1 5 2 4 3 3 4 1 5 2 6 42 8 43 9 95 10 44 11 94 12 45 13
REMARK SMILES IDX 46 14 47 15 88 16 48 17 93 18 87 19 89 20 49 21 92 22 86 23
REMARK SMILES IDX 85 24 50 26 76 27 59 28 75 29 60 30 63 31 74 32 90 33 61 34
REMARK SMILES IDX 62 35 73 37 91 38 64 39 51 40 52 41 57 42 53 43 54 44 56 45
REMARK SMILES IDX 58 46 55 47 77 48 78 49 83 50 79 51 80 52 82 53 84 54 81 55
REMARK SMILES IDX 65 56 66 57 71 58 67 59 68 60 70 61 72 62 69 63 7 64 8 65
REMARK SMILES IDX 9 67 10 68 11 69 40 70 12 71 38 72 36 73 41 74 13 76 14 77
REMARK SMILES IDX 15 78 34 79 25 80 33 81 35 82 26 83 31 84 27 85 30 86 28 87
REMARK SMILES IDX 16 88 17 89 24 90 18 91 22 92 20 93 19 94 23 96 21 98 32 100
REMARK SMILES IDX 29 102 39 104 37 106
REMARK H PARENT 3 7 89 25 63 36 7 66 41 75 19 95 23 97 21 99 32 101 29 103
REMARK H PARENT 39 105 37 107
REMARK Flexibility Score: inf
ROOT
ATOM      1  C   UNL A   1      32.546  27.883  26.719  1.00  0.00     0.117 C 
ENDROOT
BRANCH   1   2
ATOM      2  C   UNL A   1      33.253  29.181  26.321  1.00  0.00     0.042 C 
BRANCH   2   3
ATOM      3  C   UNL A   1      34.425  29.524  27.232  1.00  0.00     0.118 C 
BRANCH   3   4
ATOM      4  N   UNL A   1      34.220  30.784  27.933  1.00  0.00    -0.352 N 
ATOM      5  O   UNL A   1      34.483  32.279  29.597  1.00  0.00    -0.269 OA
ATOM      6  C   UNL A   1      34.937  31.326  28.963  1.00  0.00     0.251 C 
ATOM      7  H   UNL A   1      33.456  31.321  27.620  1.00  0.00     0.163 HD
BRANCH   6   8
ATOM      8  C   UNL A   1      36.257  30.769  29.312  1.00  0.00     0.039 A 
ATOM      9  C   UNL A   1      37.425  31.384  28.853  1.00  0.00     0.014 A 
ATOM     10  C   UNL A   1      36.329  29.646  30.140  1.00  0.00     0.014 A 
ATOM     11  C   UNL A   1      38.659  30.809  29.124  1.00  0.00     0.010 A 
ATOM     12  C   UNL A   1      37.575  29.121  30.485  1.00  0.00     0.010 A 
ATOM     13  C   UNL A   1      38.749  29.691  29.968  1.00  0.00    -0.014 A 
BRANCH  13  14
ATOM     14  C   UNL A   1      40.086  29.191  30.365  1.00  0.00     0.031 A 
ATOM     15  C   UNL A   1      40.775  29.705  31.593  1.00  0.00     0.074 A 
ATOM     16  C   UNL A   1      40.666  28.245  29.600  1.00  0.00     0.049 A 
ATOM     17  N   UNL A   1      41.946  29.373  32.079  1.00  0.00    -0.248 NA
ATOM     18  C   UNL A   1      40.067  30.727  32.378  1.00  0.00     0.031 C 
ATOM     19  C   UNL A   1      40.086  27.678  28.379  1.00  0.00     0.029 A 
ATOM     20  N   UNL A   1      41.856  27.582  29.739  1.00  0.00    -0.354 N 
ATOM     21  C   UNL A   1      42.120  30.150  33.216  1.00  0.00     0.074 A 
ATOM     22  C   UNL A   1      40.949  30.995  33.332  1.00  0.00     0.031 C 
ATOM     23  C   UNL A   1      40.898  26.722  27.909  1.00  0.00     0.029 A 
ATOM     24  C   UNL A   1      42.087  26.658  28.750  1.00  0.00     0.049 A 
ATOM     25  H   UNL A   1      42.486  27.752  30.477  1.00  0.00     0.167 HD
ATOM     26  C   UNL A   1      43.157  30.148  34.087  1.00  0.00     0.037 A 
ATOM     27  C   UNL A   1      43.147  25.862  28.529  1.00  0.00     0.037 A 
ATOM     28  C   UNL A   1      44.318  29.301  33.958  1.00  0.00     0.049 A 
ATOM     29  C   UNL A   1      44.307  25.922  29.481  1.00  0.00     0.074 A 
ATOM     30  C   UNL A   1      45.414  29.209  34.799  1.00  0.00     0.029 A 
ATOM     31  N   UNL A   1      44.535  28.407  32.919  1.00  0.00    -0.354 N 
ATOM     32  N   UNL A   1      44.446  26.640  30.569  1.00  0.00    -0.248 NA
ATOM     33  C   UNL A   1      45.457  25.065  29.171  1.00  0.00     0.031 C 
ATOM     34  C   UNL A   1      46.318  28.299  34.239  1.00  0.00     0.029 A 
ATOM     35  C   UNL A   1      45.759  27.778  33.083  1.00  0.00     0.049 A 
ATOM     36  H   UNL A   1      43.911  28.243  32.176  1.00  0.00     0.167 HD
ATOM     37  C   UNL A   1      45.688  26.305  31.088  1.00  0.00     0.074 A 
ATOM     38  C   UNL A   1      46.253  25.305  30.204  1.00  0.00     0.031 C 
ATOM     39  C   UNL A   1      46.306  26.783  32.195  1.00  0.00     0.037 A 
BRANCH  26  40
ATOM     40  C   UNL A   1      43.098  31.103  35.245  1.00  0.00     0.057 A 
ATOM     41  C   UNL A   1      43.556  32.423  35.141  1.00  0.00     0.134 A 
ATOM     42  C   UNL A   1      42.532  30.712  36.466  1.00  0.00     0.134 A 
ATOM     43  F   UNL A   1      44.118  32.861  34.005  1.00  0.00    -0.206 F 
ATOM     44  C   UNL A   1      43.476  33.311  36.216  1.00  0.00     0.040 A 
ATOM     45  C   UNL A   1      42.422  31.599  37.538  1.00  0.00     0.040 A 
ATOM     46  F   UNL A   1      42.066  29.465  36.633  1.00  0.00    -0.206 F 
ATOM     47  C   UNL A   1      42.900  32.901  37.417  1.00  0.00     0.006 A 
ENDBRANCH  26  40
BRANCH  27  48
ATOM     48  C   UNL A   1      43.160  24.953  27.357  1.00  0.00     0.057 A 
ATOM     49  C   UNL A   1      42.773  23.613  27.476  1.00  0.00     0.134 A 
ATOM     50  C   UNL A   1      43.551  25.401  26.090  1.00  0.00     0.134 A 
ATOM     51  F   UNL A   1      42.402  23.121  28.667  1.00  0.00    -0.206 F 
ATOM     52  C   UNL A   1      42.793  22.747  26.381  1.00  0.00     0.040 A 
ATOM     53  C   UNL A   1      43.546  24.556  24.980  1.00  0.00     0.040 A 
ATOM     54  F   UNL A   1      43.923  26.676  25.906  1.00  0.00    -0.206 F 
ATOM     55  C   UNL A   1      43.173  23.221  25.127  1.00  0.00     0.006 A 
ENDBRANCH  27  48
BRANCH  39  56
ATOM     56  C   UNL A   1      47.647  26.200  32.531  1.00  0.00     0.057 A 
ATOM     57  C   UNL A   1      48.837  26.731  32.018  1.00  0.00     0.134 A 
ATOM     58  C   UNL A   1      47.749  25.107  33.403  1.00  0.00     0.134 A 
ATOM     59  F   UNL A   1      48.808  27.767  31.166  1.00  0.00    -0.206 F 
ATOM     60  C   UNL A   1      50.079  26.180  32.338  1.00  0.00     0.040 A 
ATOM     61  C   UNL A   1      48.987  24.567  33.754  1.00  0.00     0.040 A 
ATOM     62  F   UNL A   1      46.649  24.556  33.935  1.00  0.00    -0.206 F 
ATOM     63  C   UNL A   1      50.156  25.099  33.214  1.00  0.00     0.006 A 
ENDBRANCH  39  56
ENDBRANCH  13  14
ENDBRANCH   6   8
ENDBRANCH   3   4
ENDBRANCH   2   3
ENDBRANCH   1   2
BRANCH   1  64
ATOM     64  N   UNL A   1      31.334  27.726  25.943  1.00  0.00    -0.354 N 
ATOM     65  C   UNL A   1      31.176  27.383  24.635  1.00  0.00     0.252 C 
ATOM     66  H   UNL A   1      30.497  27.891  26.435  1.00  0.00     0.163 HD
ATOM     67  O   UNL A   1      30.112  27.741  24.119  1.00  0.00    -0.272 OA
BRANCH  65  68
ATOM     68  C   UNL A   1      32.184  26.473  23.904  1.00  0.00     0.242 C 
ATOM     69  O   UNL A   1      32.147  25.209  24.613  1.00  0.00    -0.324 OA
ATOM     70  C   UNL A   1      31.934  26.131  22.433  1.00  0.00     0.184 C 
ATOM     71  C   UNL A   1      33.260  24.371  24.347  1.00  0.00     0.340 C 
ATOM     72  C   UNL A   1      33.138  25.322  21.944  1.00  0.00     0.181 C 
ATOM     73  C   UNL A   1      33.461  24.130  22.833  1.00  0.00     0.214 C 
BRANCH  70  74
ATOM     74  O   UNL A   1      31.837  27.222  21.522  1.00  0.00    -0.387 OA
ATOM     75  H   UNL A   1      32.690  27.349  21.079  1.00  0.00     0.211 HD
ENDBRANCH  70  74
BRANCH  71  76
ATOM     76  O   UNL A   1      33.207  23.073  25.002  1.00  0.00    -0.454 OA
BRANCH  76  77
ATOM     77  C   UNL A   1      34.421  22.431  25.242  1.00  0.00     0.214 A 
ATOM     78  C   UNL A   1      34.688  21.165  24.850  1.00  0.00     0.181 A 
ATOM     79  C   UNL A   1      35.570  23.247  25.756  1.00  0.00     0.239 A 
ATOM     80  O   UNL A   1      35.881  20.506  25.037  1.00  0.00    -0.452 OA
ATOM     81  C   UNL A   1      36.895  22.564  25.845  1.00  0.00     0.111 A 
ATOM     82  O   UNL A   1      35.409  24.432  26.026  1.00  0.00    -0.285 OA
ATOM     83  C   UNL A   1      36.958  21.217  25.486  1.00  0.00     0.146 A 
ATOM     84  C   UNL A   1      38.084  23.200  26.236  1.00  0.00     0.134 A 
ATOM     85  C   UNL A   1      38.161  20.506  25.536  1.00  0.00     0.094 A 
ATOM     86  C   UNL A   1      39.299  22.496  26.276  1.00  0.00     0.093 A 
ATOM     87  C   UNL A   1      39.323  21.152  25.925  1.00  0.00     0.123 A 
BRANCH  78  88
ATOM     88  C   UNL A   1      33.676  20.296  24.230  1.00  0.00     0.029 A 
ATOM     89  C   UNL A   1      32.891  20.813  23.181  1.00  0.00     0.062 A 
ATOM     90  C   UNL A   1      33.603  18.931  24.552  1.00  0.00     0.062 A 
ATOM     91  C   UNL A   1      32.168  19.940  22.379  1.00  0.00     0.162 A 
ATOM     92  C   UNL A   1      32.854  18.079  23.750  1.00  0.00     0.162 A 
ATOM     93  C   UNL A   1      32.174  18.576  22.643  1.00  0.00     0.200 A 
BRANCH  91  94
ATOM     94  O   UNL A   1      31.550  20.433  21.267  1.00  0.00    -0.504 OA
ATOM     95  H   UNL A   1      31.301  19.855  20.574  1.00  0.00     0.293 HD
ENDBRANCH  91  94
BRANCH  92  96
ATOM     96  O   UNL A   1      32.891  16.738  23.996  1.00  0.00    -0.504 OA
ATOM     97  H   UNL A   1      32.190  16.328  24.464  1.00  0.00     0.293 HD
ENDBRANCH  92  96
BRANCH  93  98
ATOM     98  O   UNL A   1      31.614  17.698  21.757  1.00  0.00    -0.502 OA
ATOM     99  H   UNL A   1      31.886  16.801  21.751  1.00  0.00     0.293 HD
ENDBRANCH  93  98
ENDBRANCH  78  88
BRANCH  84 100
ATOM    100  O   UNL A   1      38.094  24.525  26.566  1.00  0.00    -0.507 OA
ATOM    101  H   UNL A   1      37.421  24.877  27.114  1.00  0.00     0.293 HD
ENDBRANCH  84 100
BRANCH  87 102
ATOM    102  O   UNL A   1      40.475  20.423  25.934  1.00  0.00    -0.508 OA
ATOM    103  H   UNL A   1      41.056  20.455  25.199  1.00  0.00     0.293 HD
ENDBRANCH  87 102
ENDBRANCH  76  77
ENDBRANCH  71  76
BRANCH  72 104
ATOM    104  O   UNL A   1      32.865  24.911  20.580  1.00  0.00    -0.387 OA
ATOM    105  H   UNL A   1      31.973  25.196  20.329  1.00  0.00     0.211 HD
ENDBRANCH  72 104
BRANCH  73 106
ATOM    106  O   UNL A   1      34.785  23.674  22.520  1.00  0.00    -0.384 OA
ATOM    107  H   UNL A   1      35.415  24.047  23.157  1.00  0.00     0.211 HD
ENDBRANCH  73 106
ENDBRANCH  65  68
ENDBRANCH   1  64
TORSDOF 21
ENDMDL
MODEL 3
REMARK VINA RESULT:     -13.1      3.750      9.364
REMARK SMILES O=C(NCCCNC(=O)[C@H]1O[C@@H](Oc2c(-c3cc(O)c(O)c(O)c3)oc3cc(O)cc(O)c3c2=O)[C@H](O)[C@@H](O)[C@@H]1O)c1ccc(-c2c3nc(c(-c4c(F)cccc4F)c4ccc([nH]4)c(-c4c(F)cccc4F)c4nc(c(-c5c(F)cccc5F)c5ccc2[nH]5)C=C4)C=C3)cc1
REMARK SMILES IDX 6 1 5 2 4 3 3 4 1 5 2 6 42 8 43 9 95 10 44 11 94 12 45 13
REMARK SMILES IDX 46 14 47 15 88 16 48 17 93 18 87 19 89 20 49 21 92 22 86 23
REMARK SMILES IDX 85 24 50 26 76 27 59 28 75 29 60 30 63 31 74 32 90 33 61 34
REMARK SMILES IDX 62 35 73 37 91 38 64 39 51 40 52 41 57 42 53 43 54 44 56 45
REMARK SMILES IDX 58 46 55 47 77 48 78 49 83 50 79 51 80 52 82 53 84 54 81 55
REMARK SMILES IDX 65 56 66 57 71 58 67 59 68 60 70 61 72 62 69 63 7 64 8 65
REMARK SMILES IDX 9 67 10 68 11 69 40 70 12 71 38 72 36 73 41 74 13 76 14 77
REMARK SMILES IDX 15 78 34 79 25 80 33 81 35 82 26 83 31 84 27 85 30 86 28 87
REMARK SMILES IDX 16 88 17 89 24 90 18 91 22 92 20 93 19 94 23 96 21 98 32 100
REMARK SMILES IDX 29 102 39 104 37 106
REMARK H PARENT 3 7 89 25 63 36 7 66 41 75 19 95 23 97 21 99 32 101 29 103
REMARK H PARENT 39 105 37 107
REMARK Flexibility Score: inf
ROOT
ATOM      1  C   UNL A   1      35.319  23.158  23.587  1.00  0.00     0.117 C 
ENDROOT
BRANCH   1   2
ATOM      2  C   UNL A   1      36.590  22.394  23.969  1.00  0.00     0.042 C 
BRANCH   2   3
ATOM      3  C   UNL A   1      36.726  22.179  25.471  1.00  0.00     0.118 C 
BRANCH   3   4
ATOM      4  N   UNL A   1      37.642  21.092  25.785  1.00  0.00    -0.352 N 
ATOM      5  O   UNL A   1      39.649  20.125  26.120  1.00  0.00    -0.269 OA
ATOM      6  C   UNL A   1      38.965  21.149  26.126  1.00  0.00     0.251 C 
ATOM      7  H   UNL A   1      37.253  20.189  25.747  1.00  0.00     0.163 HD
BRANCH   6   8
ATOM      8  C   UNL A   1      39.572  22.439  26.503  1.00  0.00     0.039 A 
ATOM      9  C   UNL A   1      40.574  22.488  27.476  1.00  0.00     0.014 A 
ATOM     10  C   UNL A   1      39.164  23.604  25.850  1.00  0.00     0.014 A 
ATOM     11  C   UNL A   1      41.084  23.715  27.879  1.00  0.00     0.010 A 
ATOM     12  C   UNL A   1      39.743  24.827  26.192  1.00  0.00     0.010 A 
ATOM     13  C   UNL A   1      40.698  24.892  27.219  1.00  0.00    -0.014 A 
BRANCH  13  14
ATOM     14  C   UNL A   1      41.371  26.167  27.563  1.00  0.00     0.031 A 
ATOM     15  C   UNL A   1      42.777  26.447  27.123  1.00  0.00     0.074 A 
ATOM     16  C   UNL A   1      40.681  27.083  28.271  1.00  0.00     0.049 A 
ATOM     17  N   UNL A   1      43.511  27.510  27.341  1.00  0.00    -0.248 NA
ATOM     18  C   UNL A   1      43.454  25.400  26.343  1.00  0.00     0.031 C 
ATOM     19  C   UNL A   1      39.308  26.911  28.756  1.00  0.00     0.029 A 
ATOM     20  N   UNL A   1      41.025  28.339  28.692  1.00  0.00    -0.354 N 
ATOM     21  C   UNL A   1      44.735  27.258  26.737  1.00  0.00     0.074 A 
ATOM     22  C   UNL A   1      44.659  25.927  26.171  1.00  0.00     0.031 C 
ATOM     23  C   UNL A   1      38.913  28.036  29.366  1.00  0.00     0.029 A 
ATOM     24  C   UNL A   1      40.024  28.980  29.380  1.00  0.00     0.049 A 
ATOM     25  H   UNL A   1      41.906  28.744  28.520  1.00  0.00     0.167 HD
ATOM     26  C   UNL A   1      45.816  28.069  26.655  1.00  0.00     0.037 A 
ATOM     27  C   UNL A   1      40.007  30.184  29.976  1.00  0.00     0.037 A 
ATOM     28  C   UNL A   1      45.879  29.392  27.225  1.00  0.00     0.049 A 
ATOM     29  C   UNL A   1      41.240  31.038  29.916  1.00  0.00     0.074 A 
ATOM     30  C   UNL A   1      46.921  30.303  27.180  1.00  0.00     0.029 A 
ATOM     31  N   UNL A   1      44.858  29.992  27.951  1.00  0.00    -0.354 N 
ATOM     32  N   UNL A   1      42.381  30.800  29.317  1.00  0.00    -0.248 NA
ATOM     33  C   UNL A   1      41.184  32.325  30.620  1.00  0.00     0.031 C 
ATOM     34  C   UNL A   1      46.551  31.428  27.923  1.00  0.00     0.029 A 
ATOM     35  C   UNL A   1      45.256  31.247  28.380  1.00  0.00     0.049 A 
ATOM     36  H   UNL A   1      43.980  29.584  28.132  1.00  0.00     0.167 HD
ATOM     37  C   UNL A   1      43.171  31.915  29.549  1.00  0.00     0.074 A 
ATOM     38  C   UNL A   1      42.371  32.839  30.329  1.00  0.00     0.031 C 
ATOM     39  C   UNL A   1      44.445  32.154  29.154  1.00  0.00     0.037 A 
BRANCH  26  40
ATOM     40  C   UNL A   1      47.029  27.544  25.942  1.00  0.00     0.057 A 
ATOM     41  C   UNL A   1      47.182  27.660  24.554  1.00  0.00     0.134 A 
ATOM     42  C   UNL A   1      48.080  26.956  26.658  1.00  0.00     0.134 A 
ATOM     43  F   UNL A   1      46.211  28.204  23.805  1.00  0.00    -0.206 F 
ATOM     44  C   UNL A   1      48.325  27.191  23.902  1.00  0.00     0.040 A 
ATOM     45  C   UNL A   1      49.239  26.507  26.021  1.00  0.00     0.040 A 
ATOM     46  F   UNL A   1      48.005  26.819  27.991  1.00  0.00    -0.206 F 
ATOM     47  C   UNL A   1      49.361  26.618  24.638  1.00  0.00     0.006 A 
ENDBRANCH  26  40
BRANCH  27  48
ATOM     48  C   UNL A   1      38.786  30.644  30.684  1.00  0.00     0.057 A 
ATOM     49  C   UNL A   1      37.820  31.417  30.032  1.00  0.00     0.134 A 
ATOM     50  C   UNL A   1      38.553  30.315  32.025  1.00  0.00     0.134 A 
ATOM     51  F   UNL A   1      37.993  31.777  28.752  1.00  0.00    -0.206 F 
ATOM     52  C   UNL A   1      36.673  31.863  30.693  1.00  0.00     0.040 A 
ATOM     53  C   UNL A   1      37.397  30.727  32.689  1.00  0.00     0.040 A 
ATOM     54  F   UNL A   1      39.435  29.567  32.703  1.00  0.00    -0.206 F 
ATOM     55  C   UNL A   1      36.457  31.511  32.024  1.00  0.00     0.006 A 
ENDBRANCH  27  48
BRANCH  39  56
ATOM     56  C   UNL A   1      45.036  33.482  29.528  1.00  0.00     0.057 A 
ATOM     57  C   UNL A   1      44.896  34.613  28.713  1.00  0.00     0.134 A 
ATOM     58  C   UNL A   1      45.733  33.636  30.734  1.00  0.00     0.134 A 
ATOM     59  F   UNL A   1      44.254  34.530  27.538  1.00  0.00    -0.206 F 
ATOM     60  C   UNL A   1      45.451  35.843  29.071  1.00  0.00     0.040 A 
ATOM     61  C   UNL A   1      46.266  34.868  31.117  1.00  0.00     0.040 A 
ATOM     62  F   UNL A   1      45.897  32.596  31.564  1.00  0.00    -0.206 F 
ATOM     63  C   UNL A   1      46.131  35.974  30.280  1.00  0.00     0.006 A 
ENDBRANCH  39  56
ENDBRANCH  13  14
ENDBRANCH   6   8
ENDBRANCH   3   4
ENDBRANCH   2   3
ENDBRANCH   1   2
BRANCH   1  64
ATOM     64  N   UNL A   1      34.221  22.231  23.417  1.00  0.00    -0.354 N 
ATOM     65  C   UNL A   1      33.132  22.017  24.208  1.00  0.00     0.252 C 
ATOM     66  H   UNL A   1      34.266  21.670  22.609  1.00  0.00     0.163 HD
ATOM     67  O   UNL A   1      32.599  20.910  24.086  1.00  0.00    -0.272 OA
BRANCH  65  68
ATOM     68  C   UNL A   1      32.519  23.140  25.070  1.00  0.00     0.242 C 
ATOM     69  O   UNL A   1      32.489  24.310  24.215  1.00  0.00    -0.324 OA
ATOM     70  C   UNL A   1      31.089  22.969  25.591  1.00  0.00     0.184 C 
ATOM     71  C   UNL A   1      32.321  25.529  24.919  1.00  0.00     0.340 C 
ATOM     72  C   UNL A   1      30.792  24.165  26.499  1.00  0.00     0.181 C 
ATOM     73  C   UNL A   1      31.078  25.506  25.840  1.00  0.00     0.214 C 
BRANCH  70  74
ATOM     74  O   UNL A   1      30.827  21.826  26.399  1.00  0.00    -0.387 OA
ATOM     75  H   UNL A   1      29.976  21.938  26.851  1.00  0.00     0.211 HD
ENDBRANCH  70  74
BRANCH  71  76
ATOM     76  O   UNL A   1      32.226  26.707  24.071  1.00  0.00    -0.454 OA
BRANCH  76  77
ATOM     77  C   UNL A   1      32.376  27.949  24.686  1.00  0.00     0.214 A 
ATOM     78  C   UNL A   1      31.411  28.895  24.708  1.00  0.00     0.181 A 
ATOM     79  C   UNL A   1      33.574  28.170  25.563  1.00  0.00     0.239 A 
ATOM     80  O   UNL A   1      31.507  30.119  25.330  1.00  0.00    -0.452 OA
ATOM     81  C   UNL A   1      33.618  29.448  26.334  1.00  0.00     0.111 A 
ATOM     82  O   UNL A   1      34.429  27.298  25.664  1.00  0.00    -0.285 OA
ATOM     83  C   UNL A   1      32.573  30.354  26.152  1.00  0.00     0.146 A 
ATOM     84  C   UNL A   1      34.629  29.780  27.250  1.00  0.00     0.134 A 
ATOM     85  C   UNL A   1      32.537  31.570  26.840  1.00  0.00     0.094 A 
ATOM     86  C   UNL A   1      34.593  30.994  27.955  1.00  0.00     0.093 A 
ATOM     87  C   UNL A   1      33.543  31.879  27.740  1.00  0.00     0.123 A 
BRANCH  78  88
ATOM     88  C   UNL A   1      30.142  28.751  23.979  1.00  0.00     0.029 A 
ATOM     89  C   UNL A   1      29.458  27.522  24.049  1.00  0.00     0.062 A 
ATOM     90  C   UNL A   1      29.532  29.859  23.366  1.00  0.00     0.062 A 
ATOM     91  C   UNL A   1      28.130  27.460  23.647  1.00  0.00     0.162 A 
ATOM     92  C   UNL A   1      28.210  29.766  22.950  1.00  0.00     0.162 A 
ATOM     93  C   UNL A   1      27.500  28.584  23.129  1.00  0.00     0.200 A 
BRANCH  91  94
ATOM     94  O   UNL A   1      27.431  26.311  23.877  1.00  0.00    -0.504 OA
ATOM     95  H   UNL A   1      26.519  26.267  23.665  1.00  0.00     0.293 HD
ENDBRANCH  91  94
BRANCH  92  96
ATOM     96  O   UNL A   1      27.589  30.883  22.472  1.00  0.00    -0.504 OA
ATOM     97  H   UNL A   1      27.795  31.203  21.616  1.00  0.00     0.293 HD
ENDBRANCH  92  96
BRANCH  93  98
ATOM     98  O   UNL A   1      26.152  28.577  22.900  1.00  0.00    -0.502 OA
ATOM     99  H   UNL A   1      25.694  29.385  22.769  1.00  0.00     0.293 HD
ENDBRANCH  93  98
ENDBRANCH  78  88
BRANCH  84 100
ATOM    100  O   UNL A   1      35.661  28.920  27.497  1.00  0.00    -0.507 OA
ATOM    101  H   UNL A   1      35.953  28.334  26.828  1.00  0.00     0.293 HD
ENDBRANCH  84 100
BRANCH  87 102
ATOM    102  O   UNL A   1      33.451  33.066  28.405  1.00  0.00    -0.508 OA
ATOM    103  H   UNL A   1      32.720  33.233  28.966  1.00  0.00     0.293 HD
ENDBRANCH  87 102
ENDBRANCH  76  77
ENDBRANCH  71  76
BRANCH  72 104
ATOM    104  O   UNL A   1      29.408  24.062  26.919  1.00  0.00    -0.387 OA
ATOM    105  H   UNL A   1      29.083  23.165  26.746  1.00  0.00     0.211 HD
ENDBRANCH  72 104
BRANCH  73 106
ATOM    106  O   UNL A   1      31.130  26.513  26.859  1.00  0.00    -0.384 OA
ATOM    107  H   UNL A   1      30.337  26.453  27.415  1.00  0.00     0.211 HD
ENDBRANCH  73 106
ENDBRANCH  65  68
ENDBRANCH   1  64
TORSDOF 21
ENDMDL
