MODEL 1
REMARK VINA RESULT:     -10.5      0.000      0.000
REMARK SMILES Cc1c(CC(=O)N[C@H](CO)C(=O)NCCCNC(=O)c2ccc(-c3c4nc(c(-c5c(F)cccc5F)c5ccc([nH]5)c(-c5c(F)cccc5F)c5nc(c(-c6c(F)cccc6F)c6ccc3[nH]6)C=C5)C=C4)cc2)cc(-c2ccc(S(C)(=O)=O)cc2)n1-c1cccc(F)c1
REMARK SMILES IDX 11 1 12 2 13 3 8 5 7 6 5 7 6 8 4 10 3 11 1 12 2 13 86 14
REMARK SMILES IDX 74 15 75 16 87 17 88 18 93 19 89 20 91 21 90 22 92 23 76 24
REMARK SMILES IDX 77 25 85 26 78 27 84 28 79 29 80 30 81 31 82 32 83 33 9 34
REMARK SMILES IDX 10 35 14 37 15 38 16 39 17 40 18 41 19 43 20 44 21 45 73 46
REMARK SMILES IDX 22 47 72 48 23 49 24 50 25 51 66 52 26 53 71 54 65 55 67 56
REMARK SMILES IDX 27 57 70 58 64 59 63 60 28 62 54 63 37 64 53 65 38 66 41 67
REMARK SMILES IDX 52 68 68 69 39 70 40 71 51 73 69 74 42 75 29 76 30 77 35 78
REMARK SMILES IDX 31 79 32 80 34 81 36 82 33 83 55 84 56 85 61 86 57 87 58 88
REMARK SMILES IDX 60 89 62 90 59 91 43 92 44 93 49 94 45 95 46 96 48 97 50 98
REMARK SMILES IDX 47 99
REMARK H PARENT 13 4 7 9 10 36 17 42 67 61 41 72
REMARK Flexibility Score: inf
ROOT
ATOM      1  C   UNL A   1      44.247  37.536  26.932  1.00  0.00     0.244 C 
ATOM      2  O   UNL A   1      43.201  38.154  27.111  1.00  0.00    -0.273 OA
ATOM      3  N   UNL A   1      45.283  38.140  26.314  1.00  0.00    -0.354 N 
ATOM      4  H   UNL A   1      45.035  39.015  25.936  1.00  0.00     0.163 HD
ENDROOT
BRANCH   1   5
ATOM      5  C   UNL A   1      44.532  36.198  27.487  1.00  0.00     0.197 C 
BRANCH   5   6
ATOM      6  N   UNL A   1      44.141  35.183  26.465  1.00  0.00    -0.342 N 
ATOM      7  C   UNL A   1      44.119  33.818  26.321  1.00  0.00     0.225 C 
ATOM      8  O   UNL A   1      43.715  33.455  25.202  1.00  0.00    -0.275 OA
ATOM      9  H   UNL A   1      43.796  35.623  25.654  1.00  0.00     0.164 HD
BRANCH   7  10
ATOM     10  C   UNL A   1      44.465  32.693  27.366  1.00  0.00     0.137 C 
BRANCH  10  11
ATOM     11  C   UNL A   1      44.622  31.305  26.752  1.00  0.00    -0.017 A 
ATOM     12  C   UNL A   1      47.530  30.827  27.195  1.00  0.00     0.065 C 
ATOM     13  C   UNL A   1      46.133  30.340  26.986  1.00  0.00     0.024 A 
ATOM     14  N   UNL A   1      45.707  28.571  26.956  1.00  0.00    -0.313 N 
ATOM     15  C   UNL A   1      43.172  29.987  26.403  1.00  0.00     0.033 A 
ATOM     16  C   UNL A   1      43.917  28.334  26.584  1.00  0.00     0.053 A 
BRANCH  14  17
ATOM     17  C   UNL A   1      46.669  27.520  26.777  1.00  0.00     0.049 A 
ATOM     18  C   UNL A   1      46.913  26.675  27.875  1.00  0.00     0.027 A 
ATOM     19  C   UNL A   1      47.325  27.301  25.570  1.00  0.00     0.065 A 
ATOM     20  C   UNL A   1      47.779  25.592  27.766  1.00  0.00     0.005 A 
ATOM     21  C   UNL A   1      48.242  26.245  25.498  1.00  0.00     0.125 A 
ATOM     22  C   UNL A   1      48.461  25.384  26.574  1.00  0.00     0.039 A 
ATOM     23  F   UNL A   1      48.942  26.055  24.371  1.00  0.00    -0.207 F 
ENDBRANCH  14  17
BRANCH  16  24
ATOM     24  C   UNL A   1      43.277  27.031  26.784  1.00  0.00    -0.001 A 
ATOM     25  C   UNL A   1      43.142  26.441  28.056  1.00  0.00     0.011 A 
ATOM     26  C   UNL A   1      42.749  26.379  25.684  1.00  0.00     0.011 A 
ATOM     27  C   UNL A   1      42.639  25.148  28.198  1.00  0.00     0.021 A 
ATOM     28  C   UNL A   1      42.200  25.110  25.826  1.00  0.00     0.021 A 
ATOM     29  C   UNL A   1      42.211  24.472  27.065  1.00  0.00     0.067 A 
BRANCH  29  30
ATOM     30  S   UNL A   1      41.678  22.791  27.198  1.00  0.00     0.175 S 
ATOM     31  C   UNL A   1      39.913  22.860  27.023  1.00  0.00     0.163 C 
ATOM     32  O   UNL A   1      42.230  22.076  26.068  1.00  0.00    -0.224 OA
ATOM     33  O   UNL A   1      41.951  22.365  28.552  1.00  0.00    -0.224 OA
ENDBRANCH  29  30
ENDBRANCH  16  24
ENDBRANCH  10  11
ENDBRANCH   7  10
ENDBRANCH   5   6
BRANCH   5  34
ATOM     34  C   UNL A   1      43.934  36.141  28.917  1.00  0.00     0.191 C 
BRANCH  34  35
ATOM     35  O   UNL A   1      42.507  36.251  28.902  1.00  0.00    -0.394 OA
ATOM     36  H   UNL A   1      42.114  35.391  29.119  1.00  0.00     0.210 HD
ENDBRANCH  34  35
ENDBRANCH   5  34
ENDBRANCH   1   5
BRANCH   3  37
ATOM     37  C   UNL A   1      46.966  37.741  26.021  1.00  0.00     0.117 C 
BRANCH  37  38
ATOM     38  C   UNL A   1      48.240  36.522  27.476  1.00  0.00     0.042 C 
BRANCH  38  39
ATOM     39  C   UNL A   1      47.851  36.113  29.188  1.00  0.00     0.118 C 
BRANCH  39  40
ATOM     40  N   UNL A   1      48.736  35.148  29.788  1.00  0.00    -0.352 N 
ATOM     41  C   UNL A   1      48.444  34.199  30.760  1.00  0.00     0.251 C 
ATOM     42  H   UNL A   1      49.667  35.162  29.468  1.00  0.00     0.163 HD
ATOM     43  O   UNL A   1      49.414  33.632  31.268  1.00  0.00    -0.269 OA
BRANCH  41  44
ATOM     44  C   UNL A   1      47.028  33.925  31.320  1.00  0.00     0.039 A 
ATOM     45  C   UNL A   1      46.275  32.961  30.675  1.00  0.00     0.014 A 
ATOM     46  C   UNL A   1      46.295  34.615  32.315  1.00  0.00     0.014 A 
ATOM     47  C   UNL A   1      44.921  32.627  31.095  1.00  0.00     0.010 A 
ATOM     48  C   UNL A   1      44.838  34.328  32.670  1.00  0.00     0.010 A 
ATOM     49  C   UNL A   1      44.067  33.275  32.105  1.00  0.00    -0.014 A 
BRANCH  49  50
ATOM     50  C   UNL A   1      42.311  32.964  31.996  1.00  0.00     0.031 A 
ATOM     51  C   UNL A   1      42.306  32.002  33.150  1.00  0.00     0.074 A 
ATOM     52  C   UNL A   1      41.029  33.116  31.282  1.00  0.00     0.049 A 
ATOM     53  N   UNL A   1      43.164  31.021  33.025  1.00  0.00    -0.248 NA
ATOM     54  C   UNL A   1      41.948  32.247  34.553  1.00  0.00     0.031 C 
ATOM     55  C   UNL A   1      40.739  33.745  29.954  1.00  0.00     0.029 A 
ATOM     56  N   UNL A   1      39.589  32.724  31.558  1.00  0.00    -0.354 N 
ATOM     57  C   UNL A   1      43.156  30.286  34.174  1.00  0.00     0.074 A 
ATOM     58  C   UNL A   1      42.602  31.229  35.147  1.00  0.00     0.031 C 
ATOM     59  C   UNL A   1      39.398  33.857  29.632  1.00  0.00     0.029 A 
ATOM     60  C   UNL A   1      38.493  33.259  30.628  1.00  0.00     0.049 A 
ATOM     61  H   UNL A   1      39.363  32.139  32.317  1.00  0.00     0.167 HD
ATOM     62  C   UNL A   1      42.757  29.013  33.884  1.00  0.00     0.037 A 
ATOM     63  C   UNL A   1      37.043  33.108  30.583  1.00  0.00     0.037 A 
ATOM     64  C   UNL A   1      41.317  28.934  33.889  1.00  0.00     0.049 A 
ATOM     65  C   UNL A   1      36.826  31.793  31.168  1.00  0.00     0.074 A 
ATOM     66  C   UNL A   1      40.366  29.512  34.720  1.00  0.00     0.029 A 
ATOM     67  N   UNL A   1      40.698  28.705  32.683  1.00  0.00    -0.354 N 
ATOM     68  N   UNL A   1      37.092  30.693  30.540  1.00  0.00    -0.248 NA
ATOM     69  C   UNL A   1      36.354  31.688  32.536  1.00  0.00     0.031 C 
ATOM     70  C   UNL A   1      39.487  30.134  33.820  1.00  0.00     0.029 A 
ATOM     71  C   UNL A   1      39.511  29.386  32.657  1.00  0.00     0.049 A 
ATOM     72  H   UNL A   1      41.053  28.144  31.957  1.00  0.00     0.167 HD
ATOM     73  C   UNL A   1      37.488  29.922  31.584  1.00  0.00     0.074 A 
ATOM     74  C   UNL A   1      36.830  30.467  32.774  1.00  0.00     0.031 C 
ATOM     75  C   UNL A   1      38.716  29.362  31.476  1.00  0.00     0.037 A 
BRANCH  62  76
ATOM     76  C   UNL A   1      43.635  28.402  32.798  1.00  0.00     0.057 A 
ATOM     77  C   UNL A   1      44.629  27.509  33.182  1.00  0.00     0.134 A 
ATOM     78  C   UNL A   1      43.627  28.785  31.431  1.00  0.00     0.134 A 
ATOM     79  F   UNL A   1      44.687  27.068  34.448  1.00  0.00    -0.206 F 
ATOM     80  C   UNL A   1      45.595  27.055  32.276  1.00  0.00     0.040 A 
ATOM     81  C   UNL A   1      44.632  28.406  30.541  1.00  0.00     0.040 A 
ATOM     82  F   UNL A   1      42.642  29.536  30.910  1.00  0.00    -0.206 F 
ATOM     83  C   UNL A   1      45.619  27.530  30.964  1.00  0.00     0.006 A 
ENDBRANCH  62  76
BRANCH  63  84
ATOM     84  C   UNL A   1      35.512  33.526  30.069  1.00  0.00     0.057 A 
ATOM     85  C   UNL A   1      34.598  34.384  30.831  1.00  0.00     0.134 A 
ATOM     86  C   UNL A   1      35.157  33.540  28.711  1.00  0.00     0.134 A 
ATOM     87  F   UNL A   1      34.729  34.546  32.157  1.00  0.00    -0.206 F 
ATOM     88  C   UNL A   1      33.541  35.186  30.287  1.00  0.00     0.040 A 
ATOM     89  C   UNL A   1      34.086  34.337  28.159  1.00  0.00     0.040 A 
ATOM     90  F   UNL A   1      35.889  32.849  27.831  1.00  0.00    -0.206 F 
ATOM     91  C   UNL A   1      33.294  35.183  28.931  1.00  0.00     0.006 A 
ENDBRANCH  63  84
BRANCH  75  92
ATOM     92  C   UNL A   1      39.195  28.901  30.123  1.00  0.00     0.057 A 
ATOM     93  C   UNL A   1      39.808  29.690  29.133  1.00  0.00     0.134 A 
ATOM     94  C   UNL A   1      39.006  27.555  29.800  1.00  0.00     0.134 A 
ATOM     95  F   UNL A   1      40.145  30.962  29.357  1.00  0.00    -0.206 F 
ATOM     96  C   UNL A   1      40.132  29.181  27.867  1.00  0.00     0.040 A 
ATOM     97  C   UNL A   1      39.362  27.023  28.559  1.00  0.00     0.040 A 
ATOM     98  F   UNL A   1      38.499  26.714  30.715  1.00  0.00    -0.206 F 
ATOM     99  C   UNL A   1      39.900  27.844  27.574  1.00  0.00     0.006 A 
ENDBRANCH  75  92
ENDBRANCH  49  50
ENDBRANCH  41  44
ENDBRANCH  39  40
ENDBRANCH  38  39
ENDBRANCH  37  38
ENDBRANCH   3  37
TORSDOF 18
ENDMDL
MODEL 2
REMARK VINA RESULT:     -10.5      4.116     10.835
REMARK SMILES Cc1c(CC(=O)N[C@H](CO)C(=O)NCCCNC(=O)c2ccc(-c3c4nc(c(-c5c(F)cccc5F)c5ccc([nH]5)c(-c5c(F)cccc5F)c5nc(c(-c6c(F)cccc6F)c6ccc3[nH]6)C=C5)C=C4)cc2)cc(-c2ccc(S(C)(=O)=O)cc2)n1-c1cccc(F)c1
REMARK SMILES IDX 11 1 12 2 13 3 8 5 7 6 5 7 6 8 4 10 3 11 1 12 2 13 86 14
REMARK SMILES IDX 74 15 75 16 87 17 88 18 93 19 89 20 91 21 90 22 92 23 76 24
REMARK SMILES IDX 77 25 85 26 78 27 84 28 79 29 80 30 81 31 82 32 83 33 9 34
REMARK SMILES IDX 10 35 14 37 15 38 16 39 17 40 18 41 19 43 20 44 21 45 73 46
REMARK SMILES IDX 22 47 72 48 23 49 24 50 25 51 66 52 26 53 71 54 65 55 67 56
REMARK SMILES IDX 27 57 70 58 64 59 63 60 28 62 54 63 37 64 53 65 38 66 41 67
REMARK SMILES IDX 52 68 68 69 39 70 40 71 51 73 69 74 42 75 29 76 30 77 35 78
REMARK SMILES IDX 31 79 32 80 34 81 36 82 33 83 55 84 56 85 61 86 57 87 58 88
REMARK SMILES IDX 60 89 62 90 59 91 43 92 44 93 49 94 45 95 46 96 48 97 50 98
REMARK SMILES IDX 47 99
REMARK H PARENT 13 4 7 9 10 36 17 42 67 61 41 72
REMARK Flexibility Score: inf
ROOT
ATOM      1  C   UNL A   1      42.782  25.631  35.912  1.00  0.00     0.244 C 
ATOM      2  O   UNL A   1      41.661  25.128  35.889  1.00  0.00    -0.273 OA
ATOM      3  N   UNL A   1      43.067  26.588  36.818  1.00  0.00    -0.354 N 
ATOM      4  H   UNL A   1      42.266  26.893  37.306  1.00  0.00     0.163 HD
ENDROOT
BRANCH   1   5
ATOM      5  C   UNL A   1      43.927  25.155  35.111  1.00  0.00     0.197 C 
BRANCH   5   6
ATOM      6  N   UNL A   1      43.818  25.758  33.750  1.00  0.00    -0.342 N 
ATOM      7  C   UNL A   1      43.582  26.985  33.180  1.00  0.00     0.225 C 
ATOM      8  O   UNL A   1      43.556  26.944  31.938  1.00  0.00    -0.275 OA
ATOM      9  H   UNL A   1      43.956  25.073  33.055  1.00  0.00     0.164 HD
BRANCH   7  10
ATOM     10  C   UNL A   1      43.411  28.392  33.863  1.00  0.00     0.137 C 
BRANCH  10  11
ATOM     11  C   UNL A   1      41.957  28.808  34.067  1.00  0.00    -0.017 A 
ATOM     12  C   UNL A   1      42.240  30.726  36.330  1.00  0.00     0.065 C 
ATOM     13  C   UNL A   1      41.519  30.204  35.130  1.00  0.00     0.024 A 
ATOM     14  N   UNL A   1      39.992  30.964  34.496  1.00  0.00    -0.313 N 
ATOM     15  C   UNL A   1      40.472  28.624  32.755  1.00  0.00     0.033 A 
ATOM     16  C   UNL A   1      39.329  30.010  33.066  1.00  0.00     0.053 A 
BRANCH  14  17
ATOM     17  C   UNL A   1      39.175  31.868  35.256  1.00  0.00     0.049 A 
ATOM     18  C   UNL A   1      39.033  33.178  34.764  1.00  0.00     0.027 A 
ATOM     19  C   UNL A   1      38.511  31.483  36.416  1.00  0.00     0.065 A 
ATOM     20  C   UNL A   1      38.205  34.097  35.402  1.00  0.00     0.005 A 
ATOM     21  C   UNL A   1      37.734  32.440  37.080  1.00  0.00     0.125 A 
ATOM     22  C   UNL A   1      37.563  33.730  36.578  1.00  0.00     0.039 A 
ATOM     23  F   UNL A   1      37.141  32.119  38.239  1.00  0.00    -0.207 F 
ENDBRANCH  14  17
BRANCH  16  24
ATOM     24  C   UNL A   1      38.280  30.573  32.212  1.00  0.00    -0.001 A 
ATOM     25  C   UNL A   1      38.550  31.122  30.943  1.00  0.00     0.011 A 
ATOM     26  C   UNL A   1      36.970  30.521  32.654  1.00  0.00     0.011 A 
ATOM     27  C   UNL A   1      37.550  31.760  30.209  1.00  0.00     0.021 A 
ATOM     28  C   UNL A   1      35.960  31.110  31.902  1.00  0.00     0.021 A 
ATOM     29  C   UNL A   1      36.262  31.786  30.722  1.00  0.00     0.067 A 
BRANCH  29  30
ATOM     30  S   UNL A   1      35.000  32.686  29.871  1.00  0.00     0.175 S 
ATOM     31  C   UNL A   1      35.857  34.016  29.065  1.00  0.00     0.163 C 
ATOM     32  O   UNL A   1      34.452  31.806  28.862  1.00  0.00    -0.224 OA
ATOM     33  O   UNL A   1      34.151  33.281  30.878  1.00  0.00    -0.224 OA
ENDBRANCH  29  30
ENDBRANCH  16  24
ENDBRANCH  10  11
ENDBRANCH   7  10
ENDBRANCH   5   6
BRANCH   5  34
ATOM     34  C   UNL A   1      44.018  23.615  35.282  1.00  0.00     0.191 C 
BRANCH  34  35
ATOM     35  O   UNL A   1      43.083  22.930  34.443  1.00  0.00    -0.394 OA
ATOM     36  H   UNL A   1      43.100  21.982  34.646  1.00  0.00     0.210 HD
ENDBRANCH  34  35
ENDBRANCH   5  34
ENDBRANCH   1   5
BRANCH   3  37
ATOM     37  C   UNL A   1      44.520  27.424  37.337  1.00  0.00     0.117 C 
BRANCH  37  38
ATOM     38  C   UNL A   1      46.502  26.361  37.746  1.00  0.00     0.042 C 
BRANCH  38  39
ATOM     39  C   UNL A   1      47.776  25.929  36.546  1.00  0.00     0.118 C 
BRANCH  39  40
ATOM     40  N   UNL A   1      48.768  26.951  36.333  1.00  0.00    -0.352 N 
ATOM     41  C   UNL A   1      49.308  27.389  35.131  1.00  0.00     0.251 C 
ATOM     42  H   UNL A   1      49.107  27.395  37.144  1.00  0.00     0.163 HD
ATOM     43  O   UNL A   1      50.295  28.123  35.220  1.00  0.00    -0.269 OA
BRANCH  41  44
ATOM     44  C   UNL A   1      48.841  26.914  33.735  1.00  0.00     0.039 A 
ATOM     45  C   UNL A   1      47.561  27.266  33.349  1.00  0.00     0.014 A 
ATOM     46  C   UNL A   1      49.463  26.031  32.821  1.00  0.00     0.014 A 
ATOM     47  C   UNL A   1      47.000  26.860  32.067  1.00  0.00     0.010 A 
ATOM     48  C   UNL A   1      48.820  25.526  31.531  1.00  0.00     0.010 A 
ATOM     49  C   UNL A   1      47.551  25.949  31.050  1.00  0.00    -0.014 A 
BRANCH  49  50
ATOM     50  C   UNL A   1      46.396  25.264  29.871  1.00  0.00     0.031 A 
ATOM     51  C   UNL A   1      47.097  25.860  28.683  1.00  0.00     0.074 A 
ATOM     52  C   UNL A   1      45.134  24.558  29.583  1.00  0.00     0.049 A 
ATOM     53  N   UNL A   1      47.272  27.154  28.766  1.00  0.00    -0.248 NA
ATOM     54  C   UNL A   1      48.057  25.230  27.768  1.00  0.00     0.031 C 
ATOM     55  C   UNL A   1      44.053  24.103  30.516  1.00  0.00     0.029 A 
ATOM     56  N   UNL A   1      44.446  24.047  28.329  1.00  0.00    -0.354 N 
ATOM     57  C   UNL A   1      48.018  27.563  27.699  1.00  0.00     0.074 A 
ATOM     58  C   UNL A   1      48.679  26.324  27.285  1.00  0.00     0.031 C 
ATOM     59  C   UNL A   1      43.059  23.333  29.941  1.00  0.00     0.029 A 
ATOM     60  C   UNL A   1      43.201  23.163  28.485  1.00  0.00     0.049 A 
ATOM     61  H   UNL A   1      44.791  24.278  27.437  1.00  0.00     0.167 HD
ATOM     62  C   UNL A   1      47.281  28.439  26.953  1.00  0.00     0.037 A 
ATOM     63  C   UNL A   1      42.307  22.504  27.541  1.00  0.00     0.037 A 
ATOM     64  C   UNL A   1      46.448  27.716  26.024  1.00  0.00     0.049 A 
ATOM     65  C   UNL A   1      42.359  23.367  26.371  1.00  0.00     0.074 A 
ATOM     66  C   UNL A   1      46.691  26.584  25.257  1.00  0.00     0.029 A 
ATOM     67  N   UNL A   1      45.090  27.767  26.232  1.00  0.00    -0.354 N 
ATOM     68  N   UNL A   1      41.773  24.521  26.323  1.00  0.00    -0.248 NA
ATOM     69  C   UNL A   1      43.151  22.970  25.222  1.00  0.00     0.031 C 
ATOM     70  C   UNL A   1      45.613  25.742  25.574  1.00  0.00     0.029 A 
ATOM     71  C   UNL A   1      44.541  26.563  25.877  1.00  0.00     0.049 A 
ATOM     72  H   UNL A   1      44.594  28.541  26.580  1.00  0.00     0.167 HD
ATOM     73  C   UNL A   1      42.656  25.196  25.546  1.00  0.00     0.074 A 
ATOM     74  C   UNL A   1      43.344  24.192  24.731  1.00  0.00     0.031 C 
ATOM     75  C   UNL A   1      43.148  26.345  26.070  1.00  0.00     0.037 A 
BRANCH  62  76
ATOM     76  C   UNL A   1      46.788  29.600  27.808  1.00  0.00     0.057 A 
ATOM     77  C   UNL A   1      47.481  30.804  27.744  1.00  0.00     0.134 A 
ATOM     78  C   UNL A   1      45.765  29.514  28.789  1.00  0.00     0.134 A 
ATOM     79  F   UNL A   1      48.439  30.982  26.822  1.00  0.00    -0.206 F 
ATOM     80  C   UNL A   1      47.211  31.851  28.633  1.00  0.00     0.040 A 
ATOM     81  C   UNL A   1      45.546  30.517  29.733  1.00  0.00     0.040 A 
ATOM     82  F   UNL A   1      44.940  28.455  28.863  1.00  0.00    -0.206 F 
ATOM     83  C   UNL A   1      46.269  31.697  29.651  1.00  0.00     0.006 A 
ENDBRANCH  62  76
BRANCH  63  84
ATOM     84  C   UNL A   1      41.119  21.409  27.124  1.00  0.00     0.057 A 
ATOM     85  C   UNL A   1      39.781  21.791  26.658  1.00  0.00     0.134 A 
ATOM     86  C   UNL A   1      41.418  20.107  26.696  1.00  0.00     0.134 A 
ATOM     87  F   UNL A   1      39.260  22.997  26.931  1.00  0.00    -0.206 F 
ATOM     88  C   UNL A   1      38.919  21.003  25.825  1.00  0.00     0.040 A 
ATOM     89  C   UNL A   1      40.550  19.303  25.867  1.00  0.00     0.040 A 
ATOM     90  F   UNL A   1      42.611  19.576  26.983  1.00  0.00    -0.206 F 
ATOM     91  C   UNL A   1      39.316  19.752  25.403  1.00  0.00     0.006 A 
ENDBRANCH  63  84
BRANCH  75  92
ATOM     92  C   UNL A   1      42.249  27.209  26.915  1.00  0.00     0.057 A 
ATOM     93  C   UNL A   1      42.072  27.132  28.308  1.00  0.00     0.134 A 
ATOM     94  C   UNL A   1      41.495  28.186  26.259  1.00  0.00     0.134 A 
ATOM     95  F   UNL A   1      42.812  26.318  29.065  1.00  0.00    -0.206 F 
ATOM     96  C   UNL A   1      41.137  27.925  28.989  1.00  0.00     0.040 A 
ATOM     97  C   UNL A   1      40.591  29.013  26.928  1.00  0.00     0.040 A 
ATOM     98  F   UNL A   1      41.659  28.382  24.942  1.00  0.00    -0.206 F 
ATOM     99  C   UNL A   1      40.385  28.863  28.295  1.00  0.00     0.006 A 
ENDBRANCH  75  92
ENDBRANCH  49  50
ENDBRANCH  41  44
ENDBRANCH  39  40
ENDBRANCH  38  39
ENDBRANCH  37  38
ENDBRANCH   3  37
TORSDOF 18
ENDMDL
MODEL 3
REMARK VINA RESULT:     -10.4      6.758     12.926
REMARK SMILES Cc1c(CC(=O)N[C@H](CO)C(=O)NCCCNC(=O)c2ccc(-c3c4nc(c(-c5c(F)cccc5F)c5ccc([nH]5)c(-c5c(F)cccc5F)c5nc(c(-c6c(F)cccc6F)c6ccc3[nH]6)C=C5)C=C4)cc2)cc(-c2ccc(S(C)(=O)=O)cc2)n1-c1cccc(F)c1
REMARK SMILES IDX 11 1 12 2 13 3 8 5 7 6 5 7 6 8 4 10 3 11 1 12 2 13 86 14
REMARK SMILES IDX 74 15 75 16 87 17 88 18 93 19 89 20 91 21 90 22 92 23 76 24
REMARK SMILES IDX 77 25 85 26 78 27 84 28 79 29 80 30 81 31 82 32 83 33 9 34
REMARK SMILES IDX 10 35 14 37 15 38 16 39 17 40 18 41 19 43 20 44 21 45 73 46
REMARK SMILES IDX 22 47 72 48 23 49 24 50 25 51 66 52 26 53 71 54 65 55 67 56
REMARK SMILES IDX 27 57 70 58 64 59 63 60 28 62 54 63 37 64 53 65 38 66 41 67
REMARK SMILES IDX 52 68 68 69 39 70 40 71 51 73 69 74 42 75 29 76 30 77 35 78
REMARK SMILES IDX 31 79 32 80 34 81 36 82 33 83 55 84 56 85 61 86 57 87 58 88
REMARK SMILES IDX 60 89 62 90 59 91 43 92 44 93 49 94 45 95 46 96 48 97 50 98
REMARK SMILES IDX 47 99
REMARK H PARENT 13 4 7 9 10 36 17 42 67 61 41 72
REMARK Flexibility Score: inf
ROOT
ATOM      1  C   UNL A   1      41.082  26.040  26.428  1.00  0.00     0.244 C 
ATOM      2  O   UNL A   1      40.519  25.975  25.337  1.00  0.00    -0.273 OA
ATOM      3  N   UNL A   1      41.341  27.244  26.976  1.00  0.00    -0.354 N 
ATOM      4  H   UNL A   1      41.160  27.986  26.353  1.00  0.00     0.163 HD
ENDROOT
BRANCH   1   5
ATOM      5  C   UNL A   1      41.372  24.876  27.288  1.00  0.00     0.197 C 
BRANCH   5   6
ATOM      6  N   UNL A   1      41.705  23.721  26.404  1.00  0.00    -0.342 N 
ATOM      7  C   UNL A   1      41.219  22.470  26.111  1.00  0.00     0.225 C 
ATOM      8  O   UNL A   1      41.921  21.859  25.286  1.00  0.00    -0.275 OA
ATOM      9  H   UNL A   1      42.512  23.913  25.872  1.00  0.00     0.164 HD
BRANCH   7  10
ATOM     10  C   UNL A   1      39.908  21.760  26.614  1.00  0.00     0.137 C 
BRANCH  10  11
ATOM     11  C   UNL A   1      38.663  22.116  25.807  1.00  0.00    -0.017 A 
ATOM     12  C   UNL A   1      37.679  19.400  25.076  1.00  0.00     0.065 C 
ATOM     13  C   UNL A   1      37.457  20.854  25.335  1.00  0.00     0.024 A 
ATOM     14  N   UNL A   1      35.813  21.628  25.230  1.00  0.00    -0.313 N 
ATOM     15  C   UNL A   1      37.672  23.842  25.847  1.00  0.00     0.033 A 
ATOM     16  C   UNL A   1      35.924  23.445  25.519  1.00  0.00     0.053 A 
BRANCH  14  17
ATOM     17  C   UNL A   1      34.688  21.027  24.570  1.00  0.00     0.049 A 
ATOM     18  C   UNL A   1      34.435  19.668  24.835  1.00  0.00     0.027 A 
ATOM     19  C   UNL A   1      33.845  21.741  23.725  1.00  0.00     0.065 A 
ATOM     20  C   UNL A   1      33.328  19.027  24.291  1.00  0.00     0.005 A 
ATOM     21  C   UNL A   1      32.771  21.062  23.136  1.00  0.00     0.125 A 
ATOM     22  C   UNL A   1      32.498  19.724  23.422  1.00  0.00     0.039 A 
ATOM     23  F   UNL A   1      31.985  21.704  22.260  1.00  0.00    -0.207 F 
ENDBRANCH  14  17
BRANCH  16  24
ATOM     24  C   UNL A   1      34.718  24.238  25.766  1.00  0.00    -0.001 A 
ATOM     25  C   UNL A   1      33.625  23.745  26.505  1.00  0.00     0.011 A 
ATOM     26  C   UNL A   1      34.672  25.537  25.291  1.00  0.00     0.011 A 
ATOM     27  C   UNL A   1      32.444  24.478  26.619  1.00  0.00     0.021 A 
ATOM     28  C   UNL A   1      33.515  26.293  25.444  1.00  0.00     0.021 A 
ATOM     29  C   UNL A   1      32.386  25.739  26.043  1.00  0.00     0.067 A 
BRANCH  29  30
ATOM     30  S   UNL A   1      30.866  26.643  26.069  1.00  0.00     0.175 S 
ATOM     31  C   UNL A   1      30.414  26.819  24.361  1.00  0.00     0.163 C 
ATOM     32  O   UNL A   1      29.883  25.809  26.726  1.00  0.00    -0.224 OA
ATOM     33  O   UNL A   1      31.168  27.966  26.564  1.00  0.00    -0.224 OA
ENDBRANCH  29  30
ENDBRANCH  16  24
ENDBRANCH  10  11
ENDBRANCH   7  10
ENDBRANCH   5   6
BRANCH   5  34
ATOM     34  C   UNL A   1      40.228  24.760  28.331  1.00  0.00     0.191 C 
BRANCH  34  35
ATOM     35  O   UNL A   1      39.191  25.717  28.090  1.00  0.00    -0.394 OA
ATOM     36  H   UNL A   1      39.335  26.141  27.230  1.00  0.00     0.210 HD
ENDBRANCH  34  35
ENDBRANCH   5  34
ENDBRANCH   1   5
BRANCH   3  37
ATOM     37  C   UNL A   1      41.925  27.809  28.531  1.00  0.00     0.117 C 
BRANCH  37  38
ATOM     38  C   UNL A   1      44.122  28.278  28.953  1.00  0.00     0.042 C 
BRANCH  38  39
ATOM     39  C   UNL A   1      45.567  27.444  28.270  1.00  0.00     0.118 C 
BRANCH  39  40
ATOM     40  N   UNL A   1      45.264  26.316  27.428  1.00  0.00    -0.352 N 
ATOM     41  C   UNL A   1      44.894  25.032  27.809  1.00  0.00     0.251 C 
ATOM     42  H   UNL A   1      45.327  26.475  26.459  1.00  0.00     0.163 HD
ATOM     43  O   UNL A   1      44.897  24.184  26.915  1.00  0.00    -0.269 OA
BRANCH  41  44
ATOM     44  C   UNL A   1      44.625  24.594  29.268  1.00  0.00     0.039 A 
ATOM     45  C   UNL A   1      45.524  25.023  30.227  1.00  0.00     0.014 A 
ATOM     46  C   UNL A   1      43.671  23.683  29.781  1.00  0.00     0.014 A 
ATOM     47  C   UNL A   1      45.389  24.660  31.632  1.00  0.00     0.010 A 
ATOM     48  C   UNL A   1      43.609  23.225  31.237  1.00  0.00     0.010 A 
ATOM     49  C   UNL A   1      44.447  23.725  32.271  1.00  0.00    -0.014 A 
BRANCH  49  50
ATOM     50  C   UNL A   1      44.890  23.117  33.892  1.00  0.00     0.031 A 
ATOM     51  C   UNL A   1      44.180  24.225  34.615  1.00  0.00     0.074 A 
ATOM     52  C   UNL A   1      45.659  22.187  34.740  1.00  0.00     0.049 A 
ATOM     53  N   UNL A   1      44.542  25.424  34.234  1.00  0.00    -0.248 NA
ATOM     54  C   UNL A   1      42.844  24.220  35.225  1.00  0.00     0.031 C 
ATOM     55  C   UNL A   1      46.691  21.169  34.358  1.00  0.00     0.029 A 
ATOM     56  N   UNL A   1      45.736  21.899  36.228  1.00  0.00    -0.354 N 
ATOM     57  C   UNL A   1      43.753  26.340  34.865  1.00  0.00     0.074 A 
ATOM     58  C   UNL A   1      42.583  25.543  35.239  1.00  0.00     0.031 C 
ATOM     59  C   UNL A   1      47.122  20.349  35.385  1.00  0.00     0.029 A 
ATOM     60  C   UNL A   1      46.541  20.680  36.698  1.00  0.00     0.049 A 
ATOM     61  H   UNL A   1      45.280  22.482  36.877  1.00  0.00     0.167 HD
ATOM     62  C   UNL A   1      44.539  27.138  35.647  1.00  0.00     0.037 A 
ATOM     63  C   UNL A   1      46.826  20.101  38.005  1.00  0.00     0.037 A 
ATOM     64  C   UNL A   1      44.751  26.516  36.931  1.00  0.00     0.049 A 
ATOM     65  C   UNL A   1      46.796  21.253  38.895  1.00  0.00     0.074 A 
ATOM     66  C   UNL A   1      43.897  25.797  37.758  1.00  0.00     0.029 A 
ATOM     67  N   UNL A   1      46.026  26.092  37.218  1.00  0.00    -0.354 N 
ATOM     68  N   UNL A   1      47.743  22.135  38.932  1.00  0.00    -0.248 NA
ATOM     69  C   UNL A   1      45.636  21.478  39.736  1.00  0.00     0.031 C 
ATOM     70  C   UNL A   1      44.614  24.617  38.012  1.00  0.00     0.029 A 
ATOM     71  C   UNL A   1      45.956  24.947  37.965  1.00  0.00     0.049 A 
ATOM     72  H   UNL A   1      46.855  26.539  36.932  1.00  0.00     0.167 HD
ATOM     73  C   UNL A   1      47.012  23.246  39.199  1.00  0.00     0.074 A 
ATOM     74  C   UNL A   1      45.802  22.790  39.887  1.00  0.00     0.031 C 
ATOM     75  C   UNL A   1      47.157  24.274  38.329  1.00  0.00     0.037 A 
BRANCH  62  76
ATOM     76  C   UNL A   1      45.648  27.782  34.824  1.00  0.00     0.057 A 
ATOM     77  C   UNL A   1      45.507  29.117  34.462  1.00  0.00     0.134 A 
ATOM     78  C   UNL A   1      46.752  27.090  34.259  1.00  0.00     0.134 A 
ATOM     79  F   UNL A   1      44.512  29.854  34.978  1.00  0.00    -0.206 F 
ATOM     80  C   UNL A   1      46.381  29.724  33.552  1.00  0.00     0.040 A 
ATOM     81  C   UNL A   1      47.577  27.660  33.290  1.00  0.00     0.040 A 
ATOM     82  F   UNL A   1      47.071  25.838  34.632  1.00  0.00    -0.206 F 
ATOM     83  C   UNL A   1      47.395  28.988  32.938  1.00  0.00     0.006 A 
ENDBRANCH  62  76
BRANCH  63  84
ATOM     84  C   UNL A   1      47.347  18.882  39.018  1.00  0.00     0.057 A 
ATOM     85  C   UNL A   1      48.603  18.925  39.773  1.00  0.00     0.134 A 
ATOM     86  C   UNL A   1      46.457  17.983  39.626  1.00  0.00     0.134 A 
ATOM     87  F   UNL A   1      49.621  19.717  39.400  1.00  0.00    -0.206 F 
ATOM     88  C   UNL A   1      48.880  18.225  40.995  1.00  0.00     0.040 A 
ATOM     89  C   UNL A   1      46.734  17.266  40.849  1.00  0.00     0.040 A 
ATOM     90  F   UNL A   1      45.232  17.820  39.115  1.00  0.00    -0.206 F 
ATOM     91  C   UNL A   1      47.926  17.403  41.555  1.00  0.00     0.006 A 
ENDBRANCH  63  84
BRANCH  75  92
ATOM     92  C   UNL A   1      48.509  24.531  37.716  1.00  0.00     0.057 A 
ATOM     93  C   UNL A   1      48.963  24.088  36.460  1.00  0.00     0.134 A 
ATOM     94  C   UNL A   1      49.423  25.273  38.467  1.00  0.00     0.134 A 
ATOM     95  F   UNL A   1      48.152  23.466  35.601  1.00  0.00    -0.206 F 
ATOM     96  C   UNL A   1      50.277  24.303  36.021  1.00  0.00     0.040 A 
ATOM     97  C   UNL A   1      50.722  25.533  38.026  1.00  0.00     0.040 A 
ATOM     98  F   UNL A   1      49.049  25.800  39.643  1.00  0.00    -0.206 F 
ATOM     99  C   UNL A   1      51.165  25.021  36.812  1.00  0.00     0.006 A 
ENDBRANCH  75  92
ENDBRANCH  49  50
ENDBRANCH  41  44
ENDBRANCH  39  40
ENDBRANCH  38  39
ENDBRANCH  37  38
ENDBRANCH   3  37
TORSDOF 18
ENDMDL
