MODEL 1
REMARK VINA RESULT:     -12.5      0.000      0.000
REMARK SMILES O=C(NCCCNC(=O)c1cn(-c2cc(F)cc(F)c2F)c(=O)[nH]c1=O)c1ccc(-c2c3nc(c(-c4c(F)cccc4F)c4ccc([nH]4)c(-c4c(F)cccc4F)c4nc(c(-c5c(F)cccc5F)c5ccc2[nH]5)C=C4)C=C3)cc1
REMARK SMILES IDX 4 1 3 2 1 3 2 4 27 6 28 7 80 8 29 9 79 10 30 11 31 12 32 13
REMARK SMILES IDX 73 14 33 15 78 16 72 17 74 18 34 19 77 20 71 21 70 22 35 24
REMARK SMILES IDX 61 25 44 26 60 27 45 28 48 29 59 30 75 31 46 32 47 33 58 35
REMARK SMILES IDX 76 36 49 37 36 38 37 39 42 40 38 41 39 42 41 43 43 44 40 45
REMARK SMILES IDX 62 46 63 47 68 48 64 49 65 50 67 51 69 52 66 53 50 54 51 55
REMARK SMILES IDX 56 56 52 57 53 58 55 59 57 60 54 61 5 62 6 63 7 64 8 65 9 67
REMARK SMILES IDX 10 68 11 69 25 70 12 71 24 72 26 73 22 74 23 76 13 77 14 78
REMARK SMILES IDX 20 79 15 80 18 81 21 82 16 83 17 84 19 85
REMARK H PARENT 3 5 74 23 48 34 7 66 24 75
REMARK Flexibility Score: inf
ROOT
ATOM      1  C   UNL A   1      33.360  28.719  27.256  1.00  0.00     0.118 C 
ENDROOT
BRANCH   1   2
ATOM      2  N   UNL A   1      33.528  30.080  27.741  1.00  0.00    -0.352 N 
ATOM      3  O   UNL A   1      34.377  31.833  28.831  1.00  0.00    -0.269 OA
ATOM      4  C   UNL A   1      34.579  30.722  28.342  1.00  0.00     0.251 C 
ATOM      5  H   UNL A   1      32.735  30.649  27.612  1.00  0.00     0.163 HD
BRANCH   4   6
ATOM      6  C   UNL A   1      35.938  30.133  28.421  1.00  0.00     0.039 A 
ATOM      7  C   UNL A   1      36.338  29.554  29.633  1.00  0.00     0.014 A 
ATOM      8  C   UNL A   1      36.863  30.234  27.381  1.00  0.00     0.014 A 
ATOM      9  C   UNL A   1      37.643  29.080  29.794  1.00  0.00     0.010 A 
ATOM     10  C   UNL A   1      38.131  29.666  27.504  1.00  0.00     0.010 A 
ATOM     11  C   UNL A   1      38.553  29.128  28.728  1.00  0.00    -0.014 A 
BRANCH  11  12
ATOM     12  C   UNL A   1      39.975  28.743  28.916  1.00  0.00     0.031 A 
ATOM     13  C   UNL A   1      40.926  29.701  29.590  1.00  0.00     0.074 A 
ATOM     14  C   UNL A   1      40.424  27.548  28.484  1.00  0.00     0.049 A 
ATOM     15  N   UNL A   1      42.211  29.579  29.816  1.00  0.00    -0.248 NA
ATOM     16  C   UNL A   1      40.362  30.981  30.046  1.00  0.00     0.031 C 
ATOM     17  C   UNL A   1      39.623  26.541  27.788  1.00  0.00     0.029 A 
ATOM     18  N   UNL A   1      41.670  26.979  28.573  1.00  0.00    -0.354 N 
ATOM     19  C   UNL A   1      42.602  30.763  30.428  1.00  0.00     0.074 A 
ATOM     20  C   UNL A   1      41.440  31.622  30.468  1.00  0.00     0.031 C 
ATOM     21  C   UNL A   1      40.390  25.466  27.537  1.00  0.00     0.029 A 
ATOM     22  C   UNL A   1      41.741  25.720  28.031  1.00  0.00     0.049 A 
ATOM     23  H   UNL A   1      42.439  27.432  28.987  1.00  0.00     0.167 HD
ATOM     24  C   UNL A   1      43.806  31.099  30.950  1.00  0.00     0.037 A 
ATOM     25  C   UNL A   1      42.779  24.867  27.946  1.00  0.00     0.037 A 
ATOM     26  C   UNL A   1      44.960  30.241  30.940  1.00  0.00     0.049 A 
ATOM     27  C   UNL A   1      44.108  25.263  28.531  1.00  0.00     0.074 A 
ATOM     28  C   UNL A   1      46.224  30.481  31.452  1.00  0.00     0.029 A 
ATOM     29  N   UNL A   1      44.983  28.965  30.399  1.00  0.00    -0.354 N 
ATOM     30  N   UNL A   1      44.452  26.375  29.134  1.00  0.00    -0.248 NA
ATOM     31  C   UNL A   1      45.191  24.274  28.433  1.00  0.00     0.031 C 
ATOM     32  C   UNL A   1      47.019  29.357  31.199  1.00  0.00     0.029 A 
ATOM     33  C   UNL A   1      46.239  28.405  30.564  1.00  0.00     0.049 A 
ATOM     34  H   UNL A   1      44.220  28.524  29.961  1.00  0.00     0.167 HD
ATOM     35  C   UNL A   1      45.779  26.209  29.509  1.00  0.00     0.074 A 
ATOM     36  C   UNL A   1      46.169  24.880  29.088  1.00  0.00     0.031 C 
ATOM     37  C   UNL A   1      46.605  27.078  30.142  1.00  0.00     0.037 A 
BRANCH  24  38
ATOM     38  C   UNL A   1      43.917  32.451  31.594  1.00  0.00     0.057 A 
ATOM     39  C   UNL A   1      43.665  32.624  32.961  1.00  0.00     0.134 A 
ATOM     40  C   UNL A   1      44.281  33.587  30.857  1.00  0.00     0.134 A 
ATOM     41  F   UNL A   1      43.309  31.581  33.726  1.00  0.00    -0.206 F 
ATOM     42  C   UNL A   1      43.780  33.874  33.571  1.00  0.00     0.040 A 
ATOM     43  C   UNL A   1      44.427  34.836  31.460  1.00  0.00     0.040 A 
ATOM     44  F   UNL A   1      44.554  33.487  29.546  1.00  0.00    -0.206 F 
ATOM     45  C   UNL A   1      44.172  34.983  32.822  1.00  0.00     0.006 A 
ENDBRANCH  24  38
BRANCH  25  46
ATOM     46  C   UNL A   1      42.610  23.539  27.306  1.00  0.00     0.057 A 
ATOM     47  C   UNL A   1      42.853  23.349  25.941  1.00  0.00     0.134 A 
ATOM     48  C   UNL A   1      42.245  22.415  28.058  1.00  0.00     0.134 A 
ATOM     49  F   UNL A   1      43.199  24.387  25.164  1.00  0.00    -0.206 F 
ATOM     50  C   UNL A   1      42.749  22.091  25.347  1.00  0.00     0.040 A 
ATOM     51  C   UNL A   1      42.162  21.145  27.483  1.00  0.00     0.040 A 
ATOM     52  F   UNL A   1      42.020  22.529  29.375  1.00  0.00    -0.206 F 
ATOM     53  C   UNL A   1      42.414  20.981  26.122  1.00  0.00     0.006 A 
ENDBRANCH  25  46
BRANCH  37  54
ATOM     54  C   UNL A   1      47.994  26.596  30.442  1.00  0.00     0.057 A 
ATOM     55  C   UNL A   1      48.275  25.938  31.646  1.00  0.00     0.134 A 
ATOM     56  C   UNL A   1      49.051  26.778  29.541  1.00  0.00     0.134 A 
ATOM     57  F   UNL A   1      47.310  25.740  32.557  1.00  0.00    -0.206 F 
ATOM     58  C   UNL A   1      49.557  25.469  31.939  1.00  0.00     0.040 A 
ATOM     59  C   UNL A   1      50.331  26.289  29.811  1.00  0.00     0.040 A 
ATOM     60  F   UNL A   1      48.843  27.387  28.363  1.00  0.00    -0.206 F 
ATOM     61  C   UNL A   1      50.586  25.635  31.014  1.00  0.00     0.006 A 
ENDBRANCH  37  54
ENDBRANCH  11  12
ENDBRANCH   4   6
ENDBRANCH   1   2
BRANCH   1  62
ATOM     62  C   UNL A   1      31.903  28.280  27.227  1.00  0.00     0.042 C 
BRANCH  62  63
ATOM     63  C   UNL A   1      31.587  27.211  26.191  1.00  0.00     0.118 C 
BRANCH  63  64
ATOM     64  N   UNL A   1      30.815  26.093  26.722  1.00  0.00    -0.352 N 
ATOM     65  C   UNL A   1      30.688  24.797  26.301  1.00  0.00     0.258 C 
ATOM     66  H   UNL A   1      30.292  26.310  27.527  1.00  0.00     0.163 HD
ATOM     67  O   UNL A   1      29.958  24.032  26.927  1.00  0.00    -0.269 OA
BRANCH  65  68
ATOM     68  C   UNL A   1      31.432  24.341  25.110  1.00  0.00     0.121 A 
ATOM     69  C   UNL A   1      32.533  23.593  25.262  1.00  0.00     0.116 A 
ATOM     70  C   UNL A   1      31.010  24.686  23.742  1.00  0.00     0.266 A 
ATOM     71  N   UNL A   1      33.397  23.303  24.216  1.00  0.00    -0.265 N 
ATOM     72  N   UNL A   1      31.802  24.196  22.741  1.00  0.00    -0.273 N 
ATOM     73  O   UNL A   1      30.052  25.414  23.494  1.00  0.00    -0.268 OA
ATOM     74  C   UNL A   1      33.026  23.590  22.892  1.00  0.00     0.333 A 
ATOM     75  H   UNL A   1      31.463  24.288  21.822  1.00  0.00     0.175 HD
ATOM     76  O   UNL A   1      33.701  23.349  21.894  1.00  0.00    -0.247 OA
BRANCH  71  77
ATOM     77  C   UNL A   1      34.729  22.834  24.491  1.00  0.00     0.092 A 
ATOM     78  C   UNL A   1      35.744  23.757  24.794  1.00  0.00     0.069 A 
ATOM     79  C   UNL A   1      35.029  21.469  24.593  1.00  0.00     0.183 A 
ATOM     80  C   UNL A   1      37.001  23.313  25.201  1.00  0.00     0.128 A 
ATOM     81  C   UNL A   1      36.302  21.044  24.972  1.00  0.00     0.163 A 
ATOM     82  F   UNL A   1      34.098  20.544  24.307  1.00  0.00    -0.201 F 
ATOM     83  F   UNL A   1      37.931  24.213  25.547  1.00  0.00    -0.207 F 
ATOM     84  C   UNL A   1      37.293  21.961  25.289  1.00  0.00     0.081 A 
ATOM     85  F   UNL A   1      36.572  19.735  25.052  1.00  0.00    -0.204 F 
ENDBRANCH  71  77
ENDBRANCH  65  68
ENDBRANCH  63  64
ENDBRANCH  62  63
ENDBRANCH   1  62
TORSDOF 11
ENDMDL
MODEL 2
REMARK VINA RESULT:     -12.4      3.489      4.878
REMARK SMILES O=C(NCCCNC(=O)c1cn(-c2cc(F)cc(F)c2F)c(=O)[nH]c1=O)c1ccc(-c2c3nc(c(-c4c(F)cccc4F)c4ccc([nH]4)c(-c4c(F)cccc4F)c4nc(c(-c5c(F)cccc5F)c5ccc2[nH]5)C=C4)C=C3)cc1
REMARK SMILES IDX 4 1 3 2 1 3 2 4 27 6 28 7 80 8 29 9 79 10 30 11 31 12 32 13
REMARK SMILES IDX 73 14 33 15 78 16 72 17 74 18 34 19 77 20 71 21 70 22 35 24
REMARK SMILES IDX 61 25 44 26 60 27 45 28 48 29 59 30 75 31 46 32 47 33 58 35
REMARK SMILES IDX 76 36 49 37 36 38 37 39 42 40 38 41 39 42 41 43 43 44 40 45
REMARK SMILES IDX 62 46 63 47 68 48 64 49 65 50 67 51 69 52 66 53 50 54 51 55
REMARK SMILES IDX 56 56 52 57 53 58 55 59 57 60 54 61 5 62 6 63 7 64 8 65 9 67
REMARK SMILES IDX 10 68 11 69 25 70 12 71 24 72 26 73 22 74 23 76 13 77 14 78
REMARK SMILES IDX 20 79 15 80 18 81 21 82 16 83 17 84 19 85
REMARK H PARENT 3 5 74 23 48 34 7 66 24 75
REMARK Flexibility Score: inf
ROOT
ATOM      1  C   UNL A   1      33.434  28.791  27.560  1.00  0.00     0.118 C 
ENDROOT
BRANCH   1   2
ATOM      2  N   UNL A   1      33.643  30.163  27.995  1.00  0.00    -0.352 N 
ATOM      3  O   UNL A   1      34.565  31.935  28.990  1.00  0.00    -0.269 OA
ATOM      4  C   UNL A   1      34.730  30.808  28.526  1.00  0.00     0.251 C 
ATOM      5  H   UNL A   1      32.852  30.739  27.886  1.00  0.00     0.163 HD
BRANCH   4   6
ATOM      6  C   UNL A   1      36.083  30.201  28.559  1.00  0.00     0.039 A 
ATOM      7  C   UNL A   1      36.515  29.614  29.756  1.00  0.00     0.014 A 
ATOM      8  C   UNL A   1      36.974  30.293  27.489  1.00  0.00     0.014 A 
ATOM      9  C   UNL A   1      37.819  29.123  29.873  1.00  0.00     0.010 A 
ATOM     10  C   UNL A   1      38.238  29.709  27.569  1.00  0.00     0.010 A 
ATOM     11  C   UNL A   1      38.693  29.163  28.777  1.00  0.00    -0.014 A 
BRANCH  11  12
ATOM     12  C   UNL A   1      40.116  28.759  28.917  1.00  0.00     0.031 A 
ATOM     13  C   UNL A   1      41.107  29.715  29.536  1.00  0.00     0.074 A 
ATOM     14  C   UNL A   1      40.530  27.550  28.492  1.00  0.00     0.049 A 
ATOM     15  N   UNL A   1      42.397  29.577  29.714  1.00  0.00    -0.248 NA
ATOM     16  C   UNL A   1      40.579  31.012  29.988  1.00  0.00     0.031 C 
ATOM     17  C   UNL A   1      39.688  26.542  27.846  1.00  0.00     0.029 A 
ATOM     18  N   UNL A   1      41.770  26.963  28.543  1.00  0.00    -0.354 N 
ATOM     19  C   UNL A   1      42.829  30.767  30.288  1.00  0.00     0.074 A 
ATOM     20  C   UNL A   1      41.682  31.644  30.356  1.00  0.00     0.031 C 
ATOM     21  C   UNL A   1      40.429  25.451  27.587  1.00  0.00     0.029 A 
ATOM     22  C   UNL A   1      41.802  25.693  28.023  1.00  0.00     0.049 A 
ATOM     23  H   UNL A   1      42.562  27.412  28.918  1.00  0.00     0.167 HD
ATOM     24  C   UNL A   1      44.058  31.093  30.756  1.00  0.00     0.037 A 
ATOM     25  C   UNL A   1      42.823  24.823  27.914  1.00  0.00     0.037 A 
ATOM     26  C   UNL A   1      45.198  30.218  30.718  1.00  0.00     0.049 A 
ATOM     27  C   UNL A   1      44.180  25.209  28.439  1.00  0.00     0.074 A 
ATOM     28  C   UNL A   1      46.484  30.448  31.175  1.00  0.00     0.029 A 
ATOM     29  N   UNL A   1      45.181  28.931  30.200  1.00  0.00    -0.354 N 
ATOM     30  N   UNL A   1      44.563  26.327  29.007  1.00  0.00    -0.248 NA
ATOM     31  C   UNL A   1      45.243  24.202  28.318  1.00  0.00     0.031 C 
ATOM     32  C   UNL A   1      47.252  29.307  30.914  1.00  0.00     0.029 A 
ATOM     33  C   UNL A   1      46.434  28.355  30.327  1.00  0.00     0.049 A 
ATOM     34  H   UNL A   1      44.395  28.494  29.801  1.00  0.00     0.167 HD
ATOM     35  C   UNL A   1      45.900  26.147  29.334  1.00  0.00     0.074 A 
ATOM     36  C   UNL A   1      46.255  24.805  28.924  1.00  0.00     0.031 C 
ATOM     37  C   UNL A   1      46.764  27.015  29.917  1.00  0.00     0.037 A 
BRANCH  24  38
ATOM     38  C   UNL A   1      44.213  32.456  31.369  1.00  0.00     0.057 A 
ATOM     39  C   UNL A   1      44.001  32.661  32.738  1.00  0.00     0.134 A 
ATOM     40  C   UNL A   1      44.583  33.568  30.599  1.00  0.00     0.134 A 
ATOM     41  F   UNL A   1      43.642  31.641  33.532  1.00  0.00    -0.206 F 
ATOM     42  C   UNL A   1      44.157  33.921  33.319  1.00  0.00     0.040 A 
ATOM     43  C   UNL A   1      44.770  34.825  31.173  1.00  0.00     0.040 A 
ATOM     44  F   UNL A   1      44.820  33.436  29.285  1.00  0.00    -0.206 F 
ATOM     45  C   UNL A   1      44.553  35.005  32.538  1.00  0.00     0.006 A 
ENDBRANCH  24  38
BRANCH  25  46
ATOM     46  C   UNL A   1      42.609  23.486  27.307  1.00  0.00     0.057 A 
ATOM     47  C   UNL A   1      42.829  23.259  25.944  1.00  0.00     0.134 A 
ATOM     48  C   UNL A   1      42.224  22.389  28.089  1.00  0.00     0.134 A 
ATOM     49  F   UNL A   1      43.193  24.270  25.139  1.00  0.00    -0.206 F 
ATOM     50  C   UNL A   1      42.683  21.991  25.380  1.00  0.00     0.040 A 
ATOM     51  C   UNL A   1      42.099  21.110  27.544  1.00  0.00     0.040 A 
ATOM     52  F   UNL A   1      42.019  22.539  29.405  1.00  0.00    -0.206 F 
ATOM     53  C   UNL A   1      42.328  20.909  26.185  1.00  0.00     0.006 A 
ENDBRANCH  25  46
BRANCH  37  54
ATOM     54  C   UNL A   1      48.156  26.517  30.173  1.00  0.00     0.057 A 
ATOM     55  C   UNL A   1      48.474  25.876  31.377  1.00  0.00     0.134 A 
ATOM     56  C   UNL A   1      49.181  26.668  29.229  1.00  0.00     0.134 A 
ATOM     57  F   UNL A   1      47.542  25.708  32.327  1.00  0.00    -0.206 F 
ATOM     58  C   UNL A   1      49.759  25.393  31.628  1.00  0.00     0.040 A 
ATOM     59  C   UNL A   1      50.462  26.165  29.458  1.00  0.00     0.040 A 
ATOM     60  F   UNL A   1      48.936  27.261  28.049  1.00  0.00    -0.206 F 
ATOM     61  C   UNL A   1      50.754  25.528  30.662  1.00  0.00     0.006 A 
ENDBRANCH  37  54
ENDBRANCH  11  12
ENDBRANCH   4   6
ENDBRANCH   1   2
BRANCH   1  62
ATOM     62  C   UNL A   1      33.308  28.664  26.049  1.00  0.00     0.042 C 
BRANCH  62  63
ATOM     63  C   UNL A   1      32.203  27.726  25.585  1.00  0.00     0.118 C 
BRANCH  63  64
ATOM     64  N   UNL A   1      32.512  27.031  24.340  1.00  0.00    -0.352 N 
ATOM     65  C   UNL A   1      31.748  26.765  23.235  1.00  0.00     0.258 C 
ATOM     66  H   UNL A   1      33.435  26.694  24.284  1.00  0.00     0.163 HD
ATOM     67  O   UNL A   1      32.245  26.145  22.298  1.00  0.00    -0.269 OA
BRANCH  65  68
ATOM     68  C   UNL A   1      30.348  27.230  23.189  1.00  0.00     0.121 A 
ATOM     69  C   UNL A   1      30.038  28.334  22.496  1.00  0.00     0.116 A 
ATOM     70  C   UNL A   1      29.262  26.521  23.888  1.00  0.00     0.266 A 
ATOM     71  N   UNL A   1      28.797  28.948  22.574  1.00  0.00    -0.265 N 
ATOM     72  N   UNL A   1      28.019  27.074  23.757  1.00  0.00    -0.273 N 
ATOM     73  O   UNL A   1      29.446  25.535  24.597  1.00  0.00    -0.268 OA
ATOM     74  C   UNL A   1      27.724  28.299  23.208  1.00  0.00     0.333 A 
ATOM     75  H   UNL A   1      27.260  26.543  24.089  1.00  0.00     0.175 HD
ATOM     76  O   UNL A   1      26.582  28.740  23.306  1.00  0.00    -0.247 OA
BRANCH  71  77
ATOM     77  C   UNL A   1      28.636  30.306  22.127  1.00  0.00     0.092 A 
ATOM     78  C   UNL A   1      28.137  30.561  20.839  1.00  0.00     0.069 A 
ATOM     79  C   UNL A   1      28.842  31.398  22.981  1.00  0.00     0.183 A 
ATOM     80  C   UNL A   1      27.842  31.865  20.443  1.00  0.00     0.128 A 
ATOM     81  C   UNL A   1      28.570  32.698  22.556  1.00  0.00     0.163 A 
ATOM     82  F   UNL A   1      29.324  31.211  24.220  1.00  0.00    -0.201 F 
ATOM     83  F   UNL A   1      27.306  32.075  19.234  1.00  0.00    -0.207 F 
ATOM     84  C   UNL A   1      28.058  32.940  21.290  1.00  0.00     0.081 A 
ATOM     85  F   UNL A   1      28.783  33.729  23.383  1.00  0.00    -0.204 F 
ENDBRANCH  71  77
ENDBRANCH  65  68
ENDBRANCH  63  64
ENDBRANCH  62  63
ENDBRANCH   1  62
TORSDOF 11
ENDMDL
MODEL 3
REMARK VINA RESULT:     -12.3      4.440      7.845
REMARK SMILES O=C(NCCCNC(=O)c1cn(-c2cc(F)cc(F)c2F)c(=O)[nH]c1=O)c1ccc(-c2c3nc(c(-c4c(F)cccc4F)c4ccc([nH]4)c(-c4c(F)cccc4F)c4nc(c(-c5c(F)cccc5F)c5ccc2[nH]5)C=C4)C=C3)cc1
REMARK SMILES IDX 4 1 3 2 1 3 2 4 27 6 28 7 80 8 29 9 79 10 30 11 31 12 32 13
REMARK SMILES IDX 73 14 33 15 78 16 72 17 74 18 34 19 77 20 71 21 70 22 35 24
REMARK SMILES IDX 61 25 44 26 60 27 45 28 48 29 59 30 75 31 46 32 47 33 58 35
REMARK SMILES IDX 76 36 49 37 36 38 37 39 42 40 38 41 39 42 41 43 43 44 40 45
REMARK SMILES IDX 62 46 63 47 68 48 64 49 65 50 67 51 69 52 66 53 50 54 51 55
REMARK SMILES IDX 56 56 52 57 53 58 55 59 57 60 54 61 5 62 6 63 7 64 8 65 9 67
REMARK SMILES IDX 10 68 11 69 25 70 12 71 24 72 26 73 22 74 23 76 13 77 14 78
REMARK SMILES IDX 20 79 15 80 18 81 21 82 16 83 17 84 19 85
REMARK H PARENT 3 5 74 23 48 34 7 66 24 75
REMARK Flexibility Score: inf
ROOT
ATOM      1  C   UNL A   1      34.927  34.119  28.924  1.00  0.00     0.118 C 
ENDROOT
BRANCH   1   2
ATOM      2  N   UNL A   1      34.092  33.028  28.445  1.00  0.00    -0.352 N 
ATOM      3  O   UNL A   1      33.501  31.077  27.537  1.00  0.00    -0.269 OA
ATOM      4  C   UNL A   1      34.375  31.731  28.104  1.00  0.00     0.251 C 
ATOM      5  H   UNL A   1      33.143  33.267  28.347  1.00  0.00     0.163 HD
BRANCH   4   6
ATOM      6  C   UNL A   1      35.683  31.095  28.394  1.00  0.00     0.039 A 
ATOM      7  C   UNL A   1      35.688  29.764  28.833  1.00  0.00     0.014 A 
ATOM      8  C   UNL A   1      36.887  31.800  28.356  1.00  0.00     0.014 A 
ATOM      9  C   UNL A   1      36.883  29.150  29.221  1.00  0.00     0.010 A 
ATOM     10  C   UNL A   1      38.093  31.158  28.639  1.00  0.00     0.010 A 
ATOM     11  C   UNL A   1      38.100  29.843  29.124  1.00  0.00    -0.014 A 
BRANCH  11  12
ATOM     12  C   UNL A   1      39.361  29.252  29.644  1.00  0.00     0.031 A 
ATOM     13  C   UNL A   1      39.937  29.751  30.946  1.00  0.00     0.074 A 
ATOM     14  C   UNL A   1      39.995  28.281  28.960  1.00  0.00     0.049 A 
ATOM     15  N   UNL A   1      41.044  29.402  31.555  1.00  0.00    -0.248 NA
ATOM     16  C   UNL A   1      39.182  30.804  31.644  1.00  0.00     0.031 C 
ATOM     17  C   UNL A   1      39.568  27.730  27.674  1.00  0.00     0.029 A 
ATOM     18  N   UNL A   1      41.139  27.584  29.257  1.00  0.00    -0.354 N 
ATOM     19  C   UNL A   1      41.116  30.196  32.693  1.00  0.00     0.074 A 
ATOM     20  C   UNL A   1      39.987  31.098  32.652  1.00  0.00     0.031 C 
ATOM     21  C   UNL A   1      40.423  26.760  27.306  1.00  0.00     0.029 A 
ATOM     22  C   UNL A   1      41.471  26.641  28.316  1.00  0.00     0.049 A 
ATOM     23  H   UNL A   1      41.671  27.745  30.070  1.00  0.00     0.167 HD
ATOM     24  C   UNL A   1      42.014  30.158  33.706  1.00  0.00     0.037 A 
ATOM     25  C   UNL A   1      42.502  25.776  28.277  1.00  0.00     0.037 A 
ATOM     26  C   UNL A   1      43.124  29.246  33.770  1.00  0.00     0.049 A 
ATOM     27  C   UNL A   1      43.489  25.754  29.413  1.00  0.00     0.074 A 
ATOM     28  C   UNL A   1      44.086  29.118  34.758  1.00  0.00     0.029 A 
ATOM     29  N   UNL A   1      43.412  28.293  32.805  1.00  0.00    -0.354 N 
ATOM     30  N   UNL A   1      43.524  26.491  30.497  1.00  0.00    -0.248 NA
ATOM     31  C   UNL A   1      44.573  24.765  29.324  1.00  0.00     0.031 C 
ATOM     32  C   UNL A   1      44.969  28.100  34.379  1.00  0.00     0.029 A 
ATOM     33  C   UNL A   1      44.536  27.572  33.174  1.00  0.00     0.049 A 
ATOM     34  H   UNL A   1      42.895  28.151  31.980  1.00  0.00     0.167 HD
ATOM     35  C   UNL A   1      44.615  26.038  31.228  1.00  0.00     0.074 A 
ATOM     36  C   UNL A   1      45.199  24.947  30.477  1.00  0.00     0.031 C 
ATOM     37  C   UNL A   1      45.097  26.486  32.414  1.00  0.00     0.037 A 
BRANCH  24  38
ATOM     38  C   UNL A   1      41.807  31.125  34.837  1.00  0.00     0.057 A 
ATOM     39  C   UNL A   1      40.851  30.882  35.831  1.00  0.00     0.134 A 
ATOM     40  C   UNL A   1      42.566  32.299  34.945  1.00  0.00     0.134 A 
ATOM     41  F   UNL A   1      40.089  29.779  35.788  1.00  0.00    -0.206 F 
ATOM     42  C   UNL A   1      40.662  31.767  36.893  1.00  0.00     0.040 A 
ATOM     43  C   UNL A   1      42.407  33.178  36.017  1.00  0.00     0.040 A 
ATOM     44  F   UNL A   1      43.512  32.582  34.036  1.00  0.00    -0.206 F 
ATOM     45  C   UNL A   1      41.448  32.914  36.994  1.00  0.00     0.006 A 
ENDBRANCH  24  38
BRANCH  25  46
ATOM     46  C   UNL A   1      42.652  24.837  27.138  1.00  0.00     0.057 A 
ATOM     47  C   UNL A   1      43.476  25.136  26.048  1.00  0.00     0.134 A 
ATOM     48  C   UNL A   1      42.008  23.593  27.137  1.00  0.00     0.134 A 
ATOM     49  F   UNL A   1      44.115  26.314  25.985  1.00  0.00    -0.206 F 
ATOM     50  C   UNL A   1      43.663  24.231  25.002  1.00  0.00     0.040 A 
ATOM     51  C   UNL A   1      42.205  22.667  26.111  1.00  0.00     0.040 A 
ATOM     52  F   UNL A   1      41.221  23.240  28.165  1.00  0.00    -0.206 F 
ATOM     53  C   UNL A   1      43.035  22.986  25.038  1.00  0.00     0.006 A 
ENDBRANCH  25  46
BRANCH  37  54
ATOM     54  C   UNL A   1      46.288  25.767  32.976  1.00  0.00     0.057 A 
ATOM     55  C   UNL A   1      47.586  26.171  32.643  1.00  0.00     0.134 A 
ATOM     56  C   UNL A   1      46.151  24.679  33.849  1.00  0.00     0.134 A 
ATOM     57  F   UNL A   1      47.788  27.199  31.805  1.00  0.00    -0.206 F 
ATOM     58  C   UNL A   1      48.708  25.525  33.166  1.00  0.00     0.040 A 
ATOM     59  C   UNL A   1      47.265  24.043  34.399  1.00  0.00     0.040 A 
ATOM     60  F   UNL A   1      44.933  24.253  34.218  1.00  0.00    -0.206 F 
ATOM     61  C   UNL A   1      48.547  24.464  34.056  1.00  0.00     0.006 A 
ENDBRANCH  37  54
ENDBRANCH  11  12
ENDBRANCH   4   6
ENDBRANCH   1   2
BRANCH   1  62
ATOM     62  C   UNL A   1      34.287  35.485  28.717  1.00  0.00     0.042 C 
BRANCH  62  63
ATOM     63  C   UNL A   1      32.937  35.658  29.397  1.00  0.00     0.118 C 
BRANCH  63  64
ATOM     64  N   UNL A   1      32.877  36.809  30.291  1.00  0.00    -0.352 N 
ATOM     65  C   UNL A   1      33.283  36.974  31.588  1.00  0.00     0.258 C 
ATOM     66  H   UNL A   1      32.472  37.611  29.889  1.00  0.00     0.163 HD
ATOM     67  O   UNL A   1      33.114  38.060  32.136  1.00  0.00    -0.269 OA
BRANCH  65  68
ATOM     68  C   UNL A   1      33.918  35.848  32.300  1.00  0.00     0.121 A 
ATOM     69  C   UNL A   1      35.254  35.785  32.385  1.00  0.00     0.116 A 
ATOM     70  C   UNL A   1      33.132  34.771  32.927  1.00  0.00     0.266 A 
ATOM     71  N   UNL A   1      35.928  34.665  32.849  1.00  0.00    -0.265 N 
ATOM     72  N   UNL A   1      33.861  33.794  33.546  1.00  0.00    -0.273 N 
ATOM     73  O   UNL A   1      31.907  34.702  32.858  1.00  0.00    -0.268 OA
ATOM     74  C   UNL A   1      35.223  33.625  33.478  1.00  0.00     0.333 A 
ATOM     75  H   UNL A   1      33.361  33.148  34.094  1.00  0.00     0.175 HD
ATOM     76  O   UNL A   1      35.724  32.607  33.949  1.00  0.00    -0.247 OA
BRANCH  71  77
ATOM     77  C   UNL A   1      37.329  34.500  32.570  1.00  0.00     0.092 A 
ATOM     78  C   UNL A   1      37.757  34.299  31.247  1.00  0.00     0.069 A 
ATOM     79  C   UNL A   1      38.308  34.659  33.562  1.00  0.00     0.183 A 
ATOM     80  C   UNL A   1      39.117  34.280  30.942  1.00  0.00     0.128 A 
ATOM     81  C   UNL A   1      39.663  34.606  33.241  1.00  0.00     0.163 A 
ATOM     82  F   UNL A   1      37.954  34.847  34.843  1.00  0.00    -0.201 F 
ATOM     83  F   UNL A   1      39.499  34.152  29.665  1.00  0.00    -0.207 F 
ATOM     84  C   UNL A   1      40.078  34.428  31.930  1.00  0.00     0.081 A 
ATOM     85  F   UNL A   1      40.583  34.750  34.204  1.00  0.00    -0.204 F 
ENDBRANCH  71  77
ENDBRANCH  65  68
ENDBRANCH  63  64
ENDBRANCH  62  63
ENDBRANCH   1  62
TORSDOF 11
ENDMDL
