MODEL 1
REMARK VINA RESULT:     -11.8      0.000      0.000
REMARK SMILES CO[C@@H]1C[C@@H](C(=O)NCCCNC(=O)c2ccc(-c3c4nc(c(-c5c(F)cccc5F)c5ccc([nH]5)c(-c5c(F)cccc5F)c5nc(c(-c6c(F)cccc6F)c6ccc3[nH]6)C=C5)C=C4)cc2)N(C(=O)c2nc(C(C)C)n[nH]2)C1
REMARK SMILES IDX 9 1 8 2 6 3 7 4 5 6 3 7 4 8 80 9 69 10 2 11 1 12 70 13 71 14
REMARK SMILES IDX 72 15 73 16 79 17 74 18 78 19 75 21 76 22 77 23 10 24 11 25
REMARK SMILES IDX 12 26 13 27 14 29 15 30 16 31 68 32 17 33 67 34 18 35 19 36
REMARK SMILES IDX 20 37 61 38 21 39 66 40 60 41 62 42 22 43 65 44 59 45 58 46
REMARK SMILES IDX 23 48 49 49 32 50 48 51 33 52 36 53 47 54 63 55 34 56 35 57
REMARK SMILES IDX 46 59 64 60 37 61 24 62 25 63 30 64 26 65 27 66 29 67 31 68
REMARK SMILES IDX 28 69 50 70 51 71 56 72 52 73 53 74 55 75 57 76 54 77 38 78
REMARK SMILES IDX 39 79 44 80 40 81 41 82 43 83 45 84 42 85
REMARK H PARENT 8 5 79 20 12 28 62 47 36 58
REMARK Flexibility Score: inf
ROOT
ATOM      1  C   UNL A   1      36.252  20.187  24.919  1.00  0.00     0.117 C 
ENDROOT
BRANCH   1   2
ATOM      2  N   UNL A   1      36.439  21.463  25.572  1.00  0.00    -0.354 N 
ATOM      3  C   UNL A   1      35.921  22.702  25.427  1.00  0.00     0.242 C 
ATOM      4  O   UNL A   1      36.398  23.494  26.241  1.00  0.00    -0.273 OA
ATOM      5  H   UNL A   1      37.106  21.418  26.295  1.00  0.00     0.163 HD
BRANCH   3   6
ATOM      6  C   UNL A   1      34.725  23.090  24.522  1.00  0.00     0.177 C 
ATOM      7  C   UNL A   1      33.377  24.781  23.406  1.00  0.00     0.139 C 
ATOM      8  C   UNL A   1      34.711  24.574  24.110  1.00  0.00     0.069 C 
ATOM      9  C   UNL A   1      32.453  23.779  24.084  1.00  0.00     0.153 C 
ATOM     10  N   UNL A   1      33.300  22.940  24.940  1.00  0.00    -0.321 N 
BRANCH   7  11
ATOM     11  O   UNL A   1      33.441  24.696  21.981  1.00  0.00    -0.380 OA
ATOM     12  C   UNL A   1      32.874  25.745  21.211  1.00  0.00     0.195 C 
ENDBRANCH   7  11
BRANCH  10  13
ATOM     13  C   UNL A   1      32.608  21.959  25.661  1.00  0.00     0.291 C 
ATOM     14  O   UNL A   1      31.911  22.306  26.621  1.00  0.00    -0.265 OA
BRANCH  13  15
ATOM     15  C   UNL A   1      32.788  20.563  25.378  1.00  0.00     0.214 A 
ATOM     16  N   UNL A   1      32.638  19.999  24.195  1.00  0.00    -0.207 NA
ATOM     17  N   UNL A   1      32.931  19.578  26.315  1.00  0.00    -0.255 N 
ATOM     18  C   UNL A   1      32.776  18.659  24.464  1.00  0.00     0.153 A 
ATOM     19  N   UNL A   1      32.916  18.354  25.761  1.00  0.00    -0.158 NA
ATOM     20  H   UNL A   1      33.034  19.746  27.280  1.00  0.00     0.192 HD
BRANCH  18  21
ATOM     21  C   UNL A   1      32.718  17.619  23.396  1.00  0.00     0.053 C 
ATOM     22  C   UNL A   1      32.378  18.252  22.048  1.00  0.00     0.016 C 
ATOM     23  C   UNL A   1      34.025  16.829  23.306  1.00  0.00     0.016 C 
ENDBRANCH  18  21
ENDBRANCH  13  15
ENDBRANCH  10  13
ENDBRANCH   3   6
ENDBRANCH   1   2
BRANCH   1  24
ATOM     24  C   UNL A   1      37.553  19.392  24.873  1.00  0.00     0.042 C 
BRANCH  24  25
ATOM     25  C   UNL A   1      38.736  20.132  25.498  1.00  0.00     0.118 C 
BRANCH  25  26
ATOM     26  N   UNL A   1      39.881  19.259  25.698  1.00  0.00    -0.352 N 
ATOM     27  C   UNL A   1      41.170  19.559  26.037  1.00  0.00     0.251 C 
ATOM     28  H   UNL A   1      39.699  18.300  25.568  1.00  0.00     0.163 HD
ATOM     29  O   UNL A   1      42.045  18.700  25.896  1.00  0.00    -0.269 OA
BRANCH  27  30
ATOM     30  C   UNL A   1      41.527  20.886  26.573  1.00  0.00     0.039 A 
ATOM     31  C   UNL A   1      41.381  21.116  27.943  1.00  0.00     0.014 A 
ATOM     32  C   UNL A   1      41.935  21.924  25.727  1.00  0.00     0.014 A 
ATOM     33  C   UNL A   1      41.670  22.375  28.468  1.00  0.00     0.010 A 
ATOM     34  C   UNL A   1      42.292  23.159  26.262  1.00  0.00     0.010 A 
ATOM     35  C   UNL A   1      42.146  23.401  27.636  1.00  0.00    -0.014 A 
BRANCH  35  36
ATOM     36  C   UNL A   1      42.472  24.732  28.200  1.00  0.00     0.031 A 
ATOM     37  C   UNL A   1      43.892  25.079  28.558  1.00  0.00     0.074 A 
ATOM     38  C   UNL A   1      41.482  25.622  28.399  1.00  0.00     0.049 A 
ATOM     39  N   UNL A   1      44.369  26.197  29.046  1.00  0.00    -0.248 NA
ATOM     40  C   UNL A   1      44.904  24.028  28.368  1.00  0.00     0.031 C 
ATOM     41  C   UNL A   1      40.060  25.378  28.140  1.00  0.00     0.029 A 
ATOM     42  N   UNL A   1      41.519  26.914  28.855  1.00  0.00    -0.354 N 
ATOM     43  C   UNL A   1      45.731  25.982  29.218  1.00  0.00     0.074 A 
ATOM     44  C   UNL A   1      45.995  24.611  28.842  1.00  0.00     0.031 C 
ATOM     45  C   UNL A   1      39.367  26.496  28.410  1.00  0.00     0.029 A 
ATOM     46  C   UNL A   1      40.289  27.525  28.878  1.00  0.00     0.049 A 
ATOM     47  H   UNL A   1      42.349  27.361  29.140  1.00  0.00     0.167 HD
ATOM     48  C   UNL A   1      46.680  26.858  29.625  1.00  0.00     0.037 A 
ATOM     49  C   UNL A   1      39.948  28.779  29.227  1.00  0.00     0.037 A 
ATOM     50  C   UNL A   1      46.418  28.228  29.979  1.00  0.00     0.049 A 
ATOM     51  C   UNL A   1      41.027  29.736  29.649  1.00  0.00     0.074 A 
ATOM     52  C   UNL A   1      47.312  29.205  30.383  1.00  0.00     0.029 A 
ATOM     53  N   UNL A   1      45.162  28.819  29.960  1.00  0.00    -0.354 N 
ATOM     54  N   UNL A   1      42.318  29.533  29.757  1.00  0.00    -0.248 NA
ATOM     55  C   UNL A   1      40.603  31.103  29.981  1.00  0.00     0.031 C 
ATOM     56  C   UNL A   1      46.594  30.380  30.629  1.00  0.00     0.029 A 
ATOM     57  C   UNL A   1      45.259  30.146  30.344  1.00  0.00     0.049 A 
ATOM     58  H   UNL A   1      44.327  28.362  29.710  1.00  0.00     0.167 HD
ATOM     59  C   UNL A   1      42.863  30.751  30.142  1.00  0.00     0.074 A 
ATOM     60  C   UNL A   1      41.764  31.692  30.226  1.00  0.00     0.031 C 
ATOM     61  C   UNL A   1      44.153  31.064  30.411  1.00  0.00     0.037 A 
BRANCH  48  62
ATOM     62  C   UNL A   1      48.096  26.366  29.686  1.00  0.00     0.057 A 
ATOM     63  C   UNL A   1      48.967  26.508  28.597  1.00  0.00     0.134 A 
ATOM     64  C   UNL A   1      48.611  25.786  30.852  1.00  0.00     0.134 A 
ATOM     65  F   UNL A   1      48.533  27.043  27.445  1.00  0.00    -0.206 F 
ATOM     66  C   UNL A   1      50.293  26.078  28.659  1.00  0.00     0.040 A 
ATOM     67  C   UNL A   1      49.942  25.372  30.935  1.00  0.00     0.040 A 
ATOM     68  F   UNL A   1      47.833  25.623  31.932  1.00  0.00    -0.206 F 
ATOM     69  C   UNL A   1      50.786  25.515  29.835  1.00  0.00     0.006 A 
ENDBRANCH  48  62
BRANCH  49  70
ATOM     70  C   UNL A   1      38.533  29.218  29.157  1.00  0.00     0.057 A 
ATOM     71  C   UNL A   1      37.986  29.700  27.961  1.00  0.00     0.134 A 
ATOM     72  C   UNL A   1      37.705  29.199  30.284  1.00  0.00     0.134 A 
ATOM     73  F   UNL A   1      38.736  29.756  26.851  1.00  0.00    -0.206 F 
ATOM     74  C   UNL A   1      36.675  30.176  27.896  1.00  0.00     0.040 A 
ATOM     75  C   UNL A   1      36.384  29.649  30.227  1.00  0.00     0.040 A 
ATOM     76  F   UNL A   1      38.166  28.740  31.457  1.00  0.00    -0.206 F 
ATOM     77  C   UNL A   1      35.870  30.150  29.033  1.00  0.00     0.006 A 
ENDBRANCH  49  70
BRANCH  61  78
ATOM     78  C   UNL A   1      44.438  32.488  30.784  1.00  0.00     0.057 A 
ATOM     79  C   UNL A   1      44.374  32.929  32.113  1.00  0.00     0.134 A 
ATOM     80  C   UNL A   1      44.778  33.427  29.804  1.00  0.00     0.134 A 
ATOM     81  F   UNL A   1      44.039  32.079  33.095  1.00  0.00    -0.206 F 
ATOM     82  C   UNL A   1      44.605  34.264  32.448  1.00  0.00     0.040 A 
ATOM     83  C   UNL A   1      45.036  34.759  30.130  1.00  0.00     0.040 A 
ATOM     84  F   UNL A   1      44.864  33.067  28.514  1.00  0.00    -0.206 F 
ATOM     85  C   UNL A   1      44.940  35.182  31.454  1.00  0.00     0.006 A 
ENDBRANCH  61  78
ENDBRANCH  35  36
ENDBRANCH  27  30
ENDBRANCH  25  26
ENDBRANCH  24  25
ENDBRANCH   1  24
TORSDOF 14
ENDMDL
MODEL 2
REMARK VINA RESULT:     -11.8      4.647      9.527
REMARK SMILES CO[C@@H]1C[C@@H](C(=O)NCCCNC(=O)c2ccc(-c3c4nc(c(-c5c(F)cccc5F)c5ccc([nH]5)c(-c5c(F)cccc5F)c5nc(c(-c6c(F)cccc6F)c6ccc3[nH]6)C=C5)C=C4)cc2)N(C(=O)c2nc(C(C)C)n[nH]2)C1
REMARK SMILES IDX 9 1 8 2 6 3 7 4 5 6 3 7 4 8 80 9 69 10 2 11 1 12 70 13 71 14
REMARK SMILES IDX 72 15 73 16 79 17 74 18 78 19 75 21 76 22 77 23 10 24 11 25
REMARK SMILES IDX 12 26 13 27 14 29 15 30 16 31 68 32 17 33 67 34 18 35 19 36
REMARK SMILES IDX 20 37 61 38 21 39 66 40 60 41 62 42 22 43 65 44 59 45 58 46
REMARK SMILES IDX 23 48 49 49 32 50 48 51 33 52 36 53 47 54 63 55 34 56 35 57
REMARK SMILES IDX 46 59 64 60 37 61 24 62 25 63 30 64 26 65 27 66 29 67 31 68
REMARK SMILES IDX 28 69 50 70 51 71 56 72 52 73 53 74 55 75 57 76 54 77 38 78
REMARK SMILES IDX 39 79 44 80 40 81 41 82 43 83 45 84 42 85
REMARK H PARENT 8 5 79 20 12 28 62 47 36 58
REMARK Flexibility Score: inf
ROOT
ATOM      1  C   UNL A   1      31.154  30.576  25.480  1.00  0.00     0.117 C 
ENDROOT
BRANCH   1   2
ATOM      2  N   UNL A   1      32.507  30.069  25.528  1.00  0.00    -0.354 N 
ATOM      3  C   UNL A   1      33.073  28.846  25.610  1.00  0.00     0.242 C 
ATOM      4  O   UNL A   1      34.303  28.911  25.617  1.00  0.00    -0.273 OA
ATOM      5  H   UNL A   1      33.177  30.790  25.495  1.00  0.00     0.163 HD
BRANCH   3   6
ATOM      6  C   UNL A   1      32.333  27.490  25.493  1.00  0.00     0.177 C 
ATOM      7  C   UNL A   1      32.228  25.093  25.903  1.00  0.00     0.139 C 
ATOM      8  C   UNL A   1      32.979  26.354  26.308  1.00  0.00     0.069 C 
ATOM      9  C   UNL A   1      31.815  25.368  24.464  1.00  0.00     0.153 C 
ATOM     10  N   UNL A   1      32.134  26.775  24.197  1.00  0.00    -0.321 N 
BRANCH   7  11
ATOM     11  O   UNL A   1      31.171  24.723  26.790  1.00  0.00    -0.380 OA
ATOM     12  C   UNL A   1      30.522  23.477  26.592  1.00  0.00     0.195 C 
ENDBRANCH   7  11
BRANCH  10  13
ATOM     13  C   UNL A   1      31.829  27.205  22.899  1.00  0.00     0.291 C 
ATOM     14  O   UNL A   1      32.477  26.744  21.953  1.00  0.00    -0.265 OA
BRANCH  13  15
ATOM     15  C   UNL A   1      30.869  28.247  22.667  1.00  0.00     0.214 A 
ATOM     16  N   UNL A   1      29.605  28.216  23.041  1.00  0.00    -0.207 NA
ATOM     17  N   UNL A   1      31.055  29.325  21.848  1.00  0.00    -0.255 N 
ATOM     18  C   UNL A   1      29.081  29.353  22.476  1.00  0.00     0.153 A 
ATOM     19  N   UNL A   1      29.928  30.041  21.700  1.00  0.00    -0.158 NA
ATOM     20  H   UNL A   1      31.912  29.550  21.419  1.00  0.00     0.192 HD
BRANCH  18  21
ATOM     21  C   UNL A   1      27.658  29.758  22.668  1.00  0.00     0.053 C 
ATOM     22  C   UNL A   1      26.871  28.646  23.359  1.00  0.00     0.016 C 
ATOM     23  C   UNL A   1      27.544  31.066  23.453  1.00  0.00     0.016 C 
ENDBRANCH  18  21
ENDBRANCH  13  15
ENDBRANCH  10  13
ENDBRANCH   3   6
ENDBRANCH   1   2
BRANCH   1  24
ATOM     24  C   UNL A   1      31.049  31.941  26.153  1.00  0.00     0.042 C 
BRANCH  24  25
ATOM     25  C   UNL A   1      32.331  32.358  26.876  1.00  0.00     0.118 C 
BRANCH  25  26
ATOM     26  N   UNL A   1      32.259  33.726  27.366  1.00  0.00    -0.352 N 
ATOM     27  C   UNL A   1      33.004  34.360  28.320  1.00  0.00     0.251 C 
ATOM     28  H   UNL A   1      31.565  34.282  26.944  1.00  0.00     0.163 HD
ATOM     29  O   UNL A   1      32.609  35.438  28.773  1.00  0.00    -0.269 OA
BRANCH  27  30
ATOM     30  C   UNL A   1      34.269  33.781  28.809  1.00  0.00     0.039 A 
ATOM     31  C   UNL A   1      34.215  32.796  29.797  1.00  0.00     0.014 A 
ATOM     32  C   UNL A   1      35.506  34.252  28.354  1.00  0.00     0.014 A 
ATOM     33  C   UNL A   1      35.399  32.263  30.308  1.00  0.00     0.010 A 
ATOM     34  C   UNL A   1      36.685  33.668  28.812  1.00  0.00     0.010 A 
ATOM     35  C   UNL A   1      36.642  32.681  29.806  1.00  0.00    -0.014 A 
BRANCH  35  36
ATOM     36  C   UNL A   1      37.898  32.098  30.336  1.00  0.00     0.031 A 
ATOM     37  C   UNL A   1      38.547  32.678  31.563  1.00  0.00     0.074 A 
ATOM     38  C   UNL A   1      38.458  31.053  29.697  1.00  0.00     0.049 A 
ATOM     39  N   UNL A   1      39.636  32.292  32.180  1.00  0.00    -0.248 NA
ATOM     40  C   UNL A   1      37.905  33.858  32.163  1.00  0.00     0.031 C 
ATOM     41  C   UNL A   1      37.949  30.442  28.467  1.00  0.00     0.029 A 
ATOM     42  N   UNL A   1      39.572  30.314  29.999  1.00  0.00    -0.354 N 
ATOM     43  C   UNL A   1      39.806  33.179  33.236  1.00  0.00     0.074 A 
ATOM     44  C   UNL A   1      38.746  34.158  33.142  1.00  0.00     0.031 C 
ATOM     45  C   UNL A   1      38.730  29.400  28.139  1.00  0.00     0.029 A 
ATOM     46  C   UNL A   1      39.802  29.284  29.121  1.00  0.00     0.049 A 
ATOM     47  H   UNL A   1      40.153  30.505  30.772  1.00  0.00     0.167 HD
ATOM     48  C   UNL A   1      40.744  33.161  34.212  1.00  0.00     0.037 A 
ATOM     49  C   UNL A   1      40.765  28.344  29.118  1.00  0.00     0.037 A 
ATOM     50  C   UNL A   1      41.786  32.174  34.315  1.00  0.00     0.049 A 
ATOM     51  C   UNL A   1      41.776  28.333  30.230  1.00  0.00     0.074 A 
ATOM     52  C   UNL A   1      42.773  32.053  35.278  1.00  0.00     0.029 A 
ATOM     53  N   UNL A   1      41.968  31.127  33.423  1.00  0.00    -0.354 N 
ATOM     54  N   UNL A   1      41.892  29.148  31.251  1.00  0.00    -0.248 NA
ATOM     55  C   UNL A   1      42.781  27.261  30.198  1.00  0.00     0.031 C 
ATOM     56  C   UNL A   1      43.565  30.946  34.957  1.00  0.00     0.029 A 
ATOM     57  C   UNL A   1      43.050  30.356  33.814  1.00  0.00     0.049 A 
ATOM     58  H   UNL A   1      41.410  30.957  32.631  1.00  0.00     0.167 HD
ATOM     59  C   UNL A   1      42.963  28.672  31.996  1.00  0.00     0.074 A 
ATOM     60  C   UNL A   1      43.446  27.484  31.321  1.00  0.00     0.031 C 
ATOM     61  C   UNL A   1      43.505  29.174  33.131  1.00  0.00     0.037 A 
BRANCH  48  62
ATOM     62  C   UNL A   1      40.670  34.231  35.263  1.00  0.00     0.057 A 
ATOM     63  C   UNL A   1      41.300  35.471  35.090  1.00  0.00     0.134 A 
ATOM     64  C   UNL A   1      39.929  34.042  36.435  1.00  0.00     0.134 A 
ATOM     65  F   UNL A   1      42.038  35.710  33.994  1.00  0.00    -0.206 F 
ATOM     66  C   UNL A   1      41.210  36.478  36.051  1.00  0.00     0.040 A 
ATOM     67  C   UNL A   1      39.812  35.050  37.395  1.00  0.00     0.040 A 
ATOM     68  F   UNL A   1      39.298  32.881  36.663  1.00  0.00    -0.206 F 
ATOM     69  C   UNL A   1      40.456  36.271  37.205  1.00  0.00     0.006 A 
ENDBRANCH  48  62
BRANCH  49  70
ATOM     70  C   UNL A   1      40.801  27.310  28.055  1.00  0.00     0.057 A 
ATOM     71  C   UNL A   1      41.557  27.498  26.891  1.00  0.00     0.134 A 
ATOM     72  C   UNL A   1      40.060  26.128  28.159  1.00  0.00     0.134 A 
ATOM     73  F   UNL A   1      42.276  28.618  26.727  1.00  0.00    -0.206 F 
ATOM     74  C   UNL A   1      41.550  26.563  25.855  1.00  0.00     0.040 A 
ATOM     75  C   UNL A   1      40.064  25.171  27.141  1.00  0.00     0.040 A 
ATOM     76  F   UNL A   1      39.324  25.883  29.253  1.00  0.00    -0.206 F 
ATOM     77  C   UNL A   1      40.801  25.394  25.980  1.00  0.00     0.006 A 
ENDBRANCH  49  70
BRANCH  61  78
ATOM     78  C   UNL A   1      44.655  28.415  33.723  1.00  0.00     0.057 A 
ATOM     79  C   UNL A   1      44.456  27.349  34.611  1.00  0.00     0.134 A 
ATOM     80  C   UNL A   1      45.974  28.756  33.403  1.00  0.00     0.134 A 
ATOM     81  F   UNL A   1      43.216  26.985  34.968  1.00  0.00    -0.206 F 
ATOM     82  C   UNL A   1      45.532  26.672  35.187  1.00  0.00     0.040 A 
ATOM     83  C   UNL A   1      47.058  28.070  33.952  1.00  0.00     0.040 A 
ATOM     84  F   UNL A   1      46.232  29.762  32.553  1.00  0.00    -0.206 F 
ATOM     85  C   UNL A   1      46.837  27.031  34.855  1.00  0.00     0.006 A 
ENDBRANCH  61  78
ENDBRANCH  35  36
ENDBRANCH  27  30
ENDBRANCH  25  26
ENDBRANCH  24  25
ENDBRANCH   1  24
TORSDOF 14
ENDMDL
MODEL 3
REMARK VINA RESULT:     -11.3      4.644      9.459
REMARK SMILES CO[C@@H]1C[C@@H](C(=O)NCCCNC(=O)c2ccc(-c3c4nc(c(-c5c(F)cccc5F)c5ccc([nH]5)c(-c5c(F)cccc5F)c5nc(c(-c6c(F)cccc6F)c6ccc3[nH]6)C=C5)C=C4)cc2)N(C(=O)c2nc(C(C)C)n[nH]2)C1
REMARK SMILES IDX 9 1 8 2 6 3 7 4 5 6 3 7 4 8 80 9 69 10 2 11 1 12 70 13 71 14
REMARK SMILES IDX 72 15 73 16 79 17 74 18 78 19 75 21 76 22 77 23 10 24 11 25
REMARK SMILES IDX 12 26 13 27 14 29 15 30 16 31 68 32 17 33 67 34 18 35 19 36
REMARK SMILES IDX 20 37 61 38 21 39 66 40 60 41 62 42 22 43 65 44 59 45 58 46
REMARK SMILES IDX 23 48 49 49 32 50 48 51 33 52 36 53 47 54 63 55 34 56 35 57
REMARK SMILES IDX 46 59 64 60 37 61 24 62 25 63 30 64 26 65 27 66 29 67 31 68
REMARK SMILES IDX 28 69 50 70 51 71 56 72 52 73 53 74 55 75 57 76 54 77 38 78
REMARK SMILES IDX 39 79 44 80 40 81 41 82 43 83 45 84 42 85
REMARK H PARENT 8 5 79 20 12 28 62 47 36 58
REMARK Flexibility Score: inf
ROOT
ATOM      1  C   UNL A   1      31.303  31.067  26.111  1.00  0.00     0.117 C 
ENDROOT
BRANCH   1   2
ATOM      2  N   UNL A   1      32.384  30.286  26.668  1.00  0.00    -0.354 N 
ATOM      3  C   UNL A   1      32.718  28.978  26.682  1.00  0.00     0.242 C 
ATOM      4  O   UNL A   1      33.765  28.780  27.299  1.00  0.00    -0.273 OA
ATOM      5  H   UNL A   1      33.033  30.844  27.156  1.00  0.00     0.163 HD
BRANCH   3   6
ATOM      6  C   UNL A   1      32.033  27.854  25.866  1.00  0.00     0.177 C 
ATOM      7  C   UNL A   1      31.812  25.505  25.268  1.00  0.00     0.139 C 
ATOM      8  C   UNL A   1      32.429  26.432  26.306  1.00  0.00     0.069 C 
ATOM      9  C   UNL A   1      31.806  26.342  23.997  1.00  0.00     0.153 C 
ATOM     10  N   UNL A   1      32.189  27.703  24.388  1.00  0.00    -0.321 N 
BRANCH   7  11
ATOM     11  O   UNL A   1      30.553  24.947  25.648  1.00  0.00    -0.380 OA
ATOM     12  C   UNL A   1      30.530  23.658  26.241  1.00  0.00     0.195 C 
ENDBRANCH   7  11
BRANCH  10  13
ATOM     13  C   UNL A   1      32.250  28.618  23.330  1.00  0.00     0.291 C 
ATOM     14  O   UNL A   1      33.358  28.959  22.901  1.00  0.00    -0.265 OA
BRANCH  13  15
ATOM     15  C   UNL A   1      31.064  29.247  22.822  1.00  0.00     0.214 A 
ATOM     16  N   UNL A   1      29.877  29.213  23.396  1.00  0.00    -0.207 NA
ATOM     17  N   UNL A   1      30.929  29.791  21.576  1.00  0.00    -0.255 N 
ATOM     18  C   UNL A   1      29.063  29.825  22.475  1.00  0.00     0.153 A 
ATOM     19  N   UNL A   1      29.661  30.158  21.324  1.00  0.00    -0.158 NA
ATOM     20  H   UNL A   1      31.672  29.902  20.939  1.00  0.00     0.192 HD
BRANCH  18  21
ATOM     21  C   UNL A   1      27.608  30.049  22.718  1.00  0.00     0.053 C 
ATOM     22  C   UNL A   1      26.942  28.767  23.215  1.00  0.00     0.016 C 
ATOM     23  C   UNL A   1      27.370  31.196  23.702  1.00  0.00     0.016 C 
ENDBRANCH  18  21
ENDBRANCH  13  15
ENDBRANCH  10  13
ENDBRANCH   3   6
ENDBRANCH   1   2
BRANCH   1  24
ATOM     24  C   UNL A   1      31.387  32.525  26.550  1.00  0.00     0.042 C 
BRANCH  24  25
ATOM     25  C   UNL A   1      32.584  32.814  27.457  1.00  0.00     0.118 C 
BRANCH  25  26
ATOM     26  N   UNL A   1      32.619  34.203  27.886  1.00  0.00    -0.352 N 
ATOM     27  C   UNL A   1      33.438  34.828  28.785  1.00  0.00     0.251 C 
ATOM     28  H   UNL A   1      31.947  34.785  27.463  1.00  0.00     0.163 HD
ATOM     29  O   UNL A   1      33.130  35.949  29.201  1.00  0.00    -0.269 OA
BRANCH  27  30
ATOM     30  C   UNL A   1      34.680  34.187  29.256  1.00  0.00     0.039 A 
ATOM     31  C   UNL A   1      34.635  33.420  30.422  1.00  0.00     0.014 A 
ATOM     32  C   UNL A   1      35.898  34.397  28.600  1.00  0.00     0.014 A 
ATOM     33  C   UNL A   1      35.805  32.840  30.913  1.00  0.00     0.010 A 
ATOM     34  C   UNL A   1      37.051  33.759  29.051  1.00  0.00     0.010 A 
ATOM     35  C   UNL A   1      37.018  32.989  30.222  1.00  0.00    -0.014 A 
BRANCH  35  36
ATOM     36  C   UNL A   1      38.256  32.355  30.735  1.00  0.00     0.031 A 
ATOM     37  C   UNL A   1      38.750  31.063  30.142  1.00  0.00     0.074 A 
ATOM     38  C   UNL A   1      38.924  32.941  31.746  1.00  0.00     0.049 A 
ATOM     39  N   UNL A   1      39.819  30.371  30.448  1.00  0.00    -0.248 NA
ATOM     40  C   UNL A   1      37.927  30.457  29.083  1.00  0.00     0.031 C 
ATOM     41  C   UNL A   1      38.510  34.165  32.437  1.00  0.00     0.029 A 
ATOM     42  N   UNL A   1      40.097  32.592  32.363  1.00  0.00    -0.354 N 
ATOM     43  C   UNL A   1      39.794  29.254  29.624  1.00  0.00     0.074 A 
ATOM     44  C   UNL A   1      38.577  29.327  28.846  1.00  0.00     0.031 C 
ATOM     45  C   UNL A   1      39.433  34.482  33.359  1.00  0.00     0.029 A 
ATOM     46  C   UNL A   1      40.490  33.476  33.337  1.00  0.00     0.049 A 
ATOM     47  H   UNL A   1      40.609  31.784  32.129  1.00  0.00     0.167 HD
ATOM     48  C   UNL A   1      40.719  28.271  29.503  1.00  0.00     0.037 A 
ATOM     49  C   UNL A   1      41.586  33.479  34.117  1.00  0.00     0.037 A 
ATOM     50  C   UNL A   1      41.940  28.212  30.264  1.00  0.00     0.049 A 
ATOM     51  C   UNL A   1      42.607  32.391  33.942  1.00  0.00     0.074 A 
ATOM     52  C   UNL A   1      42.953  27.271  30.202  1.00  0.00     0.029 A 
ATOM     53  N   UNL A   1      42.316  29.144  31.220  1.00  0.00    -0.354 N 
ATOM     54  N   UNL A   1      42.595  31.369  33.120  1.00  0.00    -0.248 NA
ATOM     55  C   UNL A   1      43.803  32.465  34.793  1.00  0.00     0.031 C 
ATOM     56  C   UNL A   1      43.933  27.621  31.137  1.00  0.00     0.029 A 
ATOM     57  C   UNL A   1      43.547  28.800  31.755  1.00  0.00     0.049 A 
ATOM     58  H   UNL A   1      41.788  29.932  31.479  1.00  0.00     0.167 HD
ATOM     59  C   UNL A   1      43.790  30.696  33.335  1.00  0.00     0.074 A 
ATOM     60  C   UNL A   1      44.513  31.439  34.347  1.00  0.00     0.031 C 
ATOM     61  C   UNL A   1      44.249  29.561  32.755  1.00  0.00     0.037 A 
BRANCH  48  62
ATOM     62  C   UNL A   1      40.455  27.192  28.495  1.00  0.00     0.057 A 
ATOM     63  C   UNL A   1      39.575  26.136  28.767  1.00  0.00     0.134 A 
ATOM     64  C   UNL A   1      41.045  27.229  27.226  1.00  0.00     0.134 A 
ATOM     65  F   UNL A   1      38.987  26.035  29.970  1.00  0.00    -0.206 F 
ATOM     66  C   UNL A   1      39.304  25.146  27.821  1.00  0.00     0.040 A 
ATOM     67  C   UNL A   1      40.766  26.258  26.262  1.00  0.00     0.040 A 
ATOM     68  F   UNL A   1      41.894  28.214  26.897  1.00  0.00    -0.206 F 
ATOM     69  C   UNL A   1      39.895  25.210  26.561  1.00  0.00     0.006 A 
ENDBRANCH  48  62
BRANCH  49  70
ATOM     70  C   UNL A   1      41.801  34.565  35.105  1.00  0.00     0.057 A 
ATOM     71  C   UNL A   1      42.469  35.743  34.749  1.00  0.00     0.134 A 
ATOM     72  C   UNL A   1      41.375  34.440  36.432  1.00  0.00     0.134 A 
ATOM     73  F   UNL A   1      42.914  35.913  33.496  1.00  0.00    -0.206 F 
ATOM     74  C   UNL A   1      42.734  36.745  35.684  1.00  0.00     0.040 A 
ATOM     75  C   UNL A   1      41.611  35.446  37.372  1.00  0.00     0.040 A 
ATOM     76  F   UNL A   1      40.720  33.341  36.834  1.00  0.00    -0.206 F 
ATOM     77  C   UNL A   1      42.303  36.597  37.001  1.00  0.00     0.006 A 
ENDBRANCH  49  70
BRANCH  61  78
ATOM     78  C   UNL A   1      45.605  29.084  33.181  1.00  0.00     0.057 A 
ATOM     79  C   UNL A   1      46.772  29.504  32.530  1.00  0.00     0.134 A 
ATOM     80  C   UNL A   1      45.743  28.194  34.253  1.00  0.00     0.134 A 
ATOM     81  F   UNL A   1      46.704  30.344  31.487  1.00  0.00    -0.206 F 
ATOM     82  C   UNL A   1      48.028  29.027  32.909  1.00  0.00     0.040 A 
ATOM     83  C   UNL A   1      46.995  27.731  34.657  1.00  0.00     0.040 A 
ATOM     84  F   UNL A   1      44.664  27.761  34.923  1.00  0.00    -0.206 F 
ATOM     85  C   UNL A   1      48.141  28.140  33.978  1.00  0.00     0.006 A 
ENDBRANCH  61  78
ENDBRANCH  35  36
ENDBRANCH  27  30
ENDBRANCH  25  26
ENDBRANCH  24  25
ENDBRANCH   1  24
TORSDOF 14
ENDMDL
