MODEL 1
REMARK VINA RESULT:     -12.0      0.000      0.000
REMARK SMILES Cc1n[nH]c(C[N@H+]2CCC[C@H](c3cccc(C(=O)NCCCNC(=O)c4ccc(-c5c6nc(c(-c7c(F)cccc7F)c7ccc([nH]7)c(-c7c(F)cccc7F)c7nc(c(-c8c(F)cccc8F)c8ccc5[nH]8)C=C7)C=C6)cc4)c3)C2)n1
REMARK SMILES IDX 20 1 19 2 17 3 18 4 16 6 12 7 13 8 80 9 14 10 15 11 11 12
REMARK SMILES IDX 7 13 8 14 81 15 9 17 10 18 6 19 5 20 1 21 2 22 3 23 82 24
REMARK SMILES IDX 4 25 21 27 22 28 23 29 24 30 25 32 26 33 27 34 79 35 28 36
REMARK SMILES IDX 78 37 29 38 30 39 31 40 72 41 32 42 77 43 71 44 73 45 33 46
REMARK SMILES IDX 76 47 70 48 69 49 34 51 60 52 43 53 59 54 44 55 47 56 58 57
REMARK SMILES IDX 74 58 45 59 46 60 57 62 75 63 48 64 35 65 36 66 41 67 37 68
REMARK SMILES IDX 38 69 40 70 42 71 39 72 61 73 62 74 67 75 63 76 64 77 66 78
REMARK SMILES IDX 68 79 65 80 49 81 50 82 55 83 51 84 52 85 54 86 56 87 53 88
REMARK H PARENT 19 5 7 16 4 26 23 31 73 50 47 61
REMARK Flexibility Score: inf
ROOT
ATOM      1  C   UNL A   1      39.664  20.092  25.510  1.00  0.00     0.118 C 
ENDROOT
BRANCH   1   2
ATOM      2  N   UNL A   1      39.597  21.428  26.087  1.00  0.00    -0.352 N 
ATOM      3  C   UNL A   1      38.628  22.405  26.108  1.00  0.00     0.251 C 
ATOM      4  O   UNL A   1      38.854  23.392  26.810  1.00  0.00    -0.269 OA
ATOM      5  H   UNL A   1      40.419  21.686  26.563  1.00  0.00     0.163 HD
BRANCH   3   6
ATOM      6  C   UNL A   1      37.338  22.337  25.356  1.00  0.00     0.040 A 
ATOM      7  C   UNL A   1      34.968  21.722  25.138  1.00  0.00    -0.039 A 
ATOM      8  C   UNL A   1      34.948  22.295  23.865  1.00  0.00     0.004 A 
ATOM      9  C   UNL A   1      36.188  21.711  25.831  1.00  0.00     0.018 A 
ATOM     10  C   UNL A   1      36.101  22.876  23.332  1.00  0.00     0.001 A 
ATOM     11  C   UNL A   1      37.281  22.913  24.080  1.00  0.00     0.014 A 
BRANCH   7  12
ATOM     12  C   UNL A   1      33.768  21.077  25.824  1.00  0.00     0.074 C 
ATOM     13  N   UNL A   1      31.969  22.782  25.448  1.00  0.00    -0.328 N 
ATOM     14  C   UNL A   1      31.885  23.087  26.880  1.00  0.00     0.262 C 
ATOM     15  C   UNL A   1      32.390  21.385  25.214  1.00  0.00     0.270 C 
ATOM     16  H   UNL A   1      32.692  23.394  25.070  1.00  0.00     0.348 HD
ATOM     17  C   UNL A   1      33.212  22.818  27.592  1.00  0.00     0.062 C 
ATOM     18  C   UNL A   1      33.699  21.393  27.339  1.00  0.00     0.020 C 
BRANCH  13  19
ATOM     19  C   UNL A   1      30.731  23.106  24.713  1.00  0.00     0.340 C 
BRANCH  19  20
ATOM     20  C   UNL A   1      30.864  24.240  23.754  1.00  0.00     0.179 A 
ATOM     21  C   UNL A   1      30.680  27.581  22.663  1.00  0.00     0.092 C 
ATOM     22  C   UNL A   1      30.910  26.133  22.832  1.00  0.00     0.147 A 
ATOM     23  N   UNL A   1      31.785  25.431  22.103  1.00  0.00    -0.159 NA
ATOM     24  N   UNL A   1      30.284  25.422  23.816  1.00  0.00    -0.211 NA
ATOM     25  N   UNL A   1      31.721  24.226  22.693  1.00  0.00    -0.258 N 
ATOM     26  H   UNL A   1      32.227  23.435  22.398  1.00  0.00     0.192 HD
ENDBRANCH  19  20
ENDBRANCH  13  19
ENDBRANCH   7  12
ENDBRANCH   3   6
ENDBRANCH   1   2
BRANCH   1  27
ATOM     27  C   UNL A   1      40.769  19.227  26.137  1.00  0.00     0.042 C 
BRANCH  27  28
ATOM     28  C   UNL A   1      42.009  20.031  26.495  1.00  0.00     0.118 C 
BRANCH  28  29
ATOM     29  N   UNL A   1      43.123  19.733  25.595  1.00  0.00    -0.352 N 
ATOM     30  C   UNL A   1      43.976  20.594  24.934  1.00  0.00     0.251 C 
ATOM     31  H   UNL A   1      43.289  18.775  25.436  1.00  0.00     0.163 HD
ATOM     32  O   UNL A   1      44.644  20.206  23.993  1.00  0.00    -0.269 OA
BRANCH  30  33
ATOM     33  C   UNL A   1      44.049  21.998  25.373  1.00  0.00     0.039 A 
ATOM     34  C   UNL A   1      43.294  22.977  24.722  1.00  0.00     0.014 A 
ATOM     35  C   UNL A   1      44.840  22.317  26.473  1.00  0.00     0.014 A 
ATOM     36  C   UNL A   1      43.256  24.260  25.259  1.00  0.00     0.010 A 
ATOM     37  C   UNL A   1      44.688  23.538  27.083  1.00  0.00     0.010 A 
ATOM     38  C   UNL A   1      43.925  24.524  26.465  1.00  0.00    -0.014 A 
BRANCH  38  39
ATOM     39  C   UNL A   1      43.698  25.784  27.168  1.00  0.00     0.031 A 
ATOM     40  C   UNL A   1      44.659  26.867  26.813  1.00  0.00     0.074 A 
ATOM     41  C   UNL A   1      42.596  26.039  27.904  1.00  0.00     0.049 A 
ATOM     42  N   UNL A   1      45.547  27.409  27.576  1.00  0.00    -0.248 NA
ATOM     43  C   UNL A   1      44.740  27.302  25.408  1.00  0.00     0.031 C 
ATOM     44  C   UNL A   1      41.415  25.190  28.093  1.00  0.00     0.029 A 
ATOM     45  N   UNL A   1      42.248  27.180  28.561  1.00  0.00    -0.354 N 
ATOM     46  C   UNL A   1      46.158  28.404  26.815  1.00  0.00     0.074 A 
ATOM     47  C   UNL A   1      45.760  28.163  25.454  1.00  0.00     0.031 C 
ATOM     48  C   UNL A   1      40.404  25.926  28.603  1.00  0.00     0.029 A 
ATOM     49  C   UNL A   1      40.908  27.247  28.930  1.00  0.00     0.049 A 
ATOM     50  H   UNL A   1      42.891  27.898  28.760  1.00  0.00     0.167 HD
ATOM     51  C   UNL A   1      46.731  29.485  27.414  1.00  0.00     0.037 A 
ATOM     52  C   UNL A   1      40.257  28.320  29.445  1.00  0.00     0.037 A 
ATOM     53  C   UNL A   1      46.939  29.241  28.822  1.00  0.00     0.049 A 
ATOM     54  C   UNL A   1      41.288  29.239  29.985  1.00  0.00     0.074 A 
ATOM     55  C   UNL A   1      47.623  28.290  29.556  1.00  0.00     0.029 A 
ATOM     56  N   UNL A   1      46.068  29.834  29.704  1.00  0.00    -0.354 N 
ATOM     57  N   UNL A   1      42.005  28.985  31.041  1.00  0.00    -0.248 NA
ATOM     58  C   UNL A   1      41.829  30.252  29.091  1.00  0.00     0.031 C 
ATOM     59  C   UNL A   1      46.790  28.028  30.683  1.00  0.00     0.029 A 
ATOM     60  C   UNL A   1      45.691  28.885  30.615  1.00  0.00     0.049 A 
ATOM     61  H   UNL A   1      45.769  30.772  29.683  1.00  0.00     0.167 HD
ATOM     62  C   UNL A   1      43.274  29.441  30.717  1.00  0.00     0.074 A 
ATOM     63  C   UNL A   1      43.080  30.308  29.555  1.00  0.00     0.031 C 
ATOM     64  C   UNL A   1      44.386  28.840  31.229  1.00  0.00     0.037 A 
BRANCH  51  65
ATOM     65  C   UNL A   1      46.724  30.891  26.851  1.00  0.00     0.057 A 
ATOM     66  C   UNL A   1      47.920  31.637  26.877  1.00  0.00     0.134 A 
ATOM     67  C   UNL A   1      45.563  31.644  26.587  1.00  0.00     0.134 A 
ATOM     68  F   UNL A   1      49.100  31.041  27.109  1.00  0.00    -0.206 F 
ATOM     69  C   UNL A   1      47.942  33.032  26.766  1.00  0.00     0.040 A 
ATOM     70  C   UNL A   1      45.581  33.032  26.422  1.00  0.00     0.040 A 
ATOM     71  F   UNL A   1      44.340  31.107  26.570  1.00  0.00    -0.206 F 
ATOM     72  C   UNL A   1      46.766  33.737  26.552  1.00  0.00     0.006 A 
ENDBRANCH  51  65
BRANCH  52  73
ATOM     73  C   UNL A   1      38.837  28.724  29.315  1.00  0.00     0.057 A 
ATOM     74  C   UNL A   1      37.996  28.769  30.437  1.00  0.00     0.134 A 
ATOM     75  C   UNL A   1      38.344  29.345  28.155  1.00  0.00     0.134 A 
ATOM     76  F   UNL A   1      38.383  28.228  31.603  1.00  0.00    -0.206 F 
ATOM     77  C   UNL A   1      36.761  29.430  30.422  1.00  0.00     0.040 A 
ATOM     78  C   UNL A   1      37.109  30.002  28.122  1.00  0.00     0.040 A 
ATOM     79  F   UNL A   1      39.083  29.417  27.038  1.00  0.00    -0.206 F 
ATOM     80  C   UNL A   1      36.321  30.064  29.265  1.00  0.00     0.006 A 
ENDBRANCH  52  73
BRANCH  64  81
ATOM     81  C   UNL A   1      44.207  27.873  32.367  1.00  0.00     0.057 A 
ATOM     82  C   UNL A   1      44.050  26.486  32.215  1.00  0.00     0.134 A 
ATOM     83  C   UNL A   1      44.351  28.352  33.675  1.00  0.00     0.134 A 
ATOM     84  F   UNL A   1      44.004  25.918  31.005  1.00  0.00    -0.206 F 
ATOM     85  C   UNL A   1      43.991  25.626  33.316  1.00  0.00     0.040 A 
ATOM     86  C   UNL A   1      44.331  27.499  34.780  1.00  0.00     0.040 A 
ATOM     87  F   UNL A   1      44.561  29.659  33.896  1.00  0.00    -0.206 F 
ATOM     88  C   UNL A   1      44.140  26.132  34.603  1.00  0.00     0.006 A 
ENDBRANCH  64  81
ENDBRANCH  38  39
ENDBRANCH  30  33
ENDBRANCH  28  29
ENDBRANCH  27  28
ENDBRANCH   1  27
TORSDOF 13
ENDMDL
MODEL 2
REMARK VINA RESULT:     -11.9      3.044      7.600
REMARK SMILES Cc1n[nH]c(C[N@H+]2CCC[C@H](c3cccc(C(=O)NCCCNC(=O)c4ccc(-c5c6nc(c(-c7c(F)cccc7F)c7ccc([nH]7)c(-c7c(F)cccc7F)c7nc(c(-c8c(F)cccc8F)c8ccc5[nH]8)C=C7)C=C6)cc4)c3)C2)n1
REMARK SMILES IDX 20 1 19 2 17 3 18 4 16 6 12 7 13 8 80 9 14 10 15 11 11 12
REMARK SMILES IDX 7 13 8 14 81 15 9 17 10 18 6 19 5 20 1 21 2 22 3 23 82 24
REMARK SMILES IDX 4 25 21 27 22 28 23 29 24 30 25 32 26 33 27 34 79 35 28 36
REMARK SMILES IDX 78 37 29 38 30 39 31 40 72 41 32 42 77 43 71 44 73 45 33 46
REMARK SMILES IDX 76 47 70 48 69 49 34 51 60 52 43 53 59 54 44 55 47 56 58 57
REMARK SMILES IDX 74 58 45 59 46 60 57 62 75 63 48 64 35 65 36 66 41 67 37 68
REMARK SMILES IDX 38 69 40 70 42 71 39 72 61 73 62 74 67 75 63 76 64 77 66 78
REMARK SMILES IDX 68 79 65 80 49 81 50 82 55 83 51 84 52 85 54 86 56 87 53 88
REMARK H PARENT 19 5 7 16 4 26 23 31 73 50 47 61
REMARK Flexibility Score: inf
ROOT
ATOM      1  C   UNL A   1      32.729  30.085  26.878  1.00  0.00     0.118 C 
ENDROOT
BRANCH   1   2
ATOM      2  N   UNL A   1      31.815  30.001  25.747  1.00  0.00    -0.352 N 
ATOM      3  C   UNL A   1      31.493  28.999  24.861  1.00  0.00     0.251 C 
ATOM      4  O   UNL A   1      30.565  29.227  24.083  1.00  0.00    -0.269 OA
ATOM      5  H   UNL A   1      31.324  30.838  25.583  1.00  0.00     0.163 HD
BRANCH   3   6
ATOM      6  C   UNL A   1      32.179  27.674  24.793  1.00  0.00     0.040 A 
ATOM      7  C   UNL A   1      32.615  25.396  25.610  1.00  0.00    -0.039 A 
ATOM      8  C   UNL A   1      33.502  25.197  24.550  1.00  0.00     0.004 A 
ATOM      9  C   UNL A   1      32.017  26.660  25.734  1.00  0.00     0.018 A 
ATOM     10  C   UNL A   1      33.736  26.216  23.623  1.00  0.00     0.001 A 
ATOM     11  C   UNL A   1      33.065  27.437  23.734  1.00  0.00     0.014 A 
BRANCH   7  12
ATOM     12  C   UNL A   1      32.272  24.353  26.669  1.00  0.00     0.074 C 
ATOM     13  N   UNL A   1      33.080  22.235  25.598  1.00  0.00    -0.328 N 
ATOM     14  C   UNL A   1      31.714  21.713  25.477  1.00  0.00     0.262 C 
ATOM     15  C   UNL A   1      33.214  23.141  26.758  1.00  0.00     0.270 C 
ATOM     16  H   UNL A   1      33.250  22.780  24.753  1.00  0.00     0.348 HD
ATOM     17  C   UNL A   1      30.687  22.841  25.377  1.00  0.00     0.062 C 
ATOM     18  C   UNL A   1      30.823  23.821  26.541  1.00  0.00     0.020 C 
BRANCH  13  19
ATOM     19  C   UNL A   1      34.106  21.175  25.616  1.00  0.00     0.340 C 
BRANCH  19  20
ATOM     20  C   UNL A   1      33.579  19.805  25.351  1.00  0.00     0.179 A 
ATOM     21  C   UNL A   1      33.480  16.619  23.860  1.00  0.00     0.092 C 
ATOM     22  C   UNL A   1      33.280  17.832  24.675  1.00  0.00     0.147 A 
ATOM     23  N   UNL A   1      32.633  17.841  25.846  1.00  0.00    -0.159 NA
ATOM     24  N   UNL A   1      33.824  19.032  24.313  1.00  0.00    -0.211 NA
ATOM     25  N   UNL A   1      32.817  19.111  26.245  1.00  0.00    -0.258 N 
ATOM     26  H   UNL A   1      32.449  19.491  27.075  1.00  0.00     0.192 HD
ENDBRANCH  19  20
ENDBRANCH  13  19
ENDBRANCH   7  12
ENDBRANCH   3   6
ENDBRANCH   1   2
BRANCH   1  27
ATOM     27  C   UNL A   1      34.176  29.727  26.503  1.00  0.00     0.042 C 
BRANCH  27  28
ATOM     28  C   UNL A   1      34.920  29.040  27.636  1.00  0.00     0.118 C 
BRANCH  28  29
ATOM     29  N   UNL A   1      35.181  29.958  28.745  1.00  0.00    -0.352 N 
ATOM     30  C   UNL A   1      36.279  30.045  29.577  1.00  0.00     0.251 C 
ATOM     31  H   UNL A   1      34.467  30.612  28.925  1.00  0.00     0.163 HD
ATOM     32  O   UNL A   1      36.212  30.648  30.633  1.00  0.00    -0.269 OA
BRANCH  30  33
ATOM     33  C   UNL A   1      37.529  29.376  29.177  1.00  0.00     0.039 A 
ATOM     34  C   UNL A   1      38.184  29.755  28.003  1.00  0.00     0.014 A 
ATOM     35  C   UNL A   1      38.067  28.403  30.015  1.00  0.00     0.014 A 
ATOM     36  C   UNL A   1      39.442  29.224  27.736  1.00  0.00     0.010 A 
ATOM     37  C   UNL A   1      39.364  27.991  29.827  1.00  0.00     0.010 A 
ATOM     38  C   UNL A   1      40.045  28.372  28.675  1.00  0.00    -0.014 A 
BRANCH  38  39
ATOM     39  C   UNL A   1      41.451  28.003  28.532  1.00  0.00     0.031 A 
ATOM     40  C   UNL A   1      41.680  26.736  27.783  1.00  0.00     0.074 A 
ATOM     41  C   UNL A   1      42.473  28.828  28.844  1.00  0.00     0.049 A 
ATOM     42  N   UNL A   1      42.160  25.629  28.242  1.00  0.00    -0.248 NA
ATOM     43  C   UNL A   1      41.189  26.639  26.397  1.00  0.00     0.031 C 
ATOM     44  C   UNL A   1      42.408  30.220  29.298  1.00  0.00     0.029 A 
ATOM     45  N   UNL A   1      43.813  28.622  28.712  1.00  0.00    -0.354 N 
ATOM     46  C   UNL A   1      42.235  24.758  27.156  1.00  0.00     0.074 A 
ATOM     47  C   UNL A   1      41.456  25.362  26.108  1.00  0.00     0.031 C 
ATOM     48  C   UNL A   1      43.624  30.796  29.172  1.00  0.00     0.029 A 
ATOM     49  C   UNL A   1      44.584  29.777  28.791  1.00  0.00     0.049 A 
ATOM     50  H   UNL A   1      44.203  27.729  28.574  1.00  0.00     0.167 HD
ATOM     51  C   UNL A   1      43.143  23.743  27.139  1.00  0.00     0.037 A 
ATOM     52  C   UNL A   1      45.911  29.890  28.535  1.00  0.00     0.037 A 
ATOM     53  C   UNL A   1      43.665  23.500  28.463  1.00  0.00     0.049 A 
ATOM     54  C   UNL A   1      46.491  28.527  28.623  1.00  0.00     0.074 A 
ATOM     55  C   UNL A   1      43.108  23.174  29.686  1.00  0.00     0.029 A 
ATOM     56  N   UNL A   1      44.928  23.964  28.742  1.00  0.00    -0.354 N 
ATOM     57  N   UNL A   1      46.613  27.861  29.735  1.00  0.00    -0.248 NA
ATOM     58  C   UNL A   1      46.532  27.727  27.408  1.00  0.00     0.031 C 
ATOM     59  C   UNL A   1      43.862  23.917  30.641  1.00  0.00     0.029 A 
ATOM     60  C   UNL A   1      44.879  24.586  29.961  1.00  0.00     0.049 A 
ATOM     61  H   UNL A   1      45.722  23.866  28.169  1.00  0.00     0.167 HD
ATOM     62  C   UNL A   1      46.279  26.558  29.397  1.00  0.00     0.074 A 
ATOM     63  C   UNL A   1      46.347  26.515  27.937  1.00  0.00     0.031 C 
ATOM     64  C   UNL A   1      45.691  25.728  30.307  1.00  0.00     0.037 A 
BRANCH  51  65
ATOM     65  C   UNL A   1      43.868  23.251  25.904  1.00  0.00     0.057 A 
ATOM     66  C   UNL A   1      43.943  21.863  25.670  1.00  0.00     0.134 A 
ATOM     67  C   UNL A   1      44.748  24.030  25.126  1.00  0.00     0.134 A 
ATOM     68  F   UNL A   1      43.155  21.007  26.337  1.00  0.00    -0.206 F 
ATOM     69  C   UNL A   1      44.897  21.292  24.818  1.00  0.00     0.040 A 
ATOM     70  C   UNL A   1      45.668  23.472  24.234  1.00  0.00     0.040 A 
ATOM     71  F   UNL A   1      44.843  25.357  25.250  1.00  0.00    -0.206 F 
ATOM     72  C   UNL A   1      45.775  22.097  24.107  1.00  0.00     0.006 A 
ENDBRANCH  51  65
BRANCH  52  73
ATOM     73  C   UNL A   1      46.685  31.037  28.006  1.00  0.00     0.057 A 
ATOM     74  C   UNL A   1      46.253  31.730  26.864  1.00  0.00     0.134 A 
ATOM     75  C   UNL A   1      47.696  31.661  28.756  1.00  0.00     0.134 A 
ATOM     76  F   UNL A   1      45.274  31.234  26.093  1.00  0.00    -0.206 F 
ATOM     77  C   UNL A   1      46.763  32.988  26.514  1.00  0.00     0.040 A 
ATOM     78  C   UNL A   1      48.220  32.913  28.414  1.00  0.00     0.040 A 
ATOM     79  F   UNL A   1      48.147  31.123  29.898  1.00  0.00    -0.206 F 
ATOM     80  C   UNL A   1      47.739  33.591  27.300  1.00  0.00     0.006 A 
ENDBRANCH  52  73
BRANCH  64  81
ATOM     81  C   UNL A   1      45.679  26.153  31.750  1.00  0.00     0.057 A 
ATOM     82  C   UNL A   1      44.590  26.764  32.389  1.00  0.00     0.134 A 
ATOM     83  C   UNL A   1      46.764  25.790  32.557  1.00  0.00     0.134 A 
ATOM     84  F   UNL A   1      43.467  27.059  31.726  1.00  0.00    -0.206 F 
ATOM     85  C   UNL A   1      44.602  27.044  33.760  1.00  0.00     0.040 A 
ATOM     86  C   UNL A   1      46.772  26.029  33.933  1.00  0.00     0.040 A 
ATOM     87  F   UNL A   1      47.818  25.151  32.026  1.00  0.00    -0.206 F 
ATOM     88  C   UNL A   1      45.693  26.668  34.537  1.00  0.00     0.006 A 
ENDBRANCH  64  81
ENDBRANCH  38  39
ENDBRANCH  30  33
ENDBRANCH  28  29
ENDBRANCH  27  28
ENDBRANCH   1  27
TORSDOF 13
ENDMDL
MODEL 3
REMARK VINA RESULT:     -11.9      5.128     11.141
REMARK SMILES Cc1n[nH]c(C[N@H+]2CCC[C@H](c3cccc(C(=O)NCCCNC(=O)c4ccc(-c5c6nc(c(-c7c(F)cccc7F)c7ccc([nH]7)c(-c7c(F)cccc7F)c7nc(c(-c8c(F)cccc8F)c8ccc5[nH]8)C=C7)C=C6)cc4)c3)C2)n1
REMARK SMILES IDX 20 1 19 2 17 3 18 4 16 6 12 7 13 8 80 9 14 10 15 11 11 12
REMARK SMILES IDX 7 13 8 14 81 15 9 17 10 18 6 19 5 20 1 21 2 22 3 23 82 24
REMARK SMILES IDX 4 25 21 27 22 28 23 29 24 30 25 32 26 33 27 34 79 35 28 36
REMARK SMILES IDX 78 37 29 38 30 39 31 40 72 41 32 42 77 43 71 44 73 45 33 46
REMARK SMILES IDX 76 47 70 48 69 49 34 51 60 52 43 53 59 54 44 55 47 56 58 57
REMARK SMILES IDX 74 58 45 59 46 60 57 62 75 63 48 64 35 65 36 66 41 67 37 68
REMARK SMILES IDX 38 69 40 70 42 71 39 72 61 73 62 74 67 75 63 76 64 77 66 78
REMARK SMILES IDX 68 79 65 80 49 81 50 82 55 83 51 84 52 85 54 86 56 87 53 88
REMARK H PARENT 19 5 7 16 4 26 23 31 73 50 47 61
REMARK Flexibility Score: inf
ROOT
ATOM      1  C   UNL A   1      33.337  35.303  29.727  1.00  0.00     0.118 C 
ENDROOT
BRANCH   1   2
ATOM      2  N   UNL A   1      33.680  35.908  31.007  1.00  0.00    -0.352 N 
ATOM      3  C   UNL A   1      34.547  35.562  32.017  1.00  0.00     0.251 C 
ATOM      4  O   UNL A   1      34.688  36.382  32.928  1.00  0.00    -0.269 OA
ATOM      5  H   UNL A   1      33.185  36.740  31.186  1.00  0.00     0.163 HD
BRANCH   3   6
ATOM      6  C   UNL A   1      35.321  34.286  32.072  1.00  0.00     0.040 A 
ATOM      7  C   UNL A   1      37.413  33.007  32.251  1.00  0.00    -0.039 A 
ATOM      8  C   UNL A   1      36.679  31.820  32.203  1.00  0.00     0.004 A 
ATOM      9  C   UNL A   1      36.711  34.216  32.127  1.00  0.00     0.018 A 
ATOM     10  C   UNL A   1      35.288  31.853  32.084  1.00  0.00     0.001 A 
ATOM     11  C   UNL A   1      34.614  33.077  32.039  1.00  0.00     0.014 A 
BRANCH   7  12
ATOM     12  C   UNL A   1      38.930  33.091  32.394  1.00  0.00     0.074 C 
ATOM     13  N   UNL A   1      39.252  32.608  34.833  1.00  0.00    -0.328 N 
ATOM     14  C   UNL A   1      39.737  33.968  35.093  1.00  0.00     0.262 C 
ATOM     15  C   UNL A   1      39.562  32.174  33.456  1.00  0.00     0.270 C 
ATOM     16  H   UNL A   1      38.237  32.646  34.928  1.00  0.00     0.348 HD
ATOM     17  C   UNL A   1      39.163  34.971  34.090  1.00  0.00     0.062 C 
ATOM     18  C   UNL A   1      39.431  34.534  32.652  1.00  0.00     0.020 C 
BRANCH  13  19
ATOM     19  C   UNL A   1      39.721  31.626  35.830  1.00  0.00     0.340 C 
BRANCH  19  20
ATOM     20  C   UNL A   1      38.760  31.372  36.943  1.00  0.00     0.179 A 
ATOM     21  C   UNL A   1      36.644  32.199  39.629  1.00  0.00     0.092 C 
ATOM     22  C   UNL A   1      37.399  31.552  38.539  1.00  0.00     0.147 A 
ATOM     23  N   UNL A   1      37.053  30.382  37.990  1.00  0.00    -0.159 NA
ATOM     24  N   UNL A   1      38.476  32.160  37.959  1.00  0.00    -0.211 NA
ATOM     25  N   UNL A   1      37.946  30.278  36.993  1.00  0.00    -0.258 N 
ATOM     26  H   UNL A   1      38.007  29.512  36.379  1.00  0.00     0.192 HD
ENDBRANCH  19  20
ENDBRANCH  13  19
ENDBRANCH   7  12
ENDBRANCH   3   6
ENDBRANCH   1   2
BRANCH   1  27
ATOM     27  C   UNL A   1      34.487  35.373  28.708  1.00  0.00     0.042 C 
BRANCH  27  28
ATOM     28  C   UNL A   1      35.260  34.069  28.607  1.00  0.00     0.118 C 
BRANCH  28  29
ATOM     29  N   UNL A   1      34.411  32.974  28.136  1.00  0.00    -0.352 N 
ATOM     30  C   UNL A   1      34.721  31.645  27.931  1.00  0.00     0.251 C 
ATOM     31  H   UNL A   1      33.480  33.223  27.934  1.00  0.00     0.163 HD
ATOM     32  O   UNL A   1      34.000  30.937  27.251  1.00  0.00    -0.269 OA
BRANCH  30  33
ATOM     33  C   UNL A   1      35.951  31.101  28.532  1.00  0.00     0.039 A 
ATOM     34  C   UNL A   1      35.996  29.771  28.957  1.00  0.00     0.014 A 
ATOM     35  C   UNL A   1      37.074  31.918  28.616  1.00  0.00     0.014 A 
ATOM     36  C   UNL A   1      37.214  29.239  29.366  1.00  0.00     0.010 A 
ATOM     37  C   UNL A   1      38.300  31.357  28.880  1.00  0.00     0.010 A 
ATOM     38  C   UNL A   1      38.373  30.028  29.287  1.00  0.00    -0.014 A 
BRANCH  38  39
ATOM     39  C   UNL A   1      39.688  29.419  29.475  1.00  0.00     0.031 A 
ATOM     40  C   UNL A   1      40.074  29.223  30.901  1.00  0.00     0.074 A 
ATOM     41  C   UNL A   1      40.407  28.873  28.472  1.00  0.00     0.049 A 
ATOM     42  N   UNL A   1      41.027  29.809  31.544  1.00  0.00    -0.248 NA
ATOM     43  C   UNL A   1      39.215  28.383  31.754  1.00  0.00     0.031 C 
ATOM     44  C   UNL A   1      40.023  28.709  27.066  1.00  0.00     0.029 A 
ATOM     45  N   UNL A   1      41.610  28.238  28.526  1.00  0.00    -0.354 N 
ATOM     46  C   UNL A   1      41.031  29.258  32.823  1.00  0.00     0.074 A 
ATOM     47  C   UNL A   1      39.790  28.539  32.949  1.00  0.00     0.031 C 
ATOM     48  C   UNL A   1      40.852  27.825  26.470  1.00  0.00     0.029 A 
ATOM     49  C   UNL A   1      41.918  27.489  27.396  1.00  0.00     0.049 A 
ATOM     50  H   UNL A   1      42.213  28.305  29.302  1.00  0.00     0.167 HD
ATOM     51  C   UNL A   1      42.170  29.234  33.568  1.00  0.00     0.037 A 
ATOM     52  C   UNL A   1      42.961  26.635  27.243  1.00  0.00     0.037 A 
ATOM     53  C   UNL A   1      43.152  30.146  33.032  1.00  0.00     0.049 A 
ATOM     54  C   UNL A   1      43.966  26.983  28.277  1.00  0.00     0.074 A 
ATOM     55  C   UNL A   1      43.181  31.503  32.768  1.00  0.00     0.029 A 
ATOM     56  N   UNL A   1      44.196  29.607  32.319  1.00  0.00    -0.354 N 
ATOM     57  N   UNL A   1      44.671  28.077  28.264  1.00  0.00    -0.248 NA
ATOM     58  C   UNL A   1      43.872  26.315  29.566  1.00  0.00     0.031 C 
ATOM     59  C   UNL A   1      43.907  31.623  31.547  1.00  0.00     0.029 A 
ATOM     60  C   UNL A   1      44.346  30.351  31.180  1.00  0.00     0.049 A 
ATOM     61  H   UNL A   1      44.737  28.828  32.581  1.00  0.00     0.167 HD
ATOM     62  C   UNL A   1      44.712  28.479  29.590  1.00  0.00     0.074 A 
ATOM     63  C   UNL A   1      44.301  27.303  30.356  1.00  0.00     0.031 C 
ATOM     64  C   UNL A   1      44.783  29.801  29.918  1.00  0.00     0.037 A 
BRANCH  51  65
ATOM     65  C   UNL A   1      42.565  28.115  34.510  1.00  0.00     0.057 A 
ATOM     66  C   UNL A   1      42.858  26.846  33.970  1.00  0.00     0.134 A 
ATOM     67  C   UNL A   1      42.367  28.132  35.905  1.00  0.00     0.134 A 
ATOM     68  F   UNL A   1      43.077  26.690  32.656  1.00  0.00    -0.206 F 
ATOM     69  C   UNL A   1      42.837  25.676  34.738  1.00  0.00     0.040 A 
ATOM     70  C   UNL A   1      42.396  26.975  36.689  1.00  0.00     0.040 A 
ATOM     71  F   UNL A   1      42.037  29.240  36.576  1.00  0.00    -0.206 F 
ATOM     72  C   UNL A   1      42.590  25.737  36.102  1.00  0.00     0.006 A 
ENDBRANCH  51  65
BRANCH  52  73
ATOM     73  C   UNL A   1      43.071  25.404  26.425  1.00  0.00     0.057 A 
ATOM     74  C   UNL A   1      44.025  25.304  25.400  1.00  0.00     0.134 A 
ATOM     75  C   UNL A   1      42.452  24.201  26.806  1.00  0.00     0.134 A 
ATOM     76  F   UNL A   1      44.692  26.389  24.980  1.00  0.00    -0.206 F 
ATOM     77  C   UNL A   1      44.375  24.077  24.820  1.00  0.00     0.040 A 
ATOM     78  C   UNL A   1      42.785  22.970  26.229  1.00  0.00     0.040 A 
ATOM     79  F   UNL A   1      41.568  24.163  27.813  1.00  0.00    -0.206 F 
ATOM     80  C   UNL A   1      43.765  22.902  25.246  1.00  0.00     0.006 A 
ENDBRANCH  52  73
BRANCH  64  81
ATOM     81  C   UNL A   1      45.107  30.786  28.829  1.00  0.00     0.057 A 
ATOM     82  C   UNL A   1      44.153  31.398  28.001  1.00  0.00     0.134 A 
ATOM     83  C   UNL A   1      46.425  31.241  28.716  1.00  0.00     0.134 A 
ATOM     84  F   UNL A   1      42.852  31.105  28.101  1.00  0.00    -0.206 F 
ATOM     85  C   UNL A   1      44.506  32.383  27.072  1.00  0.00     0.040 A 
ATOM     86  C   UNL A   1      46.784  32.250  27.820  1.00  0.00     0.040 A 
ATOM     87  F   UNL A   1      47.383  30.743  29.513  1.00  0.00    -0.206 F 
ATOM     88  C   UNL A   1      45.824  32.818  26.986  1.00  0.00     0.006 A 
ENDBRANCH  64  81
ENDBRANCH  38  39
ENDBRANCH  30  33
ENDBRANCH  28  29
ENDBRANCH  27  28
ENDBRANCH   1  27
TORSDOF 13
ENDMDL
