MODEL 1
REMARK VINA RESULT:     -12.4      0.000      0.000
REMARK SMILES O=C(NCCCNC(=O)c1nnn(-c2cccc(OC(F)(F)F)c2)c1-c1ccncc1)c1ccc(-c2c3nc(c(-c4c(F)cccc4F)c4ccc([nH]4)c(-c4c(F)cccc4F)c4nc(c(-c5c(F)cccc5F)c5ccc2[nH]5)C=C4)C=C3)cc1
REMARK SMILES IDX 5 1 4 2 3 3 1 4 2 5 32 7 33 8 85 9 34 10 84 11 35 12 36 13
REMARK SMILES IDX 37 14 78 15 38 16 83 17 77 18 79 19 39 20 82 21 76 22 75 23
REMARK SMILES IDX 40 25 66 26 49 27 65 28 50 29 53 30 64 31 80 32 51 33 52 34
REMARK SMILES IDX 63 36 81 37 54 38 41 39 42 40 47 41 43 42 44 43 46 44 48 45
REMARK SMILES IDX 45 46 67 47 68 48 73 49 69 50 70 51 72 52 74 53 71 54 55 55
REMARK SMILES IDX 56 56 61 57 57 58 58 59 60 60 62 61 59 62 6 63 7 64 8 65
REMARK SMILES IDX 9 67 10 68 11 69 25 70 12 71 13 72 26 73 27 74 31 75 28 76
REMARK SMILES IDX 30 77 29 78 14 79 15 80 24 81 16 82 18 83 17 84 19 85 20 86
REMARK SMILES IDX 21 87 22 88 23 89
REMARK H PARENT 3 6 79 24 53 35 7 66
REMARK Flexibility Score: inf
ROOT
ATOM      1  C   UNL A   1      31.879  29.154  27.096  1.00  0.00     0.042 C 
ENDROOT
BRANCH   1   2
ATOM      2  C   UNL A   1      33.164  29.872  26.702  1.00  0.00     0.118 C 
BRANCH   2   3
ATOM      3  N   UNL A   1      33.518  30.997  27.543  1.00  0.00    -0.352 N 
ATOM      4  O   UNL A   1      34.609  32.670  28.460  1.00  0.00    -0.269 OA
ATOM      5  C   UNL A   1      34.681  31.509  28.048  1.00  0.00     0.251 C 
ATOM      6  H   UNL A   1      32.730  31.520  27.816  1.00  0.00     0.163 HD
BRANCH   5   7
ATOM      7  C   UNL A   1      35.973  30.782  28.210  1.00  0.00     0.039 A 
ATOM      8  C   UNL A   1      36.198  29.424  27.990  1.00  0.00     0.014 A 
ATOM      9  C   UNL A   1      37.041  31.560  28.709  1.00  0.00     0.014 A 
ATOM     10  C   UNL A   1      37.430  28.851  28.334  1.00  0.00     0.010 A 
ATOM     11  C   UNL A   1      38.265  30.996  29.052  1.00  0.00     0.010 A 
ATOM     12  C   UNL A   1      38.452  29.627  28.903  1.00  0.00    -0.014 A 
BRANCH  12  13
ATOM     13  C   UNL A   1      39.754  29.011  29.180  1.00  0.00     0.031 A 
ATOM     14  C   UNL A   1      40.079  28.894  30.634  1.00  0.00     0.074 A 
ATOM     15  C   UNL A   1      40.556  28.434  28.256  1.00  0.00     0.049 A 
ATOM     16  N   UNL A   1      41.056  29.440  31.282  1.00  0.00    -0.248 NA
ATOM     17  C   UNL A   1      39.138  28.152  31.489  1.00  0.00     0.031 C 
ATOM     18  C   UNL A   1      40.278  28.168  26.842  1.00  0.00     0.029 A 
ATOM     19  N   UNL A   1      41.799  27.885  28.421  1.00  0.00    -0.354 N 
ATOM     20  C   UNL A   1      40.957  28.980  32.596  1.00  0.00     0.074 A 
ATOM     21  C   UNL A   1      39.694  28.296  32.693  1.00  0.00     0.031 C 
ATOM     22  C   UNL A   1      41.222  27.333  26.342  1.00  0.00     0.029 A 
ATOM     23  C   UNL A   1      42.249  27.120  27.348  1.00  0.00     0.049 A 
ATOM     24  H   UNL A   1      42.333  28.020  29.237  1.00  0.00     0.167 HD
ATOM     25  C   UNL A   1      42.009  29.038  33.459  1.00  0.00     0.037 A 
ATOM     26  C   UNL A   1      43.367  26.348  27.302  1.00  0.00     0.037 A 
ATOM     27  C   UNL A   1      43.005  29.974  33.013  1.00  0.00     0.049 A 
ATOM     28  C   UNL A   1      44.272  26.802  28.384  1.00  0.00     0.074 A 
ATOM     29  C   UNL A   1      43.020  31.335  32.774  1.00  0.00     0.029 A 
ATOM     30  N   UNL A   1      44.126  29.480  32.396  1.00  0.00    -0.354 N 
ATOM     31  N   UNL A   1      44.884  27.951  28.388  1.00  0.00    -0.248 NA
ATOM     32  C   UNL A   1      44.148  26.148  29.676  1.00  0.00     0.031 C 
ATOM     33  C   UNL A   1      43.836  31.492  31.616  1.00  0.00     0.029 A 
ATOM     34  C   UNL A   1      44.321  30.232  31.266  1.00  0.00     0.049 A 
ATOM     35  H   UNL A   1      44.683  28.730  32.705  1.00  0.00     0.167 HD
ATOM     36  C   UNL A   1      44.823  28.371  29.707  1.00  0.00     0.074 A 
ATOM     37  C   UNL A   1      44.427  27.186  30.467  1.00  0.00     0.031 C 
ATOM     38  C   UNL A   1      44.825  29.696  30.026  1.00  0.00     0.037 A 
BRANCH  25  39
ATOM     39  C   UNL A   1      42.299  28.009  34.523  1.00  0.00     0.057 A 
ATOM     40  C   UNL A   1      42.778  26.739  34.152  1.00  0.00     0.134 A 
ATOM     41  C   UNL A   1      41.849  28.113  35.854  1.00  0.00     0.134 A 
ATOM     42  F   UNL A   1      43.221  26.506  32.907  1.00  0.00    -0.206 F 
ATOM     43  C   UNL A   1      42.743  25.638  35.018  1.00  0.00     0.040 A 
ATOM     44  C   UNL A   1      41.852  27.033  36.742  1.00  0.00     0.040 A 
ATOM     45  F   UNL A   1      41.287  29.229  36.334  1.00  0.00    -0.206 F 
ATOM     46  C   UNL A   1      42.270  25.782  36.317  1.00  0.00     0.006 A 
ENDBRANCH  25  39
BRANCH  26  47
ATOM     47  C   UNL A   1      43.602  25.057  26.609  1.00  0.00     0.057 A 
ATOM     48  C   UNL A   1      42.897  23.893  26.963  1.00  0.00     0.134 A 
ATOM     49  C   UNL A   1      44.284  25.010  25.383  1.00  0.00     0.134 A 
ATOM     50  F   UNL A   1      42.174  23.852  28.092  1.00  0.00    -0.206 F 
ATOM     51  C   UNL A   1      42.855  22.761  26.135  1.00  0.00     0.040 A 
ATOM     52  C   UNL A   1      44.252  23.886  24.547  1.00  0.00     0.040 A 
ATOM     53  F   UNL A   1      44.925  26.089  24.911  1.00  0.00    -0.206 F 
ATOM     54  C   UNL A   1      43.523  22.762  24.915  1.00  0.00     0.006 A 
ENDBRANCH  26  47
BRANCH  38  55
ATOM     55  C   UNL A   1      45.138  30.687  28.939  1.00  0.00     0.057 A 
ATOM     56  C   UNL A   1      44.187  31.214  28.052  1.00  0.00     0.134 A 
ATOM     57  C   UNL A   1      46.420  31.246  28.897  1.00  0.00     0.134 A 
ATOM     58  F   UNL A   1      42.911  30.810  28.078  1.00  0.00    -0.206 F 
ATOM     59  C   UNL A   1      44.509  32.229  27.144  1.00  0.00     0.040 A 
ATOM     60  C   UNL A   1      46.744  32.282  28.019  1.00  0.00     0.040 A 
ATOM     61  F   UNL A   1      47.367  30.828  29.750  1.00  0.00    -0.206 F 
ATOM     62  C   UNL A   1      45.790  32.773  27.133  1.00  0.00     0.006 A 
ENDBRANCH  38  55
ENDBRANCH  12  13
ENDBRANCH   5   7
ENDBRANCH   2   3
ENDBRANCH   1   2
BRANCH   1  63
ATOM     63  C   UNL A   1      31.937  27.630  27.072  1.00  0.00     0.118 C 
BRANCH  63  64
ATOM     64  N   UNL A   1      30.743  26.973  26.574  1.00  0.00    -0.351 N 
ATOM     65  C   UNL A   1      30.536  25.639  26.270  1.00  0.00     0.274 C 
ATOM     66  H   UNL A   1      29.968  27.563  26.432  1.00  0.00     0.163 HD
ATOM     67  O   UNL A   1      29.436  25.313  25.843  1.00  0.00    -0.267 OA
BRANCH  65  68
ATOM     68  C   UNL A   1      31.609  24.666  26.452  1.00  0.00     0.178 A 
ATOM     69  N   UNL A   1      31.623  23.808  27.528  1.00  0.00    -0.124 NA
ATOM     70  C   UNL A   1      32.717  24.405  25.653  1.00  0.00     0.108 A 
ATOM     71  N   UNL A   1      32.639  22.966  27.382  1.00  0.00    -0.061 NA
ATOM     72  N   UNL A   1      33.379  23.392  26.339  1.00  0.00    -0.212 N 
BRANCH  70  73
ATOM     73  C   UNL A   1      33.072  24.857  24.307  1.00  0.00     0.006 A 
ATOM     74  C   UNL A   1      33.733  26.062  24.093  1.00  0.00     0.030 A 
ATOM     75  C   UNL A   1      32.677  24.092  23.199  1.00  0.00     0.030 A 
ATOM     76  C   UNL A   1      33.963  26.451  22.782  1.00  0.00     0.111 A 
ATOM     77  C   UNL A   1      32.946  24.570  21.931  1.00  0.00     0.111 A 
ATOM     78  N   UNL A   1      33.579  25.735  21.702  1.00  0.00    -0.265 NA
ENDBRANCH  70  73
BRANCH  72  79
ATOM     79  C   UNL A   1      34.594  22.774  25.970  1.00  0.00     0.071 A 
ATOM     80  C   UNL A   1      34.588  21.474  25.464  1.00  0.00     0.029 A 
ATOM     81  C   UNL A   1      35.773  23.539  25.982  1.00  0.00     0.075 A 
ATOM     82  C   UNL A   1      35.748  20.983  24.868  1.00  0.00     0.006 A 
ATOM     83  C   UNL A   1      36.938  23.039  25.409  1.00  0.00     0.131 A 
ATOM     84  C   UNL A   1      36.909  21.766  24.830  1.00  0.00     0.047 A 
BRANCH  83  85
ATOM     85  O   UNL A   1      38.135  23.691  25.327  1.00  0.00    -0.406 OA
BRANCH  85  86
ATOM     86  C   UNL A   1      38.926  23.763  26.505  1.00  0.00     0.573 C 
ATOM     87  F   UNL A   1      38.235  24.311  27.527  1.00  0.00    -0.132 F 
ATOM     88  F   UNL A   1      39.364  22.538  26.871  1.00  0.00    -0.132 F 
ATOM     89  F   UNL A   1      40.005  24.539  26.262  1.00  0.00    -0.132 F 
ENDBRANCH  85  86
ENDBRANCH  83  85
ENDBRANCH  72  79
ENDBRANCH  65  68
ENDBRANCH  63  64
ENDBRANCH   1  63
TORSDOF 14
ENDMDL
MODEL 2
REMARK VINA RESULT:     -12.3      2.596      7.713
REMARK SMILES O=C(NCCCNC(=O)c1nnn(-c2cccc(OC(F)(F)F)c2)c1-c1ccncc1)c1ccc(-c2c3nc(c(-c4c(F)cccc4F)c4ccc([nH]4)c(-c4c(F)cccc4F)c4nc(c(-c5c(F)cccc5F)c5ccc2[nH]5)C=C4)C=C3)cc1
REMARK SMILES IDX 5 1 4 2 3 3 1 4 2 5 32 7 33 8 85 9 34 10 84 11 35 12 36 13
REMARK SMILES IDX 37 14 78 15 38 16 83 17 77 18 79 19 39 20 82 21 76 22 75 23
REMARK SMILES IDX 40 25 66 26 49 27 65 28 50 29 53 30 64 31 80 32 51 33 52 34
REMARK SMILES IDX 63 36 81 37 54 38 41 39 42 40 47 41 43 42 44 43 46 44 48 45
REMARK SMILES IDX 45 46 67 47 68 48 73 49 69 50 70 51 72 52 74 53 71 54 55 55
REMARK SMILES IDX 56 56 61 57 57 58 58 59 60 60 62 61 59 62 6 63 7 64 8 65
REMARK SMILES IDX 9 67 10 68 11 69 25 70 12 71 13 72 26 73 27 74 31 75 28 76
REMARK SMILES IDX 30 77 29 78 14 79 15 80 24 81 16 82 18 83 17 84 19 85 20 86
REMARK SMILES IDX 21 87 22 88 23 89
REMARK H PARENT 3 6 79 24 53 35 7 66
REMARK Flexibility Score: inf
ROOT
ATOM      1  C   UNL A   1      36.950  22.199  24.095  1.00  0.00     0.042 C 
ENDROOT
BRANCH   1   2
ATOM      2  C   UNL A   1      37.426  22.207  25.544  1.00  0.00     0.118 C 
BRANCH   2   3
ATOM      3  N   UNL A   1      38.830  21.905  25.727  1.00  0.00    -0.352 N 
ATOM      4  O   UNL A   1      40.830  21.680  26.610  1.00  0.00    -0.269 OA
ATOM      5  C   UNL A   1      39.845  22.414  26.490  1.00  0.00     0.251 C 
ATOM      6  H   UNL A   1      39.126  21.151  25.167  1.00  0.00     0.163 HD
BRANCH   5   7
ATOM      7  C   UNL A   1      39.896  23.770  27.108  1.00  0.00     0.039 A 
ATOM      8  C   UNL A   1      38.989  24.810  26.910  1.00  0.00     0.014 A 
ATOM      9  C   UNL A   1      41.028  24.020  27.914  1.00  0.00     0.014 A 
ATOM     10  C   UNL A   1      39.252  26.082  27.438  1.00  0.00     0.010 A 
ATOM     11  C   UNL A   1      41.294  25.280  28.440  1.00  0.00     0.010 A 
ATOM     12  C   UNL A   1      40.425  26.330  28.170  1.00  0.00    -0.014 A 
BRANCH  12  13
ATOM     13  C   UNL A   1      40.630  27.651  28.772  1.00  0.00     0.031 A 
ATOM     14  C   UNL A   1      41.842  28.370  28.274  1.00  0.00     0.074 A 
ATOM     15  C   UNL A   1      39.752  28.283  29.584  1.00  0.00     0.049 A 
ATOM     16  N   UNL A   1      42.882  28.745  28.945  1.00  0.00    -0.248 NA
ATOM     17  C   UNL A   1      41.949  28.611  26.826  1.00  0.00     0.031 C 
ATOM     18  C   UNL A   1      38.385  27.890  29.936  1.00  0.00     0.029 A 
ATOM     19  N   UNL A   1      39.888  29.486  30.224  1.00  0.00    -0.354 N 
ATOM     20  C   UNL A   1      43.704  29.420  28.042  1.00  0.00     0.074 A 
ATOM     21  C   UNL A   1      43.143  29.198  26.735  1.00  0.00     0.031 C 
ATOM     22  C   UNL A   1      37.756  28.926  30.543  1.00  0.00     0.029 A 
ATOM     23  C   UNL A   1      38.709  30.002  30.758  1.00  0.00     0.049 A 
ATOM     24  H   UNL A   1      40.752  29.951  30.300  1.00  0.00     0.167 HD
ATOM     25  C   UNL A   1      44.686  30.268  28.460  1.00  0.00     0.037 A 
ATOM     26  C   UNL A   1      38.526  31.231  31.308  1.00  0.00     0.037 A 
ATOM     27  C   UNL A   1      45.031  30.038  29.836  1.00  0.00     0.049 A 
ATOM     28  C   UNL A   1      39.860  31.763  31.676  1.00  0.00     0.074 A 
ATOM     29  C   UNL A   1      45.542  28.966  30.543  1.00  0.00     0.029 A 
ATOM     30  N   UNL A   1      44.521  30.892  30.781  1.00  0.00    -0.354 N 
ATOM     31  N   UNL A   1      40.598  31.279  32.633  1.00  0.00    -0.248 NA
ATOM     32  C   UNL A   1      40.558  32.561  30.681  1.00  0.00     0.031 C 
ATOM     33  C   UNL A   1      44.854  28.992  31.791  1.00  0.00     0.029 A 
ATOM     34  C   UNL A   1      44.024  30.113  31.793  1.00  0.00     0.049 A 
ATOM     35  H   UNL A   1      44.514  31.875  30.740  1.00  0.00     0.167 HD
ATOM     36  C   UNL A   1      41.888  31.327  32.132  1.00  0.00     0.074 A 
ATOM     37  C   UNL A   1      41.812  32.196  30.959  1.00  0.00     0.031 C 
ATOM     38  C   UNL A   1      42.838  30.441  32.546  1.00  0.00     0.037 A 
BRANCH  25  39
ATOM     39  C   UNL A   1      45.097  31.524  27.732  1.00  0.00     0.057 A 
ATOM     40  C   UNL A   1      46.390  31.620  27.185  1.00  0.00     0.134 A 
ATOM     41  C   UNL A   1      44.388  32.739  27.808  1.00  0.00     0.134 A 
ATOM     42  F   UNL A   1      47.174  30.537  27.073  1.00  0.00    -0.206 F 
ATOM     43  C   UNL A   1      46.959  32.845  26.810  1.00  0.00     0.040 A 
ATOM     44  C   UNL A   1      44.928  33.960  27.393  1.00  0.00     0.040 A 
ATOM     45  F   UNL A   1      43.181  32.828  28.380  1.00  0.00    -0.206 F 
ATOM     46  C   UNL A   1      46.230  34.022  26.922  1.00  0.00     0.006 A 
ENDBRANCH  25  39
BRANCH  26  47
ATOM     47  C   UNL A   1      37.339  32.122  31.269  1.00  0.00     0.057 A 
ATOM     48  C   UNL A   1      36.983  32.823  30.104  1.00  0.00     0.134 A 
ATOM     49  C   UNL A   1      36.356  32.056  32.269  1.00  0.00     0.134 A 
ATOM     50  F   UNL A   1      37.834  32.904  29.070  1.00  0.00    -0.206 F 
ATOM     51  C   UNL A   1      35.716  33.402  29.936  1.00  0.00     0.040 A 
ATOM     52  C   UNL A   1      35.088  32.631  32.115  1.00  0.00     0.040 A 
ATOM     53  F   UNL A   1      36.561  31.349  33.389  1.00  0.00    -0.206 F 
ATOM     54  C   UNL A   1      34.758  33.294  30.939  1.00  0.00     0.006 A 
ENDBRANCH  26  47
BRANCH  38  55
ATOM     55  C   UNL A   1      42.527  29.569  33.730  1.00  0.00     0.057 A 
ATOM     56  C   UNL A   1      41.896  28.317  33.647  1.00  0.00     0.134 A 
ATOM     57  C   UNL A   1      43.029  29.940  34.982  1.00  0.00     0.134 A 
ATOM     58  F   UNL A   1      41.464  27.832  32.476  1.00  0.00    -0.206 F 
ATOM     59  C   UNL A   1      41.747  27.490  34.766  1.00  0.00     0.040 A 
ATOM     60  C   UNL A   1      42.917  29.110  36.099  1.00  0.00     0.040 A 
ATOM     61  F   UNL A   1      43.689  31.099  35.127  1.00  0.00    -0.206 F 
ATOM     62  C   UNL A   1      42.268  27.883  35.995  1.00  0.00     0.006 A 
ENDBRANCH  38  55
ENDBRANCH  12  13
ENDBRANCH   5   7
ENDBRANCH   2   3
ENDBRANCH   1   2
BRANCH   1  63
ATOM     63  C   UNL A   1      35.918  23.261  23.731  1.00  0.00     0.118 C 
BRANCH  63  64
ATOM     64  N   UNL A   1      34.814  22.795  22.912  1.00  0.00    -0.351 N 
ATOM     65  C   UNL A   1      33.724  23.495  22.427  1.00  0.00     0.274 C 
ATOM     66  H   UNL A   1      34.846  21.843  22.667  1.00  0.00     0.163 HD
ATOM     67  O   UNL A   1      32.899  22.881  21.761  1.00  0.00    -0.267 OA
BRANCH  65  68
ATOM     68  C   UNL A   1      33.573  24.918  22.715  1.00  0.00     0.178 A 
ATOM     69  N   UNL A   1      33.893  25.876  21.779  1.00  0.00    -0.124 NA
ATOM     70  C   UNL A   1      33.102  25.548  23.861  1.00  0.00     0.108 A 
ATOM     71  N   UNL A   1      33.555  27.065  22.261  1.00  0.00    -0.061 NA
ATOM     72  N   UNL A   1      33.205  26.901  23.551  1.00  0.00    -0.212 N 
BRANCH  70  73
ATOM     73  C   UNL A   1      32.434  25.023  25.053  1.00  0.00     0.006 A 
ATOM     74  C   UNL A   1      33.149  24.432  26.088  1.00  0.00     0.030 A 
ATOM     75  C   UNL A   1      31.033  25.055  25.126  1.00  0.00     0.030 A 
ATOM     76  C   UNL A   1      32.432  23.893  27.146  1.00  0.00     0.111 A 
ATOM     77  C   UNL A   1      30.411  24.484  26.218  1.00  0.00     0.111 A 
ATOM     78  N   UNL A   1      31.083  23.901  27.227  1.00  0.00    -0.265 NA
ENDBRANCH  70  73
BRANCH  72  79
ATOM     79  C   UNL A   1      32.880  27.988  24.393  1.00  0.00     0.071 A 
ATOM     80  C   UNL A   1      31.749  28.759  24.127  1.00  0.00     0.029 A 
ATOM     81  C   UNL A   1      33.625  28.180  25.569  1.00  0.00     0.075 A 
ATOM     82  C   UNL A   1      31.303  29.651  25.102  1.00  0.00     0.006 A 
ATOM     83  C   UNL A   1      33.195  29.088  26.531  1.00  0.00     0.131 A 
ATOM     84  C   UNL A   1      32.015  29.803  26.300  1.00  0.00     0.047 A 
BRANCH  83  85
ATOM     85  O   UNL A   1      33.807  29.341  27.725  1.00  0.00    -0.406 OA
BRANCH  85  86
ATOM     86  C   UNL A   1      34.976  30.149  27.705  1.00  0.00     0.573 C 
ATOM     87  F   UNL A   1      35.964  29.564  26.995  1.00  0.00    -0.132 F 
ATOM     88  F   UNL A   1      34.715  31.368  27.183  1.00  0.00    -0.132 F 
ATOM     89  F   UNL A   1      35.413  30.320  28.972  1.00  0.00    -0.132 F 
ENDBRANCH  85  86
ENDBRANCH  83  85
ENDBRANCH  72  79
ENDBRANCH  65  68
ENDBRANCH  63  64
ENDBRANCH   1  63
TORSDOF 14
ENDMDL
MODEL 3
REMARK VINA RESULT:     -12.0      1.624      2.224
REMARK SMILES O=C(NCCCNC(=O)c1nnn(-c2cccc(OC(F)(F)F)c2)c1-c1ccncc1)c1ccc(-c2c3nc(c(-c4c(F)cccc4F)c4ccc([nH]4)c(-c4c(F)cccc4F)c4nc(c(-c5c(F)cccc5F)c5ccc2[nH]5)C=C4)C=C3)cc1
REMARK SMILES IDX 5 1 4 2 3 3 1 4 2 5 32 7 33 8 85 9 34 10 84 11 35 12 36 13
REMARK SMILES IDX 37 14 78 15 38 16 83 17 77 18 79 19 39 20 82 21 76 22 75 23
REMARK SMILES IDX 40 25 66 26 49 27 65 28 50 29 53 30 64 31 80 32 51 33 52 34
REMARK SMILES IDX 63 36 81 37 54 38 41 39 42 40 47 41 43 42 44 43 46 44 48 45
REMARK SMILES IDX 45 46 67 47 68 48 73 49 69 50 70 51 72 52 74 53 71 54 55 55
REMARK SMILES IDX 56 56 61 57 57 58 58 59 60 60 62 61 59 62 6 63 7 64 8 65
REMARK SMILES IDX 9 67 10 68 11 69 25 70 12 71 13 72 26 73 27 74 31 75 28 76
REMARK SMILES IDX 30 77 29 78 14 79 15 80 24 81 16 82 18 83 17 84 19 85 20 86
REMARK SMILES IDX 21 87 22 88 23 89
REMARK H PARENT 3 6 79 24 53 35 7 66
REMARK Flexibility Score: inf
ROOT
ATOM      1  C   UNL A   1      31.973  29.251  27.312  1.00  0.00     0.042 C 
ENDROOT
BRANCH   1   2
ATOM      2  C   UNL A   1      33.188  29.982  26.751  1.00  0.00     0.118 C 
BRANCH   2   3
ATOM      3  N   UNL A   1      33.594  31.155  27.498  1.00  0.00    -0.352 N 
ATOM      4  O   UNL A   1      34.751  32.861  28.259  1.00  0.00    -0.269 OA
ATOM      5  C   UNL A   1      34.784  31.672  27.929  1.00  0.00     0.251 C 
ATOM      6  H   UNL A   1      32.827  31.715  27.759  1.00  0.00     0.163 HD
BRANCH   5   7
ATOM      7  C   UNL A   1      36.064  30.927  28.101  1.00  0.00     0.039 A 
ATOM      8  C   UNL A   1      36.281  29.573  27.848  1.00  0.00     0.014 A 
ATOM      9  C   UNL A   1      37.127  31.678  28.648  1.00  0.00     0.014 A 
ATOM     10  C   UNL A   1      37.498  28.978  28.205  1.00  0.00     0.010 A 
ATOM     11  C   UNL A   1      38.337  31.092  29.005  1.00  0.00     0.010 A 
ATOM     12  C   UNL A   1      38.513  29.726  28.821  1.00  0.00    -0.014 A 
BRANCH  12  13
ATOM     13  C   UNL A   1      39.802  29.088  29.112  1.00  0.00     0.031 A 
ATOM     14  C   UNL A   1      40.116  28.978  30.569  1.00  0.00     0.074 A 
ATOM     15  C   UNL A   1      40.599  28.488  28.198  1.00  0.00     0.049 A 
ATOM     16  N   UNL A   1      41.099  29.511  31.218  1.00  0.00    -0.248 NA
ATOM     17  C   UNL A   1      39.156  28.262  31.424  1.00  0.00     0.031 C 
ATOM     18  C   UNL A   1      40.325  28.215  26.784  1.00  0.00     0.029 A 
ATOM     19  N   UNL A   1      41.830  27.918  28.376  1.00  0.00    -0.354 N 
ATOM     20  C   UNL A   1      40.983  29.065  32.535  1.00  0.00     0.074 A 
ATOM     21  C   UNL A   1      39.707  28.406  32.630  1.00  0.00     0.031 C 
ATOM     22  C   UNL A   1      41.256  27.358  26.298  1.00  0.00     0.029 A 
ATOM     23  C   UNL A   1      42.273  27.136  27.312  1.00  0.00     0.049 A 
ATOM     24  H   UNL A   1      42.362  28.051  29.194  1.00  0.00     0.167 HD
ATOM     25  C   UNL A   1      42.031  29.111  33.404  1.00  0.00     0.037 A 
ATOM     26  C   UNL A   1      43.377  26.343  27.280  1.00  0.00     0.037 A 
ATOM     27  C   UNL A   1      43.047  30.025  32.957  1.00  0.00     0.049 A 
ATOM     28  C   UNL A   1      44.284  26.789  28.364  1.00  0.00     0.074 A 
ATOM     29  C   UNL A   1      43.088  31.383  32.706  1.00  0.00     0.029 A 
ATOM     30  N   UNL A   1      44.162  29.505  32.351  1.00  0.00    -0.354 N 
ATOM     31  N   UNL A   1      44.916  27.926  28.362  1.00  0.00    -0.248 NA
ATOM     32  C   UNL A   1      44.139  26.148  29.661  1.00  0.00     0.031 C 
ATOM     33  C   UNL A   1      43.914  31.515  31.552  1.00  0.00     0.029 A 
ATOM     34  C   UNL A   1      44.378  30.243  31.216  1.00  0.00     0.049 A 
ATOM     35  H   UNL A   1      44.703  28.747  32.670  1.00  0.00     0.167 HD
ATOM     36  C   UNL A   1      44.855  28.359  29.677  1.00  0.00     0.074 A 
ATOM     37  C   UNL A   1      44.433  27.189  30.445  1.00  0.00     0.031 C 
ATOM     38  C   UNL A   1      44.880  29.687  29.984  1.00  0.00     0.037 A 
BRANCH  25  39
ATOM     39  C   UNL A   1      42.295  28.087  34.480  1.00  0.00     0.057 A 
ATOM     40  C   UNL A   1      42.790  26.818  34.126  1.00  0.00     0.134 A 
ATOM     41  C   UNL A   1      41.806  28.192  35.797  1.00  0.00     0.134 A 
ATOM     42  F   UNL A   1      43.269  26.583  32.895  1.00  0.00    -0.206 F 
ATOM     43  C   UNL A   1      42.734  25.720  34.994  1.00  0.00     0.040 A 
ATOM     44  C   UNL A   1      41.789  27.115  36.688  1.00  0.00     0.040 A 
ATOM     45  F   UNL A   1      41.227  29.307  36.257  1.00  0.00    -0.206 F 
ATOM     46  C   UNL A   1      42.225  25.865  36.279  1.00  0.00     0.006 A 
ENDBRANCH  25  39
BRANCH  26  47
ATOM     47  C   UNL A   1      43.591  25.041  26.600  1.00  0.00     0.057 A 
ATOM     48  C   UNL A   1      42.888  23.886  26.982  1.00  0.00     0.134 A 
ATOM     49  C   UNL A   1      44.251  24.974  25.362  1.00  0.00     0.134 A 
ATOM     50  F   UNL A   1      42.185  23.863  28.125  1.00  0.00    -0.206 F 
ATOM     51  C   UNL A   1      42.824  22.743  26.170  1.00  0.00     0.040 A 
ATOM     52  C   UNL A   1      44.198  23.840  24.542  1.00  0.00     0.040 A 
ATOM     53  F   UNL A   1      44.889  26.043  24.865  1.00  0.00    -0.206 F 
ATOM     54  C   UNL A   1      43.470  22.724  24.938  1.00  0.00     0.006 A 
ENDBRANCH  26  47
BRANCH  38  55
ATOM     55  C   UNL A   1      45.218  30.661  28.891  1.00  0.00     0.057 A 
ATOM     56  C   UNL A   1      46.526  31.008  28.516  1.00  0.00     0.134 A 
ATOM     57  C   UNL A   1      44.181  31.142  28.083  1.00  0.00     0.134 A 
ATOM     58  F   UNL A   1      47.588  30.523  29.169  1.00  0.00    -0.206 F 
ATOM     59  C   UNL A   1      46.784  31.821  27.407  1.00  0.00     0.040 A 
ATOM     60  C   UNL A   1      44.427  31.927  26.955  1.00  0.00     0.040 A 
ATOM     61  F   UNL A   1      42.909  30.810  28.349  1.00  0.00    -0.206 F 
ATOM     62  C   UNL A   1      45.732  32.275  26.617  1.00  0.00     0.006 A 
ENDBRANCH  38  55
ENDBRANCH  12  13
ENDBRANCH   5   7
ENDBRANCH   2   3
ENDBRANCH   1   2
BRANCH   1  63
ATOM     63  C   UNL A   1      31.956  27.740  27.106  1.00  0.00     0.118 C 
BRANCH  63  64
ATOM     64  N   UNL A   1      30.730  27.206  26.542  1.00  0.00    -0.351 N 
ATOM     65  C   UNL A   1      30.435  25.915  26.144  1.00  0.00     0.274 C 
ATOM     66  H   UNL A   1      30.002  27.859  26.427  1.00  0.00     0.163 HD
ATOM     67  O   UNL A   1      29.324  25.699  25.676  1.00  0.00    -0.267 OA
BRANCH  65  68
ATOM     68  C   UNL A   1      31.431  24.856  26.278  1.00  0.00     0.178 A 
ATOM     69  N   UNL A   1      31.442  24.018  27.369  1.00  0.00    -0.124 NA
ATOM     70  C   UNL A   1      32.457  24.487  25.416  1.00  0.00     0.108 A 
ATOM     71  N   UNL A   1      32.371  23.089  27.178  1.00  0.00    -0.061 NA
ATOM     72  N   UNL A   1      33.075  23.432  26.081  1.00  0.00    -0.212 N 
BRANCH  70  73
ATOM     73  C   UNL A   1      32.761  24.885  24.040  1.00  0.00     0.006 A 
ATOM     74  C   UNL A   1      32.554  24.022  22.969  1.00  0.00     0.030 A 
ATOM     75  C   UNL A   1      33.338  26.141  23.800  1.00  0.00     0.030 A 
ATOM     76  C   UNL A   1      32.939  24.451  21.708  1.00  0.00     0.111 A 
ATOM     77  C   UNL A   1      33.696  26.473  22.508  1.00  0.00     0.111 A 
ATOM     78  N   UNL A   1      33.509  25.651  21.459  1.00  0.00    -0.265 NA
ENDBRANCH  70  73
BRANCH  72  79
ATOM     79  C   UNL A   1      34.207  22.706  25.649  1.00  0.00     0.071 A 
ATOM     80  C   UNL A   1      35.481  23.253  25.798  1.00  0.00     0.029 A 
ATOM     81  C   UNL A   1      34.035  21.382  25.211  1.00  0.00     0.075 A 
ATOM     82  C   UNL A   1      36.589  22.427  25.610  1.00  0.00     0.006 A 
ATOM     83  C   UNL A   1      35.141  20.565  24.999  1.00  0.00     0.131 A 
ATOM     84  C   UNL A   1      36.417  21.090  25.227  1.00  0.00     0.047 A 
BRANCH  83  85
ATOM     85  O   UNL A   1      35.108  19.258  24.607  1.00  0.00    -0.406 OA
BRANCH  85  86
ATOM     86  C   UNL A   1      33.839  18.621  24.548  1.00  0.00     0.573 C 
ATOM     87  F   UNL A   1      33.966  17.300  24.298  1.00  0.00    -0.132 F 
ATOM     88  F   UNL A   1      33.157  18.791  25.703  1.00  0.00    -0.132 F 
ATOM     89  F   UNL A   1      33.117  19.171  23.549  1.00  0.00    -0.132 F 
ENDBRANCH  85  86
ENDBRANCH  83  85
ENDBRANCH  72  79
ENDBRANCH  65  68
ENDBRANCH  63  64
ENDBRANCH   1  63
TORSDOF 14
ENDMDL
