MODEL 1
REMARK VINA RESULT:     -10.3      0.000      0.000
REMARK SMILES C[C@H]1CCC[C@H](C(C)(C)C(=O)NCCCNC(=O)c2ccc(-c3c4nc(c(-c5c(F)cccc5F)c5ccc([nH]5)c(-c5c(F)cccc5F)c5nc(c(-c6c(F)cccc6F)c6ccc3[nH]6)C=C5)C=C4)cc2)C1
REMARK SMILES IDX 14 1 13 2 12 3 10 4 11 5 7 7 8 8 9 9 6 10 1 11 2 12 3 13
REMARK SMILES IDX 73 14 4 15 5 16 15 17 16 18 17 19 18 21 19 22 20 23 72 24
REMARK SMILES IDX 21 25 71 26 22 27 23 28 24 29 65 30 25 31 70 32 64 33 66 34
REMARK SMILES IDX 26 35 69 36 63 37 62 38 27 40 53 41 36 42 52 43 37 44 40 45
REMARK SMILES IDX 51 46 67 47 38 48 39 49 50 51 68 52 41 53 28 54 29 55 34 56
REMARK SMILES IDX 30 57 31 58 33 59 35 60 32 61 54 62 55 63 60 64 56 65 57 66
REMARK SMILES IDX 59 67 61 68 58 69 42 70 43 71 48 72 44 73 45 74 47 75 49 76
REMARK SMILES IDX 46 77
REMARK H PARENT 12 6 16 20 66 39 40 50
REMARK Flexibility Score: inf
ROOT
ATOM      1  C   UNL A   1      35.703  33.791  29.526  1.00  0.00     0.042 C 
ENDROOT
BRANCH   1   2
ATOM      2  C   UNL A   1      34.410  34.225  30.213  1.00  0.00     0.117 C 
BRANCH   2   3
ATOM      3  N   UNL A   1      34.655  35.280  31.174  1.00  0.00    -0.356 N 
ATOM      4  C   UNL A   1      34.873  35.328  32.509  1.00  0.00     0.225 C 
ATOM      5  O   UNL A   1      34.778  36.469  32.961  1.00  0.00    -0.275 OA
ATOM      6  H   UNL A   1      34.667  36.173  30.759  1.00  0.00     0.163 HD
BRANCH   4   7
ATOM      7  C   UNL A   1      35.235  34.101  33.374  1.00  0.00     0.046 C 
ATOM      8  C   UNL A   1      34.076  33.081  33.246  1.00  0.00     0.022 C 
ATOM      9  C   UNL A   1      35.375  34.522  34.853  1.00  0.00     0.022 C 
BRANCH   7  10
ATOM     10  C   UNL A   1      36.580  33.346  32.950  1.00  0.00     0.004 C 
ATOM     11  C   UNL A   1      38.201  31.096  35.720  1.00  0.00     0.007 C 
ATOM     12  C   UNL A   1      37.767  32.399  35.042  1.00  0.00    -0.014 C 
ATOM     13  C   UNL A   1      38.991  33.283  34.764  1.00  0.00     0.003 C 
ATOM     14  C   UNL A   1      36.992  32.099  33.761  1.00  0.00     0.008 C 
ATOM     15  C   UNL A   1      38.740  34.489  33.861  1.00  0.00     0.001 C 
ATOM     16  C   UNL A   1      37.830  34.207  32.668  1.00  0.00     0.005 C 
ENDBRANCH   7  10
ENDBRANCH   4   7
ENDBRANCH   2   3
ENDBRANCH   1   2
BRANCH   1  17
ATOM     17  C   UNL A   1      35.535  33.417  28.054  1.00  0.00     0.118 C 
BRANCH  17  18
ATOM     18  N   UNL A   1      34.518  32.393  27.843  1.00  0.00    -0.352 N 
ATOM     19  C   UNL A   1      34.614  31.027  27.868  1.00  0.00     0.251 C 
ATOM     20  H   UNL A   1      33.618  32.740  27.652  1.00  0.00     0.163 HD
ATOM     21  O   UNL A   1      33.673  30.343  27.464  1.00  0.00    -0.269 OA
BRANCH  19  22
ATOM     22  C   UNL A   1      35.842  30.367  28.354  1.00  0.00     0.039 A 
ATOM     23  C   UNL A   1      36.959  30.324  27.515  1.00  0.00     0.014 A 
ATOM     24  C   UNL A   1      35.889  29.768  29.615  1.00  0.00     0.014 A 
ATOM     25  C   UNL A   1      38.143  29.740  27.969  1.00  0.00     0.010 A 
ATOM     26  C   UNL A   1      37.091  29.260  30.096  1.00  0.00     0.010 A 
ATOM     27  C   UNL A   1      38.230  29.238  29.278  1.00  0.00    -0.014 A 
BRANCH  27  28
ATOM     28  C   UNL A   1      39.507  28.694  29.805  1.00  0.00     0.031 A 
ATOM     29  C   UNL A   1      40.162  29.316  31.005  1.00  0.00     0.074 A 
ATOM     30  C   UNL A   1      40.105  27.673  29.162  1.00  0.00     0.049 A 
ATOM     31  N   UNL A   1      41.299  29.011  31.578  1.00  0.00    -0.248 NA
ATOM     32  C   UNL A   1      39.464  30.453  31.628  1.00  0.00     0.031 C 
ATOM     33  C   UNL A   1      39.598  27.019  27.953  1.00  0.00     0.029 A 
ATOM     34  N   UNL A   1      41.276  27.009  29.431  1.00  0.00    -0.354 N 
ATOM     35  C   UNL A   1      41.457  29.921  32.615  1.00  0.00     0.074 A 
ATOM     36  C   UNL A   1      40.328  30.824  32.561  1.00  0.00     0.031 C 
ATOM     37  C   UNL A   1      40.438  26.032  27.601  1.00  0.00     0.029 A 
ATOM     38  C   UNL A   1      41.558  26.005  28.537  1.00  0.00     0.049 A 
ATOM     39  H   UNL A   1      41.859  27.232  30.193  1.00  0.00     0.167 HD
ATOM     40  C   UNL A   1      42.442  29.985  33.543  1.00  0.00     0.037 A 
ATOM     41  C   UNL A   1      42.603  25.159  28.477  1.00  0.00     0.037 A 
ATOM     42  C   UNL A   1      43.549  29.069  33.612  1.00  0.00     0.049 A 
ATOM     43  C   UNL A   1      43.676  25.244  29.525  1.00  0.00     0.074 A 
ATOM     44  C   UNL A   1      44.562  29.009  34.553  1.00  0.00     0.029 A 
ATOM     45  N   UNL A   1      43.789  28.052  32.700  1.00  0.00    -0.354 N 
ATOM     46  N   UNL A   1      43.775  26.063  30.542  1.00  0.00    -0.248 NA
ATOM     47  C   UNL A   1      44.780  24.279  29.420  1.00  0.00     0.031 C 
ATOM     48  C   UNL A   1      45.438  27.980  34.187  1.00  0.00     0.029 A 
ATOM     49  C   UNL A   1      44.946  27.371  33.045  1.00  0.00     0.049 A 
ATOM     50  H   UNL A   1      43.222  27.843  31.923  1.00  0.00     0.167 HD
ATOM     51  C   UNL A   1      44.936  25.700  31.211  1.00  0.00     0.074 A 
ATOM     52  C   UNL A   1      45.497  24.574  30.494  1.00  0.00     0.031 C 
ATOM     53  C   UNL A   1      45.490  26.251  32.320  1.00  0.00     0.037 A 
BRANCH  40  54
ATOM     54  C   UNL A   1      42.358  31.081  34.565  1.00  0.00     0.057 A 
ATOM     55  C   UNL A   1      41.820  30.863  35.841  1.00  0.00     0.134 A 
ATOM     56  C   UNL A   1      42.848  32.363  34.283  1.00  0.00     0.134 A 
ATOM     57  F   UNL A   1      41.323  29.662  36.171  1.00  0.00    -0.206 F 
ATOM     58  C   UNL A   1      41.748  31.885  36.789  1.00  0.00     0.040 A 
ATOM     59  C   UNL A   1      42.806  33.386  35.231  1.00  0.00     0.040 A 
ATOM     60  F   UNL A   1      43.381  32.640  33.083  1.00  0.00    -0.206 F 
ATOM     61  C   UNL A   1      42.249  33.150  36.486  1.00  0.00     0.006 A 
ENDBRANCH  40  54
BRANCH  41  62
ATOM     62  C   UNL A   1      42.670  24.138  27.402  1.00  0.00     0.057 A 
ATOM     63  C   UNL A   1      42.126  22.861  27.586  1.00  0.00     0.134 A 
ATOM     64  C   UNL A   1      43.279  24.409  26.171  1.00  0.00     0.134 A 
ATOM     65  F   UNL A   1      41.546  22.537  28.750  1.00  0.00    -0.206 F 
ATOM     66  C   UNL A   1      42.204  21.884  26.594  1.00  0.00     0.040 A 
ATOM     67  C   UNL A   1      43.342  23.448  25.161  1.00  0.00     0.040 A 
ATOM     68  F   UNL A   1      43.811  25.616  25.930  1.00  0.00    -0.206 F 
ATOM     69  C   UNL A   1      42.809  22.178  25.373  1.00  0.00     0.006 A 
ENDBRANCH  41  62
BRANCH  53  70
ATOM     70  C   UNL A   1      46.750  25.622  32.836  1.00  0.00     0.057 A 
ATOM     71  C   UNL A   1      48.011  25.981  32.340  1.00  0.00     0.134 A 
ATOM     72  C   UNL A   1      46.704  24.668  33.859  1.00  0.00     0.134 A 
ATOM     73  F   UNL A   1      48.121  26.879  31.350  1.00  0.00    -0.206 F 
ATOM     74  C   UNL A   1      49.179  25.392  32.826  1.00  0.00     0.040 A 
ATOM     75  C   UNL A   1      47.867  24.091  34.371  1.00  0.00     0.040 A 
ATOM     76  F   UNL A   1      45.530  24.287  34.385  1.00  0.00    -0.206 F 
ATOM     77  C   UNL A   1      49.109  24.447  33.849  1.00  0.00     0.006 A 
ENDBRANCH  53  70
ENDBRANCH  27  28
ENDBRANCH  19  22
ENDBRANCH  17  18
ENDBRANCH   1  17
TORSDOF 11
ENDMDL
MODEL 2
REMARK VINA RESULT:     -10.1      4.706     10.039
REMARK SMILES C[C@H]1CCC[C@H](C(C)(C)C(=O)NCCCNC(=O)c2ccc(-c3c4nc(c(-c5c(F)cccc5F)c5ccc([nH]5)c(-c5c(F)cccc5F)c5nc(c(-c6c(F)cccc6F)c6ccc3[nH]6)C=C5)C=C4)cc2)C1
REMARK SMILES IDX 14 1 13 2 12 3 10 4 11 5 7 7 8 8 9 9 6 10 1 11 2 12 3 13
REMARK SMILES IDX 73 14 4 15 5 16 15 17 16 18 17 19 18 21 19 22 20 23 72 24
REMARK SMILES IDX 21 25 71 26 22 27 23 28 24 29 65 30 25 31 70 32 64 33 66 34
REMARK SMILES IDX 26 35 69 36 63 37 62 38 27 40 53 41 36 42 52 43 37 44 40 45
REMARK SMILES IDX 51 46 67 47 38 48 39 49 50 51 68 52 41 53 28 54 29 55 34 56
REMARK SMILES IDX 30 57 31 58 33 59 35 60 32 61 54 62 55 63 60 64 56 65 57 66
REMARK SMILES IDX 59 67 61 68 58 69 42 70 43 71 48 72 44 73 45 74 47 75 49 76
REMARK SMILES IDX 46 77
REMARK H PARENT 12 6 16 20 66 39 40 50
REMARK Flexibility Score: inf
ROOT
ATOM      1  C   UNL A   1      37.493  19.663  25.031  1.00  0.00     0.042 C 
ENDROOT
BRANCH   1   2
ATOM      2  C   UNL A   1      36.298  20.608  24.924  1.00  0.00     0.117 C 
BRANCH   2   3
ATOM      3  N   UNL A   1      35.052  19.904  25.137  1.00  0.00    -0.356 N 
ATOM      4  C   UNL A   1      33.771  20.273  25.373  1.00  0.00     0.225 C 
ATOM      5  O   UNL A   1      33.072  19.333  25.751  1.00  0.00    -0.275 OA
ATOM      6  H   UNL A   1      35.160  18.926  25.104  1.00  0.00     0.163 HD
BRANCH   4   7
ATOM      7  C   UNL A   1      33.227  21.703  25.161  1.00  0.00     0.046 C 
ATOM      8  C   UNL A   1      31.680  21.625  25.199  1.00  0.00     0.022 C 
ATOM      9  C   UNL A   1      33.671  22.236  23.781  1.00  0.00     0.022 C 
BRANCH   7  10
ATOM     10  C   UNL A   1      33.675  22.770  26.265  1.00  0.00     0.004 C 
ATOM     11  C   UNL A   1      31.600  26.094  26.343  1.00  0.00     0.007 C 
ATOM     12  C   UNL A   1      32.583  25.063  25.782  1.00  0.00    -0.014 C 
ATOM     13  C   UNL A   1      33.968  25.699  25.599  1.00  0.00     0.003 C 
ATOM     14  C   UNL A   1      32.646  23.839  26.693  1.00  0.00     0.008 C 
ATOM     15  C   UNL A   1      35.105  24.724  25.296  1.00  0.00     0.001 C 
ATOM     16  C   UNL A   1      35.061  23.431  26.106  1.00  0.00     0.005 C 
ENDBRANCH   7  10
ENDBRANCH   4   7
ENDBRANCH   2   3
ENDBRANCH   1   2
BRANCH   1  17
ATOM     17  C   UNL A   1      38.755  20.310  25.600  1.00  0.00     0.118 C 
BRANCH  17  18
ATOM     18  N   UNL A   1      39.869  19.376  25.712  1.00  0.00    -0.352 N 
ATOM     19  C   UNL A   1      41.175  19.589  26.061  1.00  0.00     0.251 C 
ATOM     20  H   UNL A   1      39.644  18.441  25.503  1.00  0.00     0.163 HD
ATOM     21  O   UNL A   1      42.003  18.691  25.899  1.00  0.00    -0.269 OA
BRANCH  19  22
ATOM     22  C   UNL A   1      41.606  20.890  26.609  1.00  0.00     0.039 A 
ATOM     23  C   UNL A   1      42.094  21.861  25.731  1.00  0.00     0.014 A 
ATOM     24  C   UNL A   1      41.559  21.146  27.982  1.00  0.00     0.014 A 
ATOM     25  C   UNL A   1      42.469  23.113  26.222  1.00  0.00     0.010 A 
ATOM     26  C   UNL A   1      41.857  22.419  28.459  1.00  0.00     0.010 A 
ATOM     27  C   UNL A   1      42.317  23.414  27.585  1.00  0.00    -0.014 A 
BRANCH  27  28
ATOM     28  C   UNL A   1      42.630  24.768  28.108  1.00  0.00     0.031 A 
ATOM     29  C   UNL A   1      44.034  25.124  28.507  1.00  0.00     0.074 A 
ATOM     30  C   UNL A   1      41.632  25.658  28.277  1.00  0.00     0.049 A 
ATOM     31  N   UNL A   1      44.488  26.237  29.028  1.00  0.00    -0.248 NA
ATOM     32  C   UNL A   1      45.060  24.084  28.327  1.00  0.00     0.031 C 
ATOM     33  C   UNL A   1      40.219  25.413  27.979  1.00  0.00     0.029 A 
ATOM     34  N   UNL A   1      41.654  26.946  28.748  1.00  0.00    -0.354 N 
ATOM     35  C   UNL A   1      45.843  26.025  29.248  1.00  0.00     0.074 A 
ATOM     36  C   UNL A   1      46.128  24.662  28.856  1.00  0.00     0.031 C 
ATOM     37  C   UNL A   1      39.515  26.523  28.250  1.00  0.00     0.029 A 
ATOM     38  C   UNL A   1      40.417  27.545  28.771  1.00  0.00     0.049 A 
ATOM     39  H   UNL A   1      42.477  27.399  29.043  1.00  0.00     0.167 HD
ATOM     40  C   UNL A   1      46.771  26.895  29.714  1.00  0.00     0.037 A 
ATOM     41  C   UNL A   1      40.053  28.778  29.168  1.00  0.00     0.037 A 
ATOM     42  C   UNL A   1      46.491  28.259  30.078  1.00  0.00     0.049 A 
ATOM     43  C   UNL A   1      41.103  29.728  29.670  1.00  0.00     0.074 A 
ATOM     44  C   UNL A   1      47.373  29.239  30.497  1.00  0.00     0.029 A 
ATOM     45  N   UNL A   1      45.230  28.835  30.067  1.00  0.00    -0.354 N 
ATOM     46  N   UNL A   1      42.392  29.537  29.805  1.00  0.00    -0.248 NA
ATOM     47  C   UNL A   1      40.647  31.067  30.068  1.00  0.00     0.031 C 
ATOM     48  C   UNL A   1      46.640  30.398  30.778  1.00  0.00     0.029 A 
ATOM     49  C   UNL A   1      45.307  30.152  30.491  1.00  0.00     0.049 A 
ATOM     50  H   UNL A   1      44.401  28.377  29.797  1.00  0.00     0.167 HD
ATOM     51  C   UNL A   1      42.906  30.737  30.280  1.00  0.00     0.074 A 
ATOM     52  C   UNL A   1      41.790  31.653  30.392  1.00  0.00     0.031 C 
ATOM     53  C   UNL A   1      44.186  31.051  30.597  1.00  0.00     0.037 A 
BRANCH  40  54
ATOM     54  C   UNL A   1      48.180  26.396  29.848  1.00  0.00     0.057 A 
ATOM     55  C   UNL A   1      48.641  25.792  31.026  1.00  0.00     0.134 A 
ATOM     56  C   UNL A   1      49.079  26.490  28.777  1.00  0.00     0.134 A 
ATOM     57  F   UNL A   1      47.835  25.681  32.093  1.00  0.00    -0.206 F 
ATOM     58  C   UNL A   1      49.952  25.325  31.144  1.00  0.00     0.040 A 
ATOM     59  C   UNL A   1      50.383  26.003  28.874  1.00  0.00     0.040 A 
ATOM     60  F   UNL A   1      48.702  27.051  27.619  1.00  0.00    -0.206 F 
ATOM     61  C   UNL A   1      50.825  25.425  30.062  1.00  0.00     0.006 A 
ENDBRANCH  40  54
BRANCH  41  62
ATOM     62  C   UNL A   1      38.632  29.196  29.079  1.00  0.00     0.057 A 
ATOM     63  C   UNL A   1      37.791  29.135  30.197  1.00  0.00     0.134 A 
ATOM     64  C   UNL A   1      38.078  29.660  27.879  1.00  0.00     0.134 A 
ATOM     65  F   UNL A   1      38.260  28.683  31.368  1.00  0.00    -0.206 F 
ATOM     66  C   UNL A   1      36.447  29.501  30.121  1.00  0.00     0.040 A 
ATOM     67  C   UNL A   1      36.741  30.052  27.796  1.00  0.00     0.040 A 
ATOM     68  F   UNL A   1      38.833  29.749  26.775  1.00  0.00    -0.206 F 
ATOM     69  C   UNL A   1      35.919  29.966  28.918  1.00  0.00     0.006 A 
ENDBRANCH  41  62
BRANCH  53  70
ATOM     70  C   UNL A   1      44.448  32.451  31.067  1.00  0.00     0.057 A 
ATOM     71  C   UNL A   1      44.732  33.490  30.171  1.00  0.00     0.134 A 
ATOM     72  C   UNL A   1      44.388  32.769  32.429  1.00  0.00     0.134 A 
ATOM     73  F   UNL A   1      44.817  33.247  28.854  1.00  0.00    -0.206 F 
ATOM     74  C   UNL A   1      44.973  34.790  30.616  1.00  0.00     0.040 A 
ATOM     75  C   UNL A   1      44.603  34.071  32.884  1.00  0.00     0.040 A 
ATOM     76  F   UNL A   1      44.113  31.823  33.340  1.00  0.00    -0.206 F 
ATOM     77  C   UNL A   1      44.904  35.084  31.977  1.00  0.00     0.006 A 
ENDBRANCH  53  70
ENDBRANCH  27  28
ENDBRANCH  19  22
ENDBRANCH  17  18
ENDBRANCH   1  17
TORSDOF 11
ENDMDL
MODEL 3
REMARK VINA RESULT:     -10.1      4.234     10.963
REMARK SMILES C[C@H]1CCC[C@H](C(C)(C)C(=O)NCCCNC(=O)c2ccc(-c3c4nc(c(-c5c(F)cccc5F)c5ccc([nH]5)c(-c5c(F)cccc5F)c5nc(c(-c6c(F)cccc6F)c6ccc3[nH]6)C=C5)C=C4)cc2)C1
REMARK SMILES IDX 14 1 13 2 12 3 10 4 11 5 7 7 8 8 9 9 6 10 1 11 2 12 3 13
REMARK SMILES IDX 73 14 4 15 5 16 15 17 16 18 17 19 18 21 19 22 20 23 72 24
REMARK SMILES IDX 21 25 71 26 22 27 23 28 24 29 65 30 25 31 70 32 64 33 66 34
REMARK SMILES IDX 26 35 69 36 63 37 62 38 27 40 53 41 36 42 52 43 37 44 40 45
REMARK SMILES IDX 51 46 67 47 38 48 39 49 50 51 68 52 41 53 28 54 29 55 34 56
REMARK SMILES IDX 30 57 31 58 33 59 35 60 32 61 54 62 55 63 60 64 56 65 57 66
REMARK SMILES IDX 59 67 61 68 58 69 42 70 43 71 48 72 44 73 45 74 47 75 49 76
REMARK SMILES IDX 46 77
REMARK H PARENT 12 6 16 20 66 39 40 50
REMARK Flexibility Score: inf
ROOT
ATOM      1  C   UNL A   1      42.132  20.548  27.185  1.00  0.00     0.042 C 
ENDROOT
BRANCH   1   2
ATOM      2  C   UNL A   1      42.792  20.964  25.873  1.00  0.00     0.117 C 
BRANCH   2   3
ATOM      3  N   UNL A   1      44.208  20.665  25.881  1.00  0.00    -0.356 N 
ATOM      4  C   UNL A   1      45.312  21.238  25.345  1.00  0.00     0.225 C 
ATOM      5  O   UNL A   1      46.295  20.499  25.390  1.00  0.00    -0.275 OA
ATOM      6  H   UNL A   1      44.420  19.854  26.397  1.00  0.00     0.163 HD
BRANCH   4   7
ATOM      7  C   UNL A   1      45.353  22.672  24.772  1.00  0.00     0.046 C 
ATOM      8  C   UNL A   1      44.326  22.741  23.615  1.00  0.00     0.022 C 
ATOM      9  C   UNL A   1      46.761  22.976  24.215  1.00  0.00     0.022 C 
BRANCH   7  10
ATOM     10  C   UNL A   1      44.976  23.829  25.810  1.00  0.00     0.004 C 
ATOM     11  C   UNL A   1      46.087  27.445  24.787  1.00  0.00     0.007 C 
ATOM     12  C   UNL A   1      46.269  25.993  25.239  1.00  0.00    -0.014 C 
ATOM     13  C   UNL A   1      46.974  25.948  26.601  1.00  0.00     0.003 C 
ATOM     14  C   UNL A   1      44.919  25.279  25.284  1.00  0.00     0.008 C 
ATOM     15  C   UNL A   1      46.985  24.584  27.291  1.00  0.00     0.001 C 
ATOM     16  C   UNL A   1      45.672  23.813  27.188  1.00  0.00     0.005 C 
ENDBRANCH   7  10
ENDBRANCH   4   7
ENDBRANCH   2   3
ENDBRANCH   1   2
BRANCH   1  17
ATOM     17  C   UNL A   1      41.025  21.490  27.656  1.00  0.00     0.118 C 
BRANCH  17  18
ATOM     18  N   UNL A   1      39.929  21.599  26.700  1.00  0.00    -0.352 N 
ATOM     19  C   UNL A   1      39.157  22.675  26.351  1.00  0.00     0.251 C 
ATOM     20  H   UNL A   1      39.709  20.763  26.230  1.00  0.00     0.163 HD
ATOM     21  O   UNL A   1      38.149  22.505  25.666  1.00  0.00    -0.269 OA
BRANCH  19  22
ATOM     22  C   UNL A   1      39.511  24.034  26.806  1.00  0.00     0.039 A 
ATOM     23  C   UNL A   1      39.185  24.412  28.111  1.00  0.00     0.014 A 
ATOM     24  C   UNL A   1      40.134  24.944  25.948  1.00  0.00     0.014 A 
ATOM     25  C   UNL A   1      39.545  25.678  28.576  1.00  0.00     0.010 A 
ATOM     26  C   UNL A   1      40.563  26.174  26.436  1.00  0.00     0.010 A 
ATOM     27  C   UNL A   1      40.271  26.555  27.754  1.00  0.00    -0.014 A 
BRANCH  27  28
ATOM     28  C   UNL A   1      40.737  27.870  28.262  1.00  0.00     0.031 A 
ATOM     29  C   UNL A   1      42.206  28.172  28.358  1.00  0.00     0.074 A 
ATOM     30  C   UNL A   1      39.832  28.770  28.692  1.00  0.00     0.049 A 
ATOM     31  N   UNL A   1      42.802  29.242  28.820  1.00  0.00    -0.248 NA
ATOM     32  C   UNL A   1      43.131  27.121  27.903  1.00  0.00     0.031 C 
ATOM     33  C   UNL A   1      38.381  28.574  28.703  1.00  0.00     0.029 A 
ATOM     34  N   UNL A   1      40.001  30.030  29.211  1.00  0.00    -0.354 N 
ATOM     35  C   UNL A   1      44.164  28.989  28.724  1.00  0.00     0.074 A 
ATOM     36  C   UNL A   1      44.308  27.644  28.211  1.00  0.00     0.031 C 
ATOM     37  C   UNL A   1      37.791  29.683  29.178  1.00  0.00     0.029 A 
ATOM     38  C   UNL A   1      38.821  30.653  29.537  1.00  0.00     0.049 A 
ATOM     39  H   UNL A   1      40.884  30.446  29.338  1.00  0.00     0.167 HD
ATOM     40  C   UNL A   1      45.201  29.810  29.016  1.00  0.00     0.037 A 
ATOM     41  C   UNL A   1      38.595  31.870  30.067  1.00  0.00     0.037 A 
ATOM     42  C   UNL A   1      45.054  31.158  29.501  1.00  0.00     0.049 A 
ATOM     43  C   UNL A   1      39.762  32.766  30.371  1.00  0.00     0.074 A 
ATOM     44  C   UNL A   1      46.040  32.092  29.763  1.00  0.00     0.029 A 
ATOM     45  N   UNL A   1      43.842  31.761  29.799  1.00  0.00    -0.354 N 
ATOM     46  N   UNL A   1      41.042  32.540  30.207  1.00  0.00    -0.248 NA
ATOM     47  C   UNL A   1      39.450  34.090  30.927  1.00  0.00     0.031 C 
ATOM     48  C   UNL A   1      45.426  33.249  30.257  1.00  0.00     0.029 A 
ATOM     49  C   UNL A   1      44.056  33.049  30.261  1.00  0.00     0.049 A 
ATOM     50  H   UNL A   1      42.959  31.337  29.696  1.00  0.00     0.167 HD
ATOM     51  C   UNL A   1      41.688  33.698  30.616  1.00  0.00     0.074 A 
ATOM     52  C   UNL A   1      40.656  34.632  31.018  1.00  0.00     0.031 C 
ATOM     53  C   UNL A   1      43.017  33.966  30.657  1.00  0.00     0.037 A 
BRANCH  40  54
ATOM     54  C   UNL A   1      46.587  29.273  28.809  1.00  0.00     0.057 A 
ATOM     55  C   UNL A   1      47.224  28.482  29.774  1.00  0.00     0.134 A 
ATOM     56  C   UNL A   1      47.282  29.522  27.618  1.00  0.00     0.134 A 
ATOM     57  F   UNL A   1      46.619  28.215  30.941  1.00  0.00    -0.206 F 
ATOM     58  C   UNL A   1      48.512  27.981  29.575  1.00  0.00     0.040 A 
ATOM     59  C   UNL A   1      48.559  29.005  27.397  1.00  0.00     0.040 A 
ATOM     60  F   UNL A   1      46.729  30.267  26.650  1.00  0.00    -0.206 F 
ATOM     61  C   UNL A   1      49.180  28.237  28.379  1.00  0.00     0.006 A 
ENDBRANCH  40  54
BRANCH  41  62
ATOM     62  C   UNL A   1      37.204  32.323  30.316  1.00  0.00     0.057 A 
ATOM     63  C   UNL A   1      36.553  32.023  31.518  1.00  0.00     0.134 A 
ATOM     64  C   UNL A   1      36.491  33.060  29.362  1.00  0.00     0.134 A 
ATOM     65  F   UNL A   1      37.178  31.306  32.462  1.00  0.00    -0.206 F 
ATOM     66  C   UNL A   1      35.237  32.422  31.756  1.00  0.00     0.040 A 
ATOM     67  C   UNL A   1      35.183  33.486  29.596  1.00  0.00     0.040 A 
ATOM     68  F   UNL A   1      37.063  33.387  28.194  1.00  0.00    -0.206 F 
ATOM     69  C   UNL A   1      34.549  33.161  30.794  1.00  0.00     0.006 A 
ENDBRANCH  41  62
BRANCH  53  70
ATOM     70  C   UNL A   1      43.423  35.331  31.127  1.00  0.00     0.057 A 
ATOM     71  C   UNL A   1      43.683  35.599  32.478  1.00  0.00     0.134 A 
ATOM     72  C   UNL A   1      43.582  36.381  30.216  1.00  0.00     0.134 A 
ATOM     73  F   UNL A   1      43.535  34.639  33.403  1.00  0.00    -0.206 F 
ATOM     74  C   UNL A   1      44.061  36.872  32.907  1.00  0.00     0.040 A 
ATOM     75  C   UNL A   1      43.985  37.651  30.630  1.00  0.00     0.040 A 
ATOM     76  F   UNL A   1      43.358  36.189  28.907  1.00  0.00    -0.206 F 
ATOM     77  C   UNL A   1      44.218  37.902  31.981  1.00  0.00     0.006 A 
ENDBRANCH  53  70
ENDBRANCH  27  28
ENDBRANCH  19  22
ENDBRANCH  17  18
ENDBRANCH   1  17
TORSDOF 11
ENDMDL
