MODEL 1
REMARK VINA RESULT:     -12.6      0.000      0.000
REMARK SMILES CC(C)CCc1cc2c(cc1Cl)C=C(C(=O)NCCCNC(=O)c1ccc(-c3c4nc(c(-c5c(F)cccc5F)c5ccc([nH]5)c(-c5c(F)cccc5F)c5nc(c(-c6c(F)cccc6F)c6ccc3[nH]6)C=C5)C=C4)cc1)[C@@H](C(F)(F)F)O2
REMARK SMILES IDX 18 1 17 2 15 3 16 4 14 6 6 7 7 8 11 9 8 10 10 11 12 12 9 13
REMARK SMILES IDX 83 14 13 15 78 16 5 17 4 18 2 19 1 20 3 21 79 22 80 23 81 24
REMARK SMILES IDX 82 25 19 26 20 27 21 28 22 29 23 31 24 32 25 33 77 34 26 35
REMARK SMILES IDX 76 36 27 37 28 38 29 39 70 40 30 41 75 42 69 43 71 44 31 45
REMARK SMILES IDX 74 46 68 47 67 48 32 50 58 51 41 52 57 53 42 54 45 55 56 56
REMARK SMILES IDX 72 57 43 58 44 59 55 61 73 62 46 63 33 64 34 65 39 66 35 67
REMARK SMILES IDX 36 68 38 69 40 70 37 71 59 72 60 73 65 74 61 75 62 76 64 77
REMARK SMILES IDX 66 78 63 79 47 80 48 81 53 82 49 83 50 84 52 85 54 86 51 87
REMARK H PARENT 17 5 21 30 71 49 45 60
REMARK Flexibility Score: inf
ROOT
ATOM      1  C   UNL A   1      31.645  30.622  26.360  1.00  0.00     0.118 C 
ENDROOT
BRANCH   1   2
ATOM      2  N   UNL A   1      31.239  30.218  25.022  1.00  0.00    -0.352 N 
ATOM      3  C   UNL A   1      31.158  29.071  24.310  1.00  0.00     0.251 C 
ATOM      4  O   UNL A   1      30.764  29.207  23.148  1.00  0.00    -0.270 OA
ATOM      5  H   UNL A   1      30.942  30.991  24.489  1.00  0.00     0.163 HD
BRANCH   3   6
ATOM      6  C   UNL A   1      31.499  27.715  24.821  1.00  0.00     0.067 C 
ATOM      7  C   UNL A   1      33.932  23.578  26.393  1.00  0.00    -0.026 A 
ATOM      8  C   UNL A   1      32.615  24.058  26.520  1.00  0.00     0.052 A 
ATOM      9  C   UNL A   1      34.872  24.391  25.734  1.00  0.00     0.045 A 
ATOM     10  C   UNL A   1      32.261  25.305  26.012  1.00  0.00     0.128 A 
ATOM     11  C   UNL A   1      34.519  25.666  25.271  1.00  0.00     0.032 A 
ATOM     12  Cl  UNL A   1      36.488  23.871  25.423  1.00  0.00    -0.084 Cl
ATOM     13  C   UNL A   1      33.211  26.126  25.409  1.00  0.00     0.019 A 
ATOM     14  O   UNL A   1      30.955  25.687  26.152  1.00  0.00    -0.475 OA
ATOM     15  C   UNL A   1      32.813  27.450  24.947  1.00  0.00     0.025 C 
ATOM     16  C   UNL A   1      30.493  26.650  25.160  1.00  0.00     0.314 C 
BRANCH   7  17
ATOM     17  C   UNL A   1      34.246  22.213  26.967  1.00  0.00     0.037 C 
BRANCH  17  18
ATOM     18  C   UNL A   1      33.551  21.019  26.294  1.00  0.00     0.008 C 
BRANCH  18  19
ATOM     19  C   UNL A   1      34.137  20.580  24.939  1.00  0.00    -0.017 C 
ATOM     20  C   UNL A   1      35.658  20.443  24.988  1.00  0.00     0.007 C 
ATOM     21  C   UNL A   1      33.503  19.254  24.511  1.00  0.00     0.007 C 
ENDBRANCH  18  19
ENDBRANCH  17  18
ENDBRANCH   7  17
BRANCH  16  22
ATOM     22  C   UNL A   1      29.975  25.907  23.910  1.00  0.00     0.429 C 
ATOM     23  F   UNL A   1      30.748  26.199  22.833  1.00  0.00    -0.167 F 
ATOM     24  F   UNL A   1      30.014  24.560  24.056  1.00  0.00    -0.167 F 
ATOM     25  F   UNL A   1      28.701  26.227  23.593  1.00  0.00    -0.167 F 
ENDBRANCH  16  22
ENDBRANCH   3   6
ENDBRANCH   1   2
BRANCH   1  26
ATOM     26  C   UNL A   1      31.439  32.113  26.582  1.00  0.00     0.042 C 
BRANCH  26  27
ATOM     27  C   UNL A   1      32.643  32.774  27.239  1.00  0.00     0.118 C 
BRANCH  27  28
ATOM     28  N   UNL A   1      32.383  34.168  27.591  1.00  0.00    -0.352 N 
ATOM     29  C   UNL A   1      32.953  34.965  28.556  1.00  0.00     0.251 C 
ATOM     30  H   UNL A   1      31.686  34.607  27.052  1.00  0.00     0.163 HD
ATOM     31  O   UNL A   1      32.436  36.039  28.848  1.00  0.00    -0.269 OA
BRANCH  29  32
ATOM     32  C   UNL A   1      34.176  34.521  29.253  1.00  0.00     0.039 A 
ATOM     33  C   UNL A   1      35.425  34.680  28.654  1.00  0.00     0.014 A 
ATOM     34  C   UNL A   1      34.076  33.934  30.518  1.00  0.00     0.014 A 
ATOM     35  C   UNL A   1      36.537  34.070  29.214  1.00  0.00     0.010 A 
ATOM     36  C   UNL A   1      35.219  33.420  31.136  1.00  0.00     0.010 A 
ATOM     37  C   UNL A   1      36.449  33.431  30.462  1.00  0.00    -0.014 A 
BRANCH  37  38
ATOM     38  C   UNL A   1      37.660  32.775  31.018  1.00  0.00     0.031 A 
ATOM     39  C   UNL A   1      38.227  33.204  32.344  1.00  0.00     0.074 A 
ATOM     40  C   UNL A   1      38.197  31.728  30.362  1.00  0.00     0.049 A 
ATOM     41  N   UNL A   1      39.249  32.715  33.002  1.00  0.00    -0.248 NA
ATOM     42  C   UNL A   1      37.568  34.332  33.018  1.00  0.00     0.031 C 
ATOM     43  C   UNL A   1      37.723  31.206  29.076  1.00  0.00     0.029 A 
ATOM     44  N   UNL A   1      39.226  30.890  30.701  1.00  0.00    -0.354 N 
ATOM     45  C   UNL A   1      39.370  33.490  34.148  1.00  0.00     0.074 A 
ATOM     46  C   UNL A   1      38.336  34.500  34.085  1.00  0.00     0.031 C 
ATOM     47  C   UNL A   1      38.404  30.092  28.777  1.00  0.00     0.029 A 
ATOM     48  C   UNL A   1      39.411  29.863  29.807  1.00  0.00     0.049 A 
ATOM     49  H   UNL A   1      39.777  31.010  31.507  1.00  0.00     0.167 HD
ATOM     50  C   UNL A   1      40.256  33.367  35.167  1.00  0.00     0.037 A 
ATOM     51  C   UNL A   1      40.299  28.853  29.811  1.00  0.00     0.037 A 
ATOM     52  C   UNL A   1      41.269  32.346  35.240  1.00  0.00     0.049 A 
ATOM     53  C   UNL A   1      41.298  28.767  30.926  1.00  0.00     0.074 A 
ATOM     54  C   UNL A   1      42.203  32.122  36.237  1.00  0.00     0.029 A 
ATOM     55  N   UNL A   1      41.480  31.373  34.272  1.00  0.00    -0.354 N 
ATOM     56  N   UNL A   1      41.406  29.513  31.999  1.00  0.00    -0.248 NA
ATOM     57  C   UNL A   1      42.312  27.711  30.818  1.00  0.00     0.031 C 
ATOM     58  C   UNL A   1      43.002  31.037  35.854  1.00  0.00     0.029 A 
ATOM     59  C   UNL A   1      42.541  30.561  34.637  1.00  0.00     0.049 A 
ATOM     60  H   UNL A   1      40.951  31.275  33.447  1.00  0.00     0.167 HD
ATOM     61  C   UNL A   1      42.493  29.013  32.699  1.00  0.00     0.074 A 
ATOM     62  C   UNL A   1      42.996  27.885  31.940  1.00  0.00     0.031 C 
ATOM     63  C   UNL A   1      43.034  29.452  33.862  1.00  0.00     0.037 A 
BRANCH  50  64
ATOM     64  C   UNL A   1      40.181  34.384  36.269  1.00  0.00     0.057 A 
ATOM     65  C   UNL A   1      40.864  35.602  36.159  1.00  0.00     0.134 A 
ATOM     66  C   UNL A   1      39.434  34.165  37.434  1.00  0.00     0.134 A 
ATOM     67  F   UNL A   1      41.600  35.876  35.072  1.00  0.00    -0.206 F 
ATOM     68  C   UNL A   1      40.801  36.568  37.165  1.00  0.00     0.040 A 
ATOM     69  C   UNL A   1      39.344  35.135  38.436  1.00  0.00     0.040 A 
ATOM     70  F   UNL A   1      38.743  33.028  37.594  1.00  0.00    -0.206 F 
ATOM     71  C   UNL A   1      40.031  36.339  38.304  1.00  0.00     0.006 A 
ENDBRANCH  50  64
BRANCH  51  72
ATOM     72  C   UNL A   1      40.283  27.851  28.719  1.00  0.00     0.057 A 
ATOM     73  C   UNL A   1      39.578  26.647  28.840  1.00  0.00     0.134 A 
ATOM     74  C   UNL A   1      40.987  28.071  27.530  1.00  0.00     0.134 A 
ATOM     75  F   UNL A   1      38.889  26.376  29.958  1.00  0.00    -0.206 F 
ATOM     76  C   UNL A   1      39.589  25.689  27.826  1.00  0.00     0.040 A 
ATOM     77  C   UNL A   1      40.985  27.133  26.496  1.00  0.00     0.040 A 
ATOM     78  F   UNL A   1      41.665  29.213  27.348  1.00  0.00    -0.206 F 
ATOM     79  C   UNL A   1      40.290  25.933  26.647  1.00  0.00     0.006 A 
ENDBRANCH  51  72
BRANCH  63  80
ATOM     80  C   UNL A   1      44.219  28.694  34.379  1.00  0.00     0.057 A 
ATOM     81  C   UNL A   1      45.520  29.091  34.050  1.00  0.00     0.134 A 
ATOM     82  C   UNL A   1      44.070  27.572  35.204  1.00  0.00     0.134 A 
ATOM     83  F   UNL A   1      45.730  30.156  33.261  1.00  0.00    -0.206 F 
ATOM     84  C   UNL A   1      46.634  28.399  34.528  1.00  0.00     0.040 A 
ATOM     85  C   UNL A   1      45.177  26.886  35.706  1.00  0.00     0.040 A 
ATOM     86  F   UNL A   1      42.849  27.153  35.569  1.00  0.00    -0.206 F 
ATOM     87  C   UNL A   1      46.463  27.298  35.365  1.00  0.00     0.006 A 
ENDBRANCH  63  80
ENDBRANCH  37  38
ENDBRANCH  29  32
ENDBRANCH  27  28
ENDBRANCH  26  27
ENDBRANCH   1  26
TORSDOF 14
ENDMDL
MODEL 2
REMARK VINA RESULT:     -12.6      5.291     10.116
REMARK SMILES CC(C)CCc1cc2c(cc1Cl)C=C(C(=O)NCCCNC(=O)c1ccc(-c3c4nc(c(-c5c(F)cccc5F)c5ccc([nH]5)c(-c5c(F)cccc5F)c5nc(c(-c6c(F)cccc6F)c6ccc3[nH]6)C=C5)C=C4)cc1)[C@@H](C(F)(F)F)O2
REMARK SMILES IDX 18 1 17 2 15 3 16 4 14 6 6 7 7 8 11 9 8 10 10 11 12 12 9 13
REMARK SMILES IDX 83 14 13 15 78 16 5 17 4 18 2 19 1 20 3 21 79 22 80 23 81 24
REMARK SMILES IDX 82 25 19 26 20 27 21 28 22 29 23 31 24 32 25 33 77 34 26 35
REMARK SMILES IDX 76 36 27 37 28 38 29 39 70 40 30 41 75 42 69 43 71 44 31 45
REMARK SMILES IDX 74 46 68 47 67 48 32 50 58 51 41 52 57 53 42 54 45 55 56 56
REMARK SMILES IDX 72 57 43 58 44 59 55 61 73 62 46 63 33 64 34 65 39 66 35 67
REMARK SMILES IDX 36 68 38 69 40 70 37 71 59 72 60 73 65 74 61 75 62 76 64 77
REMARK SMILES IDX 66 78 63 79 47 80 48 81 53 82 49 83 50 84 52 85 54 86 51 87
REMARK H PARENT 17 5 21 30 71 49 45 60
REMARK Flexibility Score: inf
ROOT
ATOM      1  C   UNL A   1      36.604  20.630  25.194  1.00  0.00     0.118 C 
ENDROOT
BRANCH   1   2
ATOM      2  N   UNL A   1      35.399  19.855  24.942  1.00  0.00    -0.352 N 
ATOM      3  C   UNL A   1      34.071  20.086  24.832  1.00  0.00     0.251 C 
ATOM      4  O   UNL A   1      33.384  19.081  24.629  1.00  0.00    -0.270 OA
ATOM      5  H   UNL A   1      35.607  18.900  24.818  1.00  0.00     0.163 HD
BRANCH   3   6
ATOM      6  C   UNL A   1      33.418  21.420  24.934  1.00  0.00     0.067 C 
ATOM      7  C   UNL A   1      31.866  26.153  24.100  1.00  0.00    -0.026 A 
ATOM      8  C   UNL A   1      31.426  25.099  24.922  1.00  0.00     0.052 A 
ATOM      9  C   UNL A   1      32.955  25.913  23.243  1.00  0.00     0.045 A 
ATOM     10  C   UNL A   1      32.048  23.854  24.877  1.00  0.00     0.128 A 
ATOM     11  C   UNL A   1      33.542  24.642  23.167  1.00  0.00     0.032 A 
ATOM     12  Cl  UNL A   1      33.654  27.152  22.265  1.00  0.00    -0.084 Cl
ATOM     13  C   UNL A   1      33.089  23.610  23.985  1.00  0.00     0.019 A 
ATOM     14  O   UNL A   1      31.577  22.891  25.726  1.00  0.00    -0.475 OA
ATOM     15  C   UNL A   1      33.672  22.275  23.925  1.00  0.00     0.025 C 
ATOM     16  C   UNL A   1      32.548  21.862  26.078  1.00  0.00     0.314 C 
BRANCH   7  17
ATOM     17  C   UNL A   1      31.144  27.479  24.203  1.00  0.00     0.037 C 
BRANCH  17  18
ATOM     18  C   UNL A   1      31.763  28.515  25.155  1.00  0.00     0.008 C 
BRANCH  18  19
ATOM     19  C   UNL A   1      32.549  27.942  26.349  1.00  0.00    -0.017 C 
ATOM     20  C   UNL A   1      33.955  28.532  26.448  1.00  0.00     0.007 C 
ATOM     21  C   UNL A   1      31.778  28.202  27.645  1.00  0.00     0.007 C 
ENDBRANCH  18  19
ENDBRANCH  17  18
ENDBRANCH   7  17
BRANCH  16  22
ATOM     22  C   UNL A   1      33.369  22.316  27.304  1.00  0.00     0.429 C 
ATOM     23  F   UNL A   1      32.543  22.652  28.327  1.00  0.00    -0.167 F 
ATOM     24  F   UNL A   1      34.181  21.338  27.773  1.00  0.00    -0.167 F 
ATOM     25  F   UNL A   1      34.155  23.385  27.049  1.00  0.00    -0.167 F 
ENDBRANCH  16  22
ENDBRANCH   3   6
ENDBRANCH   1   2
BRANCH   1  26
ATOM     26  C   UNL A   1      37.860  19.833  24.879  1.00  0.00     0.042 C 
BRANCH  26  27
ATOM     27  C   UNL A   1      39.044  20.246  25.744  1.00  0.00     0.118 C 
BRANCH  27  28
ATOM     28  N   UNL A   1      40.051  19.192  25.842  1.00  0.00    -0.352 N 
ATOM     29  C   UNL A   1      41.412  19.273  26.016  1.00  0.00     0.251 C 
ATOM     30  H   UNL A   1      39.697  18.276  25.771  1.00  0.00     0.163 HD
ATOM     31  O   UNL A   1      42.112  18.281  25.841  1.00  0.00    -0.269 OA
BRANCH  29  32
ATOM     32  C   UNL A   1      42.033  20.558  26.393  1.00  0.00     0.039 A 
ATOM     33  C   UNL A   1      42.211  20.885  27.738  1.00  0.00     0.014 A 
ATOM     34  C   UNL A   1      42.440  21.449  25.396  1.00  0.00     0.014 A 
ATOM     35  C   UNL A   1      42.592  22.172  28.084  1.00  0.00     0.010 A 
ATOM     36  C   UNL A   1      42.934  22.707  25.750  1.00  0.00     0.010 A 
ATOM     37  C   UNL A   1      42.958  23.101  27.096  1.00  0.00    -0.014 A 
BRANCH  37  38
ATOM     38  C   UNL A   1      43.343  24.475  27.510  1.00  0.00     0.031 A 
ATOM     39  C   UNL A   1      44.766  24.946  27.383  1.00  0.00     0.074 A 
ATOM     40  C   UNL A   1      42.384  25.327  27.920  1.00  0.00     0.049 A 
ATOM     41  N   UNL A   1      45.274  26.123  27.653  1.00  0.00    -0.248 NA
ATOM     42  C   UNL A   1      45.752  23.968  26.897  1.00  0.00     0.031 C 
ATOM     43  C   UNL A   1      40.964  24.993  28.066  1.00  0.00     0.029 A 
ATOM     44  N   UNL A   1      42.447  26.656  28.248  1.00  0.00    -0.354 N 
ATOM     45  C   UNL A   1      46.635  26.019  27.397  1.00  0.00     0.074 A 
ATOM     46  C   UNL A   1      46.881  24.657  26.976  1.00  0.00     0.031 C 
ATOM     47  C   UNL A   1      40.281  26.104  28.373  1.00  0.00     0.029 A 
ATOM     48  C   UNL A   1      41.220  27.210  28.521  1.00  0.00     0.049 A 
ATOM     49  H   UNL A   1      43.289  27.165  28.283  1.00  0.00     0.167 HD
ATOM     50  C   UNL A   1      47.592  26.974  27.493  1.00  0.00     0.037 A 
ATOM     51  C   UNL A   1      40.887  28.468  28.861  1.00  0.00     0.037 A 
ATOM     52  C   UNL A   1      47.341  28.335  27.889  1.00  0.00     0.049 A 
ATOM     53  C   UNL A   1      41.971  29.493  29.006  1.00  0.00     0.074 A 
ATOM     54  C   UNL A   1      48.237  29.385  28.001  1.00  0.00     0.029 A 
ATOM     55  N   UNL A   1      46.095  28.838  28.240  1.00  0.00    -0.354 N 
ATOM     56  N   UNL A   1      43.255  29.378  28.768  1.00  0.00    -0.248 NA
ATOM     57  C   UNL A   1      41.561  30.818  29.487  1.00  0.00     0.031 C 
ATOM     58  C   UNL A   1      47.539  30.511  28.453  1.00  0.00     0.029 A 
ATOM     59  C   UNL A   1      46.202  30.174  28.587  1.00  0.00     0.049 A 
ATOM     60  H   UNL A   1      45.258  28.319  28.240  1.00  0.00     0.167 HD
ATOM     61  C   UNL A   1      43.807  30.616  29.062  1.00  0.00     0.074 A 
ATOM     62  C   UNL A   1      42.713  31.473  29.474  1.00  0.00     0.031 C 
ATOM     63  C   UNL A   1      45.103  31.007  29.006  1.00  0.00     0.037 A 
BRANCH  50  64
ATOM     64  C   UNL A   1      49.004  26.563  27.191  1.00  0.00     0.057 A 
ATOM     65  C   UNL A   1      49.498  26.623  25.882  1.00  0.00     0.134 A 
ATOM     66  C   UNL A   1      49.877  26.110  28.190  1.00  0.00     0.134 A 
ATOM     67  F   UNL A   1      48.716  27.043  24.877  1.00  0.00    -0.206 F 
ATOM     68  C   UNL A   1      50.810  26.256  25.578  1.00  0.00     0.040 A 
ATOM     69  C   UNL A   1      51.200  25.764  27.902  1.00  0.00     0.040 A 
ATOM     70  F   UNL A   1      49.473  26.045  29.467  1.00  0.00    -0.206 F 
ATOM     71  C   UNL A   1      51.669  25.834  26.591  1.00  0.00     0.006 A 
ENDBRANCH  50  64
BRANCH  51  72
ATOM     72  C   UNL A   1      39.465  28.819  29.093  1.00  0.00     0.057 A 
ATOM     73  C   UNL A   1      38.874  28.682  30.354  1.00  0.00     0.134 A 
ATOM     74  C   UNL A   1      38.661  29.291  28.050  1.00  0.00     0.134 A 
ATOM     75  F   UNL A   1      39.591  28.230  31.393  1.00  0.00    -0.206 F 
ATOM     76  C   UNL A   1      37.528  28.982  30.566  1.00  0.00     0.040 A 
ATOM     77  C   UNL A   1      37.320  29.620  28.253  1.00  0.00     0.040 A 
ATOM     78  F   UNL A   1      39.178  29.461  26.824  1.00  0.00    -0.206 F 
ATOM     79  C   UNL A   1      36.748  29.457  29.514  1.00  0.00     0.006 A 
ENDBRANCH  51  72
BRANCH  63  80
ATOM     80  C   UNL A   1      45.393  32.427  29.387  1.00  0.00     0.057 A 
ATOM     81  C   UNL A   1      45.321  33.451  28.436  1.00  0.00     0.134 A 
ATOM     82  C   UNL A   1      45.742  32.779  30.696  1.00  0.00     0.134 A 
ATOM     83  F   UNL A   1      44.995  33.179  27.163  1.00  0.00    -0.206 F 
ATOM     84  C   UNL A   1      45.582  34.779  28.775  1.00  0.00     0.040 A 
ATOM     85  C   UNL A   1      45.984  34.107  31.053  1.00  0.00     0.040 A 
ATOM     86  F   UNL A   1      45.811  31.845  31.657  1.00  0.00    -0.206 F 
ATOM     87  C   UNL A   1      45.908  35.110  30.090  1.00  0.00     0.006 A 
ENDBRANCH  63  80
ENDBRANCH  37  38
ENDBRANCH  29  32
ENDBRANCH  27  28
ENDBRANCH  26  27
ENDBRANCH   1  26
TORSDOF 14
ENDMDL
MODEL 3
REMARK VINA RESULT:     -12.6      5.307     10.203
REMARK SMILES CC(C)CCc1cc2c(cc1Cl)C=C(C(=O)NCCCNC(=O)c1ccc(-c3c4nc(c(-c5c(F)cccc5F)c5ccc([nH]5)c(-c5c(F)cccc5F)c5nc(c(-c6c(F)cccc6F)c6ccc3[nH]6)C=C5)C=C4)cc1)[C@@H](C(F)(F)F)O2
REMARK SMILES IDX 18 1 17 2 15 3 16 4 14 6 6 7 7 8 11 9 8 10 10 11 12 12 9 13
REMARK SMILES IDX 83 14 13 15 78 16 5 17 4 18 2 19 1 20 3 21 79 22 80 23 81 24
REMARK SMILES IDX 82 25 19 26 20 27 21 28 22 29 23 31 24 32 25 33 77 34 26 35
REMARK SMILES IDX 76 36 27 37 28 38 29 39 70 40 30 41 75 42 69 43 71 44 31 45
REMARK SMILES IDX 74 46 68 47 67 48 32 50 58 51 41 52 57 53 42 54 45 55 56 56
REMARK SMILES IDX 72 57 43 58 44 59 55 61 73 62 46 63 33 64 34 65 39 66 35 67
REMARK SMILES IDX 36 68 38 69 40 70 37 71 59 72 60 73 65 74 61 75 62 76 64 77
REMARK SMILES IDX 66 78 63 79 47 80 48 81 53 82 49 83 50 84 52 85 54 86 51 87
REMARK H PARENT 17 5 21 30 71 49 45 60
REMARK Flexibility Score: inf
ROOT
ATOM      1  C   UNL A   1      36.508  20.569  25.101  1.00  0.00     0.118 C 
ENDROOT
BRANCH   1   2
ATOM      2  N   UNL A   1      35.400  19.634  24.987  1.00  0.00    -0.352 N 
ATOM      3  C   UNL A   1      34.049  19.691  24.946  1.00  0.00     0.251 C 
ATOM      4  O   UNL A   1      33.485  18.596  24.864  1.00  0.00    -0.270 OA
ATOM      5  H   UNL A   1      35.720  18.705  24.922  1.00  0.00     0.163 HD
BRANCH   3   6
ATOM      6  C   UNL A   1      33.238  20.939  24.988  1.00  0.00     0.067 C 
ATOM      7  C   UNL A   1      30.819  25.211  23.803  1.00  0.00    -0.026 A 
ATOM      8  C   UNL A   1      30.750  24.300  24.874  1.00  0.00     0.052 A 
ATOM      9  C   UNL A   1      31.703  24.924  22.748  1.00  0.00     0.045 A 
ATOM     10  C   UNL A   1      31.531  23.148  24.879  1.00  0.00     0.128 A 
ATOM     11  C   UNL A   1      32.447  23.736  22.736  1.00  0.00     0.032 A 
ATOM     12  Cl  UNL A   1      31.956  26.011  21.431  1.00  0.00    -0.084 Cl
ATOM     13  C   UNL A   1      32.362  22.845  23.803  1.00  0.00     0.019 A 
ATOM     14  O   UNL A   1      31.426  22.328  25.969  1.00  0.00    -0.475 OA
ATOM     15  C   UNL A   1      33.115  21.597  23.819  1.00  0.00     0.025 C 
ATOM     16  C   UNL A   1      32.600  21.503  26.227  1.00  0.00     0.314 C 
BRANCH   7  17
ATOM     17  C   UNL A   1      29.944  26.444  23.865  1.00  0.00     0.037 C 
BRANCH  17  18
ATOM     18  C   UNL A   1      30.646  27.754  24.254  1.00  0.00     0.008 C 
BRANCH  18  19
ATOM     19  C   UNL A   1      31.930  27.603  25.093  1.00  0.00    -0.017 C 
ATOM     20  C   UNL A   1      33.169  28.082  24.338  1.00  0.00     0.007 C 
ATOM     21  C   UNL A   1      31.781  28.378  26.404  1.00  0.00     0.007 C 
ENDBRANCH  18  19
ENDBRANCH  17  18
ENDBRANCH   7  17
BRANCH  16  22
ATOM     22  C   UNL A   1      33.602  22.280  27.107  1.00  0.00     0.429 C 
ATOM     23  F   UNL A   1      32.940  23.065  27.995  1.00  0.00    -0.167 F 
ATOM     24  F   UNL A   1      34.393  21.458  27.838  1.00  0.00    -0.167 F 
ATOM     25  F   UNL A   1      34.424  23.080  26.394  1.00  0.00    -0.167 F 
ENDBRANCH  16  22
ENDBRANCH   3   6
ENDBRANCH   1   2
BRANCH   1  26
ATOM     26  C   UNL A   1      37.834  19.914  24.742  1.00  0.00     0.042 C 
BRANCH  26  27
ATOM     27  C   UNL A   1      38.929  20.228  25.753  1.00  0.00     0.118 C 
BRANCH  27  28
ATOM     28  N   UNL A   1      39.936  19.172  25.822  1.00  0.00    -0.352 N 
ATOM     29  C   UNL A   1      41.299  19.248  25.978  1.00  0.00     0.251 C 
ATOM     30  H   UNL A   1      39.580  18.257  25.741  1.00  0.00     0.163 HD
ATOM     31  O   UNL A   1      41.996  18.258  25.779  1.00  0.00    -0.269 OA
BRANCH  29  32
ATOM     32  C   UNL A   1      41.928  20.527  26.367  1.00  0.00     0.039 A 
ATOM     33  C   UNL A   1      42.102  20.844  27.714  1.00  0.00     0.014 A 
ATOM     34  C   UNL A   1      42.343  21.422  25.377  1.00  0.00     0.014 A 
ATOM     35  C   UNL A   1      42.490  22.126  28.071  1.00  0.00     0.010 A 
ATOM     36  C   UNL A   1      42.844  22.674  25.742  1.00  0.00     0.010 A 
ATOM     37  C   UNL A   1      42.865  23.059  27.090  1.00  0.00    -0.014 A 
BRANCH  37  38
ATOM     38  C   UNL A   1      43.257  24.427  27.515  1.00  0.00     0.031 A 
ATOM     39  C   UNL A   1      44.685  24.889  27.400  1.00  0.00     0.074 A 
ATOM     40  C   UNL A   1      42.302  25.284  27.925  1.00  0.00     0.049 A 
ATOM     41  N   UNL A   1      45.199  26.061  27.680  1.00  0.00    -0.248 NA
ATOM     42  C   UNL A   1      45.667  23.908  26.913  1.00  0.00     0.031 C 
ATOM     43  C   UNL A   1      40.880  24.959  28.060  1.00  0.00     0.029 A 
ATOM     44  N   UNL A   1      42.372  26.610  28.261  1.00  0.00    -0.354 N 
ATOM     45  C   UNL A   1      46.561  25.949  27.431  1.00  0.00     0.074 A 
ATOM     46  C   UNL A   1      46.800  24.589  27.003  1.00  0.00     0.031 C 
ATOM     47  C   UNL A   1      40.202  26.072  28.370  1.00  0.00     0.029 A 
ATOM     48  C   UNL A   1      41.147  27.171  28.531  1.00  0.00     0.049 A 
ATOM     49  H   UNL A   1      43.218  27.113  28.304  1.00  0.00     0.167 HD
ATOM     50  C   UNL A   1      47.524  26.897  27.539  1.00  0.00     0.037 A 
ATOM     51  C   UNL A   1      40.822  28.429  28.876  1.00  0.00     0.037 A 
ATOM     52  C   UNL A   1      47.280  28.258  27.942  1.00  0.00     0.049 A 
ATOM     53  C   UNL A   1      41.912  29.446  29.034  1.00  0.00     0.074 A 
ATOM     54  C   UNL A   1      48.183  29.300  28.065  1.00  0.00     0.029 A 
ATOM     55  N   UNL A   1      46.035  28.766  28.288  1.00  0.00    -0.354 N 
ATOM     56  N   UNL A   1      43.196  29.323  28.803  1.00  0.00    -0.248 NA
ATOM     57  C   UNL A   1      41.508  30.771  29.521  1.00  0.00     0.031 C 
ATOM     58  C   UNL A   1      47.490  30.429  28.521  1.00  0.00     0.029 A 
ATOM     59  C   UNL A   1      46.150  30.100  28.645  1.00  0.00     0.049 A 
ATOM     60  H   UNL A   1      45.195  28.254  28.280  1.00  0.00     0.167 HD
ATOM     61  C   UNL A   1      43.755  30.555  29.108  1.00  0.00     0.074 A 
ATOM     62  C   UNL A   1      42.665  31.418  29.519  1.00  0.00     0.031 C 
ATOM     63  C   UNL A   1      45.054  30.938  29.062  1.00  0.00     0.037 A 
BRANCH  50  64
ATOM     64  C   UNL A   1      48.935  26.477  27.243  1.00  0.00     0.057 A 
ATOM     65  C   UNL A   1      49.762  25.992  28.264  1.00  0.00     0.134 A 
ATOM     66  C   UNL A   1      49.477  26.549  25.952  1.00  0.00     0.134 A 
ATOM     67  F   UNL A   1      49.309  25.901  29.523  1.00  0.00    -0.206 F 
ATOM     68  C   UNL A   1      51.074  25.587  28.011  1.00  0.00     0.040 A 
ATOM     69  C   UNL A   1      50.780  26.123  25.683  1.00  0.00     0.040 A 
ATOM     70  F   UNL A   1      48.733  26.988  24.927  1.00  0.00    -0.206 F 
ATOM     71  C   UNL A   1      51.583  25.642  26.715  1.00  0.00     0.006 A 
ENDBRANCH  50  64
BRANCH  51  72
ATOM     72  C   UNL A   1      39.401  28.789  29.102  1.00  0.00     0.057 A 
ATOM     73  C   UNL A   1      38.607  29.315  28.076  1.00  0.00     0.134 A 
ATOM     74  C   UNL A   1      38.808  28.625  30.359  1.00  0.00     0.134 A 
ATOM     75  F   UNL A   1      39.120  29.500  26.850  1.00  0.00    -0.206 F 
ATOM     76  C   UNL A   1      37.280  29.684  28.295  1.00  0.00     0.040 A 
ATOM     77  C   UNL A   1      37.474  28.966  30.586  1.00  0.00     0.040 A 
ATOM     78  F   UNL A   1      39.513  28.109  31.375  1.00  0.00    -0.206 F 
ATOM     79  C   UNL A   1      36.708  29.505  29.553  1.00  0.00     0.006 A 
ENDBRANCH  51  72
BRANCH  63  80
ATOM     80  C   UNL A   1      45.352  32.353  29.453  1.00  0.00     0.057 A 
ATOM     81  C   UNL A   1      45.687  32.675  30.773  1.00  0.00     0.134 A 
ATOM     82  C   UNL A   1      45.306  33.397  28.521  1.00  0.00     0.134 A 
ATOM     83  F   UNL A   1      45.745  31.721  31.715  1.00  0.00    -0.206 F 
ATOM     84  C   UNL A   1      45.972  33.988  31.152  1.00  0.00     0.040 A 
ATOM     85  C   UNL A   1      45.611  34.711  28.883  1.00  0.00     0.040 A 
ATOM     86  F   UNL A   1      45.008  33.150  27.236  1.00  0.00    -0.206 F 
ATOM     87  C   UNL A   1      45.941  35.008  30.203  1.00  0.00     0.006 A 
ENDBRANCH  63  80
ENDBRANCH  37  38
ENDBRANCH  29  32
ENDBRANCH  27  28
ENDBRANCH  26  27
ENDBRANCH   1  26
TORSDOF 14
ENDMDL
