MODEL 1
REMARK VINA RESULT:     -10.0      0.000      0.000
REMARK SMILES CC[C@@H](O)CC[C@H]([NH3+])C(=O)NCCCNC(=O)c1ccc(-c2c3nc(c(-c4c(F)cccc4F)c4ccc([nH]4)c(-c4c(F)cccc4F)c4nc(c(-c5c(F)cccc5F)c5ccc2[nH]5)C=C4)C=C3)cc1
REMARK SMILES IDX 12 1 11 2 9 3 10 4 7 6 6 7 5 8 3 9 2 10 1 11 4 12 8 14 13 18
REMARK SMILES IDX 14 19 15 20 16 21 17 23 18 24 19 25 71 26 20 27 70 28 21 29
REMARK SMILES IDX 22 30 23 31 64 32 24 33 69 34 63 35 65 36 25 37 68 38 62 39
REMARK SMILES IDX 61 40 26 42 52 43 35 44 51 45 36 46 39 47 50 48 66 49 37 50
REMARK SMILES IDX 38 51 49 53 67 54 40 55 27 56 28 57 33 58 29 59 30 60 32 61
REMARK SMILES IDX 34 62 31 63 53 64 54 65 59 66 55 67 56 68 58 69 60 70 57 71
REMARK SMILES IDX 41 72 42 73 47 74 43 75 44 76 46 77 48 78 45 79
REMARK H PARENT 11 5 4 13 8 15 8 16 8 17 15 22 65 41 39 52
REMARK Flexibility Score: inf
ROOT
ATOM      1  C   UNL A   1      36.688  21.029  24.807  1.00  0.00     0.118 C 
ENDROOT
BRANCH   1   2
ATOM      2  N   UNL A   1      35.929  21.190  26.020  1.00  0.00    -0.351 N 
ATOM      3  C   UNL A   1      34.589  21.420  26.157  1.00  0.00     0.278 C 
ATOM      4  O   UNL A   1      34.113  21.359  27.294  1.00  0.00    -0.268 OA
ATOM      5  H   UNL A   1      36.441  21.127  26.858  1.00  0.00     0.163 HD
BRANCH   3   6
ATOM      6  C   UNL A   1      33.700  21.816  24.942  1.00  0.00     0.271 C 
BRANCH   6   7
ATOM      7  C   UNL A   1      33.075  20.620  24.181  1.00  0.00     0.078 C 
BRANCH   7   8
ATOM      8  C   UNL A   1      33.617  19.210  24.499  1.00  0.00     0.038 C 
BRANCH   8   9
ATOM      9  C   UNL A   1      32.674  18.264  25.264  1.00  0.00     0.114 C 
BRANCH   9  10
ATOM     10  C   UNL A   1      32.931  16.781  24.941  1.00  0.00     0.028 C 
ATOM     11  C   UNL A   1      33.979  16.581  23.851  1.00  0.00     0.006 C 
ENDBRANCH   9  10
BRANCH   9  12
ATOM     12  O   UNL A   1      32.903  18.469  26.661  1.00  0.00    -0.393 OA
ATOM     13  H   UNL A   1      33.689  17.973  26.937  1.00  0.00     0.210 HD
ENDBRANCH   9  12
ENDBRANCH   8   9
ENDBRANCH   7   8
ENDBRANCH   6   7
BRANCH   6  14
ATOM     14  N   UNL A   1      34.442  22.786  24.114  1.00  0.00    -0.347 N 
ATOM     15  H   UNL A   1      34.846  22.308  23.309  1.00  0.00     0.345 HD
ATOM     16  H   UNL A   1      35.187  23.207  24.668  1.00  0.00     0.345 HD
ATOM     17  H   UNL A   1      33.804  23.515  23.791  1.00  0.00     0.345 HD
ENDBRANCH   6  14
ENDBRANCH   3   6
ENDBRANCH   1   2
BRANCH   1  18
ATOM     18  C   UNL A   1      37.741  19.934  24.854  1.00  0.00     0.042 C 
BRANCH  18  19
ATOM     19  C   UNL A   1      38.889  20.234  25.809  1.00  0.00     0.118 C 
BRANCH  19  20
ATOM     20  N   UNL A   1      39.942  19.218  25.811  1.00  0.00    -0.352 N 
ATOM     21  C   UNL A   1      41.297  19.309  26.005  1.00  0.00     0.251 C 
ATOM     22  H   UNL A   1      39.619  18.303  25.646  1.00  0.00     0.163 HD
ATOM     23  O   UNL A   1      41.993  18.307  25.838  1.00  0.00    -0.269 OA
BRANCH  21  24
ATOM     24  C   UNL A   1      41.933  20.587  26.381  1.00  0.00     0.039 A 
ATOM     25  C   UNL A   1      42.282  21.495  25.375  1.00  0.00     0.014 A 
ATOM     26  C   UNL A   1      42.201  20.892  27.715  1.00  0.00     0.014 A 
ATOM     27  C   UNL A   1      42.823  22.736  25.718  1.00  0.00     0.010 A 
ATOM     28  C   UNL A   1      42.626  22.167  28.060  1.00  0.00     0.010 A 
ATOM     29  C   UNL A   1      42.954  23.101  27.066  1.00  0.00    -0.014 A 
BRANCH  29  30
ATOM     30  C   UNL A   1      43.444  24.437  27.483  1.00  0.00     0.031 A 
ATOM     31  C   UNL A   1      42.460  25.485  27.926  1.00  0.00     0.074 A 
ATOM     32  C   UNL A   1      44.751  24.739  27.359  1.00  0.00     0.049 A 
ATOM     33  N   UNL A   1      42.655  26.756  28.169  1.00  0.00    -0.248 NA
ATOM     34  C   UNL A   1      41.058  25.057  28.075  1.00  0.00     0.031 C 
ATOM     35  C   UNL A   1      45.795  23.824  26.891  1.00  0.00     0.029 A 
ATOM     36  N   UNL A   1      45.423  25.912  27.594  1.00  0.00    -0.354 N 
ATOM     37  C   UNL A   1      41.402  27.279  28.467  1.00  0.00     0.074 A 
ATOM     38  C   UNL A   1      40.446  26.205  28.314  1.00  0.00     0.031 C 
ATOM     39  C   UNL A   1      46.975  24.463  26.895  1.00  0.00     0.029 A 
ATOM     40  C   UNL A   1      46.766  25.844  27.314  1.00  0.00     0.049 A 
ATOM     41  H   UNL A   1      44.983  26.726  27.931  1.00  0.00     0.167 HD
ATOM     42  C   UNL A   1      41.082  28.534  28.861  1.00  0.00     0.037 A 
ATOM     43  C   UNL A   1      47.718  26.793  27.375  1.00  0.00     0.037 A 
ATOM     44  C   UNL A   1      42.046  29.586  29.047  1.00  0.00     0.049 A 
ATOM     45  C   UNL A   1      47.335  28.180  27.815  1.00  0.00     0.074 A 
ATOM     46  C   UNL A   1      41.837  30.875  29.503  1.00  0.00     0.029 A 
ATOM     47  N   UNL A   1      43.403  29.465  28.791  1.00  0.00    -0.354 N 
ATOM     48  N   UNL A   1      46.157  28.646  28.152  1.00  0.00    -0.248 NA
ATOM     49  C   UNL A   1      48.416  29.172  27.888  1.00  0.00     0.031 C 
ATOM     50  C   UNL A   1      43.061  31.549  29.481  1.00  0.00     0.029 A 
ATOM     51  C   UNL A   1      44.042  30.663  29.063  1.00  0.00     0.049 A 
ATOM     52  H   UNL A   1      43.847  28.649  28.465  1.00  0.00     0.167 HD
ATOM     53  C   UNL A   1      46.361  29.973  28.509  1.00  0.00     0.074 A 
ATOM     54  C   UNL A   1      47.777  30.232  28.361  1.00  0.00     0.031 C 
ATOM     55  C   UNL A   1      45.457  30.895  28.923  1.00  0.00     0.037 A 
BRANCH  42  56
ATOM     56  C   UNL A   1      39.634  28.832  29.128  1.00  0.00     0.057 A 
ATOM     57  C   UNL A   1      39.068  28.671  30.401  1.00  0.00     0.134 A 
ATOM     58  C   UNL A   1      38.803  29.322  28.112  1.00  0.00     0.134 A 
ATOM     59  F   UNL A   1      39.804  28.192  31.416  1.00  0.00    -0.206 F 
ATOM     60  C   UNL A   1      37.724  28.959  30.645  1.00  0.00     0.040 A 
ATOM     61  C   UNL A   1      37.466  29.643  28.353  1.00  0.00     0.040 A 
ATOM     62  F   UNL A   1      39.280  29.506  26.872  1.00  0.00    -0.206 F 
ATOM     63  C   UNL A   1      36.922  29.455  29.621  1.00  0.00     0.006 A 
ENDBRANCH  42  56
BRANCH  43  64
ATOM     64  C   UNL A   1      49.126  26.468  27.032  1.00  0.00     0.057 A 
ATOM     65  C   UNL A   1      49.585  26.564  25.712  1.00  0.00     0.134 A 
ATOM     66  C   UNL A   1      50.040  26.039  28.001  1.00  0.00     0.134 A 
ATOM     67  F   UNL A   1      48.753  26.954  24.735  1.00  0.00    -0.206 F 
ATOM     68  C   UNL A   1      50.892  26.219  25.364  1.00  0.00     0.040 A 
ATOM     69  C   UNL A   1      51.359  25.719  27.672  1.00  0.00     0.040 A 
ATOM     70  F   UNL A   1      49.668  25.936  29.285  1.00  0.00    -0.206 F 
ATOM     71  C   UNL A   1      51.785  25.798  26.348  1.00  0.00     0.006 A 
ENDBRANCH  43  64
BRANCH  55  72
ATOM     72  C   UNL A   1      45.980  32.253  29.290  1.00  0.00     0.057 A 
ATOM     73  C   UNL A   1      46.044  33.299  28.363  1.00  0.00     0.134 A 
ATOM     74  C   UNL A   1      46.386  32.525  30.604  1.00  0.00     0.134 A 
ATOM     75  F   UNL A   1      45.682  33.100  27.087  1.00  0.00    -0.206 F 
ATOM     76  C   UNL A   1      46.517  34.563  28.722  1.00  0.00     0.040 A 
ATOM     77  C   UNL A   1      46.832  33.791  30.981  1.00  0.00     0.040 A 
ATOM     78  F   UNL A   1      46.340  31.568  31.544  1.00  0.00    -0.206 F 
ATOM     79  C   UNL A   1      46.905  34.812  30.037  1.00  0.00     0.006 A 
ENDBRANCH  55  72
ENDBRANCH  29  30
ENDBRANCH  21  24
ENDBRANCH  19  20
ENDBRANCH  18  19
ENDBRANCH   1  18
TORSDOF 16
ENDMDL
MODEL 2
REMARK VINA RESULT:      -9.9      4.522      8.400
REMARK SMILES CC[C@@H](O)CC[C@H]([NH3+])C(=O)NCCCNC(=O)c1ccc(-c2c3nc(c(-c4c(F)cccc4F)c4ccc([nH]4)c(-c4c(F)cccc4F)c4nc(c(-c5c(F)cccc5F)c5ccc2[nH]5)C=C4)C=C3)cc1
REMARK SMILES IDX 12 1 11 2 9 3 10 4 7 6 6 7 5 8 3 9 2 10 1 11 4 12 8 14 13 18
REMARK SMILES IDX 14 19 15 20 16 21 17 23 18 24 19 25 71 26 20 27 70 28 21 29
REMARK SMILES IDX 22 30 23 31 64 32 24 33 69 34 63 35 65 36 25 37 68 38 62 39
REMARK SMILES IDX 61 40 26 42 52 43 35 44 51 45 36 46 39 47 50 48 66 49 37 50
REMARK SMILES IDX 38 51 49 53 67 54 40 55 27 56 28 57 33 58 29 59 30 60 32 61
REMARK SMILES IDX 34 62 31 63 53 64 54 65 59 66 55 67 56 68 58 69 60 70 57 71
REMARK SMILES IDX 41 72 42 73 47 74 43 75 44 76 46 77 48 78 45 79
REMARK H PARENT 11 5 4 13 8 15 8 16 8 17 15 22 65 41 39 52
REMARK Flexibility Score: inf
ROOT
ATOM      1  C   UNL A   1      38.954  21.911  26.141  1.00  0.00     0.118 C 
ENDROOT
BRANCH   1   2
ATOM      2  N   UNL A   1      38.176  22.329  25.003  1.00  0.00    -0.351 N 
ATOM      3  C   UNL A   1      36.836  22.175  24.790  1.00  0.00     0.278 C 
ATOM      4  O   UNL A   1      36.342  22.756  23.820  1.00  0.00    -0.268 OA
ATOM      5  H   UNL A   1      38.675  22.784  24.287  1.00  0.00     0.163 HD
BRANCH   3   6
ATOM      6  C   UNL A   1      35.968  21.245  25.686  1.00  0.00     0.271 C 
BRANCH   6   7
ATOM      7  C   UNL A   1      35.108  20.216  24.910  1.00  0.00     0.078 C 
BRANCH   7   8
ATOM      8  C   UNL A   1      33.593  20.185  25.205  1.00  0.00     0.038 C 
BRANCH   8   9
ATOM      9  C   UNL A   1      32.909  18.807  25.156  1.00  0.00     0.114 C 
BRANCH   9  10
ATOM     10  C   UNL A   1      33.811  17.718  24.547  1.00  0.00     0.028 C 
ATOM     11  C   UNL A   1      33.405  17.331  23.129  1.00  0.00     0.006 C 
ENDBRANCH   9  10
BRANCH   9  12
ATOM     12  O   UNL A   1      32.596  18.436  26.501  1.00  0.00    -0.393 OA
ATOM     13  H   UNL A   1      32.431  17.481  26.545  1.00  0.00     0.210 HD
ENDBRANCH   9  12
ENDBRANCH   8   9
ENDBRANCH   7   8
ENDBRANCH   6   7
BRANCH   6  14
ATOM     14  N   UNL A   1      35.242  22.079  26.665  1.00  0.00    -0.347 N 
ATOM     15  H   UNL A   1      34.472  22.559  26.198  1.00  0.00     0.345 HD
ATOM     16  H   UNL A   1      35.880  22.768  27.064  1.00  0.00     0.345 HD
ATOM     17  H   UNL A   1      34.872  21.486  27.409  1.00  0.00     0.345 HD
ENDBRANCH   6  14
ENDBRANCH   3   6
ENDBRANCH   1   2
BRANCH   1  18
ATOM     18  C   UNL A   1      40.173  21.067  25.806  1.00  0.00     0.042 C 
BRANCH  18  19
ATOM     19  C   UNL A   1      41.467  21.604  26.404  1.00  0.00     0.118 C 
BRANCH  19  20
ATOM     20  N   UNL A   1      42.346  22.257  25.433  1.00  0.00    -0.352 N 
ATOM     21  C   UNL A   1      42.864  23.526  25.380  1.00  0.00     0.251 C 
ATOM     22  H   UNL A   1      42.616  21.680  24.683  1.00  0.00     0.163 HD
ATOM     23  O   UNL A   1      43.493  23.873  24.380  1.00  0.00    -0.269 OA
BRANCH  21  24
ATOM     24  C   UNL A   1      42.658  24.484  26.484  1.00  0.00     0.039 A 
ATOM     25  C   UNL A   1      43.342  25.704  26.462  1.00  0.00     0.014 A 
ATOM     26  C   UNL A   1      41.807  24.185  27.547  1.00  0.00     0.014 A 
ATOM     27  C   UNL A   1      43.108  26.650  27.463  1.00  0.00     0.010 A 
ATOM     28  C   UNL A   1      41.487  25.167  28.473  1.00  0.00     0.010 A 
ATOM     29  C   UNL A   1      42.141  26.407  28.450  1.00  0.00    -0.014 A 
BRANCH  29  30
ATOM     30  C   UNL A   1      41.796  27.410  29.486  1.00  0.00     0.031 A 
ATOM     31  C   UNL A   1      42.536  27.411  30.797  1.00  0.00     0.074 A 
ATOM     32  C   UNL A   1      40.752  28.240  29.293  1.00  0.00     0.049 A 
ATOM     33  N   UNL A   1      42.285  28.083  31.891  1.00  0.00    -0.248 NA
ATOM     34  C   UNL A   1      43.690  26.501  30.906  1.00  0.00     0.031 C 
ATOM     35  C   UNL A   1      39.924  28.298  28.087  1.00  0.00     0.029 A 
ATOM     36  N   UNL A   1      40.194  29.180  30.122  1.00  0.00    -0.354 N 
ATOM     37  C   UNL A   1      43.226  27.656  32.820  1.00  0.00     0.074 A 
ATOM     38  C   UNL A   1      44.013  26.623  32.183  1.00  0.00     0.031 C 
ATOM     39  C   UNL A   1      38.979  29.238  28.246  1.00  0.00     0.029 A 
ATOM     40  C   UNL A   1      39.101  29.813  29.580  1.00  0.00     0.049 A 
ATOM     41  H   UNL A   1      40.544  29.382  31.020  1.00  0.00     0.167 HD
ATOM     42  C   UNL A   1      43.434  28.103  34.080  1.00  0.00     0.037 A 
ATOM     43  C   UNL A   1      38.282  30.740  30.108  1.00  0.00     0.037 A 
ATOM     44  C   UNL A   1      42.670  29.159  34.691  1.00  0.00     0.049 A 
ATOM     45  C   UNL A   1      38.534  31.221  31.512  1.00  0.00     0.074 A 
ATOM     46  C   UNL A   1      42.838  29.732  35.939  1.00  0.00     0.029 A 
ATOM     47  N   UNL A   1      41.596  29.802  34.095  1.00  0.00    -0.354 N 
ATOM     48  N   UNL A   1      39.464  30.852  32.358  1.00  0.00    -0.248 NA
ATOM     49  C   UNL A   1      37.625  32.251  32.031  1.00  0.00     0.031 C 
ATOM     50  C   UNL A   1      41.838  30.692  36.116  1.00  0.00     0.029 A 
ATOM     51  C   UNL A   1      41.080  30.755  34.956  1.00  0.00     0.049 A 
ATOM     52  H   UNL A   1      41.252  29.609  33.193  1.00  0.00     0.167 HD
ATOM     53  C   UNL A   1      39.274  31.627  33.495  1.00  0.00     0.074 A 
ATOM     54  C   UNL A   1      38.149  32.497  33.223  1.00  0.00     0.031 C 
ATOM     55  C   UNL A   1      39.968  31.621  34.659  1.00  0.00     0.037 A 
BRANCH  42  56
ATOM     56  C   UNL A   1      44.537  27.464  34.874  1.00  0.00     0.057 A 
ATOM     57  C   UNL A   1      45.841  27.977  34.875  1.00  0.00     0.134 A 
ATOM     58  C   UNL A   1      44.285  26.343  35.677  1.00  0.00     0.134 A 
ATOM     59  F   UNL A   1      46.154  29.039  34.118  1.00  0.00    -0.206 F 
ATOM     60  C   UNL A   1      46.860  27.384  35.623  1.00  0.00     0.040 A 
ATOM     61  C   UNL A   1      45.289  25.761  36.453  1.00  0.00     0.040 A 
ATOM     62  F   UNL A   1      43.059  25.803  35.729  1.00  0.00    -0.206 F 
ATOM     63  C   UNL A   1      46.583  26.278  36.422  1.00  0.00     0.006 A 
ENDBRANCH  42  56
BRANCH  43  64
ATOM     64  C   UNL A   1      37.158  31.293  29.308  1.00  0.00     0.057 A 
ATOM     65  C   UNL A   1      37.232  32.577  28.756  1.00  0.00     0.134 A 
ATOM     66  C   UNL A   1      35.983  30.565  29.088  1.00  0.00     0.134 A 
ATOM     67  F   UNL A   1      38.326  33.331  28.944  1.00  0.00    -0.206 F 
ATOM     68  C   UNL A   1      36.169  33.129  28.040  1.00  0.00     0.040 A 
ATOM     69  C   UNL A   1      34.923  31.093  28.349  1.00  0.00     0.040 A 
ATOM     70  F   UNL A   1      35.852  29.324  29.580  1.00  0.00    -0.206 F 
ATOM     71  C   UNL A   1      35.010  32.384  27.832  1.00  0.00     0.006 A 
ENDBRANCH  43  64
BRANCH  55  72
ATOM     72  C   UNL A   1      39.561  32.616  35.706  1.00  0.00     0.057 A 
ATOM     73  C   UNL A   1      40.113  33.902  35.763  1.00  0.00     0.134 A 
ATOM     74  C   UNL A   1      38.569  32.294  36.643  1.00  0.00     0.134 A 
ATOM     75  F   UNL A   1      41.075  34.268  34.903  1.00  0.00    -0.206 F 
ATOM     76  C   UNL A   1      39.712  34.823  36.732  1.00  0.00     0.040 A 
ATOM     77  C   UNL A   1      38.140  33.217  37.596  1.00  0.00     0.040 A 
ATOM     78  F   UNL A   1      37.992  31.083  36.635  1.00  0.00    -0.206 F 
ATOM     79  C   UNL A   1      38.717  34.483  37.646  1.00  0.00     0.006 A 
ENDBRANCH  55  72
ENDBRANCH  29  30
ENDBRANCH  21  24
ENDBRANCH  19  20
ENDBRANCH  18  19
ENDBRANCH   1  18
TORSDOF 16
ENDMDL
MODEL 3
REMARK VINA RESULT:      -9.8      1.117      2.092
REMARK SMILES CC[C@@H](O)CC[C@H]([NH3+])C(=O)NCCCNC(=O)c1ccc(-c2c3nc(c(-c4c(F)cccc4F)c4ccc([nH]4)c(-c4c(F)cccc4F)c4nc(c(-c5c(F)cccc5F)c5ccc2[nH]5)C=C4)C=C3)cc1
REMARK SMILES IDX 12 1 11 2 9 3 10 4 7 6 6 7 5 8 3 9 2 10 1 11 4 12 8 14 13 18
REMARK SMILES IDX 14 19 15 20 16 21 17 23 18 24 19 25 71 26 20 27 70 28 21 29
REMARK SMILES IDX 22 30 23 31 64 32 24 33 69 34 63 35 65 36 25 37 68 38 62 39
REMARK SMILES IDX 61 40 26 42 52 43 35 44 51 45 36 46 39 47 50 48 66 49 37 50
REMARK SMILES IDX 38 51 49 53 67 54 40 55 27 56 28 57 33 58 29 59 30 60 32 61
REMARK SMILES IDX 34 62 31 63 53 64 54 65 59 66 55 67 56 68 58 69 60 70 57 71
REMARK SMILES IDX 41 72 42 73 47 74 43 75 44 76 46 77 48 78 45 79
REMARK H PARENT 11 5 4 13 8 15 8 16 8 17 15 22 65 41 39 52
REMARK Flexibility Score: inf
ROOT
ATOM      1  C   UNL A   1      36.516  20.828  25.010  1.00  0.00     0.118 C 
ENDROOT
BRANCH   1   2
ATOM      2  N   UNL A   1      35.289  20.221  25.458  1.00  0.00    -0.351 N 
ATOM      3  C   UNL A   1      34.011  20.508  25.069  1.00  0.00     0.278 C 
ATOM      4  O   UNL A   1      33.114  19.753  25.454  1.00  0.00    -0.268 OA
ATOM      5  H   UNL A   1      35.383  19.509  26.130  1.00  0.00     0.163 HD
BRANCH   3   6
ATOM      6  C   UNL A   1      33.677  21.777  24.233  1.00  0.00     0.271 C 
BRANCH   6   7
ATOM      7  C   UNL A   1      33.510  23.074  25.065  1.00  0.00     0.078 C 
BRANCH   7   8
ATOM      8  C   UNL A   1      32.809  22.956  26.435  1.00  0.00     0.038 C 
BRANCH   8   9
ATOM      9  C   UNL A   1      31.269  22.943  26.424  1.00  0.00     0.114 C 
BRANCH   9  10
ATOM     10  C   UNL A   1      30.676  23.918  25.392  1.00  0.00     0.028 C 
ATOM     11  C   UNL A   1      30.330  25.280  25.986  1.00  0.00     0.006 C 
ENDBRANCH   9  10
BRANCH   9  12
ATOM     12  O   UNL A   1      30.856  21.616  26.084  1.00  0.00    -0.393 OA
ATOM     13  H   UNL A   1      31.366  20.975  26.602  1.00  0.00     0.210 HD
ENDBRANCH   9  12
ENDBRANCH   8   9
ENDBRANCH   7   8
ENDBRANCH   6   7
BRANCH   6  14
ATOM     14  N   UNL A   1      32.567  21.457  23.314  1.00  0.00    -0.347 N 
ATOM     15  H   UNL A   1      32.153  22.322  22.967  1.00  0.00     0.345 HD
ATOM     16  H   UNL A   1      31.859  20.918  23.812  1.00  0.00     0.345 HD
ATOM     17  H   UNL A   1      32.923  20.911  22.529  1.00  0.00     0.345 HD
ENDBRANCH   6  14
ENDBRANCH   3   6
ENDBRANCH   1   2
BRANCH   1  18
ATOM     18  C   UNL A   1      37.690  19.870  24.878  1.00  0.00     0.042 C 
BRANCH  18  19
ATOM     19  C   UNL A   1      38.909  20.287  25.690  1.00  0.00     0.118 C 
BRANCH  19  20
ATOM     20  N   UNL A   1      39.953  19.264  25.764  1.00  0.00    -0.352 N 
ATOM     21  C   UNL A   1      41.291  19.346  26.052  1.00  0.00     0.251 C 
ATOM     22  H   UNL A   1      39.637  18.352  25.572  1.00  0.00     0.163 HD
ATOM     23  O   UNL A   1      41.991  18.340  25.931  1.00  0.00    -0.269 OA
BRANCH  21  24
ATOM     24  C   UNL A   1      41.907  20.618  26.477  1.00  0.00     0.039 A 
ATOM     25  C   UNL A   1      42.306  21.540  25.502  1.00  0.00     0.014 A 
ATOM     26  C   UNL A   1      42.106  20.907  27.826  1.00  0.00     0.014 A 
ATOM     27  C   UNL A   1      42.828  22.776  25.888  1.00  0.00     0.010 A 
ATOM     28  C   UNL A   1      42.513  22.177  28.209  1.00  0.00     0.010 A 
ATOM     29  C   UNL A   1      42.891  23.123  27.246  1.00  0.00    -0.014 A 
BRANCH  29  30
ATOM     30  C   UNL A   1      43.359  24.453  27.704  1.00  0.00     0.031 A 
ATOM     31  C   UNL A   1      42.352  25.505  28.087  1.00  0.00     0.074 A 
ATOM     32  C   UNL A   1      44.673  24.749  27.672  1.00  0.00     0.049 A 
ATOM     33  N   UNL A   1      42.538  26.773  28.351  1.00  0.00    -0.248 NA
ATOM     34  C   UNL A   1      40.941  25.084  28.137  1.00  0.00     0.031 C 
ATOM     35  C   UNL A   1      45.741  23.831  27.270  1.00  0.00     0.029 A 
ATOM     36  N   UNL A   1      45.333  25.916  27.960  1.00  0.00    -0.354 N 
ATOM     37  C   UNL A   1      41.270  27.301  28.567  1.00  0.00     0.074 A 
ATOM     38  C   UNL A   1      40.321  26.234  28.342  1.00  0.00     0.031 C 
ATOM     39  C   UNL A   1      46.922  24.462  27.358  1.00  0.00     0.029 A 
ATOM     40  C   UNL A   1      46.692  25.842  27.772  1.00  0.00     0.049 A 
ATOM     41  H   UNL A   1      44.876  26.731  28.272  1.00  0.00     0.167 HD
ATOM     42  C   UNL A   1      40.931  28.555  28.947  1.00  0.00     0.037 A 
ATOM     43  C   UNL A   1      47.643  26.785  27.904  1.00  0.00     0.037 A 
ATOM     44  C   UNL A   1      41.885  29.600  29.206  1.00  0.00     0.049 A 
ATOM     45  C   UNL A   1      47.239  28.172  28.327  1.00  0.00     0.074 A 
ATOM     46  C   UNL A   1      41.653  30.887  29.656  1.00  0.00     0.029 A 
ATOM     47  N   UNL A   1      43.256  29.473  29.042  1.00  0.00    -0.354 N 
ATOM     48  N   UNL A   1      46.043  28.642  28.586  1.00  0.00    -0.248 NA
ATOM     49  C   UNL A   1      48.317  29.157  28.480  1.00  0.00     0.031 C 
ATOM     50  C   UNL A   1      42.879  31.554  29.721  1.00  0.00     0.029 A 
ATOM     51  C   UNL A   1      43.882  30.665  29.365  1.00  0.00     0.049 A 
ATOM     52  H   UNL A   1      43.717  28.657  28.741  1.00  0.00     0.167 HD
ATOM     53  C   UNL A   1      46.229  29.965  28.966  1.00  0.00     0.074 A 
ATOM     54  C   UNL A   1      47.653  30.217  28.916  1.00  0.00     0.031 C 
ATOM     55  C   UNL A   1      45.304  30.890  29.323  1.00  0.00     0.037 A 
BRANCH  42  56
ATOM     56  C   UNL A   1      39.470  28.861  29.118  1.00  0.00     0.057 A 
ATOM     57  C   UNL A   1      38.681  29.323  28.055  1.00  0.00     0.134 A 
ATOM     58  C   UNL A   1      38.834  28.656  30.350  1.00  0.00     0.134 A 
ATOM     59  F   UNL A   1      39.229  29.553  26.852  1.00  0.00    -0.206 F 
ATOM     60  C   UNL A   1      37.322  29.596  28.218  1.00  0.00     0.040 A 
ATOM     61  C   UNL A   1      37.469  28.896  30.515  1.00  0.00     0.040 A 
ATOM     62  F   UNL A   1      39.527  28.210  31.408  1.00  0.00    -0.206 F 
ATOM     63  C   UNL A   1      36.710  29.374  29.449  1.00  0.00     0.006 A 
ENDBRANCH  42  56
BRANCH  43  64
ATOM     64  C   UNL A   1      49.069  26.454  27.655  1.00  0.00     0.057 A 
ATOM     65  C   UNL A   1      49.622  26.573  26.374  1.00  0.00     0.134 A 
ATOM     66  C   UNL A   1      49.909  25.996  28.678  1.00  0.00     0.134 A 
ATOM     67  F   UNL A   1      48.865  26.991  25.349  1.00  0.00    -0.206 F 
ATOM     68  C   UNL A   1      50.947  26.223  26.112  1.00  0.00     0.040 A 
ATOM     69  C   UNL A   1      51.245  25.671  28.436  1.00  0.00     0.040 A 
ATOM     70  F   UNL A   1      49.445  25.870  29.929  1.00  0.00    -0.206 F 
ATOM     71  C   UNL A   1      51.765  25.773  27.148  1.00  0.00     0.006 A 
ENDBRANCH  43  64
BRANCH  55  72
ATOM     72  C   UNL A   1      45.809  32.242  29.735  1.00  0.00     0.057 A 
ATOM     73  C   UNL A   1      45.946  33.293  28.820  1.00  0.00     0.134 A 
ATOM     74  C   UNL A   1      46.121  32.504  31.076  1.00  0.00     0.134 A 
ATOM     75  F   UNL A   1      45.676  33.103  27.520  1.00  0.00    -0.206 F 
ATOM     76  C   UNL A   1      46.400  34.551  29.220  1.00  0.00     0.040 A 
ATOM     77  C   UNL A   1      46.547  33.766  31.491  1.00  0.00     0.040 A 
ATOM     78  F   UNL A   1      46.000  31.544  32.004  1.00  0.00    -0.206 F 
ATOM     79  C   UNL A   1      46.694  34.791  30.561  1.00  0.00     0.006 A 
ENDBRANCH  55  72
ENDBRANCH  29  30
ENDBRANCH  21  24
ENDBRANCH  19  20
ENDBRANCH  18  19
ENDBRANCH   1  18
TORSDOF 16
ENDMDL
