MODEL 1
REMARK VINA RESULT:     -12.5      0.000      0.000
REMARK SMILES COc1cccc([C@H]2CC(c3ccc(S(C)(=O)=O)cc3)=NN2c2ccc(C(=O)NCCCNC(=O)c3ccc(-c4c5nc(c(-c6c(F)cccc6F)c6ccc([nH]6)c(-c6c(F)cccc6F)c6nc(c(-c7c(F)cccc7F)c7ccc4[nH]7)C=C6)C=C5)cc3)cc2)c1
REMARK SMILES IDX 30 1 29 2 27 3 28 4 26 6 23 7 24 8 91 9 25 10 90 11 22 12
REMARK SMILES IDX 8 13 9 14 10 15 21 16 7 17 3 18 4 19 92 20 5 21 6 22 2 23
REMARK SMILES IDX 1 24 11 25 12 26 20 27 13 28 19 29 14 30 15 31 16 32 17 33
REMARK SMILES IDX 18 34 31 35 32 36 33 37 34 38 35 40 36 41 37 42 89 43 38 44
REMARK SMILES IDX 88 45 39 46 40 47 41 48 82 49 42 50 87 51 81 52 83 53 43 54
REMARK SMILES IDX 86 55 80 56 79 57 44 59 70 60 53 61 69 62 54 63 57 64 68 65
REMARK SMILES IDX 84 66 55 67 56 68 67 70 85 71 58 72 45 73 46 74 51 75 47 76
REMARK SMILES IDX 48 77 50 78 52 79 49 80 71 81 72 82 77 83 73 84 74 85 76 86
REMARK SMILES IDX 78 87 75 88 59 89 60 90 65 91 61 92 62 93 64 94 66 95 63 96
REMARK H PARENT 29 5 33 39 83 58 57 69
REMARK Flexibility Score: inf
ROOT
ATOM      1  C   UNL A   1      31.892  29.882  26.112  1.00  0.00     0.118 C 
ENDROOT
BRANCH   1   2
ATOM      2  N   UNL A   1      31.061  29.468  24.999  1.00  0.00    -0.352 N 
ATOM      3  C   UNL A   1      31.047  28.340  24.220  1.00  0.00     0.251 C 
ATOM      4  O   UNL A   1      30.172  28.266  23.357  1.00  0.00    -0.269 OA
ATOM      5  H   UNL A   1      30.371  30.126  24.754  1.00  0.00     0.163 HD
BRANCH   3   6
ATOM      6  C   UNL A   1      31.993  27.202  24.397  1.00  0.00     0.039 A 
ATOM      7  C   UNL A   1      33.698  24.998  24.911  1.00  0.00     0.060 A 
ATOM      8  C   UNL A   1      32.598  25.261  25.731  1.00  0.00     0.029 A 
ATOM      9  C   UNL A   1      33.906  25.825  23.805  1.00  0.00     0.029 A 
ATOM     10  C   UNL A   1      31.767  26.359  25.494  1.00  0.00     0.016 A 
ATOM     11  C   UNL A   1      33.041  26.891  23.529  1.00  0.00     0.016 A 
BRANCH   7  12
ATOM     12  N   UNL A   1      34.528  23.926  25.190  1.00  0.00    -0.257 N 
ATOM     13  C   UNL A   1      34.073  22.595  25.588  1.00  0.00     0.144 C 
ATOM     14  C   UNL A   1      35.383  21.888  25.960  1.00  0.00     0.091 C 
ATOM     15  C   UNL A   1      36.351  23.023  25.784  1.00  0.00     0.071 C 
ATOM     16  N   UNL A   1      35.857  24.140  25.353  1.00  0.00    -0.176 NA
BRANCH  13  17
ATOM     17  C   UNL A   1      33.323  21.913  24.456  1.00  0.00    -0.019 A 
ATOM     18  C   UNL A   1      32.413  19.904  23.414  1.00  0.00     0.119 A 
ATOM     19  C   UNL A   1      32.034  20.656  22.303  1.00  0.00     0.046 A 
ATOM     20  C   UNL A   1      33.072  20.527  24.474  1.00  0.00     0.052 A 
ATOM     21  C   UNL A   1      32.273  22.028  22.267  1.00  0.00     0.004 A 
ATOM     22  C   UNL A   1      32.909  22.656  23.338  1.00  0.00     0.006 A 
BRANCH  18  23
ATOM     23  O   UNL A   1      32.143  18.565  23.343  1.00  0.00    -0.497 OA
ATOM     24  C   UNL A   1      33.288  17.720  23.401  1.00  0.00     0.278 C 
ENDBRANCH  18  23
ENDBRANCH  13  17
BRANCH  15  25
ATOM     25  C   UNL A   1      37.765  22.879  26.131  1.00  0.00    -0.002 A 
ATOM     26  C   UNL A   1      38.426  21.706  25.753  1.00  0.00     0.011 A 
ATOM     27  C   UNL A   1      38.421  23.876  26.856  1.00  0.00     0.011 A 
ATOM     28  C   UNL A   1      39.766  21.528  26.092  1.00  0.00     0.021 A 
ATOM     29  C   UNL A   1      39.756  23.688  27.221  1.00  0.00     0.021 A 
ATOM     30  C   UNL A   1      40.417  22.515  26.841  1.00  0.00     0.067 A 
BRANCH  30  31
ATOM     31  S   UNL A   1      42.117  22.263  27.300  1.00  0.00     0.175 S 
ATOM     32  C   UNL A   1      43.020  22.574  25.804  1.00  0.00     0.163 C 
ATOM     33  O   UNL A   1      42.446  23.297  28.261  1.00  0.00    -0.224 OA
ATOM     34  O   UNL A   1      42.278  20.859  27.626  1.00  0.00    -0.224 OA
ENDBRANCH  30  31
ENDBRANCH  15  25
ENDBRANCH   7  12
ENDBRANCH   3   6
ENDBRANCH   1   2
BRANCH   1  35
ATOM     35  C   UNL A   1      31.613  31.336  26.494  1.00  0.00     0.042 C 
BRANCH  35  36
ATOM     36  C   UNL A   1      32.870  32.114  26.876  1.00  0.00     0.118 C 
BRANCH  36  37
ATOM     37  N   UNL A   1      32.556  33.451  27.356  1.00  0.00    -0.352 N 
ATOM     38  C   UNL A   1      33.086  34.158  28.405  1.00  0.00     0.251 C 
ATOM     39  H   UNL A   1      31.855  33.921  26.849  1.00  0.00     0.163 HD
ATOM     40  O   UNL A   1      32.528  35.185  28.784  1.00  0.00    -0.269 OA
BRANCH  38  41
ATOM     41  C   UNL A   1      34.313  33.697  29.090  1.00  0.00     0.039 A 
ATOM     42  C   UNL A   1      34.203  32.690  30.054  1.00  0.00     0.014 A 
ATOM     43  C   UNL A   1      35.555  34.286  28.833  1.00  0.00     0.014 A 
ATOM     44  C   UNL A   1      35.343  32.240  30.724  1.00  0.00     0.010 A 
ATOM     45  C   UNL A   1      36.699  33.795  29.459  1.00  0.00     0.010 A 
ATOM     46  C   UNL A   1      36.603  32.772  30.414  1.00  0.00    -0.014 A 
BRANCH  46  47
ATOM     47  C   UNL A   1      37.831  32.271  31.078  1.00  0.00     0.031 A 
ATOM     48  C   UNL A   1      38.754  31.328  30.360  1.00  0.00     0.074 A 
ATOM     49  C   UNL A   1      38.077  32.611  32.358  1.00  0.00     0.049 A 
ATOM     50  N   UNL A   1      39.830  30.728  30.801  1.00  0.00    -0.248 NA
ATOM     51  C   UNL A   1      38.406  30.998  28.969  1.00  0.00     0.031 C 
ATOM     52  C   UNL A   1      37.229  33.476  33.180  1.00  0.00     0.029 A 
ATOM     53  N   UNL A   1      39.102  32.254  33.196  1.00  0.00    -0.354 N 
ATOM     54  C   UNL A   1      40.278  29.938  29.750  1.00  0.00     0.074 A 
ATOM     55  C   UNL A   1      39.332  30.100  28.667  1.00  0.00     0.031 C 
ATOM     56  C   UNL A   1      37.770  33.585  34.403  1.00  0.00     0.029 A 
ATOM     57  C   UNL A   1      38.985  32.777  34.460  1.00  0.00     0.049 A 
ATOM     58  H   UNL A   1      39.850  31.677  32.918  1.00  0.00     0.167 HD
ATOM     59  C   UNL A   1      41.388  29.163  29.687  1.00  0.00     0.037 A 
ATOM     60  C   UNL A   1      39.761  32.615  35.547  1.00  0.00     0.037 A 
ATOM     61  C   UNL A   1      42.336  29.017  30.759  1.00  0.00     0.049 A 
ATOM     62  C   UNL A   1      40.993  31.761  35.452  1.00  0.00     0.074 A 
ATOM     63  C   UNL A   1      43.525  28.306  30.772  1.00  0.00     0.029 A 
ATOM     64  N   UNL A   1      42.202  29.591  32.015  1.00  0.00    -0.354 N 
ATOM     65  N   UNL A   1      41.443  31.074  34.431  1.00  0.00    -0.248 NA
ATOM     66  C   UNL A   1      41.828  31.667  36.657  1.00  0.00     0.031 C 
ATOM     67  C   UNL A   1      44.089  28.421  32.047  1.00  0.00     0.029 A 
ATOM     68  C   UNL A   1      43.274  29.234  32.816  1.00  0.00     0.049 A 
ATOM     69  H   UNL A   1      41.453  30.166  32.295  1.00  0.00     0.167 HD
ATOM     70  C   UNL A   1      42.620  30.478  34.862  1.00  0.00     0.074 A 
ATOM     71  C   UNL A   1      42.823  30.899  36.234  1.00  0.00     0.031 C 
ATOM     72  C   UNL A   1      43.457  29.655  34.183  1.00  0.00     0.037 A 
BRANCH  59  73
ATOM     73  C   UNL A   1      41.628  28.414  28.408  1.00  0.00     0.057 A 
ATOM     74  C   UNL A   1      42.401  28.951  27.371  1.00  0.00     0.134 A 
ATOM     75  C   UNL A   1      41.087  27.136  28.214  1.00  0.00     0.134 A 
ATOM     76  F   UNL A   1      42.938  30.176  27.489  1.00  0.00    -0.206 F 
ATOM     77  C   UNL A   1      42.599  28.263  26.173  1.00  0.00     0.040 A 
ATOM     78  C   UNL A   1      41.300  26.426  27.030  1.00  0.00     0.040 A 
ATOM     79  F   UNL A   1      40.342  26.558  29.168  1.00  0.00    -0.206 F 
ATOM     80  C   UNL A   1      42.050  26.993  26.003  1.00  0.00     0.006 A 
ENDBRANCH  59  73
BRANCH  60  81
ATOM     81  C   UNL A   1      39.396  33.295  36.813  1.00  0.00     0.057 A 
ATOM     82  C   UNL A   1      39.916  34.552  37.133  1.00  0.00     0.134 A 
ATOM     83  C   UNL A   1      38.495  32.717  37.716  1.00  0.00     0.134 A 
ATOM     84  F   UNL A   1      40.795  35.148  36.314  1.00  0.00    -0.206 F 
ATOM     85  C   UNL A   1      39.561  35.212  38.311  1.00  0.00     0.040 A 
ATOM     86  C   UNL A   1      38.115  33.373  38.887  1.00  0.00     0.040 A 
ATOM     87  F   UNL A   1      37.955  31.517  37.460  1.00  0.00    -0.206 F 
ATOM     88  C   UNL A   1      38.651  34.624  39.189  1.00  0.00     0.006 A 
ENDBRANCH  60  81
BRANCH  72  89
ATOM     89  C   UNL A   1      44.673  29.167  34.911  1.00  0.00     0.057 A 
ATOM     90  C   UNL A   1      44.670  27.961  35.622  1.00  0.00     0.134 A 
ATOM     91  C   UNL A   1      45.870  29.894  34.870  1.00  0.00     0.134 A 
ATOM     92  F   UNL A   1      43.551  27.227  35.711  1.00  0.00    -0.206 F 
ATOM     93  C   UNL A   1      45.811  27.504  36.284  1.00  0.00     0.040 A 
ATOM     94  C   UNL A   1      47.023  29.436  35.509  1.00  0.00     0.040 A 
ATOM     95  F   UNL A   1      45.940  31.054  34.202  1.00  0.00    -0.206 F 
ATOM     96  C   UNL A   1      46.994  28.238  36.222  1.00  0.00     0.006 A 
ENDBRANCH  72  89
ENDBRANCH  46  47
ENDBRANCH  38  41
ENDBRANCH  36  37
ENDBRANCH  35  36
ENDBRANCH   1  35
TORSDOF 15
ENDMDL
MODEL 2
REMARK VINA RESULT:     -12.4      4.222     10.348
REMARK SMILES COc1cccc([C@H]2CC(c3ccc(S(C)(=O)=O)cc3)=NN2c2ccc(C(=O)NCCCNC(=O)c3ccc(-c4c5nc(c(-c6c(F)cccc6F)c6ccc([nH]6)c(-c6c(F)cccc6F)c6nc(c(-c7c(F)cccc7F)c7ccc4[nH]7)C=C6)C=C5)cc3)cc2)c1
REMARK SMILES IDX 30 1 29 2 27 3 28 4 26 6 23 7 24 8 91 9 25 10 90 11 22 12
REMARK SMILES IDX 8 13 9 14 10 15 21 16 7 17 3 18 4 19 92 20 5 21 6 22 2 23
REMARK SMILES IDX 1 24 11 25 12 26 20 27 13 28 19 29 14 30 15 31 16 32 17 33
REMARK SMILES IDX 18 34 31 35 32 36 33 37 34 38 35 40 36 41 37 42 89 43 38 44
REMARK SMILES IDX 88 45 39 46 40 47 41 48 82 49 42 50 87 51 81 52 83 53 43 54
REMARK SMILES IDX 86 55 80 56 79 57 44 59 70 60 53 61 69 62 54 63 57 64 68 65
REMARK SMILES IDX 84 66 55 67 56 68 67 70 85 71 58 72 45 73 46 74 51 75 47 76
REMARK SMILES IDX 48 77 50 78 52 79 49 80 71 81 72 82 77 83 73 84 74 85 76 86
REMARK SMILES IDX 78 87 75 88 59 89 60 90 65 91 61 92 62 93 64 94 66 95 63 96
REMARK H PARENT 29 5 33 39 83 58 57 69
REMARK Flexibility Score: inf
ROOT
ATOM      1  C   UNL A   1      36.641  21.336  24.970  1.00  0.00     0.118 C 
ENDROOT
BRANCH   1   2
ATOM      2  N   UNL A   1      35.339  20.787  24.643  1.00  0.00    -0.352 N 
ATOM      3  C   UNL A   1      34.092  21.349  24.553  1.00  0.00     0.251 C 
ATOM      4  O   UNL A   1      33.169  20.611  24.207  1.00  0.00    -0.269 OA
ATOM      5  H   UNL A   1      35.354  19.823  24.446  1.00  0.00     0.163 HD
BRANCH   3   6
ATOM      6  C   UNL A   1      33.815  22.791  24.806  1.00  0.00     0.039 A 
ATOM      7  C   UNL A   1      33.366  25.574  25.101  1.00  0.00     0.060 A 
ATOM      8  C   UNL A   1      33.797  25.041  23.883  1.00  0.00     0.029 A 
ATOM      9  C   UNL A   1      33.120  24.691  26.154  1.00  0.00     0.029 A 
ATOM     10  C   UNL A   1      34.040  23.673  23.740  1.00  0.00     0.016 A 
ATOM     11  C   UNL A   1      33.305  23.312  25.997  1.00  0.00     0.016 A 
BRANCH   7  12
ATOM     12  N   UNL A   1      33.169  26.938  25.229  1.00  0.00    -0.257 N 
ATOM     13  C   UNL A   1      32.529  27.789  24.228  1.00  0.00     0.144 C 
ATOM     14  C   UNL A   1      32.761  29.200  24.786  1.00  0.00     0.091 C 
ATOM     15  C   UNL A   1      33.599  28.869  25.988  1.00  0.00     0.071 C 
ATOM     16  N   UNL A   1      33.809  27.612  26.216  1.00  0.00    -0.176 NA
BRANCH  13  17
ATOM     17  C   UNL A   1      31.058  27.439  24.075  1.00  0.00    -0.019 A 
ATOM     18  C   UNL A   1      28.830  27.943  23.220  1.00  0.00     0.119 A 
ATOM     19  C   UNL A   1      28.323  26.835  23.896  1.00  0.00     0.046 A 
ATOM     20  C   UNL A   1      30.185  28.255  23.326  1.00  0.00     0.052 A 
ATOM     21  C   UNL A   1      29.170  26.017  24.641  1.00  0.00     0.004 A 
ATOM     22  C   UNL A   1      30.531  26.313  24.727  1.00  0.00     0.006 A 
BRANCH  18  23
ATOM     23  O   UNL A   1      27.912  28.686  22.529  1.00  0.00    -0.497 OA
ATOM     24  C   UNL A   1      28.122  30.093  22.575  1.00  0.00     0.278 C 
ENDBRANCH  18  23
ENDBRANCH  13  17
BRANCH  15  25
ATOM     25  C   UNL A   1      34.184  29.920  26.822  1.00  0.00    -0.002 A 
ATOM     26  C   UNL A   1      33.377  31.003  27.189  1.00  0.00     0.011 A 
ATOM     27  C   UNL A   1      35.525  29.856  27.204  1.00  0.00     0.011 A 
ATOM     28  C   UNL A   1      33.913  32.032  27.961  1.00  0.00     0.021 A 
ATOM     29  C   UNL A   1      36.072  30.900  27.954  1.00  0.00     0.021 A 
ATOM     30  C   UNL A   1      35.264  31.982  28.323  1.00  0.00     0.067 A 
BRANCH  30  31
ATOM     31  S   UNL A   1      35.948  33.318  29.277  1.00  0.00     0.175 S 
ATOM     32  C   UNL A   1      35.826  32.758  30.956  1.00  0.00     0.163 C 
ATOM     33  O   UNL A   1      37.350  33.408  28.921  1.00  0.00    -0.224 OA
ATOM     34  O   UNL A   1      35.063  34.458  29.129  1.00  0.00    -0.224 OA
ENDBRANCH  30  31
ENDBRANCH  15  25
ENDBRANCH   7  12
ENDBRANCH   3   6
ENDBRANCH   1   2
BRANCH   1  35
ATOM     35  C   UNL A   1      37.700  20.234  25.027  1.00  0.00     0.042 C 
BRANCH  35  36
ATOM     36  C   UNL A   1      38.921  20.612  25.863  1.00  0.00     0.118 C 
BRANCH  36  37
ATOM     37  N   UNL A   1      39.927  19.559  25.862  1.00  0.00    -0.352 N 
ATOM     38  C   UNL A   1      41.287  19.639  26.007  1.00  0.00     0.251 C 
ATOM     39  H   UNL A   1      39.574  18.648  25.739  1.00  0.00     0.163 HD
ATOM     40  O   UNL A   1      41.981  18.657  25.754  1.00  0.00    -0.269 OA
BRANCH  38  41
ATOM     41  C   UNL A   1      41.931  20.893  26.457  1.00  0.00     0.039 A 
ATOM     42  C   UNL A   1      42.238  21.867  25.502  1.00  0.00     0.014 A 
ATOM     43  C   UNL A   1      42.286  21.089  27.795  1.00  0.00     0.014 A 
ATOM     44  C   UNL A   1      42.855  23.057  25.895  1.00  0.00     0.010 A 
ATOM     45  C   UNL A   1      42.846  22.301  28.195  1.00  0.00     0.010 A 
ATOM     46  C   UNL A   1      43.141  23.293  27.248  1.00  0.00    -0.014 A 
BRANCH  46  47
ATOM     47  C   UNL A   1      43.748  24.572  27.691  1.00  0.00     0.031 A 
ATOM     48  C   UNL A   1      42.911  25.616  28.375  1.00  0.00     0.074 A 
ATOM     49  C   UNL A   1      45.042  24.822  27.412  1.00  0.00     0.049 A 
ATOM     50  N   UNL A   1      43.246  26.820  28.765  1.00  0.00    -0.248 NA
ATOM     51  C   UNL A   1      41.505  25.268  28.630  1.00  0.00     0.031 C 
ATOM     52  C   UNL A   1      45.945  23.912  26.707  1.00  0.00     0.029 A 
ATOM     53  N   UNL A   1      45.814  25.925  27.672  1.00  0.00    -0.354 N 
ATOM     54  C   UNL A   1      42.090  27.378  29.296  1.00  0.00     0.074 A 
ATOM     55  C   UNL A   1      41.036  26.399  29.136  1.00  0.00     0.031 C 
ATOM     56  C   UNL A   1      47.150  24.491  26.593  1.00  0.00     0.029 A 
ATOM     57  C   UNL A   1      47.097  25.822  27.190  1.00  0.00     0.049 A 
ATOM     58  H   UNL A   1      45.482  26.715  28.157  1.00  0.00     0.167 HD
ATOM     59  C   UNL A   1      41.927  28.589  29.882  1.00  0.00     0.037 A 
ATOM     60  C   UNL A   1      48.112  26.705  27.216  1.00  0.00     0.037 A 
ATOM     61  C   UNL A   1      42.981  29.553  30.056  1.00  0.00     0.049 A 
ATOM     62  C   UNL A   1      47.914  28.037  27.881  1.00  0.00     0.074 A 
ATOM     63  C   UNL A   1      42.933  30.782  30.693  1.00  0.00     0.029 A 
ATOM     64  N   UNL A   1      44.277  29.399  29.585  1.00  0.00    -0.354 N 
ATOM     65  N   UNL A   1      46.835  28.526  28.441  1.00  0.00    -0.248 NA
ATOM     66  C   UNL A   1      49.075  28.936  27.923  1.00  0.00     0.031 C 
ATOM     67  C   UNL A   1      44.190  31.385  30.574  1.00  0.00     0.029 A 
ATOM     68  C   UNL A   1      45.032  30.518  29.899  1.00  0.00     0.049 A 
ATOM     69  H   UNL A   1      44.611  28.611  29.098  1.00  0.00     0.167 HD
ATOM     70  C   UNL A   1      47.188  29.781  28.916  1.00  0.00     0.074 A 
ATOM     71  C   UNL A   1      48.588  29.971  28.593  1.00  0.00     0.031 C 
ATOM     72  C   UNL A   1      46.422  30.694  29.562  1.00  0.00     0.037 A 
BRANCH  59  73
ATOM     73  C   UNL A   1      40.552  28.931  30.375  1.00  0.00     0.057 A 
ATOM     74  C   UNL A   1      40.173  28.727  31.709  1.00  0.00     0.134 A 
ATOM     75  C   UNL A   1      39.595  29.480  29.511  1.00  0.00     0.134 A 
ATOM     76  F   UNL A   1      41.038  28.194  32.586  1.00  0.00    -0.206 F 
ATOM     77  C   UNL A   1      38.885  29.021  32.157  1.00  0.00     0.040 A 
ATOM     78  C   UNL A   1      38.311  29.802  29.953  1.00  0.00     0.040 A 
ATOM     79  F   UNL A   1      39.892  29.708  28.222  1.00  0.00    -0.206 F 
ATOM     80  C   UNL A   1      37.950  29.565  31.278  1.00  0.00     0.006 A 
ENDBRANCH  59  73
BRANCH  60  81
ATOM     81  C   UNL A   1      49.412  26.340  26.602  1.00  0.00     0.057 A 
ATOM     82  C   UNL A   1      49.741  26.757  25.309  1.00  0.00     0.134 A 
ATOM     83  C   UNL A   1      50.365  25.593  27.305  1.00  0.00     0.134 A 
ATOM     84  F   UNL A   1      48.862  27.463  24.583  1.00  0.00    -0.206 F 
ATOM     85  C   UNL A   1      50.971  26.440  24.731  1.00  0.00     0.040 A 
ATOM     86  C   UNL A   1      51.606  25.285  26.747  1.00  0.00     0.040 A 
ATOM     87  F   UNL A   1      50.109  25.172  28.552  1.00  0.00    -0.206 F 
ATOM     88  C   UNL A   1      51.911  25.706  25.454  1.00  0.00     0.006 A 
ENDBRANCH  60  81
BRANCH  72  89
ATOM     89  C   UNL A   1      47.086  31.975  29.971  1.00  0.00     0.057 A 
ATOM     90  C   UNL A   1      47.743  32.103  31.201  1.00  0.00     0.134 A 
ATOM     91  C   UNL A   1      47.099  33.079  29.110  1.00  0.00     0.134 A 
ATOM     92  F   UNL A   1      47.754  31.086  32.075  1.00  0.00    -0.206 F 
ATOM     93  C   UNL A   1      48.375  33.292  31.568  1.00  0.00     0.040 A 
ATOM     94  C   UNL A   1      47.746  34.266  29.457  1.00  0.00     0.040 A 
ATOM     95  F   UNL A   1      46.493  33.019  27.915  1.00  0.00    -0.206 F 
ATOM     96  C   UNL A   1      48.383  34.376  30.692  1.00  0.00     0.006 A 
ENDBRANCH  72  89
ENDBRANCH  46  47
ENDBRANCH  38  41
ENDBRANCH  36  37
ENDBRANCH  35  36
ENDBRANCH   1  35
TORSDOF 15
ENDMDL
MODEL 3
REMARK VINA RESULT:     -12.3      4.615     10.616
REMARK SMILES COc1cccc([C@H]2CC(c3ccc(S(C)(=O)=O)cc3)=NN2c2ccc(C(=O)NCCCNC(=O)c3ccc(-c4c5nc(c(-c6c(F)cccc6F)c6ccc([nH]6)c(-c6c(F)cccc6F)c6nc(c(-c7c(F)cccc7F)c7ccc4[nH]7)C=C6)C=C5)cc3)cc2)c1
REMARK SMILES IDX 30 1 29 2 27 3 28 4 26 6 23 7 24 8 91 9 25 10 90 11 22 12
REMARK SMILES IDX 8 13 9 14 10 15 21 16 7 17 3 18 4 19 92 20 5 21 6 22 2 23
REMARK SMILES IDX 1 24 11 25 12 26 20 27 13 28 19 29 14 30 15 31 16 32 17 33
REMARK SMILES IDX 18 34 31 35 32 36 33 37 34 38 35 40 36 41 37 42 89 43 38 44
REMARK SMILES IDX 88 45 39 46 40 47 41 48 82 49 42 50 87 51 81 52 83 53 43 54
REMARK SMILES IDX 86 55 80 56 79 57 44 59 70 60 53 61 69 62 54 63 57 64 68 65
REMARK SMILES IDX 84 66 55 67 56 68 67 70 85 71 58 72 45 73 46 74 51 75 47 76
REMARK SMILES IDX 48 77 50 78 52 79 49 80 71 81 72 82 77 83 73 84 74 85 76 86
REMARK SMILES IDX 78 87 75 88 59 89 60 90 65 91 61 92 62 93 64 94 66 95 63 96
REMARK H PARENT 29 5 33 39 83 58 57 69
REMARK Flexibility Score: inf
ROOT
ATOM      1  C   UNL A   1      43.868  21.971  25.890  1.00  0.00     0.118 C 
ENDROOT
BRANCH   1   2
ATOM      2  N   UNL A   1      43.905  21.983  27.340  1.00  0.00    -0.352 N 
ATOM      3  C   UNL A   1      44.169  22.972  28.252  1.00  0.00     0.251 C 
ATOM      4  O   UNL A   1      44.079  22.672  29.444  1.00  0.00    -0.269 OA
ATOM      5  H   UNL A   1      43.698  21.112  27.749  1.00  0.00     0.163 HD
BRANCH   3   6
ATOM      6  C   UNL A   1      44.506  24.374  27.878  1.00  0.00     0.039 A 
ATOM      7  C   UNL A   1      45.296  27.036  27.309  1.00  0.00     0.060 A 
ATOM      8  C   UNL A   1      46.038  26.238  28.184  1.00  0.00     0.029 A 
ATOM      9  C   UNL A   1      44.181  26.469  26.689  1.00  0.00     0.029 A 
ATOM     10  C   UNL A   1      45.640  24.932  28.484  1.00  0.00     0.016 A 
ATOM     11  C   UNL A   1      43.812  25.141  26.940  1.00  0.00     0.016 A 
BRANCH   7  12
ATOM     12  N   UNL A   1      45.689  28.338  27.059  1.00  0.00    -0.257 N 
ATOM     13  C   UNL A   1      47.069  28.770  26.839  1.00  0.00     0.144 C 
ATOM     14  C   UNL A   1      46.945  30.299  26.818  1.00  0.00     0.091 C 
ATOM     15  C   UNL A   1      45.484  30.446  27.136  1.00  0.00     0.071 C 
ATOM     16  N   UNL A   1      44.808  29.349  27.260  1.00  0.00    -0.176 NA
BRANCH  13  17
ATOM     17  C   UNL A   1      47.620  28.195  25.544  1.00  0.00    -0.019 A 
ATOM     18  C   UNL A   1      49.443  27.198  24.266  1.00  0.00     0.119 A 
ATOM     19  C   UNL A   1      48.655  27.239  23.117  1.00  0.00     0.046 A 
ATOM     20  C   UNL A   1      48.934  27.693  25.467  1.00  0.00     0.052 A 
ATOM     21  C   UNL A   1      47.352  27.732  23.173  1.00  0.00     0.004 A 
ATOM     22  C   UNL A   1      46.834  28.203  24.380  1.00  0.00     0.006 A 
BRANCH  18  23
ATOM     23  O   UNL A   1      50.708  26.708  24.098  1.00  0.00    -0.497 OA
ATOM     24  C   UNL A   1      51.748  27.557  24.575  1.00  0.00     0.278 C 
ENDBRANCH  18  23
ENDBRANCH  13  17
BRANCH  15  25
ATOM     25  C   UNL A   1      44.878  31.763  27.340  1.00  0.00    -0.002 A 
ATOM     26  C   UNL A   1      44.199  32.002  28.540  1.00  0.00     0.011 A 
ATOM     27  C   UNL A   1      44.947  32.736  26.343  1.00  0.00     0.011 A 
ATOM     28  C   UNL A   1      43.588  33.237  28.753  1.00  0.00     0.021 A 
ATOM     29  C   UNL A   1      44.312  33.965  26.542  1.00  0.00     0.021 A 
ATOM     30  C   UNL A   1      43.634  34.204  27.743  1.00  0.00     0.067 A 
BRANCH  30  31
ATOM     31  S   UNL A   1      42.822  35.764  28.010  1.00  0.00     0.175 S 
ATOM     32  C   UNL A   1      41.448  35.362  29.060  1.00  0.00     0.163 C 
ATOM     33  O   UNL A   1      43.747  36.592  28.756  1.00  0.00    -0.224 OA
ATOM     34  O   UNL A   1      42.285  36.200  26.734  1.00  0.00    -0.224 OA
ENDBRANCH  30  31
ENDBRANCH  15  25
ENDBRANCH   7  12
ENDBRANCH   3   6
ENDBRANCH   1   2
BRANCH   1  35
ATOM     35  C   UNL A   1      42.451  22.224  25.376  1.00  0.00     0.042 C 
BRANCH  35  36
ATOM     36  C   UNL A   1      41.390  22.172  26.474  1.00  0.00     0.118 C 
BRANCH  36  37
ATOM     37  N   UNL A   1      40.044  22.296  25.935  1.00  0.00    -0.352 N 
ATOM     38  C   UNL A   1      39.079  23.237  26.180  1.00  0.00     0.251 C 
ATOM     39  H   UNL A   1      39.788  21.594  25.293  1.00  0.00     0.163 HD
ATOM     40  O   UNL A   1      37.929  23.039  25.795  1.00  0.00    -0.269 OA
BRANCH  38  41
ATOM     41  C   UNL A   1      39.401  24.484  26.909  1.00  0.00     0.039 A 
ATOM     42  C   UNL A   1      38.971  24.615  28.233  1.00  0.00     0.014 A 
ATOM     43  C   UNL A   1      40.069  25.541  26.283  1.00  0.00     0.014 A 
ATOM     44  C   UNL A   1      39.252  25.784  28.944  1.00  0.00     0.010 A 
ATOM     45  C   UNL A   1      40.401  26.682  27.012  1.00  0.00     0.010 A 
ATOM     46  C   UNL A   1      39.990  26.816  28.347  1.00  0.00    -0.014 A 
BRANCH  46  47
ATOM     47  C   UNL A   1      40.343  28.043  29.102  1.00  0.00     0.031 A 
ATOM     48  C   UNL A   1      41.658  28.141  29.823  1.00  0.00     0.074 A 
ATOM     49  C   UNL A   1      39.445  29.042  29.199  1.00  0.00     0.049 A 
ATOM     50  N   UNL A   1      42.109  29.098  30.593  1.00  0.00    -0.248 NA
ATOM     51  C   UNL A   1      42.576  27.001  29.677  1.00  0.00     0.031 C 
ATOM     52  C   UNL A   1      38.114  29.043  28.589  1.00  0.00     0.029 A 
ATOM     53  N   UNL A   1      39.511  30.241  29.861  1.00  0.00    -0.354 N 
ATOM     54  C   UNL A   1      43.354  28.670  31.036  1.00  0.00     0.074 A 
ATOM     55  C   UNL A   1      43.566  27.348  30.486  1.00  0.00     0.031 C 
ATOM     56  C   UNL A   1      37.490  30.189  28.903  1.00  0.00     0.029 A 
ATOM     57  C   UNL A   1      38.363  30.988  29.757  1.00  0.00     0.049 A 
ATOM     58  H   UNL A   1      40.304  30.538  30.363  1.00  0.00     0.167 HD
ATOM     59  C   UNL A   1      44.248  29.326  31.815  1.00  0.00     0.037 A 
ATOM     60  C   UNL A   1      38.045  32.178  30.299  1.00  0.00     0.037 A 
ATOM     61  C   UNL A   1      44.042  30.648  32.347  1.00  0.00     0.049 A 
ATOM     62  C   UNL A   1      39.054  32.895  31.149  1.00  0.00     0.074 A 
ATOM     63  C   UNL A   1      44.912  31.425  33.093  1.00  0.00     0.029 A 
ATOM     64  N   UNL A   1      42.879  31.388  32.191  1.00  0.00    -0.354 N 
ATOM     65  N   UNL A   1      40.255  32.509  31.504  1.00  0.00    -0.248 NA
ATOM     66  C   UNL A   1      38.667  34.214  31.667  1.00  0.00     0.031 C 
ATOM     67  C   UNL A   1      44.260  32.620  33.420  1.00  0.00     0.029 A 
ATOM     68  C   UNL A   1      43.001  32.604  32.844  1.00  0.00     0.049 A 
ATOM     69  H   UNL A   1      42.084  31.093  31.691  1.00  0.00     0.167 HD
ATOM     70  C   UNL A   1      40.775  33.541  32.273  1.00  0.00     0.074 A 
ATOM     71  C   UNL A   1      39.763  34.578  32.319  1.00  0.00     0.031 C 
ATOM     72  C   UNL A   1      41.981  33.622  32.887  1.00  0.00     0.037 A 
BRANCH  59  73
ATOM     73  C   UNL A   1      45.529  28.615  32.135  1.00  0.00     0.057 A 
ATOM     74  C   UNL A   1      45.684  27.863  33.308  1.00  0.00     0.134 A 
ATOM     75  C   UNL A   1      46.621  28.674  31.259  1.00  0.00     0.134 A 
ATOM     76  F   UNL A   1      44.681  27.775  34.195  1.00  0.00    -0.206 F 
ATOM     77  C   UNL A   1      46.887  27.225  33.615  1.00  0.00     0.040 A 
ATOM     78  C   UNL A   1      47.821  28.019  31.543  1.00  0.00     0.040 A 
ATOM     79  F   UNL A   1      46.540  29.370  30.115  1.00  0.00    -0.206 F 
ATOM     80  C   UNL A   1      47.959  27.299  32.727  1.00  0.00     0.006 A 
ENDBRANCH  59  73
BRANCH  60  81
ATOM     81  C   UNL A   1      36.710  32.767  30.032  1.00  0.00     0.057 A 
ATOM     82  C   UNL A   1      35.654  32.597  30.932  1.00  0.00     0.134 A 
ATOM     83  C   UNL A   1      36.469  33.538  28.889  1.00  0.00     0.134 A 
ATOM     84  F   UNL A   1      35.821  31.856  32.037  1.00  0.00    -0.206 F 
ATOM     85  C   UNL A   1      34.401  33.167  30.703  1.00  0.00     0.040 A 
ATOM     86  C   UNL A   1      35.228  34.131  28.656  1.00  0.00     0.040 A 
ATOM     87  F   UNL A   1      37.446  33.745  27.993  1.00  0.00    -0.206 F 
ATOM     88  C   UNL A   1      34.187  33.943  29.564  1.00  0.00     0.006 A 
ENDBRANCH  60  81
BRANCH  72  89
ATOM     89  C   UNL A   1      42.275  34.879  33.650  1.00  0.00     0.057 A 
ATOM     90  C   UNL A   1      41.908  35.027  34.993  1.00  0.00     0.134 A 
ATOM     91  C   UNL A   1      42.964  35.937  33.044  1.00  0.00     0.134 A 
ATOM     92  F   UNL A   1      41.233  34.055  35.624  1.00  0.00    -0.206 F 
ATOM     93  C   UNL A   1      42.199  36.193  35.702  1.00  0.00     0.040 A 
ATOM     94  C   UNL A   1      43.281  37.099  33.750  1.00  0.00     0.040 A 
ATOM     95  F   UNL A   1      43.348  35.855  31.762  1.00  0.00    -0.206 F 
ATOM     96  C   UNL A   1      42.895  37.230  35.083  1.00  0.00     0.006 A 
ENDBRANCH  72  89
ENDBRANCH  46  47
ENDBRANCH  38  41
ENDBRANCH  36  37
ENDBRANCH  35  36
ENDBRANCH   1  35
TORSDOF 15
ENDMDL
