MODEL 1
REMARK VINA RESULT:     -13.4      0.000      0.000
REMARK SMILES O=C(NCCCNC(=O)c1ccc(-c2c3nc(c(-c4c(F)cccc4F)c4ccc([nH]4)c(-c4c(F)cccc4F)c4nc(c(-c5c(F)cccc5F)c5ccc2[nH]5)C=C4)C=C3)cc1)C1=Cc2cc(Cl)cc(-c3ccccc3)c2O[C@@H]1C(F)(F)F
REMARK SMILES IDX 5 1 4 2 3 3 1 4 2 5 64 7 65 8 80 9 66 10 79 11 67 12 78 13
REMARK SMILES IDX 68 14 71 15 69 16 70 17 81 18 82 19 83 20 84 21 72 22 73 23
REMARK SMILES IDX 77 24 74 25 76 26 75 27 6 28 7 29 8 30 9 32 10 33 11 34
REMARK SMILES IDX 63 35 12 36 62 37 13 38 14 39 15 40 56 41 16 42 61 43 55 44
REMARK SMILES IDX 57 45 17 46 60 47 54 48 53 49 18 51 44 52 27 53 43 54 28 55
REMARK SMILES IDX 31 56 42 57 58 58 29 59 30 60 41 62 59 63 32 64 19 65 20 66
REMARK SMILES IDX 25 67 21 68 22 69 24 70 26 71 23 72 45 73 46 74 51 75 47 76
REMARK SMILES IDX 48 77 50 78 52 79 49 80 33 81 34 82 39 83 35 84 36 85 38 86
REMARK SMILES IDX 40 87 37 88
REMARK H PARENT 3 6 7 31 57 50 31 61
REMARK Flexibility Score: inf
ROOT
ATOM      1  C   UNL A   1      32.547  28.587  27.267  1.00  0.00     0.042 C 
ENDROOT
BRANCH   1   2
ATOM      2  C   UNL A   1      32.497  27.411  26.289  1.00  0.00     0.118 C 
BRANCH   2   3
ATOM      3  N   UNL A   1      31.740  26.271  26.815  1.00  0.00    -0.352 N 
ATOM      4  O   UNL A   1      31.309  24.085  27.251  1.00  0.00    -0.270 OA
ATOM      5  C   UNL A   1      31.888  24.927  26.580  1.00  0.00     0.251 C 
ATOM      6  H   UNL A   1      31.011  26.507  27.434  1.00  0.00     0.163 HD
BRANCH   5   7
ATOM      7  C   UNL A   1      32.827  24.546  25.516  1.00  0.00     0.067 C 
ATOM      8  C   UNL A   1      34.129  24.745  25.746  1.00  0.00     0.025 C 
ATOM      9  C   UNL A   1      32.323  23.656  24.428  1.00  0.00     0.314 C 
ATOM     10  C   UNL A   1      34.998  23.673  25.255  1.00  0.00     0.019 A 
ATOM     11  O   UNL A   1      33.091  22.429  24.361  1.00  0.00    -0.475 OA
ATOM     12  C   UNL A   1      36.333  23.682  25.668  1.00  0.00     0.032 A 
ATOM     13  C   UNL A   1      34.408  22.488  24.763  1.00  0.00     0.135 A 
ATOM     14  C   UNL A   1      37.043  22.488  25.695  1.00  0.00     0.042 A 
ATOM     15  C   UNL A   1      35.108  21.270  24.839  1.00  0.00     0.026 A 
ATOM     16  Cl  UNL A   1      38.630  22.468  26.359  1.00  0.00    -0.084 Cl
ATOM     17  C   UNL A   1      36.435  21.293  25.312  1.00  0.00     0.033 A 
BRANCH   9  18
ATOM     18  C   UNL A   1      32.263  24.383  23.073  1.00  0.00     0.429 C 
ATOM     19  F   UNL A   1      30.986  24.507  22.639  1.00  0.00    -0.167 F 
ATOM     20  F   UNL A   1      32.769  25.637  23.155  1.00  0.00    -0.167 F 
ATOM     21  F   UNL A   1      32.955  23.737  22.104  1.00  0.00    -0.167 F 
ENDBRANCH   9  18
BRANCH  15  22
ATOM     22  C   UNL A   1      34.456  19.966  24.626  1.00  0.00    -0.015 A 
ATOM     23  C   UNL A   1      35.226  18.789  24.626  1.00  0.00     0.009 A 
ATOM     24  C   UNL A   1      33.088  19.852  24.365  1.00  0.00     0.009 A 
ATOM     25  C   UNL A   1      34.672  17.549  24.321  1.00  0.00     0.001 A 
ATOM     26  C   UNL A   1      32.524  18.605  24.068  1.00  0.00     0.001 A 
ATOM     27  C   UNL A   1      33.318  17.458  24.032  1.00  0.00     0.000 A 
ENDBRANCH  15  22
ENDBRANCH   5   7
ENDBRANCH   2   3
ENDBRANCH   1   2
BRANCH   1  28
ATOM     28  C   UNL A   1      33.563  29.651  26.860  1.00  0.00     0.118 C 
BRANCH  28  29
ATOM     29  N   UNL A   1      33.750  30.729  27.817  1.00  0.00    -0.352 N 
ATOM     30  C   UNL A   1      34.855  31.036  28.588  1.00  0.00     0.251 C 
ATOM     31  H   UNL A   1      32.977  31.327  27.933  1.00  0.00     0.163 HD
ATOM     32  O   UNL A   1      34.822  32.005  29.342  1.00  0.00    -0.269 OA
BRANCH  30  33
ATOM     33  C   UNL A   1      36.036  30.139  28.616  1.00  0.00     0.039 A 
ATOM     34  C   UNL A   1      36.856  30.107  27.482  1.00  0.00     0.014 A 
ATOM     35  C   UNL A   1      36.410  29.434  29.757  1.00  0.00     0.014 A 
ATOM     36  C   UNL A   1      38.119  29.518  27.553  1.00  0.00     0.010 A 
ATOM     37  C   UNL A   1      37.707  28.949  29.866  1.00  0.00     0.010 A 
ATOM     38  C   UNL A   1      38.588  29.025  28.779  1.00  0.00    -0.014 A 
BRANCH  38  39
ATOM     39  C   UNL A   1      40.011  28.661  28.977  1.00  0.00     0.031 A 
ATOM     40  C   UNL A   1      40.977  29.668  29.530  1.00  0.00     0.074 A 
ATOM     41  C   UNL A   1      40.448  27.465  28.533  1.00  0.00     0.049 A 
ATOM     42  N   UNL A   1      42.278  29.594  29.633  1.00  0.00    -0.248 NA
ATOM     43  C   UNL A   1      40.409  30.948  29.980  1.00  0.00     0.031 C 
ATOM     44  C   UNL A   1      39.615  26.440  27.895  1.00  0.00     0.029 A 
ATOM     45  N   UNL A   1      41.702  26.911  28.534  1.00  0.00    -0.354 N 
ATOM     46  C   UNL A   1      42.686  30.830  30.120  1.00  0.00     0.074 A 
ATOM     47  C   UNL A   1      41.501  31.649  30.243  1.00  0.00     0.031 C 
ATOM     48  C   UNL A   1      40.372  25.371  27.604  1.00  0.00     0.029 A 
ATOM     49  C   UNL A   1      41.748  25.647  27.995  1.00  0.00     0.049 A 
ATOM     50  H   UNL A   1      42.495  27.375  28.887  1.00  0.00     0.167 HD
ATOM     51  C   UNL A   1      43.934  31.233  30.456  1.00  0.00     0.037 A 
ATOM     52  C   UNL A   1      42.787  24.806  27.838  1.00  0.00     0.037 A 
ATOM     53  C   UNL A   1      45.095  30.388  30.381  1.00  0.00     0.049 A 
ATOM     54  C   UNL A   1      44.147  25.247  28.294  1.00  0.00     0.074 A 
ATOM     55  C   UNL A   1      46.396  30.668  30.762  1.00  0.00     0.029 A 
ATOM     56  N   UNL A   1      45.087  29.085  29.906  1.00  0.00    -0.354 N 
ATOM     57  N   UNL A   1      44.510  26.399  28.806  1.00  0.00    -0.248 NA
ATOM     58  C   UNL A   1      45.240  24.275  28.159  1.00  0.00     0.031 C 
ATOM     59  C   UNL A   1      47.178  29.538  30.500  1.00  0.00     0.029 A 
ATOM     60  C   UNL A   1      46.359  28.545  29.984  1.00  0.00     0.049 A 
ATOM     61  H   UNL A   1      44.294  28.613  29.562  1.00  0.00     0.167 HD
ATOM     62  C   UNL A   1      45.866  26.284  29.076  1.00  0.00     0.074 A 
ATOM     63  C   UNL A   1      46.258  24.945  28.683  1.00  0.00     0.031 C 
ATOM     64  C   UNL A   1      46.714  27.204  29.598  1.00  0.00     0.037 A 
BRANCH  51  65
ATOM     65  C   UNL A   1      44.088  32.643  30.945  1.00  0.00     0.057 A 
ATOM     66  C   UNL A   1      44.010  32.964  32.307  1.00  0.00     0.134 A 
ATOM     67  C   UNL A   1      44.307  33.695  30.047  1.00  0.00     0.134 A 
ATOM     68  F   UNL A   1      43.785  32.006  33.219  1.00  0.00    -0.206 F 
ATOM     69  C   UNL A   1      44.103  34.283  32.754  1.00  0.00     0.040 A 
ATOM     70  C   UNL A   1      44.430  35.014  30.484  1.00  0.00     0.040 A 
ATOM     71  F   UNL A   1      44.397  33.459  28.729  1.00  0.00    -0.206 F 
ATOM     72  C   UNL A   1      44.317  35.313  31.841  1.00  0.00     0.006 A 
ENDBRANCH  51  65
BRANCH  52  73
ATOM     73  C   UNL A   1      42.571  23.452  27.271  1.00  0.00     0.057 A 
ATOM     74  C   UNL A   1      42.190  22.385  28.094  1.00  0.00     0.134 A 
ATOM     75  C   UNL A   1      42.725  23.189  25.905  1.00  0.00     0.134 A 
ATOM     76  F   UNL A   1      42.039  22.572  29.413  1.00  0.00    -0.206 F 
ATOM     77  C   UNL A   1      41.987  21.102  27.583  1.00  0.00     0.040 A 
ATOM     78  C   UNL A   1      42.504  21.915  25.376  1.00  0.00     0.040 A 
ATOM     79  F   UNL A   1      43.076  24.172  25.062  1.00  0.00    -0.206 F 
ATOM     80  C   UNL A   1      42.140  20.865  26.218  1.00  0.00     0.006 A 
ENDBRANCH  52  73
BRANCH  64  81
ATOM     81  C   UNL A   1      48.135  26.777  29.802  1.00  0.00     0.057 A 
ATOM     82  C   UNL A   1      48.534  26.077  30.947  1.00  0.00     0.134 A 
ATOM     83  C   UNL A   1      49.102  27.035  28.824  1.00  0.00     0.134 A 
ATOM     84  F   UNL A   1      47.655  25.814  31.924  1.00  0.00    -0.206 F 
ATOM     85  C   UNL A   1      49.854  25.658  31.117  1.00  0.00     0.040 A 
ATOM     86  C   UNL A   1      50.419  26.603  28.972  1.00  0.00     0.040 A 
ATOM     87  F   UNL A   1      48.776  27.698  27.703  1.00  0.00    -0.206 F 
ATOM     88  C   UNL A   1      50.799  25.915  30.124  1.00  0.00     0.006 A 
ENDBRANCH  64  81
ENDBRANCH  38  39
ENDBRANCH  30  33
ENDBRANCH  28  29
ENDBRANCH   1  28
TORSDOF 12
ENDMDL
MODEL 2
REMARK VINA RESULT:     -13.2      3.983      7.483
REMARK SMILES O=C(NCCCNC(=O)c1ccc(-c2c3nc(c(-c4c(F)cccc4F)c4ccc([nH]4)c(-c4c(F)cccc4F)c4nc(c(-c5c(F)cccc5F)c5ccc2[nH]5)C=C4)C=C3)cc1)C1=Cc2cc(Cl)cc(-c3ccccc3)c2O[C@@H]1C(F)(F)F
REMARK SMILES IDX 5 1 4 2 3 3 1 4 2 5 64 7 65 8 80 9 66 10 79 11 67 12 78 13
REMARK SMILES IDX 68 14 71 15 69 16 70 17 81 18 82 19 83 20 84 21 72 22 73 23
REMARK SMILES IDX 77 24 74 25 76 26 75 27 6 28 7 29 8 30 9 32 10 33 11 34
REMARK SMILES IDX 63 35 12 36 62 37 13 38 14 39 15 40 56 41 16 42 61 43 55 44
REMARK SMILES IDX 57 45 17 46 60 47 54 48 53 49 18 51 44 52 27 53 43 54 28 55
REMARK SMILES IDX 31 56 42 57 58 58 29 59 30 60 41 62 59 63 32 64 19 65 20 66
REMARK SMILES IDX 25 67 21 68 22 69 24 70 26 71 23 72 45 73 46 74 51 75 47 76
REMARK SMILES IDX 48 77 50 78 52 79 49 80 33 81 34 82 39 83 35 84 36 85 38 86
REMARK SMILES IDX 40 87 37 88
REMARK H PARENT 3 6 7 31 57 50 31 61
REMARK Flexibility Score: inf
ROOT
ATOM      1  C   UNL A   1      30.950  31.964  25.527  1.00  0.00     0.042 C 
ENDROOT
BRANCH   1   2
ATOM      2  C   UNL A   1      30.429  30.567  25.188  1.00  0.00     0.118 C 
BRANCH   2   3
ATOM      3  N   UNL A   1      31.041  30.015  23.975  1.00  0.00    -0.352 N 
ATOM      4  O   UNL A   1      32.047  28.438  22.687  1.00  0.00    -0.270 OA
ATOM      5  C   UNL A   1      31.776  28.868  23.799  1.00  0.00     0.251 C 
ATOM      6  H   UNL A   1      30.905  30.550  23.160  1.00  0.00     0.163 HD
BRANCH   5   7
ATOM      7  C   UNL A   1      32.170  28.148  25.017  1.00  0.00     0.067 C 
ATOM      8  C   UNL A   1      31.248  27.376  25.600  1.00  0.00     0.025 C 
ATOM      9  C   UNL A   1      33.629  28.035  25.317  1.00  0.00     0.314 C 
ATOM     10  C   UNL A   1      31.764  26.106  26.116  1.00  0.00     0.019 A 
ATOM     11  O   UNL A   1      34.039  26.648  25.398  1.00  0.00    -0.475 OA
ATOM     12  C   UNL A   1      30.833  25.143  26.515  1.00  0.00     0.032 A 
ATOM     13  C   UNL A   1      33.093  25.735  25.811  1.00  0.00     0.135 A 
ATOM     14  C   UNL A   1      31.195  23.802  26.502  1.00  0.00     0.042 A 
ATOM     15  C   UNL A   1      33.445  24.374  25.747  1.00  0.00     0.026 A 
ATOM     16  Cl  UNL A   1      30.003  22.606  26.830  1.00  0.00    -0.084 Cl
ATOM     17  C   UNL A   1      32.474  23.417  26.099  1.00  0.00     0.033 A 
BRANCH   9  18
ATOM     18  C   UNL A   1      34.020  28.834  26.573  1.00  0.00     0.429 C 
ATOM     19  F   UNL A   1      34.271  30.131  26.271  1.00  0.00    -0.167 F 
ATOM     20  F   UNL A   1      33.027  28.836  27.495  1.00  0.00    -0.167 F 
ATOM     21  F   UNL A   1      35.127  28.343  27.180  1.00  0.00    -0.167 F 
ENDBRANCH   9  18
BRANCH  15  22
ATOM     22  C   UNL A   1      34.711  23.912  25.154  1.00  0.00    -0.015 A 
ATOM     23  C   UNL A   1      34.759  23.556  23.793  1.00  0.00     0.009 A 
ATOM     24  C   UNL A   1      35.876  23.757  25.911  1.00  0.00     0.009 A 
ATOM     25  C   UNL A   1      35.903  23.011  23.216  1.00  0.00     0.001 A 
ATOM     26  C   UNL A   1      37.032  23.218  25.332  1.00  0.00     0.001 A 
ATOM     27  C   UNL A   1      37.041  22.833  23.991  1.00  0.00     0.000 A 
ENDBRANCH  15  22
ENDBRANCH   5   7
ENDBRANCH   2   3
ENDBRANCH   1   2
BRANCH   1  28
ATOM     28  C   UNL A   1      31.778  31.991  26.810  1.00  0.00     0.118 C 
BRANCH  28  29
ATOM     29  N   UNL A   1      31.963  33.306  27.402  1.00  0.00    -0.352 N 
ATOM     30  C   UNL A   1      33.086  33.850  27.995  1.00  0.00     0.251 C 
ATOM     31  H   UNL A   1      31.174  33.893  27.377  1.00  0.00     0.163 HD
ATOM     32  O   UNL A   1      33.047  34.997  28.436  1.00  0.00    -0.269 OA
BRANCH  30  33
ATOM     33  C   UNL A   1      34.299  33.029  28.223  1.00  0.00     0.039 A 
ATOM     34  C   UNL A   1      35.545  33.635  28.017  1.00  0.00     0.014 A 
ATOM     35  C   UNL A   1      34.239  31.738  28.741  1.00  0.00     0.014 A 
ATOM     36  C   UNL A   1      36.704  33.019  28.488  1.00  0.00     0.010 A 
ATOM     37  C   UNL A   1      35.374  31.176  29.311  1.00  0.00     0.010 A 
ATOM     38  C   UNL A   1      36.610  31.832  29.227  1.00  0.00    -0.014 A 
BRANCH  38  39
ATOM     39  C   UNL A   1      37.763  31.297  29.991  1.00  0.00     0.031 A 
ATOM     40  C   UNL A   1      38.694  30.305  29.355  1.00  0.00     0.074 A 
ATOM     41  C   UNL A   1      37.885  31.611  31.296  1.00  0.00     0.049 A 
ATOM     42  N   UNL A   1      39.658  29.612  29.900  1.00  0.00    -0.248 NA
ATOM     43  C   UNL A   1      38.476  30.018  27.928  1.00  0.00     0.031 C 
ATOM     44  C   UNL A   1      36.985  32.495  32.045  1.00  0.00     0.029 A 
ATOM     45  N   UNL A   1      38.804  31.213  32.233  1.00  0.00    -0.354 N 
ATOM     46  C   UNL A   1      40.135  28.779  28.895  1.00  0.00     0.074 A 
ATOM     47  C   UNL A   1      39.319  29.019  27.724  1.00  0.00     0.031 C 
ATOM     48  C   UNL A   1      37.420  32.602  33.310  1.00  0.00     0.029 A 
ATOM     49  C   UNL A   1      38.601  31.765  33.475  1.00  0.00     0.049 A 
ATOM     50  H   UNL A   1      39.540  30.590  32.034  1.00  0.00     0.167 HD
ATOM     51  C   UNL A   1      41.173  27.912  28.939  1.00  0.00     0.037 A 
ATOM     52  C   UNL A   1      39.295  31.613  34.618  1.00  0.00     0.037 A 
ATOM     53  C   UNL A   1      42.010  27.726  30.094  1.00  0.00     0.049 A 
ATOM     54  C   UNL A   1      40.492  30.708  34.620  1.00  0.00     0.074 A 
ATOM     55  C   UNL A   1      43.132  26.928  30.231  1.00  0.00     0.029 A 
ATOM     56  N   UNL A   1      41.822  28.366  31.311  1.00  0.00    -0.354 N 
ATOM     57  N   UNL A   1      40.967  29.969  33.646  1.00  0.00    -0.248 NA
ATOM     58  C   UNL A   1      41.254  30.618  35.872  1.00  0.00     0.031 C 
ATOM     59  C   UNL A   1      43.613  27.072  31.537  1.00  0.00     0.029 A 
ATOM     60  C   UNL A   1      42.807  27.982  32.204  1.00  0.00     0.049 A 
ATOM     61  H   UNL A   1      41.094  28.998  31.510  1.00  0.00     0.167 HD
ATOM     62  C   UNL A   1      42.095  29.344  34.158  1.00  0.00     0.074 A 
ATOM     63  C   UNL A   1      42.241  29.802  35.526  1.00  0.00     0.031 C 
ATOM     64  C   UNL A   1      42.933  28.468  33.554  1.00  0.00     0.037 A 
BRANCH  51  65
ATOM     65  C   UNL A   1      41.458  27.120  27.698  1.00  0.00     0.057 A 
ATOM     66  C   UNL A   1      40.905  25.849  27.490  1.00  0.00     0.134 A 
ATOM     67  C   UNL A   1      42.302  27.626  26.702  1.00  0.00     0.134 A 
ATOM     68  F   UNL A   1      40.102  25.299  28.413  1.00  0.00    -0.206 F 
ATOM     69  C   UNL A   1      41.213  25.094  26.357  1.00  0.00     0.040 A 
ATOM     70  C   UNL A   1      42.595  26.892  25.551  1.00  0.00     0.040 A 
ATOM     71  F   UNL A   1      42.862  28.838  26.833  1.00  0.00    -0.206 F 
ATOM     72  C   UNL A   1      42.058  25.617  25.381  1.00  0.00     0.006 A 
ENDBRANCH  51  65
BRANCH  52  73
ATOM     73  C   UNL A   1      38.905  32.370  35.833  1.00  0.00     0.057 A 
ATOM     74  C   UNL A   1      38.163  31.758  36.851  1.00  0.00     0.134 A 
ATOM     75  C   UNL A   1      39.268  33.710  36.018  1.00  0.00     0.134 A 
ATOM     76  F   UNL A   1      37.775  30.480  36.726  1.00  0.00    -0.206 F 
ATOM     77  C   UNL A   1      37.781  32.454  37.999  1.00  0.00     0.040 A 
ATOM     78  C   UNL A   1      38.910  34.412  37.171  1.00  0.00     0.040 A 
ATOM     79  F   UNL A   1      39.990  34.350  35.086  1.00  0.00    -0.206 F 
ATOM     80  C   UNL A   1      38.159  33.785  38.164  1.00  0.00     0.006 A 
ENDBRANCH  52  73
BRANCH  64  81
ATOM     81  C   UNL A   1      44.097  27.978  34.360  1.00  0.00     0.057 A 
ATOM     82  C   UNL A   1      44.024  26.800  35.113  1.00  0.00     0.134 A 
ATOM     83  C   UNL A   1      45.313  28.671  34.347  1.00  0.00     0.134 A 
ATOM     84  F   UNL A   1      42.881  26.103  35.176  1.00  0.00    -0.206 F 
ATOM     85  C   UNL A   1      45.121  26.335  35.839  1.00  0.00     0.040 A 
ATOM     86  C   UNL A   1      46.422  28.205  35.051  1.00  0.00     0.040 A 
ATOM     87  F   UNL A   1      45.443  29.804  33.639  1.00  0.00    -0.206 F 
ATOM     88  C   UNL A   1      46.327  27.036  35.803  1.00  0.00     0.006 A 
ENDBRANCH  64  81
ENDBRANCH  38  39
ENDBRANCH  30  33
ENDBRANCH  28  29
ENDBRANCH   1  28
TORSDOF 12
ENDMDL
MODEL 3
REMARK VINA RESULT:     -13.1      3.907      5.334
REMARK SMILES O=C(NCCCNC(=O)c1ccc(-c2c3nc(c(-c4c(F)cccc4F)c4ccc([nH]4)c(-c4c(F)cccc4F)c4nc(c(-c5c(F)cccc5F)c5ccc2[nH]5)C=C4)C=C3)cc1)C1=Cc2cc(Cl)cc(-c3ccccc3)c2O[C@@H]1C(F)(F)F
REMARK SMILES IDX 5 1 4 2 3 3 1 4 2 5 64 7 65 8 80 9 66 10 79 11 67 12 78 13
REMARK SMILES IDX 68 14 71 15 69 16 70 17 81 18 82 19 83 20 84 21 72 22 73 23
REMARK SMILES IDX 77 24 74 25 76 26 75 27 6 28 7 29 8 30 9 32 10 33 11 34
REMARK SMILES IDX 63 35 12 36 62 37 13 38 14 39 15 40 56 41 16 42 61 43 55 44
REMARK SMILES IDX 57 45 17 46 60 47 54 48 53 49 18 51 44 52 27 53 43 54 28 55
REMARK SMILES IDX 31 56 42 57 58 58 29 59 30 60 41 62 59 63 32 64 19 65 20 66
REMARK SMILES IDX 25 67 21 68 22 69 24 70 26 71 23 72 45 73 46 74 51 75 47 76
REMARK SMILES IDX 48 77 50 78 52 79 49 80 33 81 34 82 39 83 35 84 36 85 38 86
REMARK SMILES IDX 40 87 37 88
REMARK H PARENT 3 6 7 31 57 50 31 61
REMARK Flexibility Score: inf
ROOT
ATOM      1  C   UNL A   1      31.016  32.172  25.740  1.00  0.00     0.042 C 
ENDROOT
BRANCH   1   2
ATOM      2  C   UNL A   1      30.414  30.799  25.436  1.00  0.00     0.118 C 
BRANCH   2   3
ATOM      3  N   UNL A   1      30.897  30.238  24.170  1.00  0.00    -0.352 N 
ATOM      4  O   UNL A   1      31.720  28.639  22.785  1.00  0.00    -0.270 OA
ATOM      5  C   UNL A   1      31.562  29.064  23.920  1.00  0.00     0.251 C 
ATOM      6  H   UNL A   1      30.717  30.791  23.375  1.00  0.00     0.163 HD
BRANCH   5   7
ATOM      7  C   UNL A   1      32.025  28.310  25.093  1.00  0.00     0.067 C 
ATOM      8  C   UNL A   1      31.136  27.521  25.706  1.00  0.00     0.025 C 
ATOM      9  C   UNL A   1      33.499  28.188  25.306  1.00  0.00     0.314 C 
ATOM     10  C   UNL A   1      31.679  26.237  26.155  1.00  0.00     0.019 A 
ATOM     11  O   UNL A   1      33.910  26.799  25.323  1.00  0.00    -0.475 OA
ATOM     12  C   UNL A   1      30.770  25.263  26.579  1.00  0.00     0.032 A 
ATOM     13  C   UNL A   1      32.987  25.874  25.764  1.00  0.00     0.135 A 
ATOM     14  C   UNL A   1      31.129  23.923  26.508  1.00  0.00     0.042 A 
ATOM     15  C   UNL A   1      33.333  24.516  25.641  1.00  0.00     0.026 A 
ATOM     16  Cl  UNL A   1      29.956  22.718  26.870  1.00  0.00    -0.084 Cl
ATOM     17  C   UNL A   1      32.382  23.549  26.021  1.00  0.00     0.033 A 
BRANCH   9  18
ATOM     18  C   UNL A   1      33.962  28.951  26.559  1.00  0.00     0.429 C 
ATOM     19  F   UNL A   1      35.105  28.423  27.060  1.00  0.00    -0.167 F 
ATOM     20  F   UNL A   1      34.223  30.252  26.285  1.00  0.00    -0.167 F 
ATOM     21  F   UNL A   1      33.041  28.929  27.552  1.00  0.00    -0.167 F 
ENDBRANCH   9  18
BRANCH  15  22
ATOM     22  C   UNL A   1      34.562  24.070  24.963  1.00  0.00    -0.015 A 
ATOM     23  C   UNL A   1      34.504  23.623  23.630  1.00  0.00     0.009 A 
ATOM     24  C   UNL A   1      35.797  24.021  25.616  1.00  0.00     0.009 A 
ATOM     25  C   UNL A   1      35.618  23.091  22.986  1.00  0.00     0.001 A 
ATOM     26  C   UNL A   1      36.922  23.496  24.968  1.00  0.00     0.001 A 
ATOM     27  C   UNL A   1      36.829  23.018  23.660  1.00  0.00     0.000 A 
ENDBRANCH  15  22
ENDBRANCH   5   7
ENDBRANCH   2   3
ENDBRANCH   1   2
BRANCH   1  28
ATOM     28  C   UNL A   1      31.902  32.165  26.984  1.00  0.00     0.118 C 
BRANCH  28  29
ATOM     29  N   UNL A   1      32.275  33.477  27.488  1.00  0.00    -0.352 N 
ATOM     30  C   UNL A   1      33.488  33.914  27.985  1.00  0.00     0.251 C 
ATOM     31  H   UNL A   1      31.559  34.152  27.472  1.00  0.00     0.163 HD
ATOM     32  O   UNL A   1      33.609  35.077  28.360  1.00  0.00    -0.269 OA
BRANCH  30  33
ATOM     33  C   UNL A   1      34.609  32.966  28.195  1.00  0.00     0.039 A 
ATOM     34  C   UNL A   1      35.911  33.444  27.999  1.00  0.00     0.014 A 
ATOM     35  C   UNL A   1      34.416  31.678  28.686  1.00  0.00     0.014 A 
ATOM     36  C   UNL A   1      37.000  32.701  28.455  1.00  0.00     0.010 A 
ATOM     37  C   UNL A   1      35.486  30.990  29.241  1.00  0.00     0.010 A 
ATOM     38  C   UNL A   1      36.783  31.515  29.169  1.00  0.00    -0.014 A 
BRANCH  38  39
ATOM     39  C   UNL A   1      37.874  30.848  29.919  1.00  0.00     0.031 A 
ATOM     40  C   UNL A   1      38.114  31.186  31.362  1.00  0.00     0.074 A 
ATOM     41  C   UNL A   1      38.725  30.040  29.255  1.00  0.00     0.049 A 
ATOM     42  N   UNL A   1      39.102  30.830  32.140  1.00  0.00    -0.248 NA
ATOM     43  C   UNL A   1      37.138  32.084  31.999  1.00  0.00     0.031 C 
ATOM     44  C   UNL A   1      38.643  29.710  27.828  1.00  0.00     0.029 A 
ATOM     45  N   UNL A   1      39.834  29.358  29.684  1.00  0.00    -0.354 N 
ATOM     46  C   UNL A   1      38.889  31.493  33.343  1.00  0.00     0.074 A 
ATOM     47  C   UNL A   1      37.707  32.309  33.173  1.00  0.00     0.031 C 
ATOM     48  C   UNL A   1      39.633  28.861  27.512  1.00  0.00     0.029 A 
ATOM     49  C   UNL A   1      40.443  28.618  28.698  1.00  0.00     0.049 A 
ATOM     50  H   UNL A   1      40.164  29.396  30.611  1.00  0.00     0.167 HD
ATOM     51  C   UNL A   1      39.601  31.407  34.490  1.00  0.00     0.037 A 
ATOM     52  C   UNL A   1      41.533  27.829  28.751  1.00  0.00     0.037 A 
ATOM     53  C   UNL A   1      40.741  30.547  34.662  1.00  0.00     0.049 A 
ATOM     54  C   UNL A   1      42.258  27.687  30.057  1.00  0.00     0.074 A 
ATOM     55  C   UNL A   1      41.497  30.327  35.800  1.00  0.00     0.029 A 
ATOM     56  N   UNL A   1      41.280  29.750  33.662  1.00  0.00    -0.354 N 
ATOM     57  N   UNL A   1      42.012  28.276  31.203  1.00  0.00    -0.248 NA
ATOM     58  C   UNL A   1      43.405  26.770  30.082  1.00  0.00     0.031 C 
ATOM     59  C   UNL A   1      42.503  29.407  35.483  1.00  0.00     0.029 A 
ATOM     60  C   UNL A   1      42.356  29.034  34.156  1.00  0.00     0.049 A 
ATOM     61  H   UNL A   1      40.946  29.701  32.736  1.00  0.00     0.167 HD
ATOM     62  C   UNL A   1      42.957  27.785  32.092  1.00  0.00     0.074 A 
ATOM     63  C   UNL A   1      43.773  26.840  31.355  1.00  0.00     0.031 C 
ATOM     64  C   UNL A   1      43.138  28.090  33.400  1.00  0.00     0.037 A 
BRANCH  51  65
ATOM     65  C   UNL A   1      39.150  32.256  35.641  1.00  0.00     0.057 A 
ATOM     66  C   UNL A   1      38.256  31.775  36.608  1.00  0.00     0.134 A 
ATOM     67  C   UNL A   1      39.602  33.574  35.782  1.00  0.00     0.134 A 
ATOM     68  F   UNL A   1      37.771  30.527  36.522  1.00  0.00    -0.206 F 
ATOM     69  C   UNL A   1      37.798  32.584  37.648  1.00  0.00     0.040 A 
ATOM     70  C   UNL A   1      39.173  34.385  36.834  1.00  0.00     0.040 A 
ATOM     71  F   UNL A   1      40.461  34.099  34.896  1.00  0.00    -0.206 F 
ATOM     72  C   UNL A   1      38.260  33.893  37.766  1.00  0.00     0.006 A 
ENDBRANCH  51  65
BRANCH  52  73
ATOM     73  C   UNL A   1      41.968  27.079  27.547  1.00  0.00     0.057 A 
ATOM     74  C   UNL A   1      41.529  25.769  27.322  1.00  0.00     0.134 A 
ATOM     75  C   UNL A   1      42.818  27.646  26.589  1.00  0.00     0.134 A 
ATOM     76  F   UNL A   1      40.724  25.167  28.211  1.00  0.00    -0.206 F 
ATOM     77  C   UNL A   1      41.931  25.043  26.200  1.00  0.00     0.040 A 
ATOM     78  C   UNL A   1      43.211  26.939  25.450  1.00  0.00     0.040 A 
ATOM     79  F   UNL A   1      43.263  28.903  26.739  1.00  0.00    -0.206 F 
ATOM     80  C   UNL A   1      42.772  25.630  25.257  1.00  0.00     0.006 A 
ENDBRANCH  52  73
BRANCH  64  81
ATOM     81  C   UNL A   1      44.237  27.369  34.118  1.00  0.00     0.057 A 
ATOM     82  C   UNL A   1      45.527  27.905  34.212  1.00  0.00     0.134 A 
ATOM     83  C   UNL A   1      43.988  26.148  34.756  1.00  0.00     0.134 A 
ATOM     84  F   UNL A   1      45.828  29.063  33.608  1.00  0.00    -0.206 F 
ATOM     85  C   UNL A   1      46.539  27.240  34.907  1.00  0.00     0.040 A 
ATOM     86  C   UNL A   1      44.985  25.486  35.471  1.00  0.00     0.040 A 
ATOM     87  F   UNL A   1      42.769  25.589  34.704  1.00  0.00    -0.206 F 
ATOM     88  C   UNL A   1      46.266  26.030  35.544  1.00  0.00     0.006 A 
ENDBRANCH  64  81
ENDBRANCH  38  39
ENDBRANCH  30  33
ENDBRANCH  28  29
ENDBRANCH   1  28
TORSDOF 12
ENDMDL
