MODEL 1
REMARK VINA RESULT:     -11.2      0.000      0.000
REMARK SMILES CC[C@H](C)[C@@H](Nc1nc(C(F)(F)F)nc2ccccc12)C(=O)NCCCNC(=O)c1ccc(-c2c3nc(c(-c4c(F)cccc4F)c4ccc([nH]4)c(-c4c(F)cccc4F)c4nc(c(-c5c(F)cccc5F)c5ccc2[nH]5)C=C4)C=C3)cc1
REMARK SMILES IDX 24 1 23 2 21 3 22 4 5 6 3 7 4 8 2 9 1 10 6 11 7 13 8 14
REMARK SMILES IDX 20 15 9 16 15 17 19 18 14 19 16 20 18 21 17 22 10 23 11 24
REMARK SMILES IDX 12 25 13 26 25 27 26 28 27 29 28 30 29 32 30 33 31 34 83 35
REMARK SMILES IDX 32 36 82 37 33 38 34 39 35 40 76 41 36 42 81 43 75 44 77 45
REMARK SMILES IDX 37 46 80 47 74 48 73 49 38 51 64 52 47 53 63 54 48 55 51 56
REMARK SMILES IDX 62 57 78 58 49 59 50 60 61 62 79 63 52 64 39 65 40 66 45 67
REMARK SMILES IDX 41 68 42 69 44 70 46 71 43 72 65 73 66 74 71 75 67 76 68 77
REMARK SMILES IDX 70 78 72 79 69 80 53 81 54 82 59 83 55 84 56 85 58 86 60 87
REMARK SMILES IDX 57 88
REMARK H PARENT 23 5 6 12 27 31 77 50 51 61
REMARK Flexibility Score: inf
ROOT
ATOM      1  C   UNL A   1      34.662  22.906  25.590  1.00  0.00     0.117 C 
ENDROOT
BRANCH   1   2
ATOM      2  N   UNL A   1      33.516  23.069  26.464  1.00  0.00    -0.354 N 
ATOM      3  C   UNL A   1      32.488  23.960  26.399  1.00  0.00     0.242 C 
ATOM      4  O   UNL A   1      31.641  23.918  27.297  1.00  0.00    -0.273 OA
ATOM      5  H   UNL A   1      33.476  22.440  27.220  1.00  0.00     0.163 HD
BRANCH   3   6
ATOM      6  C   UNL A   1      32.401  25.023  25.274  1.00  0.00     0.173 C 
BRANCH   6   7
ATOM      7  C   UNL A   1      32.154  24.315  23.897  1.00  0.00     0.018 C 
ATOM      8  C   UNL A   1      30.663  24.284  23.530  1.00  0.00     0.010 C 
BRANCH   7   9
ATOM      9  C   UNL A   1      32.956  24.984  22.745  1.00  0.00     0.002 C 
ATOM     10  C   UNL A   1      32.075  25.736  21.754  1.00  0.00     0.004 C 
ENDBRANCH   7   9
ENDBRANCH   6   7
BRANCH   6  11
ATOM     11  N   UNL A   1      31.408  26.105  25.537  1.00  0.00    -0.358 N 
ATOM     12  H   UNL A   1      30.556  25.846  25.957  1.00  0.00     0.162 HD
BRANCH  11  13
ATOM     13  C   UNL A   1      31.589  27.446  25.237  1.00  0.00     0.138 A 
ATOM     14  N   UNL A   1      30.702  27.882  24.324  1.00  0.00    -0.207 NA
ATOM     15  C   UNL A   1      32.461  28.322  25.898  1.00  0.00     0.043 A 
ATOM     16  C   UNL A   1      30.559  29.219  24.156  1.00  0.00     0.237 A 
ATOM     17  C   UNL A   1      32.200  29.685  25.699  1.00  0.00     0.076 A 
ATOM     18  C   UNL A   1      33.522  27.945  26.758  1.00  0.00     0.014 A 
ATOM     19  N   UNL A   1      31.263  30.129  24.860  1.00  0.00    -0.224 NA
ATOM     20  C   UNL A   1      32.913  30.619  26.438  1.00  0.00     0.029 A 
ATOM     21  C   UNL A   1      34.229  28.899  27.486  1.00  0.00     0.001 A 
ATOM     22  C   UNL A   1      33.909  30.241  27.342  1.00  0.00     0.002 A 
BRANCH  16  23
ATOM     23  C   UNL A   1      29.428  29.713  23.244  1.00  0.00     0.451 C 
ATOM     24  F   UNL A   1      28.840  30.864  23.685  1.00  0.00    -0.163 F 
ATOM     25  F   UNL A   1      29.867  29.988  21.976  1.00  0.00    -0.163 F 
ATOM     26  F   UNL A   1      28.407  28.819  23.085  1.00  0.00    -0.163 F 
ENDBRANCH  16  23
ENDBRANCH  11  13
ENDBRANCH   6  11
ENDBRANCH   3   6
ENDBRANCH   1   2
BRANCH   1  27
ATOM     27  C   UNL A   1      35.872  23.655  26.108  1.00  0.00     0.042 C 
BRANCH  27  28
ATOM     28  C   UNL A   1      37.009  23.676  25.103  1.00  0.00     0.118 C 
BRANCH  28  29
ATOM     29  N   UNL A   1      38.070  22.734  25.440  1.00  0.00    -0.352 N 
ATOM     30  C   UNL A   1      39.242  22.953  26.116  1.00  0.00     0.251 C 
ATOM     31  H   UNL A   1      37.924  21.808  25.137  1.00  0.00     0.163 HD
ATOM     32  O   UNL A   1      40.119  22.095  26.135  1.00  0.00    -0.269 OA
BRANCH  30  33
ATOM     33  C   UNL A   1      39.444  24.239  26.808  1.00  0.00     0.039 A 
ATOM     34  C   UNL A   1      38.971  24.392  28.112  1.00  0.00     0.014 A 
ATOM     35  C   UNL A   1      40.127  25.279  26.174  1.00  0.00     0.014 A 
ATOM     36  C   UNL A   1      39.245  25.571  28.803  1.00  0.00     0.010 A 
ATOM     37  C   UNL A   1      40.491  26.404  26.898  1.00  0.00     0.010 A 
ATOM     38  C   UNL A   1      40.042  26.568  28.215  1.00  0.00    -0.014 A 
BRANCH  38  39
ATOM     39  C   UNL A   1      40.409  27.798  28.956  1.00  0.00     0.031 A 
ATOM     40  C   UNL A   1      41.759  27.903  29.612  1.00  0.00     0.074 A 
ATOM     41  C   UNL A   1      39.504  28.785  29.096  1.00  0.00     0.049 A 
ATOM     42  N   UNL A   1      42.239  28.862  30.360  1.00  0.00    -0.248 NA
ATOM     43  C   UNL A   1      42.677  26.766  29.430  1.00  0.00     0.031 C 
ATOM     44  C   UNL A   1      38.144  28.772  28.554  1.00  0.00     0.029 A 
ATOM     45  N   UNL A   1      39.590  29.988  29.749  1.00  0.00    -0.354 N 
ATOM     46  C   UNL A   1      43.502  28.435  30.751  1.00  0.00     0.074 A 
ATOM     47  C   UNL A   1      43.691  27.109  30.209  1.00  0.00     0.031 C 
ATOM     48  C   UNL A   1      37.534  29.926  28.870  1.00  0.00     0.029 A 
ATOM     49  C   UNL A   1      38.442  30.739  29.673  1.00  0.00     0.049 A 
ATOM     50  H   UNL A   1      40.397  30.287  30.226  1.00  0.00     0.167 HD
ATOM     51  C   UNL A   1      44.432  29.102  31.476  1.00  0.00     0.037 A 
ATOM     52  C   UNL A   1      38.151  31.943  30.198  1.00  0.00     0.037 A 
ATOM     53  C   UNL A   1      44.248  30.434  31.987  1.00  0.00     0.049 A 
ATOM     54  C   UNL A   1      39.200  32.664  30.999  1.00  0.00     0.074 A 
ATOM     55  C   UNL A   1      45.152  31.225  32.673  1.00  0.00     0.029 A 
ATOM     56  N   UNL A   1      43.076  31.169  31.874  1.00  0.00    -0.354 N 
ATOM     57  N   UNL A   1      40.418  32.281  31.298  1.00  0.00    -0.248 NA
ATOM     58  C   UNL A   1      38.838  33.985  31.529  1.00  0.00     0.031 C 
ATOM     59  C   UNL A   1      44.511  32.417  33.023  1.00  0.00     0.029 A 
ATOM     60  C   UNL A   1      43.227  32.394  32.503  1.00  0.00     0.049 A 
ATOM     61  H   UNL A   1      42.260  30.866  31.416  1.00  0.00     0.167 HD
ATOM     62  C   UNL A   1      40.977  33.324  32.025  1.00  0.00     0.074 A 
ATOM     63  C   UNL A   1      39.968  34.360  32.109  1.00  0.00     0.031 C 
ATOM     64  C   UNL A   1      42.214  33.416  32.574  1.00  0.00     0.037 A 
BRANCH  51  65
ATOM     65  C   UNL A   1      45.730  28.401  31.756  1.00  0.00     0.057 A 
ATOM     66  C   UNL A   1      45.912  27.601  32.892  1.00  0.00     0.134 A 
ATOM     67  C   UNL A   1      46.800  28.498  30.858  1.00  0.00     0.134 A 
ATOM     68  F   UNL A   1      44.931  27.476  33.800  1.00  0.00    -0.206 F 
ATOM     69  C   UNL A   1      47.119  26.945  33.139  1.00  0.00     0.040 A 
ATOM     70  C   UNL A   1      48.002  27.822  31.078  1.00  0.00     0.040 A 
ATOM     71  F   UNL A   1      46.694  29.243  29.748  1.00  0.00    -0.206 F 
ATOM     72  C   UNL A   1      48.165  27.048  32.225  1.00  0.00     0.006 A 
ENDBRANCH  51  65
BRANCH  52  73
ATOM     73  C   UNL A   1      36.817  32.554  29.963  1.00  0.00     0.057 A 
ATOM     74  C   UNL A   1      36.609  33.454  28.913  1.00  0.00     0.134 A 
ATOM     75  C   UNL A   1      35.721  32.249  30.779  1.00  0.00     0.134 A 
ATOM     76  F   UNL A   1      37.625  33.797  28.106  1.00  0.00    -0.206 F 
ATOM     77  C   UNL A   1      35.364  34.046  28.692  1.00  0.00     0.040 A 
ATOM     78  C   UNL A   1      34.464  32.812  30.553  1.00  0.00     0.040 A 
ATOM     79  F   UNL A   1      35.851  31.385  31.797  1.00  0.00    -0.206 F 
ATOM     80  C   UNL A   1      34.285  33.721  29.511  1.00  0.00     0.006 A 
ENDBRANCH  52  73
BRANCH  64  81
ATOM     81  C   UNL A   1      42.558  34.694  33.283  1.00  0.00     0.057 A 
ATOM     82  C   UNL A   1      43.108  35.791  32.609  1.00  0.00     0.134 A 
ATOM     83  C   UNL A   1      42.291  34.840  34.650  1.00  0.00     0.134 A 
ATOM     84  F   UNL A   1      43.398  35.712  31.302  1.00  0.00    -0.206 F 
ATOM     85  C   UNL A   1      43.405  36.981  33.277  1.00  0.00     0.040 A 
ATOM     86  C   UNL A   1      42.555  36.035  35.322  1.00  0.00     0.040 A 
ATOM     87  F   UNL A   1      41.754  33.832  35.353  1.00  0.00    -0.206 F 
ATOM     88  C   UNL A   1      43.120  37.108  34.636  1.00  0.00     0.006 A 
ENDBRANCH  64  81
ENDBRANCH  38  39
ENDBRANCH  30  33
ENDBRANCH  28  29
ENDBRANCH  27  28
ENDBRANCH   1  27
TORSDOF 15
ENDMDL
MODEL 2
REMARK VINA RESULT:     -11.2      3.474      8.285
REMARK SMILES CC[C@H](C)[C@@H](Nc1nc(C(F)(F)F)nc2ccccc12)C(=O)NCCCNC(=O)c1ccc(-c2c3nc(c(-c4c(F)cccc4F)c4ccc([nH]4)c(-c4c(F)cccc4F)c4nc(c(-c5c(F)cccc5F)c5ccc2[nH]5)C=C4)C=C3)cc1
REMARK SMILES IDX 24 1 23 2 21 3 22 4 5 6 3 7 4 8 2 9 1 10 6 11 7 13 8 14
REMARK SMILES IDX 20 15 9 16 15 17 19 18 14 19 16 20 18 21 17 22 10 23 11 24
REMARK SMILES IDX 12 25 13 26 25 27 26 28 27 29 28 30 29 32 30 33 31 34 83 35
REMARK SMILES IDX 32 36 82 37 33 38 34 39 35 40 76 41 36 42 81 43 75 44 77 45
REMARK SMILES IDX 37 46 80 47 74 48 73 49 38 51 64 52 47 53 63 54 48 55 51 56
REMARK SMILES IDX 62 57 78 58 49 59 50 60 61 62 79 63 52 64 39 65 40 66 45 67
REMARK SMILES IDX 41 68 42 69 44 70 46 71 43 72 65 73 66 74 71 75 67 76 68 77
REMARK SMILES IDX 70 78 72 79 69 80 53 81 54 82 59 83 55 84 56 85 58 86 60 87
REMARK SMILES IDX 57 88
REMARK H PARENT 23 5 6 12 27 31 77 50 51 61
REMARK Flexibility Score: inf
ROOT
ATOM      1  C   UNL A   1      32.833  27.845  24.722  1.00  0.00     0.117 C 
ENDROOT
BRANCH   1   2
ATOM      2  N   UNL A   1      33.241  27.369  23.413  1.00  0.00    -0.354 N 
ATOM      3  C   UNL A   1      33.354  26.095  22.944  1.00  0.00     0.242 C 
ATOM      4  O   UNL A   1      33.763  25.950  21.787  1.00  0.00    -0.273 OA
ATOM      5  H   UNL A   1      33.472  28.074  22.766  1.00  0.00     0.163 HD
BRANCH   3   6
ATOM      6  C   UNL A   1      33.034  24.867  23.834  1.00  0.00     0.173 C 
BRANCH   6   7
ATOM      7  C   UNL A   1      31.483  24.744  24.025  1.00  0.00     0.018 C 
ATOM      8  C   UNL A   1      30.885  23.642  23.138  1.00  0.00     0.010 C 
BRANCH   7   9
ATOM      9  C   UNL A   1      31.097  24.481  25.507  1.00  0.00     0.002 C 
ATOM     10  C   UNL A   1      30.213  25.569  26.104  1.00  0.00     0.004 C 
ENDBRANCH   7   9
ENDBRANCH   6   7
BRANCH   6  11
ATOM     11  N   UNL A   1      33.646  23.594  23.354  1.00  0.00    -0.358 N 
ATOM     12  H   UNL A   1      33.645  23.428  22.383  1.00  0.00     0.162 HD
BRANCH  11  13
ATOM     13  C   UNL A   1      34.215  22.625  24.165  1.00  0.00     0.138 A 
ATOM     14  N   UNL A   1      33.506  21.481  24.157  1.00  0.00    -0.207 NA
ATOM     15  C   UNL A   1      35.461  22.718  24.801  1.00  0.00     0.043 A 
ATOM     16  C   UNL A   1      34.087  20.362  24.652  1.00  0.00     0.237 A 
ATOM     17  C   UNL A   1      36.000  21.499  25.234  1.00  0.00     0.076 A 
ATOM     18  C   UNL A   1      36.209  23.905  24.991  1.00  0.00     0.014 A 
ATOM     19  N   UNL A   1      35.340  20.343  25.151  1.00  0.00    -0.224 NA
ATOM     20  C   UNL A   1      37.297  21.478  25.731  1.00  0.00     0.029 A 
ATOM     21  C   UNL A   1      37.506  23.863  25.496  1.00  0.00     0.001 A 
ATOM     22  C   UNL A   1      38.061  22.641  25.848  1.00  0.00     0.002 A 
BRANCH  16  23
ATOM     23  C   UNL A   1      33.345  19.030  24.482  1.00  0.00     0.451 C 
ATOM     24  F   UNL A   1      32.913  18.496  25.663  1.00  0.00    -0.163 F 
ATOM     25  F   UNL A   1      32.224  19.156  23.705  1.00  0.00    -0.163 F 
ATOM     26  F   UNL A   1      34.086  18.048  23.887  1.00  0.00    -0.163 F 
ENDBRANCH  16  23
ENDBRANCH  11  13
ENDBRANCH   6  11
ENDBRANCH   3   6
ENDBRANCH   1   2
BRANCH   1  27
ATOM     27  C   UNL A   1      33.914  28.681  25.374  1.00  0.00     0.042 C 
BRANCH  27  28
ATOM     28  C   UNL A   1      33.830  28.646  26.890  1.00  0.00     0.118 C 
BRANCH  28  29
ATOM     29  N   UNL A   1      33.759  29.979  27.476  1.00  0.00    -0.352 N 
ATOM     30  C   UNL A   1      34.671  30.630  28.266  1.00  0.00     0.251 C 
ATOM     31  H   UNL A   1      32.938  30.485  27.277  1.00  0.00     0.163 HD
ATOM     32  O   UNL A   1      34.366  31.668  28.843  1.00  0.00    -0.269 OA
BRANCH  30  33
ATOM     33  C   UNL A   1      36.021  30.058  28.426  1.00  0.00     0.039 A 
ATOM     34  C   UNL A   1      36.927  30.145  27.368  1.00  0.00     0.014 A 
ATOM     35  C   UNL A   1      36.394  29.463  29.634  1.00  0.00     0.014 A 
ATOM     36  C   UNL A   1      38.233  29.692  27.551  1.00  0.00     0.010 A 
ATOM     37  C   UNL A   1      37.719  29.115  29.847  1.00  0.00     0.010 A 
ATOM     38  C   UNL A   1      38.649  29.212  28.804  1.00  0.00    -0.014 A 
BRANCH  38  39
ATOM     39  C   UNL A   1      40.050  28.795  29.044  1.00  0.00     0.031 A 
ATOM     40  C   UNL A   1      41.016  29.749  29.691  1.00  0.00     0.074 A 
ATOM     41  C   UNL A   1      40.467  27.588  28.616  1.00  0.00     0.049 A 
ATOM     42  N   UNL A   1      42.295  29.598  29.921  1.00  0.00    -0.248 NA
ATOM     43  C   UNL A   1      40.482  31.058  30.103  1.00  0.00     0.031 C 
ATOM     44  C   UNL A   1      39.637  26.600  27.925  1.00  0.00     0.029 A 
ATOM     45  N   UNL A   1      41.700  26.992  28.691  1.00  0.00    -0.354 N 
ATOM     46  C   UNL A   1      42.718  30.795  30.485  1.00  0.00     0.074 A 
ATOM     47  C   UNL A   1      41.578  31.683  30.508  1.00  0.00     0.031 C 
ATOM     48  C   UNL A   1      40.375  25.508  27.667  1.00  0.00     0.029 A 
ATOM     49  C   UNL A   1      41.739  25.737  28.133  1.00  0.00     0.049 A 
ATOM     50  H   UNL A   1      42.483  27.421  29.105  1.00  0.00     0.167 HD
ATOM     51  C   UNL A   1      43.943  31.116  30.965  1.00  0.00     0.037 A 
ATOM     52  C   UNL A   1      42.761  24.871  28.004  1.00  0.00     0.037 A 
ATOM     53  C   UNL A   1      45.066  30.217  30.965  1.00  0.00     0.049 A 
ATOM     54  C   UNL A   1      44.112  25.250  28.546  1.00  0.00     0.074 A 
ATOM     55  C   UNL A   1      46.330  30.419  31.491  1.00  0.00     0.029 A 
ATOM     56  N   UNL A   1      45.061  28.947  30.407  1.00  0.00    -0.354 N 
ATOM     57  N   UNL A   1      44.481  26.357  29.145  1.00  0.00    -0.248 NA
ATOM     58  C   UNL A   1      45.186  24.259  28.400  1.00  0.00     0.031 C 
ATOM     59  C   UNL A   1      47.107  29.293  31.201  1.00  0.00     0.029 A 
ATOM     60  C   UNL A   1      46.310  28.365  30.550  1.00  0.00     0.049 A 
ATOM     61  H   UNL A   1      44.287  28.522  29.973  1.00  0.00     0.167 HD
ATOM     62  C   UNL A   1      45.819  26.185  29.473  1.00  0.00     0.074 A 
ATOM     63  C   UNL A   1      46.192  24.861  29.018  1.00  0.00     0.031 C 
ATOM     64  C   UNL A   1      46.664  27.045  30.095  1.00  0.00     0.037 A 
BRANCH  51  65
ATOM     65  C   UNL A   1      44.130  32.495  31.529  1.00  0.00     0.057 A 
ATOM     66  C   UNL A   1      43.911  32.779  32.884  1.00  0.00     0.134 A 
ATOM     67  C   UNL A   1      44.570  33.545  30.714  1.00  0.00     0.134 A 
ATOM     68  F   UNL A   1      43.474  31.822  33.718  1.00  0.00    -0.206 F 
ATOM     69  C   UNL A   1      44.097  34.062  33.401  1.00  0.00     0.040 A 
ATOM     70  C   UNL A   1      44.791  34.825  31.226  1.00  0.00     0.040 A 
ATOM     71  F   UNL A   1      44.804  33.343  29.409  1.00  0.00    -0.206 F 
ATOM     72  C   UNL A   1      44.547  35.087  32.573  1.00  0.00     0.006 A 
ENDBRANCH  51  65
BRANCH  52  73
ATOM     73  C   UNL A   1      42.542  23.553  27.357  1.00  0.00     0.057 A 
ATOM     74  C   UNL A   1      42.094  22.451  28.093  1.00  0.00     0.134 A 
ATOM     75  C   UNL A   1      42.769  23.365  25.988  1.00  0.00     0.134 A 
ATOM     76  F   UNL A   1      41.874  22.566  29.412  1.00  0.00    -0.206 F 
ATOM     77  C   UNL A   1      41.900  21.203  27.499  1.00  0.00     0.040 A 
ATOM     78  C   UNL A   1      42.552  22.130  25.375  1.00  0.00     0.040 A 
ATOM     79  F   UNL A   1      43.189  24.384  25.223  1.00  0.00    -0.206 F 
ATOM     80  C   UNL A   1      42.124  21.042  26.133  1.00  0.00     0.006 A 
ENDBRANCH  52  73
BRANCH  64  81
ATOM     81  C   UNL A   1      48.064  26.568  30.352  1.00  0.00     0.057 A 
ATOM     82  C   UNL A   1      48.406  25.860  31.511  1.00  0.00     0.134 A 
ATOM     83  C   UNL A   1      49.072  26.782  29.403  1.00  0.00     0.134 A 
ATOM     84  F   UNL A   1      47.490  25.630  32.463  1.00  0.00    -0.206 F 
ATOM     85  C   UNL A   1      49.708  25.404  31.728  1.00  0.00     0.040 A 
ATOM     86  C   UNL A   1      50.369  26.305  29.595  1.00  0.00     0.040 A 
ATOM     87  F   UNL A   1      48.809  27.444  28.266  1.00  0.00    -0.206 F 
ATOM     88  C   UNL A   1      50.691  25.619  30.764  1.00  0.00     0.006 A 
ENDBRANCH  64  81
ENDBRANCH  38  39
ENDBRANCH  30  33
ENDBRANCH  28  29
ENDBRANCH  27  28
ENDBRANCH   1  27
TORSDOF 15
ENDMDL
MODEL 3
REMARK VINA RESULT:     -11.1      3.527      8.163
REMARK SMILES CC[C@H](C)[C@@H](Nc1nc(C(F)(F)F)nc2ccccc12)C(=O)NCCCNC(=O)c1ccc(-c2c3nc(c(-c4c(F)cccc4F)c4ccc([nH]4)c(-c4c(F)cccc4F)c4nc(c(-c5c(F)cccc5F)c5ccc2[nH]5)C=C4)C=C3)cc1
REMARK SMILES IDX 24 1 23 2 21 3 22 4 5 6 3 7 4 8 2 9 1 10 6 11 7 13 8 14
REMARK SMILES IDX 20 15 9 16 15 17 19 18 14 19 16 20 18 21 17 22 10 23 11 24
REMARK SMILES IDX 12 25 13 26 25 27 26 28 27 29 28 30 29 32 30 33 31 34 83 35
REMARK SMILES IDX 32 36 82 37 33 38 34 39 35 40 76 41 36 42 81 43 75 44 77 45
REMARK SMILES IDX 37 46 80 47 74 48 73 49 38 51 64 52 47 53 63 54 48 55 51 56
REMARK SMILES IDX 62 57 78 58 49 59 50 60 61 62 79 63 52 64 39 65 40 66 45 67
REMARK SMILES IDX 41 68 42 69 44 70 46 71 43 72 65 73 66 74 71 75 67 76 68 77
REMARK SMILES IDX 70 78 72 79 69 80 53 81 54 82 59 83 55 84 56 85 58 86 60 87
REMARK SMILES IDX 57 88
REMARK H PARENT 23 5 6 12 27 31 77 50 51 61
REMARK Flexibility Score: inf
ROOT
ATOM      1  C   UNL A   1      32.873  27.772  24.533  1.00  0.00     0.117 C 
ENDROOT
BRANCH   1   2
ATOM      2  N   UNL A   1      33.224  27.233  23.233  1.00  0.00    -0.354 N 
ATOM      3  C   UNL A   1      33.285  25.939  22.812  1.00  0.00     0.242 C 
ATOM      4  O   UNL A   1      33.651  25.735  21.649  1.00  0.00    -0.273 OA
ATOM      5  H   UNL A   1      33.453  27.905  22.551  1.00  0.00     0.163 HD
BRANCH   3   6
ATOM      6  C   UNL A   1      32.959  24.757  23.761  1.00  0.00     0.173 C 
BRANCH   6   7
ATOM      7  C   UNL A   1      31.423  24.741  24.074  1.00  0.00     0.018 C 
ATOM      8  C   UNL A   1      30.658  23.805  23.126  1.00  0.00     0.010 C 
BRANCH   7   9
ATOM      9  C   UNL A   1      31.132  24.334  25.546  1.00  0.00     0.002 C 
ATOM     10  C   UNL A   1      32.265  24.683  26.505  1.00  0.00     0.004 C 
ENDBRANCH   7   9
ENDBRANCH   6   7
BRANCH   6  11
ATOM     11  N   UNL A   1      33.450  23.435  23.274  1.00  0.00    -0.358 N 
ATOM     12  H   UNL A   1      33.350  23.239  22.314  1.00  0.00     0.162 HD
BRANCH  11  13
ATOM     13  C   UNL A   1      34.036  22.459  24.065  1.00  0.00     0.138 A 
ATOM     14  N   UNL A   1      33.334  21.311  24.050  1.00  0.00    -0.207 NA
ATOM     15  C   UNL A   1      35.289  22.553  24.686  1.00  0.00     0.043 A 
ATOM     16  C   UNL A   1      33.930  20.190  24.523  1.00  0.00     0.237 A 
ATOM     17  C   UNL A   1      35.842  21.332  25.096  1.00  0.00     0.076 A 
ATOM     18  C   UNL A   1      36.032  23.743  24.883  1.00  0.00     0.014 A 
ATOM     19  N   UNL A   1      35.189  20.172  25.006  1.00  0.00    -0.224 NA
ATOM     20  C   UNL A   1      37.145  21.314  25.576  1.00  0.00     0.029 A 
ATOM     21  C   UNL A   1      37.335  23.703  25.371  1.00  0.00     0.001 A 
ATOM     22  C   UNL A   1      37.902  22.480  25.699  1.00  0.00     0.002 A 
BRANCH  16  23
ATOM     23  C   UNL A   1      33.195  18.855  24.345  1.00  0.00     0.451 C 
ATOM     24  F   UNL A   1      32.148  18.925  23.470  1.00  0.00    -0.163 F 
ATOM     25  F   UNL A   1      34.016  17.872  23.857  1.00  0.00    -0.163 F 
ATOM     26  F   UNL A   1      32.671  18.345  25.500  1.00  0.00    -0.163 F 
ENDBRANCH  16  23
ENDBRANCH  11  13
ENDBRANCH   6  11
ENDBRANCH   3   6
ENDBRANCH   1   2
BRANCH   1  27
ATOM     27  C   UNL A   1      34.069  27.818  25.461  1.00  0.00     0.042 C 
BRANCH  27  28
ATOM     28  C   UNL A   1      33.699  28.301  26.851  1.00  0.00     0.118 C 
BRANCH  28  29
ATOM     29  N   UNL A   1      33.510  29.746  26.909  1.00  0.00    -0.352 N 
ATOM     30  C   UNL A   1      34.237  30.690  27.585  1.00  0.00     0.251 C 
ATOM     31  H   UNL A   1      32.750  30.093  26.387  1.00  0.00     0.163 HD
ATOM     32  O   UNL A   1      33.821  31.839  27.690  1.00  0.00    -0.269 OA
BRANCH  30  33
ATOM     33  C   UNL A   1      35.522  30.306  28.198  1.00  0.00     0.039 A 
ATOM     34  C   UNL A   1      35.529  29.784  29.493  1.00  0.00     0.014 A 
ATOM     35  C   UNL A   1      36.712  30.435  27.478  1.00  0.00     0.014 A 
ATOM     36  C   UNL A   1      36.730  29.331  30.038  1.00  0.00     0.010 A 
ATOM     37  C   UNL A   1      37.882  29.885  27.979  1.00  0.00     0.010 A 
ATOM     38  C   UNL A   1      37.906  29.339  29.269  1.00  0.00    -0.014 A 
BRANCH  38  39
ATOM     39  C   UNL A   1      39.178  28.795  29.799  1.00  0.00     0.031 A 
ATOM     40  C   UNL A   1      39.828  29.436  30.995  1.00  0.00     0.074 A 
ATOM     41  C   UNL A   1      39.780  27.772  29.163  1.00  0.00     0.049 A 
ATOM     42  N   UNL A   1      40.971  29.153  31.563  1.00  0.00    -0.248 NA
ATOM     43  C   UNL A   1      39.114  30.566  31.613  1.00  0.00     0.031 C 
ATOM     44  C   UNL A   1      39.276  27.106  27.961  1.00  0.00     0.029 A 
ATOM     45  N   UNL A   1      40.956  27.121  29.434  1.00  0.00    -0.354 N 
ATOM     46  C   UNL A   1      41.120  30.078  32.588  1.00  0.00     0.074 A 
ATOM     47  C   UNL A   1      39.983  30.968  32.528  1.00  0.00     0.031 C 
ATOM     48  C   UNL A   1      40.120  26.121  27.617  1.00  0.00     0.029 A 
ATOM     49  C   UNL A   1      41.246  26.115  28.544  1.00  0.00     0.049 A 
ATOM     50  H   UNL A   1      41.538  27.351  30.194  1.00  0.00     0.167 HD
ATOM     51  C   UNL A   1      42.104  30.162  33.514  1.00  0.00     0.037 A 
ATOM     52  C   UNL A   1      42.304  25.286  28.480  1.00  0.00     0.037 A 
ATOM     53  C   UNL A   1      43.218  29.255  33.585  1.00  0.00     0.049 A 
ATOM     54  C   UNL A   1      43.385  25.399  29.520  1.00  0.00     0.074 A 
ATOM     55  C   UNL A   1      44.232  29.209  34.526  1.00  0.00     0.029 A 
ATOM     56  N   UNL A   1      43.468  28.237  32.677  1.00  0.00    -0.354 N 
ATOM     57  N   UNL A   1      43.476  26.230  30.530  1.00  0.00    -0.248 NA
ATOM     58  C   UNL A   1      44.505  24.454  29.416  1.00  0.00     0.031 C 
ATOM     59  C   UNL A   1      45.125  28.200  34.155  1.00  0.00     0.029 A 
ATOM     60  C   UNL A   1      44.636  27.576  33.019  1.00  0.00     0.049 A 
ATOM     61  H   UNL A   1      42.900  28.016  31.904  1.00  0.00     0.167 HD
ATOM     62  C   UNL A   1      44.646  25.892  31.197  1.00  0.00     0.074 A 
ATOM     63  C   UNL A   1      45.222  24.770  30.484  1.00  0.00     0.031 C 
ATOM     64  C   UNL A   1      45.194  26.458  32.301  1.00  0.00     0.037 A 
BRANCH  51  65
ATOM     65  C   UNL A   1      42.019  31.271  34.522  1.00  0.00     0.057 A 
ATOM     66  C   UNL A   1      42.639  32.511  34.318  1.00  0.00     0.134 A 
ATOM     67  C   UNL A   1      41.276  31.109  35.698  1.00  0.00     0.134 A 
ATOM     68  F   UNL A   1      43.379  32.728  33.219  1.00  0.00    -0.206 F 
ATOM     69  C   UNL A   1      42.546  33.539  35.257  1.00  0.00     0.040 A 
ATOM     70  C   UNL A   1      41.148  32.141  36.630  1.00  0.00     0.040 A 
ATOM     71  F   UNL A   1      40.652  29.950  35.957  1.00  0.00    -0.206 F 
ATOM     72  C   UNL A   1      41.791  33.358  36.413  1.00  0.00     0.006 A 
ENDBRANCH  51  65
BRANCH  52  73
ATOM     73  C   UNL A   1      42.382  24.263  27.406  1.00  0.00     0.057 A 
ATOM     74  C   UNL A   1      42.972  24.553  26.171  1.00  0.00     0.134 A 
ATOM     75  C   UNL A   1      41.874  22.971  27.590  1.00  0.00     0.134 A 
ATOM     76  F   UNL A   1      43.463  25.779  25.930  1.00  0.00    -0.206 F 
ATOM     77  C   UNL A   1      43.036  23.605  25.149  1.00  0.00     0.040 A 
ATOM     78  C   UNL A   1      41.956  22.004  26.587  1.00  0.00     0.040 A 
ATOM     79  F   UNL A   1      41.305  22.625  28.755  1.00  0.00    -0.206 F 
ATOM     80  C   UNL A   1      42.532  22.323  25.359  1.00  0.00     0.006 A 
ENDBRANCH  52  73
BRANCH  64  81
ATOM     81  C   UNL A   1      46.463  25.852  32.827  1.00  0.00     0.057 A 
ATOM     82  C   UNL A   1      46.456  24.836  33.791  1.00  0.00     0.134 A 
ATOM     83  C   UNL A   1      47.705  26.261  32.326  1.00  0.00     0.134 A 
ATOM     84  F   UNL A   1      45.300  24.406  34.318  1.00  0.00    -0.206 F 
ATOM     85  C   UNL A   1      47.643  24.266  34.256  1.00  0.00     0.040 A 
ATOM     86  C   UNL A   1      48.896  25.678  32.762  1.00  0.00     0.040 A 
ATOM     87  F   UNL A   1      47.782  27.222  31.393  1.00  0.00    -0.206 F 
ATOM     88  C   UNL A   1      48.866  24.682  33.735  1.00  0.00     0.006 A 
ENDBRANCH  64  81
ENDBRANCH  38  39
ENDBRANCH  30  33
ENDBRANCH  28  29
ENDBRANCH  27  28
ENDBRANCH   1  27
TORSDOF 15
ENDMDL
