MODEL 1
REMARK VINA RESULT:     -12.1      0.000      0.000
REMARK SMILES Cc1cc(C)c2c(O[C@@H](C)C(=O)NCCCNC(=O)c3ccc(-c4c5nc(c(-c6c(F)cccc6F)c6ccc([nH]6)c(-c6c(F)cccc6F)c6nc(c(-c7c(F)cccc7F)c7ccc4[nH]7)C=C6)C=C5)cc3)nsc2n1
REMARK SMILES IDX 15 1 14 2 13 3 11 4 12 5 9 7 10 8 8 9 7 10 1 11 2 12 3 13
REMARK SMILES IDX 77 14 4 15 76 16 5 17 6 18 75 19 74 20 16 21 17 22 18 23
REMARK SMILES IDX 19 25 20 26 21 27 73 28 22 29 72 30 23 31 24 32 25 33 66 34
REMARK SMILES IDX 26 35 71 36 65 37 67 38 27 39 70 40 64 41 63 42 28 44 54 45
REMARK SMILES IDX 37 46 53 47 38 48 41 49 52 50 68 51 39 52 40 53 51 55 69 56
REMARK SMILES IDX 42 57 29 58 30 59 35 60 31 61 32 62 34 63 36 64 33 65 55 66
REMARK SMILES IDX 56 67 61 68 57 69 58 70 60 71 62 72 59 73 43 74 44 75 49 76
REMARK SMILES IDX 45 77 46 78 48 79 50 80 47 81
REMARK H PARENT 13 6 17 24 67 43 41 54
REMARK Flexibility Score: inf
ROOT
ATOM      1  C   UNL A   1      37.880  20.357  25.111  1.00  0.00     0.042 C 
ENDROOT
BRANCH   1   2
ATOM      2  C   UNL A   1      37.179  21.699  24.950  1.00  0.00     0.118 C 
BRANCH   2   3
ATOM      3  N   UNL A   1      36.308  22.122  26.017  1.00  0.00    -0.353 N 
ATOM      4  C   UNL A   1      34.968  21.852  26.110  1.00  0.00     0.260 C 
ATOM      5  O   UNL A   1      34.535  21.540  27.224  1.00  0.00    -0.271 OA
ATOM      6  H   UNL A   1      36.711  22.652  26.743  1.00  0.00     0.163 HD
BRANCH   4   7
ATOM      7  C   UNL A   1      33.999  22.062  24.908  1.00  0.00     0.260 C 
ATOM      8  C   UNL A   1      33.134  20.868  24.505  1.00  0.00     0.064 C 
BRANCH   7   9
ATOM      9  O   UNL A   1      34.260  22.995  23.906  1.00  0.00    -0.463 OA
BRANCH   9  10
ATOM     10  C   UNL A   1      33.603  24.156  23.693  1.00  0.00     0.235 A 
ATOM     11  C   UNL A   1      28.524  26.626  23.930  1.00  0.00     0.067 C 
ATOM     12  C   UNL A   1      29.916  26.101  24.112  1.00  0.00     0.039 A 
ATOM     13  C   UNL A   1      30.251  25.377  25.244  1.00  0.00     0.027 A 
ATOM     14  N   UNL A   1      30.758  26.279  23.092  1.00  0.00    -0.240 NA
ATOM     15  C   UNL A   1      31.502  24.719  25.358  1.00  0.00    -0.034 A 
ATOM     16  C   UNL A   1      31.939  25.649  23.205  1.00  0.00     0.147 A 
ATOM     17  C   UNL A   1      31.711  23.997  26.671  1.00  0.00     0.045 C 
ATOM     18  C   UNL A   1      32.391  24.800  24.229  1.00  0.00     0.078 A 
ATOM     19  S   UNL A   1      33.090  25.798  21.968  1.00  0.00    -0.012 S 
ATOM     20  N   UNL A   1      34.112  24.674  22.575  1.00  0.00    -0.153 NA
ENDBRANCH   9  10
ENDBRANCH   7   9
ENDBRANCH   4   7
ENDBRANCH   2   3
ENDBRANCH   1   2
BRANCH   1  21
ATOM     21  C   UNL A   1      39.221  20.539  25.805  1.00  0.00     0.118 C 
BRANCH  21  22
ATOM     22  N   UNL A   1      40.130  19.373  25.798  1.00  0.00    -0.352 N 
ATOM     23  C   UNL A   1      41.520  19.378  25.961  1.00  0.00     0.251 C 
ATOM     24  H   UNL A   1      39.710  18.493  25.664  1.00  0.00     0.163 HD
ATOM     25  O   UNL A   1      42.237  18.405  25.858  1.00  0.00    -0.269 OA
BRANCH  23  26
ATOM     26  C   UNL A   1      42.113  20.633  26.400  1.00  0.00     0.039 A 
ATOM     27  C   UNL A   1      42.502  21.665  25.537  1.00  0.00     0.014 A 
ATOM     28  C   UNL A   1      42.032  20.788  27.768  1.00  0.00     0.014 A 
ATOM     29  C   UNL A   1      42.731  22.914  26.096  1.00  0.00     0.010 A 
ATOM     30  C   UNL A   1      41.885  22.053  28.211  1.00  0.00     0.010 A 
ATOM     31  C   UNL A   1      42.398  23.089  27.443  1.00  0.00    -0.014 A 
BRANCH  31  32
ATOM     32  C   UNL A   1      42.481  24.341  28.160  1.00  0.00     0.031 A 
ATOM     33  C   UNL A   1      41.275  25.193  28.049  1.00  0.00     0.074 A 
ATOM     34  C   UNL A   1      43.426  24.474  29.120  1.00  0.00     0.049 A 
ATOM     35  N   UNL A   1      41.173  26.340  27.470  1.00  0.00    -0.248 NA
ATOM     36  C   UNL A   1      39.983  24.632  28.488  1.00  0.00     0.031 C 
ATOM     37  C   UNL A   1      44.444  23.497  29.557  1.00  0.00     0.029 A 
ATOM     38  N   UNL A   1      43.574  25.467  30.028  1.00  0.00    -0.354 N 
ATOM     39  C   UNL A   1      39.866  26.754  27.698  1.00  0.00     0.074 A 
ATOM     40  C   UNL A   1      39.132  25.582  28.092  1.00  0.00     0.031 C 
ATOM     41  C   UNL A   1      44.918  23.837  30.773  1.00  0.00     0.029 A 
ATOM     42  C   UNL A   1      44.402  25.147  31.102  1.00  0.00     0.049 A 
ATOM     43  H   UNL A   1      43.134  26.343  29.937  1.00  0.00     0.167 HD
ATOM     44  C   UNL A   1      39.561  28.075  27.831  1.00  0.00     0.037 A 
ATOM     45  C   UNL A   1      44.607  25.923  32.193  1.00  0.00     0.037 A 
ATOM     46  C   UNL A   1      40.655  28.905  27.383  1.00  0.00     0.049 A 
ATOM     47  C   UNL A   1      44.185  27.300  31.811  1.00  0.00     0.074 A 
ATOM     48  C   UNL A   1      41.332  29.031  26.185  1.00  0.00     0.029 A 
ATOM     49  N   UNL A   1      41.493  29.426  28.343  1.00  0.00    -0.354 N 
ATOM     50  N   UNL A   1      44.781  28.007  30.885  1.00  0.00    -0.248 NA
ATOM     51  C   UNL A   1      42.804  27.668  32.082  1.00  0.00     0.031 C 
ATOM     52  C   UNL A   1      42.706  29.141  26.553  1.00  0.00     0.029 A 
ATOM     53  C   UNL A   1      42.786  29.181  27.947  1.00  0.00     0.049 A 
ATOM     54  H   UNL A   1      41.216  29.890  29.166  1.00  0.00     0.167 HD
ATOM     55  C   UNL A   1      43.751  28.617  30.178  1.00  0.00     0.074 A 
ATOM     56  C   UNL A   1      42.560  28.420  31.005  1.00  0.00     0.031 C 
ATOM     57  C   UNL A   1      43.889  28.945  28.858  1.00  0.00     0.037 A 
BRANCH  44  58
ATOM     58  C   UNL A   1      38.436  28.602  28.681  1.00  0.00     0.057 A 
ATOM     59  C   UNL A   1      37.542  29.540  28.141  1.00  0.00     0.134 A 
ATOM     60  C   UNL A   1      38.330  28.406  30.074  1.00  0.00     0.134 A 
ATOM     61  F   UNL A   1      37.572  29.847  26.836  1.00  0.00    -0.206 F 
ATOM     62  C   UNL A   1      36.628  30.247  28.934  1.00  0.00     0.040 A 
ATOM     63  C   UNL A   1      37.384  29.061  30.865  1.00  0.00     0.040 A 
ATOM     64  F   UNL A   1      39.196  27.651  30.761  1.00  0.00    -0.206 F 
ATOM     65  C   UNL A   1      36.543  30.005  30.301  1.00  0.00     0.006 A 
ENDBRANCH  44  58
BRANCH  45  66
ATOM     66  C   UNL A   1      44.795  25.487  33.595  1.00  0.00     0.057 A 
ATOM     67  C   UNL A   1      45.621  26.205  34.468  1.00  0.00     0.134 A 
ATOM     68  C   UNL A   1      43.964  24.519  34.190  1.00  0.00     0.134 A 
ATOM     69  F   UNL A   1      46.425  27.171  33.999  1.00  0.00    -0.206 F 
ATOM     70  C   UNL A   1      45.603  25.998  35.854  1.00  0.00     0.040 A 
ATOM     71  C   UNL A   1      43.939  24.297  35.572  1.00  0.00     0.040 A 
ATOM     72  F   UNL A   1      43.084  23.815  33.462  1.00  0.00    -0.206 F 
ATOM     73  C   UNL A   1      44.748  25.050  36.411  1.00  0.00     0.006 A 
ENDBRANCH  45  66
BRANCH  57  74
ATOM     74  C   UNL A   1      45.259  28.825  28.224  1.00  0.00     0.057 A 
ATOM     75  C   UNL A   1      45.697  27.714  27.486  1.00  0.00     0.134 A 
ATOM     76  C   UNL A   1      46.080  29.956  28.182  1.00  0.00     0.134 A 
ATOM     77  F   UNL A   1      44.951  26.611  27.384  1.00  0.00    -0.206 F 
ATOM     78  C   UNL A   1      46.894  27.719  26.761  1.00  0.00     0.040 A 
ATOM     79  C   UNL A   1      47.264  29.987  27.439  1.00  0.00     0.040 A 
ATOM     80  F   UNL A   1      45.710  31.080  28.817  1.00  0.00    -0.206 F 
ATOM     81  C   UNL A   1      47.677  28.866  26.726  1.00  0.00     0.006 A 
ENDBRANCH  57  74
ENDBRANCH  31  32
ENDBRANCH  23  26
ENDBRANCH  21  22
ENDBRANCH   1  21
TORSDOF 12
ENDMDL
MODEL 2
REMARK VINA RESULT:     -11.9      4.265      9.035
REMARK SMILES Cc1cc(C)c2c(O[C@@H](C)C(=O)NCCCNC(=O)c3ccc(-c4c5nc(c(-c6c(F)cccc6F)c6ccc([nH]6)c(-c6c(F)cccc6F)c6nc(c(-c7c(F)cccc7F)c7ccc4[nH]7)C=C6)C=C5)cc3)nsc2n1
REMARK SMILES IDX 15 1 14 2 13 3 11 4 12 5 9 7 10 8 8 9 7 10 1 11 2 12 3 13
REMARK SMILES IDX 77 14 4 15 76 16 5 17 6 18 75 19 74 20 16 21 17 22 18 23
REMARK SMILES IDX 19 25 20 26 21 27 73 28 22 29 72 30 23 31 24 32 25 33 66 34
REMARK SMILES IDX 26 35 71 36 65 37 67 38 27 39 70 40 64 41 63 42 28 44 54 45
REMARK SMILES IDX 37 46 53 47 38 48 41 49 52 50 68 51 39 52 40 53 51 55 69 56
REMARK SMILES IDX 42 57 29 58 30 59 35 60 31 61 32 62 34 63 36 64 33 65 55 66
REMARK SMILES IDX 56 67 61 68 57 69 58 70 60 71 62 72 59 73 43 74 44 75 49 76
REMARK SMILES IDX 45 77 46 78 48 79 50 80 47 81
REMARK H PARENT 13 6 17 24 67 43 41 54
REMARK Flexibility Score: inf
ROOT
ATOM      1  C   UNL A   1      32.184  30.395  27.114  1.00  0.00     0.042 C 
ENDROOT
BRANCH   1   2
ATOM      2  C   UNL A   1      31.600  30.360  25.708  1.00  0.00     0.118 C 
BRANCH   2   3
ATOM      3  N   UNL A   1      32.380  29.712  24.684  1.00  0.00    -0.353 N 
ATOM      4  C   UNL A   1      32.247  28.409  24.283  1.00  0.00     0.260 C 
ATOM      5  O   UNL A   1      32.309  28.187  23.069  1.00  0.00    -0.271 OA
ATOM      6  H   UNL A   1      33.068  30.253  24.234  1.00  0.00     0.163 HD
BRANCH   4   7
ATOM      7  C   UNL A   1      32.165  27.235  25.305  1.00  0.00     0.260 C 
ATOM      8  C   UNL A   1      33.425  26.942  26.118  1.00  0.00     0.064 C 
BRANCH   7   9
ATOM      9  O   UNL A   1      31.286  26.167  25.130  1.00  0.00    -0.463 OA
BRANCH   9  10
ATOM     10  C   UNL A   1      31.459  24.900  25.565  1.00  0.00     0.235 A 
ATOM     11  C   UNL A   1      32.565  19.617  23.887  1.00  0.00     0.067 C 
ATOM     12  C   UNL A   1      32.544  21.024  24.402  1.00  0.00     0.039 A 
ATOM     13  C   UNL A   1      33.388  21.982  23.863  1.00  0.00     0.027 A 
ATOM     14  N   UNL A   1      31.610  21.312  25.311  1.00  0.00    -0.240 NA
ATOM     15  C   UNL A   1      33.264  23.352  24.204  1.00  0.00    -0.034 A 
ATOM     16  C   UNL A   1      31.495  22.612  25.625  1.00  0.00     0.147 A 
ATOM     17  C   UNL A   1      34.283  24.254  23.545  1.00  0.00     0.045 C 
ATOM     18  C   UNL A   1      32.196  23.712  25.100  1.00  0.00     0.078 A 
ATOM     19  S   UNL A   1      30.340  23.101  26.766  1.00  0.00    -0.012 S 
ATOM     20  N   UNL A   1      30.545  24.704  26.516  1.00  0.00    -0.153 NA
ENDBRANCH   9  10
ENDBRANCH   7   9
ENDBRANCH   4   7
ENDBRANCH   2   3
ENDBRANCH   1   2
BRANCH   1  21
ATOM     21  C   UNL A   1      33.163  31.550  27.252  1.00  0.00     0.118 C 
BRANCH  21  22
ATOM     22  N   UNL A   1      32.574  32.900  27.385  1.00  0.00    -0.352 N 
ATOM     23  C   UNL A   1      32.987  33.927  28.242  1.00  0.00     0.251 C 
ATOM     24  H   UNL A   1      31.805  33.100  26.804  1.00  0.00     0.163 HD
ATOM     25  O   UNL A   1      32.417  34.989  28.382  1.00  0.00    -0.269 OA
BRANCH  23  26
ATOM     26  C   UNL A   1      34.260  33.728  28.920  1.00  0.00     0.039 A 
ATOM     27  C   UNL A   1      34.392  33.204  30.211  1.00  0.00     0.014 A 
ATOM     28  C   UNL A   1      35.328  33.892  28.063  1.00  0.00     0.014 A 
ATOM     29  C   UNL A   1      35.649  32.759  30.596  1.00  0.00     0.010 A 
ATOM     30  C   UNL A   1      36.407  33.122  28.311  1.00  0.00     0.010 A 
ATOM     31  C   UNL A   1      36.644  32.712  29.616  1.00  0.00    -0.014 A 
BRANCH  31  32
ATOM     32  C   UNL A   1      37.977  32.191  29.815  1.00  0.00     0.031 A 
ATOM     33  C   UNL A   1      38.169  30.801  29.339  1.00  0.00     0.074 A 
ATOM     34  C   UNL A   1      38.984  33.064  30.052  1.00  0.00     0.049 A 
ATOM     35  N   UNL A   1      38.413  29.754  30.050  1.00  0.00    -0.248 NA
ATOM     36  C   UNL A   1      37.894  30.505  27.921  1.00  0.00     0.031 C 
ATOM     37  C   UNL A   1      38.925  34.536  30.163  1.00  0.00     0.029 A 
ATOM     38  N   UNL A   1      40.316  32.828  30.090  1.00  0.00    -0.354 N 
ATOM     39  C   UNL A   1      38.573  28.717  29.138  1.00  0.00     0.074 A 
ATOM     40  C   UNL A   1      38.002  29.174  27.900  1.00  0.00     0.031 C 
ATOM     41  C   UNL A   1      40.157  35.060  30.004  1.00  0.00     0.029 A 
ATOM     42  C   UNL A   1      41.107  33.971  29.993  1.00  0.00     0.049 A 
ATOM     43  H   UNL A   1      40.695  31.924  30.178  1.00  0.00     0.167 HD
ATOM     44  C   UNL A   1      39.424  27.685  29.391  1.00  0.00     0.037 A 
ATOM     45  C   UNL A   1      42.457  33.984  29.884  1.00  0.00     0.037 A 
ATOM     46  C   UNL A   1      39.818  27.669  30.781  1.00  0.00     0.049 A 
ATOM     47  C   UNL A   1      42.926  32.649  30.349  1.00  0.00     0.074 A 
ATOM     48  C   UNL A   1      39.123  27.581  31.972  1.00  0.00     0.029 A 
ATOM     49  N   UNL A   1      41.041  28.213  31.102  1.00  0.00    -0.354 N 
ATOM     50  N   UNL A   1      42.778  32.219  31.576  1.00  0.00    -0.248 NA
ATOM     51  C   UNL A   1      43.076  31.611  29.340  1.00  0.00     0.031 C 
ATOM     52  C   UNL A   1      39.752  28.528  32.832  1.00  0.00     0.029 A 
ATOM     53  C   UNL A   1      40.854  29.065  32.164  1.00  0.00     0.049 A 
ATOM     54  H   UNL A   1      41.896  28.026  30.651  1.00  0.00     0.167 HD
ATOM     55  C   UNL A   1      42.404  30.886  31.448  1.00  0.00     0.074 A 
ATOM     56  C   UNL A   1      42.668  30.554  30.048  1.00  0.00     0.031 C 
ATOM     57  C   UNL A   1      41.629  30.270  32.392  1.00  0.00     0.037 A 
BRANCH  44  58
ATOM     58  C   UNL A   1      40.165  26.919  28.328  1.00  0.00     0.057 A 
ATOM     59  C   UNL A   1      41.047  27.597  27.473  1.00  0.00     0.134 A 
ATOM     60  C   UNL A   1      39.875  25.588  27.957  1.00  0.00     0.134 A 
ATOM     61  F   UNL A   1      41.368  28.881  27.695  1.00  0.00    -0.206 F 
ATOM     62  C   UNL A   1      41.581  27.004  26.322  1.00  0.00     0.040 A 
ATOM     63  C   UNL A   1      40.448  24.967  26.845  1.00  0.00     0.040 A 
ATOM     64  F   UNL A   1      38.952  24.852  28.586  1.00  0.00    -0.206 F 
ATOM     65  C   UNL A   1      41.287  25.682  26.007  1.00  0.00     0.006 A 
ENDBRANCH  44  58
BRANCH  45  66
ATOM     66  C   UNL A   1      43.294  34.913  29.092  1.00  0.00     0.057 A 
ATOM     67  C   UNL A   1      43.469  34.728  27.715  1.00  0.00     0.134 A 
ATOM     68  C   UNL A   1      43.721  36.152  29.606  1.00  0.00     0.134 A 
ATOM     69  F   UNL A   1      43.063  33.593  27.127  1.00  0.00    -0.206 F 
ATOM     70  C   UNL A   1      44.007  35.725  26.890  1.00  0.00     0.040 A 
ATOM     71  C   UNL A   1      44.265  37.155  28.795  1.00  0.00     0.040 A 
ATOM     72  F   UNL A   1      43.546  36.466  30.898  1.00  0.00    -0.206 F 
ATOM     73  C   UNL A   1      44.394  36.950  27.428  1.00  0.00     0.006 A 
ENDBRANCH  45  66
BRANCH  57  74
ATOM     74  C   UNL A   1      41.354  31.000  33.689  1.00  0.00     0.057 A 
ATOM     75  C   UNL A   1      40.203  31.766  33.940  1.00  0.00     0.134 A 
ATOM     76  C   UNL A   1      42.178  30.747  34.789  1.00  0.00     0.134 A 
ATOM     77  F   UNL A   1      39.301  31.997  32.982  1.00  0.00    -0.206 F 
ATOM     78  C   UNL A   1      39.898  32.268  35.210  1.00  0.00     0.040 A 
ATOM     79  C   UNL A   1      41.871  31.217  36.071  1.00  0.00     0.040 A 
ATOM     80  F   UNL A   1      43.270  29.979  34.649  1.00  0.00    -0.206 F 
ATOM     81  C   UNL A   1      40.729  31.982  36.285  1.00  0.00     0.006 A 
ENDBRANCH  57  74
ENDBRANCH  31  32
ENDBRANCH  23  26
ENDBRANCH  21  22
ENDBRANCH   1  21
TORSDOF 12
ENDMDL
MODEL 3
REMARK VINA RESULT:     -11.9      1.157      2.043
REMARK SMILES Cc1cc(C)c2c(O[C@@H](C)C(=O)NCCCNC(=O)c3ccc(-c4c5nc(c(-c6c(F)cccc6F)c6ccc([nH]6)c(-c6c(F)cccc6F)c6nc(c(-c7c(F)cccc7F)c7ccc4[nH]7)C=C6)C=C5)cc3)nsc2n1
REMARK SMILES IDX 15 1 14 2 13 3 11 4 12 5 9 7 10 8 8 9 7 10 1 11 2 12 3 13
REMARK SMILES IDX 77 14 4 15 76 16 5 17 6 18 75 19 74 20 16 21 17 22 18 23
REMARK SMILES IDX 19 25 20 26 21 27 73 28 22 29 72 30 23 31 24 32 25 33 66 34
REMARK SMILES IDX 26 35 71 36 65 37 67 38 27 39 70 40 64 41 63 42 28 44 54 45
REMARK SMILES IDX 37 46 53 47 38 48 41 49 52 50 68 51 39 52 40 53 51 55 69 56
REMARK SMILES IDX 42 57 29 58 30 59 35 60 31 61 32 62 34 63 36 64 33 65 55 66
REMARK SMILES IDX 56 67 61 68 57 69 58 70 60 71 62 72 59 73 43 74 44 75 49 76
REMARK SMILES IDX 45 77 46 78 48 79 50 80 47 81
REMARK H PARENT 13 6 17 24 67 43 41 54
REMARK Flexibility Score: inf
ROOT
ATOM      1  C   UNL A   1      37.719  21.275  24.723  1.00  0.00     0.042 C 
ENDROOT
BRANCH   1   2
ATOM      2  C   UNL A   1      36.398  20.627  25.117  1.00  0.00     0.118 C 
BRANCH   2   3
ATOM      3  N   UNL A   1      35.555  21.348  26.037  1.00  0.00    -0.353 N 
ATOM      4  C   UNL A   1      34.220  21.124  26.241  1.00  0.00     0.260 C 
ATOM      5  O   UNL A   1      33.819  21.154  27.409  1.00  0.00    -0.271 OA
ATOM      6  H   UNL A   1      35.977  22.065  26.564  1.00  0.00     0.163 HD
BRANCH   4   7
ATOM      7  C   UNL A   1      33.217  20.977  25.056  1.00  0.00     0.260 C 
ATOM      8  C   UNL A   1      32.634  19.586  24.817  1.00  0.00     0.064 C 
BRANCH   7   9
ATOM      9  O   UNL A   1      33.256  21.825  23.950  1.00  0.00    -0.463 OA
BRANCH   9  10
ATOM     10  C   UNL A   1      32.733  23.068  23.867  1.00  0.00     0.235 A 
ATOM     11  C   UNL A   1      31.949  27.881  26.724  1.00  0.00     0.067 C 
ATOM     12  C   UNL A   1      32.370  26.742  25.846  1.00  0.00     0.039 A 
ATOM     13  C   UNL A   1      33.661  26.242  25.915  1.00  0.00     0.027 A 
ATOM     14  N   UNL A   1      31.418  26.187  25.093  1.00  0.00    -0.240 NA
ATOM     15  C   UNL A   1      34.031  25.057  25.230  1.00  0.00    -0.034 A 
ATOM     16  C   UNL A   1      31.776  25.062  24.452  1.00  0.00     0.147 A 
ATOM     17  C   UNL A   1      35.484  24.670  25.394  1.00  0.00     0.045 C 
ATOM     18  C   UNL A   1      33.000  24.373  24.496  1.00  0.00     0.078 A 
ATOM     19  S   UNL A   1      30.649  24.264  23.468  1.00  0.00    -0.012 S 
ATOM     20  N   UNL A   1      31.580  22.944  23.208  1.00  0.00    -0.153 NA
ENDBRANCH   9  10
ENDBRANCH   7   9
ENDBRANCH   4   7
ENDBRANCH   2   3
ENDBRANCH   1   2
BRANCH   1  21
ATOM     21  C   UNL A   1      38.766  21.040  25.801  1.00  0.00     0.118 C 
BRANCH  21  22
ATOM     22  N   UNL A   1      39.523  19.772  25.716  1.00  0.00    -0.352 N 
ATOM     23  C   UNL A   1      40.900  19.591  25.890  1.00  0.00     0.251 C 
ATOM     24  H   UNL A   1      38.999  18.964  25.516  1.00  0.00     0.163 HD
ATOM     25  O   UNL A   1      41.492  18.546  25.723  1.00  0.00    -0.269 OA
BRANCH  23  26
ATOM     26  C   UNL A   1      41.637  20.728  26.423  1.00  0.00     0.039 A 
ATOM     27  C   UNL A   1      42.334  21.654  25.637  1.00  0.00     0.014 A 
ATOM     28  C   UNL A   1      41.378  20.925  27.763  1.00  0.00     0.014 A 
ATOM     29  C   UNL A   1      42.698  22.853  26.233  1.00  0.00     0.010 A 
ATOM     30  C   UNL A   1      41.397  22.205  28.186  1.00  0.00     0.010 A 
ATOM     31  C   UNL A   1      42.201  23.114  27.512  1.00  0.00    -0.014 A 
BRANCH  31  32
ATOM     32  C   UNL A   1      42.400  24.346  28.242  1.00  0.00     0.031 A 
ATOM     33  C   UNL A   1      41.301  25.329  28.097  1.00  0.00     0.074 A 
ATOM     34  C   UNL A   1      43.319  24.368  29.235  1.00  0.00     0.049 A 
ATOM     35  N   UNL A   1      41.349  26.483  27.524  1.00  0.00    -0.248 NA
ATOM     36  C   UNL A   1      39.940  24.916  28.488  1.00  0.00     0.031 C 
ATOM     37  C   UNL A   1      44.206  23.281  29.698  1.00  0.00     0.029 A 
ATOM     38  N   UNL A   1      43.548  25.334  30.155  1.00  0.00    -0.354 N 
ATOM     39  C   UNL A   1      40.090  27.041  27.711  1.00  0.00     0.074 A 
ATOM     40  C   UNL A   1      39.216  25.957  28.071  1.00  0.00     0.031 C 
ATOM     41  C   UNL A   1      44.673  23.561  30.932  1.00  0.00     0.029 A 
ATOM     42  C   UNL A   1      44.297  24.919  31.253  1.00  0.00     0.049 A 
ATOM     43  H   UNL A   1      43.212  26.254  30.056  1.00  0.00     0.167 HD
ATOM     44  C   UNL A   1      39.931  28.387  27.844  1.00  0.00     0.037 A 
ATOM     45  C   UNL A   1      44.550  25.663  32.356  1.00  0.00     0.037 A 
ATOM     46  C   UNL A   1      41.126  29.090  27.440  1.00  0.00     0.049 A 
ATOM     47  C   UNL A   1      44.299  27.079  31.971  1.00  0.00     0.074 A 
ATOM     48  C   UNL A   1      41.854  29.144  26.267  1.00  0.00     0.029 A 
ATOM     49  N   UNL A   1      41.984  29.509  28.432  1.00  0.00    -0.354 N 
ATOM     50  N   UNL A   1      45.002  27.718  31.072  1.00  0.00    -0.248 NA
ATOM     51  C   UNL A   1      42.959  27.600  32.199  1.00  0.00     0.031 C 
ATOM     52  C   UNL A   1      43.218  29.097  26.681  1.00  0.00     0.029 A 
ATOM     53  C   UNL A   1      43.254  29.122  28.077  1.00  0.00     0.049 A 
ATOM     54  H   UNL A   1      41.733  29.998  29.248  1.00  0.00     0.167 HD
ATOM     55  C   UNL A   1      44.072  28.444  30.335  1.00  0.00     0.074 A 
ATOM     56  C   UNL A   1      42.839  28.379  31.120  1.00  0.00     0.031 C 
ATOM     57  C   UNL A   1      44.292  28.760  29.023  1.00  0.00     0.037 A 
BRANCH  44  58
ATOM     58  C   UNL A   1      38.844  29.034  28.659  1.00  0.00     0.057 A 
ATOM     59  C   UNL A   1      38.742  28.747  30.030  1.00  0.00     0.134 A 
ATOM     60  C   UNL A   1      37.754  29.744  28.114  1.00  0.00     0.134 A 
ATOM     61  F   UNL A   1      39.694  28.039  30.656  1.00  0.00    -0.206 F 
ATOM     62  C   UNL A   1      37.627  29.116  30.792  1.00  0.00     0.040 A 
ATOM     63  C   UNL A   1      36.664  30.170  28.876  1.00  0.00     0.040 A 
ATOM     64  F   UNL A   1      37.633  29.977  26.801  1.00  0.00    -0.206 F 
ATOM     65  C   UNL A   1      36.585  29.836  30.218  1.00  0.00     0.006 A 
ENDBRANCH  44  58
BRANCH  45  66
ATOM     66  C   UNL A   1      44.639  25.202  33.760  1.00  0.00     0.057 A 
ATOM     67  C   UNL A   1      43.488  24.849  34.477  1.00  0.00     0.134 A 
ATOM     68  C   UNL A   1      45.865  24.838  34.348  1.00  0.00     0.134 A 
ATOM     69  F   UNL A   1      42.272  25.124  33.982  1.00  0.00    -0.206 F 
ATOM     70  C   UNL A   1      43.548  24.148  35.689  1.00  0.00     0.040 A 
ATOM     71  C   UNL A   1      45.940  24.142  35.561  1.00  0.00     0.040 A 
ATOM     72  F   UNL A   1      47.030  25.066  33.724  1.00  0.00    -0.206 F 
ATOM     73  C   UNL A   1      44.778  23.780  36.227  1.00  0.00     0.006 A 
ENDBRANCH  45  66
BRANCH  57  74
ATOM     74  C   UNL A   1      45.660  28.489  28.435  1.00  0.00     0.057 A 
ATOM     75  C   UNL A   1      46.792  29.292  28.654  1.00  0.00     0.134 A 
ATOM     76  C   UNL A   1      45.888  27.263  27.801  1.00  0.00     0.134 A 
ATOM     77  F   UNL A   1      46.705  30.443  29.327  1.00  0.00    -0.206 F 
ATOM     78  C   UNL A   1      48.075  28.907  28.250  1.00  0.00     0.040 A 
ATOM     79  C   UNL A   1      47.168  26.851  27.418  1.00  0.00     0.040 A 
ATOM     80  F   UNL A   1      44.870  26.411  27.600  1.00  0.00    -0.206 F 
ATOM     81  C   UNL A   1      48.268  27.675  27.640  1.00  0.00     0.006 A 
ENDBRANCH  57  74
ENDBRANCH  31  32
ENDBRANCH  23  26
ENDBRANCH  21  22
ENDBRANCH   1  21
TORSDOF 12
ENDMDL
