MODEL 1
REMARK VINA RESULT:     -13.5      0.000      0.000
REMARK SMILES COC(=O)c1ccc([C@H]2CC(=O)Nc3c(C(=O)NCCCNC(=O)c4ccc(-c5c6nc(c(-c7c(F)cccc7F)c7ccc([nH]7)c(-c7c(F)cccc7F)c7nc(c(-c8c(F)cccc8F)c8ccc5[nH]8)C=C7)C=C6)cc4)cn(-c4cc(OC)ccc4OC)c32)cc1
REMARK SMILES IDX 19 1 18 2 16 3 17 4 15 6 9 7 10 8 91 9 11 10 14 11 80 12
REMARK SMILES IDX 12 13 13 14 79 15 8 17 5 18 6 19 93 20 7 21 92 22 3 23 4 24
REMARK SMILES IDX 2 25 1 26 81 27 82 28 88 29 83 30 87 31 86 32 89 33 90 34
REMARK SMILES IDX 84 35 85 36 20 37 21 38 22 39 23 40 24 42 25 43 26 44 78 45
REMARK SMILES IDX 27 46 77 47 28 48 29 49 30 50 71 51 31 52 76 53 70 54 72 55
REMARK SMILES IDX 32 56 75 57 69 58 68 59 33 61 59 62 42 63 58 64 43 65 46 66
REMARK SMILES IDX 57 67 73 68 44 69 45 70 56 72 74 73 47 74 34 75 35 76 40 77
REMARK SMILES IDX 36 78 37 79 39 80 41 81 38 82 60 83 61 84 66 85 62 86 63 87
REMARK SMILES IDX 65 88 67 89 64 90 48 91 49 92 54 93 50 94 51 95 53 96 55 97
REMARK SMILES IDX 52 98
REMARK H PARENT 18 5 13 16 22 41 72 60 46 71
REMARK Flexibility Score: inf
ROOT
ATOM      1  C   UNL A   1      32.506  29.849  25.301  1.00  0.00     0.118 C 
ENDROOT
BRANCH   1   2
ATOM      2  N   UNL A   1      31.365  29.383  24.552  1.00  0.00    -0.352 N 
ATOM      3  C   UNL A   1      31.036  28.174  24.007  1.00  0.00     0.254 C 
ATOM      4  O   UNL A   1      29.877  28.105  23.580  1.00  0.00    -0.269 OA
ATOM      5  H   UNL A   1      30.682  30.078  24.405  1.00  0.00     0.163 HD
BRANCH   3   6
ATOM      6  C   UNL A   1      31.948  27.033  23.839  1.00  0.00     0.081 A 
ATOM      7  C   UNL A   1      33.579  23.921  22.515  1.00  0.00     0.078 C 
ATOM      8  C   UNL A   1      33.066  23.991  21.066  1.00  0.00     0.115 C 
ATOM      9  C   UNL A   1      33.039  25.083  23.328  1.00  0.00     0.055 A 
ATOM     10  C   UNL A   1      32.838  25.379  20.543  1.00  0.00     0.225 C 
ATOM     11  C   UNL A   1      32.443  26.205  22.787  1.00  0.00     0.076 A 
ATOM     12  N   UNL A   1      33.107  25.270  24.698  1.00  0.00    -0.314 N 
ATOM     13  O   UNL A   1      32.882  25.639  19.341  1.00  0.00    -0.275 OA
ATOM     14  N   UNL A   1      32.444  26.337  21.424  1.00  0.00    -0.324 N 
ATOM     15  C   UNL A   1      32.534  26.485  24.978  1.00  0.00     0.107 A 
ATOM     16  H   UNL A   1      32.136  27.196  21.052  1.00  0.00     0.170 HD
BRANCH   7  17
ATOM     17  C   UNL A   1      33.268  22.505  23.000  1.00  0.00    -0.038 A 
ATOM     18  C   UNL A   1      32.797  19.875  23.912  1.00  0.00     0.060 A 
ATOM     19  C   UNL A   1      34.004  20.516  24.207  1.00  0.00     0.016 A 
ATOM     20  C   UNL A   1      31.842  20.534  23.136  1.00  0.00     0.016 A 
ATOM     21  C   UNL A   1      34.229  21.824  23.769  1.00  0.00     0.005 A 
ATOM     22  C   UNL A   1      32.102  21.815  22.647  1.00  0.00     0.005 A 
BRANCH  18  23
ATOM     23  C   UNL A   1      32.572  18.503  24.437  1.00  0.00     0.337 C 
ATOM     24  O   UNL A   1      32.185  18.263  25.560  1.00  0.00    -0.246 OA
BRANCH  23  25
ATOM     25  O   UNL A   1      32.888  17.589  23.480  1.00  0.00    -0.465 OA
ATOM     26  C   UNL A   1      33.845  16.618  23.894  1.00  0.00     0.282 C 
ENDBRANCH  23  25
ENDBRANCH  18  23
ENDBRANCH   7  17
BRANCH  12  27
ATOM     27  C   UNL A   1      33.703  24.425  25.655  1.00  0.00     0.091 A 
ATOM     28  C   UNL A   1      35.110  24.345  25.601  1.00  0.00     0.077 A 
ATOM     29  C   UNL A   1      32.981  23.623  26.551  1.00  0.00     0.143 A 
ATOM     30  C   UNL A   1      35.814  23.423  26.372  1.00  0.00     0.121 A 
ATOM     31  C   UNL A   1      33.719  22.719  27.335  1.00  0.00     0.052 A 
ATOM     32  C   UNL A   1      35.110  22.603  27.241  1.00  0.00     0.050 A 
BRANCH  29  33
ATOM     33  O   UNL A   1      31.648  23.449  26.779  1.00  0.00    -0.495 OA
ATOM     34  C   UNL A   1      30.816  22.566  26.054  1.00  0.00     0.278 C 
ENDBRANCH  29  33
BRANCH  30  35
ATOM     35  O   UNL A   1      37.166  23.425  26.182  1.00  0.00    -0.497 OA
ATOM     36  C   UNL A   1      37.731  22.218  25.684  1.00  0.00     0.278 C 
ENDBRANCH  30  35
ENDBRANCH  12  27
ENDBRANCH   3   6
ENDBRANCH   1   2
BRANCH   1  37
ATOM     37  C   UNL A   1      32.220  29.965  26.806  1.00  0.00     0.042 C 
BRANCH  37  38
ATOM     38  C   UNL A   1      33.479  30.190  27.619  1.00  0.00     0.118 C 
BRANCH  38  39
ATOM     39  N   UNL A   1      34.086  31.490  27.299  1.00  0.00    -0.352 N 
ATOM     40  C   UNL A   1      35.305  32.007  27.681  1.00  0.00     0.251 C 
ATOM     41  H   UNL A   1      33.541  32.078  26.727  1.00  0.00     0.163 HD
ATOM     42  O   UNL A   1      35.536  33.206  27.608  1.00  0.00    -0.269 OA
BRANCH  40  43
ATOM     43  C   UNL A   1      36.321  31.079  28.194  1.00  0.00     0.039 A 
ATOM     44  C   UNL A   1      36.473  29.799  27.664  1.00  0.00     0.014 A 
ATOM     45  C   UNL A   1      37.196  31.570  29.154  1.00  0.00     0.014 A 
ATOM     46  C   UNL A   1      37.585  29.055  28.045  1.00  0.00     0.010 A 
ATOM     47  C   UNL A   1      38.396  30.944  29.332  1.00  0.00     0.010 A 
ATOM     48  C   UNL A   1      38.564  29.652  28.856  1.00  0.00    -0.014 A 
BRANCH  48  49
ATOM     49  C   UNL A   1      39.807  28.962  29.172  1.00  0.00     0.031 A 
ATOM     50  C   UNL A   1      40.090  28.804  30.623  1.00  0.00     0.074 A 
ATOM     51  C   UNL A   1      40.572  28.356  28.238  1.00  0.00     0.049 A 
ATOM     52  N   UNL A   1      41.018  29.382  31.309  1.00  0.00    -0.248 NA
ATOM     53  C   UNL A   1      39.152  28.012  31.435  1.00  0.00     0.031 C 
ATOM     54  C   UNL A   1      40.309  28.137  26.809  1.00  0.00     0.029 A 
ATOM     55  N   UNL A   1      41.760  27.723  28.415  1.00  0.00    -0.354 N 
ATOM     56  C   UNL A   1      40.907  28.890  32.605  1.00  0.00     0.074 A 
ATOM     57  C   UNL A   1      39.655  28.179  32.661  1.00  0.00     0.031 C 
ATOM     58  C   UNL A   1      41.185  27.237  26.314  1.00  0.00     0.029 A 
ATOM     59  C   UNL A   1      42.187  26.976  27.327  1.00  0.00     0.049 A 
ATOM     60  H   UNL A   1      42.278  27.789  29.250  1.00  0.00     0.167 HD
ATOM     61  C   UNL A   1      41.957  28.936  33.471  1.00  0.00     0.037 A 
ATOM     62  C   UNL A   1      43.294  26.199  27.265  1.00  0.00     0.037 A 
ATOM     63  C   UNL A   1      42.965  29.864  33.022  1.00  0.00     0.049 A 
ATOM     64  C   UNL A   1      44.207  26.657  28.340  1.00  0.00     0.074 A 
ATOM     65  C   UNL A   1      42.979  31.223  32.774  1.00  0.00     0.029 A 
ATOM     66  N   UNL A   1      44.061  29.359  32.368  1.00  0.00    -0.354 N 
ATOM     67  N   UNL A   1      44.799  27.818  28.340  1.00  0.00    -0.248 NA
ATOM     68  C   UNL A   1      44.087  26.015  29.639  1.00  0.00     0.031 C 
ATOM     69  C   UNL A   1      43.761  31.371  31.589  1.00  0.00     0.029 A 
ATOM     70  C   UNL A   1      44.238  30.109  31.231  1.00  0.00     0.049 A 
ATOM     71  H   UNL A   1      44.617  28.601  32.658  1.00  0.00     0.167 HD
ATOM     72  C   UNL A   1      44.740  28.246  29.659  1.00  0.00     0.074 A 
ATOM     73  C   UNL A   1      44.368  27.058  30.426  1.00  0.00     0.031 C 
ATOM     74  C   UNL A   1      44.719  29.576  29.974  1.00  0.00     0.037 A 
BRANCH  61  75
ATOM     75  C   UNL A   1      42.217  27.911  34.543  1.00  0.00     0.057 A 
ATOM     76  C   UNL A   1      42.734  26.651  34.194  1.00  0.00     0.134 A 
ATOM     77  C   UNL A   1      41.731  28.012  35.864  1.00  0.00     0.134 A 
ATOM     78  F   UNL A   1      43.202  26.417  32.959  1.00  0.00    -0.206 F 
ATOM     79  C   UNL A   1      42.723  25.563  35.077  1.00  0.00     0.040 A 
ATOM     80  C   UNL A   1      41.762  26.949  36.769  1.00  0.00     0.040 A 
ATOM     81  F   UNL A   1      41.112  29.111  36.314  1.00  0.00    -0.206 F 
ATOM     82  C   UNL A   1      42.233  25.710  36.369  1.00  0.00     0.006 A 
ENDBRANCH  61  75
BRANCH  62  83
ATOM     83  C   UNL A   1      43.475  24.920  26.549  1.00  0.00     0.057 A 
ATOM     84  C   UNL A   1      42.689  23.802  26.857  1.00  0.00     0.134 A 
ATOM     85  C   UNL A   1      44.217  24.849  25.356  1.00  0.00     0.134 A 
ATOM     86  F   UNL A   1      41.920  23.795  27.956  1.00  0.00    -0.206 F 
ATOM     87  C   UNL A   1      42.618  22.689  26.011  1.00  0.00     0.040 A 
ATOM     88  C   UNL A   1      44.158  23.741  24.505  1.00  0.00     0.040 A 
ATOM     89  F   UNL A   1      44.951  25.888  24.934  1.00  0.00    -0.206 F 
ATOM     90  C   UNL A   1      43.343  22.662  24.823  1.00  0.00     0.006 A 
ENDBRANCH  62  83
BRANCH  74  91
ATOM     91  C   UNL A   1      44.983  30.568  28.869  1.00  0.00     0.057 A 
ATOM     92  C   UNL A   1      43.988  31.120  28.047  1.00  0.00     0.134 A 
ATOM     93  C   UNL A   1      46.270  31.097  28.729  1.00  0.00     0.134 A 
ATOM     94  F   UNL A   1      42.707  30.756  28.167  1.00  0.00    -0.206 F 
ATOM     95  C   UNL A   1      44.269  32.115  27.104  1.00  0.00     0.040 A 
ATOM     96  C   UNL A   1      46.559  32.115  27.816  1.00  0.00     0.040 A 
ATOM     97  F   UNL A   1      47.268  30.664  29.517  1.00  0.00    -0.206 F 
ATOM     98  C   UNL A   1      45.558  32.622  26.991  1.00  0.00     0.006 A 
ENDBRANCH  74  91
ENDBRANCH  48  49
ENDBRANCH  40  43
ENDBRANCH  38  39
ENDBRANCH  37  38
ENDBRANCH   1  37
TORSDOF 16
ENDMDL
MODEL 2
REMARK VINA RESULT:     -13.5      2.452      8.154
REMARK SMILES COC(=O)c1ccc([C@H]2CC(=O)Nc3c(C(=O)NCCCNC(=O)c4ccc(-c5c6nc(c(-c7c(F)cccc7F)c7ccc([nH]7)c(-c7c(F)cccc7F)c7nc(c(-c8c(F)cccc8F)c8ccc5[nH]8)C=C7)C=C6)cc4)cn(-c4cc(OC)ccc4OC)c32)cc1
REMARK SMILES IDX 19 1 18 2 16 3 17 4 15 6 9 7 10 8 91 9 11 10 14 11 80 12
REMARK SMILES IDX 12 13 13 14 79 15 8 17 5 18 6 19 93 20 7 21 92 22 3 23 4 24
REMARK SMILES IDX 2 25 1 26 81 27 82 28 88 29 83 30 87 31 86 32 89 33 90 34
REMARK SMILES IDX 84 35 85 36 20 37 21 38 22 39 23 40 24 42 25 43 26 44 78 45
REMARK SMILES IDX 27 46 77 47 28 48 29 49 30 50 71 51 31 52 76 53 70 54 72 55
REMARK SMILES IDX 32 56 75 57 69 58 68 59 33 61 59 62 42 63 58 64 43 65 46 66
REMARK SMILES IDX 57 67 73 68 44 69 45 70 56 72 74 73 47 74 34 75 35 76 40 77
REMARK SMILES IDX 36 78 37 79 39 80 41 81 38 82 60 83 61 84 66 85 62 86 63 87
REMARK SMILES IDX 65 88 67 89 64 90 48 91 49 92 54 93 50 94 51 95 53 96 55 97
REMARK SMILES IDX 52 98
REMARK H PARENT 18 5 13 16 22 41 72 60 46 71
REMARK Flexibility Score: inf
ROOT
ATOM      1  C   UNL A   1      35.962  21.256  25.622  1.00  0.00     0.118 C 
ENDROOT
BRANCH   1   2
ATOM      2  N   UNL A   1      34.852  20.819  24.813  1.00  0.00    -0.352 N 
ATOM      3  C   UNL A   1      33.744  21.454  24.327  1.00  0.00     0.254 C 
ATOM      4  O   UNL A   1      33.090  20.790  23.513  1.00  0.00    -0.269 OA
ATOM      5  H   UNL A   1      34.903  19.870  24.557  1.00  0.00     0.163 HD
BRANCH   3   6
ATOM      6  C   UNL A   1      33.263  22.780  24.744  1.00  0.00     0.081 A 
ATOM      7  C   UNL A   1      31.025  25.613  25.774  1.00  0.00     0.078 C 
ATOM      8  C   UNL A   1      29.836  24.789  26.295  1.00  0.00     0.115 C 
ATOM      9  C   UNL A   1      32.116  24.700  25.247  1.00  0.00     0.055 A 
ATOM     10  C   UNL A   1      30.199  23.453  26.875  1.00  0.00     0.225 C 
ATOM     11  C   UNL A   1      32.180  23.341  25.485  1.00  0.00     0.076 A 
ATOM     12  N   UNL A   1      33.246  25.047  24.527  1.00  0.00    -0.314 N 
ATOM     13  O   UNL A   1      29.495  22.893  27.715  1.00  0.00    -0.275 OA
ATOM     14  N   UNL A   1      31.270  22.798  26.351  1.00  0.00    -0.324 N 
ATOM     15  C   UNL A   1      33.969  23.901  24.314  1.00  0.00     0.107 A 
ATOM     16  H   UNL A   1      31.401  21.859  26.617  1.00  0.00     0.170 HD
BRANCH   7  17
ATOM     17  C   UNL A   1      30.430  26.643  24.813  1.00  0.00    -0.038 A 
ATOM     18  C   UNL A   1      29.365  28.621  23.104  1.00  0.00     0.060 A 
ATOM     19  C   UNL A   1      30.326  28.962  24.060  1.00  0.00     0.016 A 
ATOM     20  C   UNL A   1      28.914  27.302  23.024  1.00  0.00     0.016 A 
ATOM     21  C   UNL A   1      30.864  27.979  24.895  1.00  0.00     0.005 A 
ATOM     22  C   UNL A   1      29.410  26.340  23.905  1.00  0.00     0.005 A 
BRANCH  18  23
ATOM     23  C   UNL A   1      28.852  29.683  22.200  1.00  0.00     0.337 C 
ATOM     24  O   UNL A   1      29.468  30.123  21.254  1.00  0.00    -0.246 OA
BRANCH  23  25
ATOM     25  O   UNL A   1      27.620  30.082  22.615  1.00  0.00    -0.465 OA
ATOM     26  C   UNL A   1      27.636  31.199  23.499  1.00  0.00     0.282 C 
ENDBRANCH  23  25
ENDBRANCH  18  23
ENDBRANCH   7  17
BRANCH  12  27
ATOM     27  C   UNL A   1      33.648  26.337  24.123  1.00  0.00     0.091 A 
ATOM     28  C   UNL A   1      33.901  27.248  25.169  1.00  0.00     0.077 A 
ATOM     29  C   UNL A   1      33.709  26.756  22.785  1.00  0.00     0.143 A 
ATOM     30  C   UNL A   1      34.139  28.596  24.913  1.00  0.00     0.121 A 
ATOM     31  C   UNL A   1      33.976  28.117  22.556  1.00  0.00     0.052 A 
ATOM     32  C   UNL A   1      34.173  29.032  23.597  1.00  0.00     0.050 A 
BRANCH  29  33
ATOM     33  O   UNL A   1      33.463  26.128  21.601  1.00  0.00    -0.495 OA
ATOM     34  C   UNL A   1      32.179  25.780  21.124  1.00  0.00     0.278 C 
ENDBRANCH  29  33
BRANCH  30  35
ATOM     35  O   UNL A   1      34.319  29.371  26.023  1.00  0.00    -0.497 OA
ATOM     36  C   UNL A   1      33.824  28.837  27.246  1.00  0.00     0.278 C 
ENDBRANCH  30  35
ENDBRANCH  12  27
ENDBRANCH   3   6
ENDBRANCH   1   2
BRANCH   1  37
ATOM     37  C   UNL A   1      37.091  21.885  24.791  1.00  0.00     0.042 C 
BRANCH  37  38
ATOM     38  C   UNL A   1      37.942  22.844  25.599  1.00  0.00     0.118 C 
BRANCH  38  39
ATOM     39  N   UNL A   1      38.850  22.113  26.494  1.00  0.00    -0.352 N 
ATOM     40  C   UNL A   1      39.953  22.567  27.186  1.00  0.00     0.251 C 
ATOM     41  H   UNL A   1      38.641  21.159  26.616  1.00  0.00     0.163 HD
ATOM     42  O   UNL A   1      40.788  21.791  27.628  1.00  0.00    -0.269 OA
BRANCH  40  43
ATOM     43  C   UNL A   1      40.108  24.016  27.368  1.00  0.00     0.039 A 
ATOM     44  C   UNL A   1      39.024  24.886  27.250  1.00  0.00     0.014 A 
ATOM     45  C   UNL A   1      41.356  24.471  27.773  1.00  0.00     0.014 A 
ATOM     46  C   UNL A   1      39.195  26.208  27.644  1.00  0.00     0.010 A 
ATOM     47  C   UNL A   1      41.447  25.690  28.380  1.00  0.00     0.010 A 
ATOM     48  C   UNL A   1      40.405  26.595  28.243  1.00  0.00    -0.014 A 
BRANCH  48  49
ATOM     49  C   UNL A   1      40.583  27.932  28.792  1.00  0.00     0.031 A 
ATOM     50  C   UNL A   1      41.773  28.668  28.288  1.00  0.00     0.074 A 
ATOM     51  C   UNL A   1      39.659  28.540  29.568  1.00  0.00     0.049 A 
ATOM     52  N   UNL A   1      42.838  28.982  28.947  1.00  0.00    -0.248 NA
ATOM     53  C   UNL A   1      41.846  28.977  26.851  1.00  0.00     0.031 C 
ATOM     54  C   UNL A   1      38.300  28.107  29.921  1.00  0.00     0.029 A 
ATOM     55  N   UNL A   1      39.738  29.759  30.161  1.00  0.00    -0.354 N 
ATOM     56  C   UNL A   1      43.644  29.694  28.065  1.00  0.00     0.074 A 
ATOM     57  C   UNL A   1      43.061  29.525  26.759  1.00  0.00     0.031 C 
ATOM     58  C   UNL A   1      37.617  29.137  30.463  1.00  0.00     0.029 A 
ATOM     59  C   UNL A   1      38.542  30.229  30.683  1.00  0.00     0.049 A 
ATOM     60  H   UNL A   1      40.579  30.269  30.217  1.00  0.00     0.167 HD
ATOM     61  C   UNL A   1      44.614  30.537  28.516  1.00  0.00     0.037 A 
ATOM     62  C   UNL A   1      38.332  31.435  31.260  1.00  0.00     0.037 A 
ATOM     63  C   UNL A   1      44.927  30.279  29.900  1.00  0.00     0.049 A 
ATOM     64  C   UNL A   1      39.656  31.953  31.680  1.00  0.00     0.074 A 
ATOM     65  C   UNL A   1      45.415  29.184  30.589  1.00  0.00     0.029 A 
ATOM     66  N   UNL A   1      44.359  31.089  30.853  1.00  0.00    -0.354 N 
ATOM     67  N   UNL A   1      40.374  31.420  32.628  1.00  0.00    -0.248 NA
ATOM     68  C   UNL A   1      40.387  32.774  30.728  1.00  0.00     0.031 C 
ATOM     69  C   UNL A   1      44.670  29.155  31.806  1.00  0.00     0.029 A 
ATOM     70  C   UNL A   1      43.831  30.271  31.820  1.00  0.00     0.049 A 
ATOM     71  H   UNL A   1      44.334  32.073  30.843  1.00  0.00     0.167 HD
ATOM     72  C   UNL A   1      41.680  31.475  32.159  1.00  0.00     0.074 A 
ATOM     73  C   UNL A   1      41.634  32.395  31.024  1.00  0.00     0.031 C 
ATOM     74  C   UNL A   1      42.615  30.558  32.550  1.00  0.00     0.037 A 
BRANCH  61  75
ATOM     75  C   UNL A   1      45.041  31.794  27.808  1.00  0.00     0.057 A 
ATOM     76  C   UNL A   1      44.145  32.872  27.695  1.00  0.00     0.134 A 
ATOM     77  C   UNL A   1      46.195  31.890  27.003  1.00  0.00     0.134 A 
ATOM     78  F   UNL A   1      42.997  32.888  28.389  1.00  0.00    -0.206 F 
ATOM     79  C   UNL A   1      44.359  33.937  26.812  1.00  0.00     0.040 A 
ATOM     80  C   UNL A   1      46.444  32.973  26.156  1.00  0.00     0.040 A 
ATOM     81  F   UNL A   1      47.091  30.899  26.917  1.00  0.00    -0.206 F 
ATOM     82  C   UNL A   1      45.511  33.989  26.035  1.00  0.00     0.006 A 
ENDBRANCH  61  75
BRANCH  62  83
ATOM     83  C   UNL A   1      37.123  32.281  31.198  1.00  0.00     0.057 A 
ATOM     84  C   UNL A   1      36.796  32.990  30.035  1.00  0.00     0.134 A 
ATOM     85  C   UNL A   1      36.112  32.185  32.172  1.00  0.00     0.134 A 
ATOM     86  F   UNL A   1      37.684  33.103  29.037  1.00  0.00    -0.206 F 
ATOM     87  C   UNL A   1      35.526  33.544  29.835  1.00  0.00     0.040 A 
ATOM     88  C   UNL A   1      34.841  32.736  31.987  1.00  0.00     0.040 A 
ATOM     89  F   UNL A   1      36.297  31.474  33.293  1.00  0.00    -0.206 F 
ATOM     90  C   UNL A   1      34.538  33.405  30.807  1.00  0.00     0.006 A 
ENDBRANCH  62  83
BRANCH  74  91
ATOM     91  C   UNL A   1      42.254  29.617  33.673  1.00  0.00     0.057 A 
ATOM     92  C   UNL A   1      41.698  28.342  33.489  1.00  0.00     0.134 A 
ATOM     93  C   UNL A   1      42.621  29.954  34.981  1.00  0.00     0.134 A 
ATOM     94  F   UNL A   1      41.402  27.882  32.269  1.00  0.00    -0.206 F 
ATOM     95  C   UNL A   1      41.478  27.464  34.557  1.00  0.00     0.040 A 
ATOM     96  C   UNL A   1      42.439  29.075  36.052  1.00  0.00     0.040 A 
ATOM     97  F   UNL A   1      43.212  31.133  35.234  1.00  0.00    -0.206 F 
ATOM     98  C   UNL A   1      41.856  27.827  35.844  1.00  0.00     0.006 A 
ENDBRANCH  74  91
ENDBRANCH  48  49
ENDBRANCH  40  43
ENDBRANCH  38  39
ENDBRANCH  37  38
ENDBRANCH   1  37
TORSDOF 16
ENDMDL
MODEL 3
REMARK VINA RESULT:     -13.3      2.624      7.580
REMARK SMILES COC(=O)c1ccc([C@H]2CC(=O)Nc3c(C(=O)NCCCNC(=O)c4ccc(-c5c6nc(c(-c7c(F)cccc7F)c7ccc([nH]7)c(-c7c(F)cccc7F)c7nc(c(-c8c(F)cccc8F)c8ccc5[nH]8)C=C7)C=C6)cc4)cn(-c4cc(OC)ccc4OC)c32)cc1
REMARK SMILES IDX 19 1 18 2 16 3 17 4 15 6 9 7 10 8 91 9 11 10 14 11 80 12
REMARK SMILES IDX 12 13 13 14 79 15 8 17 5 18 6 19 93 20 7 21 92 22 3 23 4 24
REMARK SMILES IDX 2 25 1 26 81 27 82 28 88 29 83 30 87 31 86 32 89 33 90 34
REMARK SMILES IDX 84 35 85 36 20 37 21 38 22 39 23 40 24 42 25 43 26 44 78 45
REMARK SMILES IDX 27 46 77 47 28 48 29 49 30 50 71 51 31 52 76 53 70 54 72 55
REMARK SMILES IDX 32 56 75 57 69 58 68 59 33 61 59 62 42 63 58 64 43 65 46 66
REMARK SMILES IDX 57 67 73 68 44 69 45 70 56 72 74 73 47 74 34 75 35 76 40 77
REMARK SMILES IDX 36 78 37 79 39 80 41 81 38 82 60 83 61 84 66 85 62 86 63 87
REMARK SMILES IDX 65 88 67 89 64 90 48 91 49 92 54 93 50 94 51 95 53 96 55 97
REMARK SMILES IDX 52 98
REMARK H PARENT 18 5 13 16 22 41 72 60 46 71
REMARK Flexibility Score: inf
ROOT
ATOM      1  C   UNL A   1      35.802  21.096  25.367  1.00  0.00     0.118 C 
ENDROOT
BRANCH   1   2
ATOM      2  N   UNL A   1      34.624  20.696  24.638  1.00  0.00    -0.352 N 
ATOM      3  C   UNL A   1      33.504  21.367  24.232  1.00  0.00     0.254 C 
ATOM      4  O   UNL A   1      32.775  20.726  23.466  1.00  0.00    -0.269 OA
ATOM      5  H   UNL A   1      34.627  19.746  24.378  1.00  0.00     0.163 HD
BRANCH   3   6
ATOM      6  C   UNL A   1      33.096  22.705  24.684  1.00  0.00     0.081 A 
ATOM      7  C   UNL A   1      31.017  25.619  25.818  1.00  0.00     0.078 C 
ATOM      8  C   UNL A   1      29.803  24.841  26.353  1.00  0.00     0.115 C 
ATOM      9  C   UNL A   1      32.052  24.667  25.249  1.00  0.00     0.055 A 
ATOM     10  C   UNL A   1      30.117  23.479  26.901  1.00  0.00     0.225 C 
ATOM     11  C   UNL A   1      32.058  23.301  25.461  1.00  0.00     0.076 A 
ATOM     12  N   UNL A   1      33.179  24.975  24.507  1.00  0.00    -0.314 N 
ATOM     13  O   UNL A   1      29.408  22.937  27.748  1.00  0.00    -0.275 OA
ATOM     14  N   UNL A   1      31.144  22.786  26.340  1.00  0.00    -0.324 N 
ATOM     15  C   UNL A   1      33.843  23.801  24.257  1.00  0.00     0.107 A 
ATOM     16  H   UNL A   1      31.237  21.836  26.585  1.00  0.00     0.170 HD
BRANCH   7  17
ATOM     17  C   UNL A   1      30.448  26.693  24.889  1.00  0.00    -0.038 A 
ATOM     18  C   UNL A   1      29.427  28.749  23.247  1.00  0.00     0.060 A 
ATOM     19  C   UNL A   1      30.342  29.048  24.261  1.00  0.00     0.016 A 
ATOM     20  C   UNL A   1      29.000  27.431  23.076  1.00  0.00     0.016 A 
ATOM     21  C   UNL A   1      30.859  28.027  25.063  1.00  0.00     0.005 A 
ATOM     22  C   UNL A   1      29.471  26.428  23.923  1.00  0.00     0.005 A 
BRANCH  18  23
ATOM     23  C   UNL A   1      28.937  29.853  22.381  1.00  0.00     0.337 C 
ATOM     24  O   UNL A   1      28.360  29.683  21.329  1.00  0.00    -0.246 OA
BRANCH  23  25
ATOM     25  O   UNL A   1      29.258  31.050  22.940  1.00  0.00    -0.465 OA
ATOM     26  C   UNL A   1      28.159  31.950  23.062  1.00  0.00     0.282 C 
ENDBRANCH  23  25
ENDBRANCH  18  23
ENDBRANCH   7  17
BRANCH  12  27
ATOM     27  C   UNL A   1      33.631  26.251  24.116  1.00  0.00     0.091 A 
ATOM     28  C   UNL A   1      33.935  27.137  25.171  1.00  0.00     0.077 A 
ATOM     29  C   UNL A   1      33.694  26.687  22.784  1.00  0.00     0.143 A 
ATOM     30  C   UNL A   1      34.228  28.477  24.931  1.00  0.00     0.121 A 
ATOM     31  C   UNL A   1      34.017  28.039  22.570  1.00  0.00     0.052 A 
ATOM     32  C   UNL A   1      34.264  28.929  23.621  1.00  0.00     0.050 A 
BRANCH  29  33
ATOM     33  O   UNL A   1      33.408  26.087  21.594  1.00  0.00    -0.495 OA
ATOM     34  C   UNL A   1      32.104  25.822  21.119  1.00  0.00     0.278 C 
ENDBRANCH  29  33
BRANCH  30  35
ATOM     35  O   UNL A   1      34.454  29.227  26.050  1.00  0.00    -0.497 OA
ATOM     36  C   UNL A   1      33.836  28.768  27.247  1.00  0.00     0.278 C 
ENDBRANCH  30  35
ENDBRANCH  12  27
ENDBRANCH   3   6
ENDBRANCH   1   2
BRANCH   1  37
ATOM     37  C   UNL A   1      37.103  20.721  24.642  1.00  0.00     0.042 C 
BRANCH  37  38
ATOM     38  C   UNL A   1      38.336  21.022  25.471  1.00  0.00     0.118 C 
BRANCH  38  39
ATOM     39  N   UNL A   1      39.202  19.839  25.572  1.00  0.00    -0.352 N 
ATOM     40  C   UNL A   1      40.545  19.757  25.877  1.00  0.00     0.251 C 
ATOM     41  H   UNL A   1      38.759  18.977  25.395  1.00  0.00     0.163 HD
ATOM     42  O   UNL A   1      41.195  18.756  25.613  1.00  0.00    -0.269 OA
BRANCH  40  43
ATOM     43  C   UNL A   1      41.181  20.916  26.517  1.00  0.00     0.039 A 
ATOM     44  C   UNL A   1      41.708  21.966  25.766  1.00  0.00     0.014 A 
ATOM     45  C   UNL A   1      41.135  20.974  27.903  1.00  0.00     0.014 A 
ATOM     46  C   UNL A   1      42.098  23.122  26.432  1.00  0.00     0.010 A 
ATOM     47  C   UNL A   1      41.288  22.184  28.517  1.00  0.00     0.010 A 
ATOM     48  C   UNL A   1      41.851  23.236  27.810  1.00  0.00    -0.014 A 
BRANCH  48  49
ATOM     49  C   UNL A   1      42.119  24.475  28.526  1.00  0.00     0.031 A 
ATOM     50  C   UNL A   1      41.094  25.538  28.353  1.00  0.00     0.074 A 
ATOM     51  C   UNL A   1      43.125  24.610  29.417  1.00  0.00     0.049 A 
ATOM     52  N   UNL A   1      41.223  26.658  27.723  1.00  0.00    -0.248 NA
ATOM     53  C   UNL A   1      39.725  25.272  28.822  1.00  0.00     0.031 C 
ATOM     54  C   UNL A   1      44.046  23.597  29.950  1.00  0.00     0.029 A 
ATOM     55  N   UNL A   1      43.487  25.723  30.107  1.00  0.00    -0.354 N 
ATOM     56  C   UNL A   1      40.013  27.328  27.870  1.00  0.00     0.074 A 
ATOM     57  C   UNL A   1      39.084  26.370  28.414  1.00  0.00     0.031 C 
ATOM     58  C   UNL A   1      44.693  24.087  31.029  1.00  0.00     0.029 A 
ATOM     59  C   UNL A   1      44.389  25.499  31.136  1.00  0.00     0.049 A 
ATOM     60  H   UNL A   1      43.137  26.618  29.891  1.00  0.00     0.167 HD
ATOM     61  C   UNL A   1      39.930  28.679  27.722  1.00  0.00     0.037 A 
ATOM     62  C   UNL A   1      44.856  26.418  32.013  1.00  0.00     0.037 A 
ATOM     63  C   UNL A   1      41.088  29.202  27.040  1.00  0.00     0.049 A 
ATOM     64  C   UNL A   1      44.639  27.752  31.404  1.00  0.00     0.074 A 
ATOM     65  C   UNL A   1      41.644  28.997  25.791  1.00  0.00     0.029 A 
ATOM     66  N   UNL A   1      42.087  29.761  27.799  1.00  0.00    -0.354 N 
ATOM     67  N   UNL A   1      45.271  28.174  30.344  1.00  0.00    -0.248 NA
ATOM     68  C   UNL A   1      43.383  28.425  31.693  1.00  0.00     0.031 C 
ATOM     69  C   UNL A   1      43.052  28.961  26.018  1.00  0.00     0.029 A 
ATOM     70  C   UNL A   1      43.274  29.221  27.372  1.00  0.00     0.049 A 
ATOM     71  H   UNL A   1      41.972  30.425  28.517  1.00  0.00     0.167 HD
ATOM     72  C   UNL A   1      44.311  28.849  29.603  1.00  0.00     0.074 A 
ATOM     73  C   UNL A   1      43.191  29.043  30.524  1.00  0.00     0.031 C 
ATOM     74  C   UNL A   1      44.395  28.935  28.242  1.00  0.00     0.037 A 
BRANCH  61  75
ATOM     75  C   UNL A   1      38.967  29.557  28.475  1.00  0.00     0.057 A 
ATOM     76  C   UNL A   1      37.863  30.117  27.808  1.00  0.00     0.134 A 
ATOM     77  C   UNL A   1      39.224  30.089  29.756  1.00  0.00     0.134 A 
ATOM     78  F   UNL A   1      37.530  29.716  26.572  1.00  0.00    -0.206 F 
ATOM     79  C   UNL A   1      37.106  31.162  28.354  1.00  0.00     0.040 A 
ATOM     80  C   UNL A   1      38.444  31.095  30.332  1.00  0.00     0.040 A 
ATOM     81  F   UNL A   1      40.298  29.737  30.474  1.00  0.00    -0.206 F 
ATOM     82  C   UNL A   1      37.398  31.656  29.620  1.00  0.00     0.006 A 
ENDBRANCH  61  75
BRANCH  62  83
ATOM     83  C   UNL A   1      45.190  26.233  33.440  1.00  0.00     0.057 A 
ATOM     84  C   UNL A   1      44.184  26.107  34.407  1.00  0.00     0.134 A 
ATOM     85  C   UNL A   1      46.491  25.887  33.848  1.00  0.00     0.134 A 
ATOM     86  F   UNL A   1      42.908  26.381  34.099  1.00  0.00    -0.206 F 
ATOM     87  C   UNL A   1      44.450  25.632  35.697  1.00  0.00     0.040 A 
ATOM     88  C   UNL A   1      46.770  25.415  35.134  1.00  0.00     0.040 A 
ATOM     89  F   UNL A   1      47.515  25.908  32.984  1.00  0.00    -0.206 F 
ATOM     90  C   UNL A   1      45.744  25.269  36.060  1.00  0.00     0.006 A 
ENDBRANCH  62  83
BRANCH  74  91
ATOM     91  C   UNL A   1      45.670  28.471  27.582  1.00  0.00     0.057 A 
ATOM     92  C   UNL A   1      45.884  27.169  27.104  1.00  0.00     0.134 A 
ATOM     93  C   UNL A   1      46.660  29.414  27.287  1.00  0.00     0.134 A 
ATOM     94  F   UNL A   1      44.958  26.215  27.247  1.00  0.00    -0.206 F 
ATOM     95  C   UNL A   1      47.044  26.814  26.406  1.00  0.00     0.040 A 
ATOM     96  C   UNL A   1      47.807  29.082  26.561  1.00  0.00     0.040 A 
ATOM     97  F   UNL A   1      46.504  30.695  27.659  1.00  0.00    -0.206 F 
ATOM     98  C   UNL A   1      48.008  27.775  26.125  1.00  0.00     0.006 A 
ENDBRANCH  74  91
ENDBRANCH  48  49
ENDBRANCH  40  43
ENDBRANCH  38  39
ENDBRANCH  37  38
ENDBRANCH   1  37
TORSDOF 16
ENDMDL
