MODEL 1
REMARK VINA RESULT:     -11.6      0.000      0.000
REMARK SMILES CCc1noc(C)c1C(=O)Nc1cc(Cl)ccc1C(=O)NCCCNC(=O)c1ccc(-c2c3nc(c(-c4c(F)cccc4F)c4ccc([nH]4)c(-c4c(F)cccc4F)c4nc(c(-c5c(F)cccc5F)c5ccc2[nH]5)C=C4)C=C3)cc1
REMARK SMILES IDX 22 1 21 2 19 3 20 4 18 6 12 7 13 8 14 9 17 10 15 11 16 12
REMARK SMILES IDX 11 13 9 14 10 15 8 17 3 18 4 19 5 20 6 21 7 22 2 23 1 24
REMARK SMILES IDX 23 25 24 26 25 27 26 28 27 30 28 31 29 32 81 33 30 34 80 35
REMARK SMILES IDX 31 36 32 37 33 38 74 39 34 40 79 41 73 42 75 43 35 44 78 45
REMARK SMILES IDX 72 46 71 47 36 49 62 50 45 51 61 52 46 53 49 54 60 55 76 56
REMARK SMILES IDX 47 57 48 58 59 60 77 61 50 62 37 63 38 64 43 65 39 66 40 67
REMARK SMILES IDX 42 68 44 69 41 70 63 71 64 72 69 73 65 74 66 75 68 76 70 77
REMARK SMILES IDX 67 78 51 79 52 80 57 81 53 82 54 83 56 84 58 85 55 86
REMARK H PARENT 21 5 11 16 25 29 75 48 49 59
REMARK Flexibility Score: inf
ROOT
ATOM      1  C   UNL A   1      34.014  27.062  25.367  1.00  0.00     0.118 C 
ENDROOT
BRANCH   1   2
ATOM      2  N   UNL A   1      33.988  26.842  23.939  1.00  0.00    -0.352 N 
ATOM      3  C   UNL A   1      33.985  25.721  23.151  1.00  0.00     0.253 C 
ATOM      4  O   UNL A   1      33.915  25.951  21.939  1.00  0.00    -0.269 OA
ATOM      5  H   UNL A   1      33.969  27.678  23.420  1.00  0.00     0.163 HD
BRANCH   3   6
ATOM      6  C   UNL A   1      34.093  24.285  23.586  1.00  0.00     0.063 A 
ATOM      7  C   UNL A   1      33.134  23.252  23.562  1.00  0.00     0.055 A 
ATOM      8  C   UNL A   1      33.486  21.939  23.934  1.00  0.00     0.047 A 
ATOM      9  C   UNL A   1      34.764  21.651  24.403  1.00  0.00     0.043 A 
ATOM     10  C   UNL A   1      35.370  23.958  24.106  1.00  0.00     0.017 A 
ATOM     11  Cl  UNL A   1      35.168  20.046  24.863  1.00  0.00    -0.084 Cl
ATOM     12  C   UNL A   1      35.702  22.663  24.516  1.00  0.00     0.021 A 
BRANCH   7  13
ATOM     13  N   UNL A   1      31.854  23.406  23.043  1.00  0.00    -0.321 N 
ATOM     14  C   UNL A   1      30.729  24.030  23.547  1.00  0.00     0.261 C 
ATOM     15  O   UNL A   1      29.693  23.793  22.920  1.00  0.00    -0.269 OA
ATOM     16  H   UNL A   1      31.726  22.996  22.157  1.00  0.00     0.170 HD
BRANCH  14  17
ATOM     17  C   UNL A   1      30.722  25.034  24.621  1.00  0.00     0.105 A 
ATOM     18  C   UNL A   1      30.910  24.694  26.018  1.00  0.00     0.096 A 
ATOM     19  N   UNL A   1      30.937  25.780  26.794  1.00  0.00    -0.084 NA
ATOM     20  O   UNL A   1      30.645  26.827  25.975  1.00  0.00    -0.361 OA
ATOM     21  C   UNL A   1      30.427  26.390  24.704  1.00  0.00     0.146 A 
ATOM     22  C   UNL A   1      29.914  27.485  23.858  1.00  0.00     0.092 C 
BRANCH  18  23
ATOM     23  C   UNL A   1      30.986  23.335  26.651  1.00  0.00     0.057 C 
ATOM     24  C   UNL A   1      32.353  22.978  27.230  1.00  0.00     0.011 C 
ENDBRANCH  18  23
ENDBRANCH  14  17
ENDBRANCH   7  13
ENDBRANCH   3   6
ENDBRANCH   1   2
BRANCH   1  25
ATOM     25  C   UNL A   1      33.814  28.499  25.823  1.00  0.00     0.042 C 
BRANCH  25  26
ATOM     26  C   UNL A   1      33.453  28.671  27.290  1.00  0.00     0.118 C 
BRANCH  26  27
ATOM     27  N   UNL A   1      33.564  30.037  27.785  1.00  0.00    -0.352 N 
ATOM     28  C   UNL A   1      34.610  30.739  28.339  1.00  0.00     0.251 C 
ATOM     29  H   UNL A   1      32.732  30.557  27.709  1.00  0.00     0.163 HD
ATOM     30  O   UNL A   1      34.408  31.881  28.752  1.00  0.00    -0.269 OA
BRANCH  28  31
ATOM     31  C   UNL A   1      35.956  30.140  28.496  1.00  0.00     0.039 A 
ATOM     32  C   UNL A   1      36.847  30.176  27.416  1.00  0.00     0.014 A 
ATOM     33  C   UNL A   1      36.349  29.516  29.675  1.00  0.00     0.014 A 
ATOM     34  C   UNL A   1      38.151  29.685  27.561  1.00  0.00     0.010 A 
ATOM     35  C   UNL A   1      37.677  29.147  29.862  1.00  0.00     0.010 A 
ATOM     36  C   UNL A   1      38.596  29.219  28.806  1.00  0.00    -0.014 A 
BRANCH  36  37
ATOM     37  C   UNL A   1      39.992  28.761  29.047  1.00  0.00     0.031 A 
ATOM     38  C   UNL A   1      41.001  29.725  29.618  1.00  0.00     0.074 A 
ATOM     39  C   UNL A   1      40.387  27.532  28.656  1.00  0.00     0.049 A 
ATOM     40  N   UNL A   1      42.305  29.625  29.682  1.00  0.00    -0.248 NA
ATOM     41  C   UNL A   1      40.474  30.996  30.145  1.00  0.00     0.031 C 
ATOM     42  C   UNL A   1      39.528  26.507  28.061  1.00  0.00     0.029 A 
ATOM     43  N   UNL A   1      41.628  26.944  28.682  1.00  0.00    -0.354 N 
ATOM     44  C   UNL A   1      42.750  30.828  30.216  1.00  0.00     0.074 A 
ATOM     45  C   UNL A   1      41.586  31.666  30.403  1.00  0.00     0.031 C 
ATOM     46  C   UNL A   1      40.261  25.414  27.797  1.00  0.00     0.029 A 
ATOM     47  C   UNL A   1      41.651  25.676  28.152  1.00  0.00     0.049 A 
ATOM     48  H   UNL A   1      42.427  27.389  29.048  1.00  0.00     0.167 HD
ATOM     49  C   UNL A   1      44.010  31.196  30.550  1.00  0.00     0.037 A 
ATOM     50  C   UNL A   1      42.681  24.831  27.954  1.00  0.00     0.037 A 
ATOM     51  C   UNL A   1      45.160  30.342  30.420  1.00  0.00     0.049 A 
ATOM     52  C   UNL A   1      44.071  25.259  28.341  1.00  0.00     0.074 A 
ATOM     53  C   UNL A   1      46.475  30.608  30.759  1.00  0.00     0.029 A 
ATOM     54  N   UNL A   1      45.125  29.045  29.934  1.00  0.00    -0.354 N 
ATOM     55  N   UNL A   1      44.473  26.396  28.858  1.00  0.00    -0.248 NA
ATOM     56  C   UNL A   1      45.151  24.288  28.117  1.00  0.00     0.031 C 
ATOM     57  C   UNL A   1      47.240  29.476  30.462  1.00  0.00     0.029 A 
ATOM     58  C   UNL A   1      46.394  28.495  29.971  1.00  0.00     0.049 A 
ATOM     59  H   UNL A   1      44.317  28.584  29.610  1.00  0.00     0.167 HD
ATOM     60  C   UNL A   1      45.839  26.257  29.061  1.00  0.00     0.074 A 
ATOM     61  C   UNL A   1      46.199  24.928  28.616  1.00  0.00     0.031 C 
ATOM     62  C   UNL A   1      46.721  27.153  29.568  1.00  0.00     0.037 A 
BRANCH  49  63
ATOM     63  C   UNL A   1      44.205  32.571  31.119  1.00  0.00     0.057 A 
ATOM     64  C   UNL A   1      44.138  32.809  32.499  1.00  0.00     0.134 A 
ATOM     65  C   UNL A   1      44.500  33.659  30.290  1.00  0.00     0.134 A 
ATOM     66  F   UNL A   1      43.845  31.810  33.347  1.00  0.00    -0.206 F 
ATOM     67  C   UNL A   1      44.332  34.084  33.030  1.00  0.00     0.040 A 
ATOM     68  C   UNL A   1      44.725  34.935  30.812  1.00  0.00     0.040 A 
ATOM     69  F   UNL A   1      44.586  33.500  28.961  1.00  0.00    -0.206 F 
ATOM     70  C   UNL A   1      44.634  35.150  32.186  1.00  0.00     0.006 A 
ENDBRANCH  49  63
BRANCH  50  71
ATOM     71  C   UNL A   1      42.450  23.483  27.373  1.00  0.00     0.057 A 
ATOM     72  C   UNL A   1      42.139  22.391  28.193  1.00  0.00     0.134 A 
ATOM     73  C   UNL A   1      42.575  23.241  26.000  1.00  0.00     0.134 A 
ATOM     74  F   UNL A   1      42.025  22.555  29.519  1.00  0.00    -0.206 F 
ATOM     75  C   UNL A   1      41.994  21.103  27.676  1.00  0.00     0.040 A 
ATOM     76  C   UNL A   1      42.405  21.962  25.464  1.00  0.00     0.040 A 
ATOM     77  F   UNL A   1      42.864  24.245  25.159  1.00  0.00    -0.206 F 
ATOM     78  C   UNL A   1      42.127  20.887  26.306  1.00  0.00     0.006 A 
ENDBRANCH  50  71
BRANCH  62  79
ATOM     79  C   UNL A   1      48.140  26.703  29.742  1.00  0.00     0.057 A 
ATOM     80  C   UNL A   1      48.572  26.039  30.896  1.00  0.00     0.134 A 
ATOM     81  C   UNL A   1      49.070  26.888  28.710  1.00  0.00     0.134 A 
ATOM     82  F   UNL A   1      47.731  25.842  31.922  1.00  0.00    -0.206 F 
ATOM     83  C   UNL A   1      49.886  25.588  31.025  1.00  0.00     0.040 A 
ATOM     84  C   UNL A   1      50.379  26.420  28.818  1.00  0.00     0.040 A 
ATOM     85  F   UNL A   1      48.714  27.509  27.576  1.00  0.00    -0.206 F 
ATOM     86  C   UNL A   1      50.792  25.771  29.980  1.00  0.00     0.006 A 
ENDBRANCH  62  79
ENDBRANCH  36  37
ENDBRANCH  28  31
ENDBRANCH  26  27
ENDBRANCH  25  26
ENDBRANCH   1  25
TORSDOF 13
ENDMDL
MODEL 2
REMARK VINA RESULT:     -11.4      3.055      7.851
REMARK SMILES CCc1noc(C)c1C(=O)Nc1cc(Cl)ccc1C(=O)NCCCNC(=O)c1ccc(-c2c3nc(c(-c4c(F)cccc4F)c4ccc([nH]4)c(-c4c(F)cccc4F)c4nc(c(-c5c(F)cccc5F)c5ccc2[nH]5)C=C4)C=C3)cc1
REMARK SMILES IDX 22 1 21 2 19 3 20 4 18 6 12 7 13 8 14 9 17 10 15 11 16 12
REMARK SMILES IDX 11 13 9 14 10 15 8 17 3 18 4 19 5 20 6 21 7 22 2 23 1 24
REMARK SMILES IDX 23 25 24 26 25 27 26 28 27 30 28 31 29 32 81 33 30 34 80 35
REMARK SMILES IDX 31 36 32 37 33 38 74 39 34 40 79 41 73 42 75 43 35 44 78 45
REMARK SMILES IDX 72 46 71 47 36 49 62 50 45 51 61 52 46 53 49 54 60 55 76 56
REMARK SMILES IDX 47 57 48 58 59 60 77 61 50 62 37 63 38 64 43 65 39 66 40 67
REMARK SMILES IDX 42 68 44 69 41 70 63 71 64 72 69 73 65 74 66 75 68 76 70 77
REMARK SMILES IDX 67 78 51 79 52 80 57 81 53 82 54 83 56 84 58 85 55 86
REMARK H PARENT 21 5 11 16 25 29 75 48 49 59
REMARK Flexibility Score: inf
ROOT
ATOM      1  C   UNL A   1      34.429  25.119  25.391  1.00  0.00     0.118 C 
ENDROOT
BRANCH   1   2
ATOM      2  N   UNL A   1      33.083  24.997  25.902  1.00  0.00    -0.352 N 
ATOM      3  C   UNL A   1      32.111  25.901  26.243  1.00  0.00     0.253 C 
ATOM      4  O   UNL A   1      31.048  25.390  26.612  1.00  0.00    -0.269 OA
ATOM      5  H   UNL A   1      32.804  24.062  26.034  1.00  0.00     0.163 HD
BRANCH   3   6
ATOM      6  C   UNL A   1      32.207  27.402  26.254  1.00  0.00     0.063 A 
ATOM      7  C   UNL A   1      31.571  28.361  25.438  1.00  0.00     0.055 A 
ATOM      8  C   UNL A   1      31.735  29.738  25.690  1.00  0.00     0.047 A 
ATOM      9  C   UNL A   1      32.585  30.179  26.700  1.00  0.00     0.043 A 
ATOM     10  C   UNL A   1      33.092  27.894  27.245  1.00  0.00     0.017 A 
ATOM     11  Cl  UNL A   1      32.780  31.862  26.982  1.00  0.00    -0.084 Cl
ATOM     12  C   UNL A   1      33.287  29.262  27.463  1.00  0.00     0.021 A 
BRANCH   7  13
ATOM     13  N   UNL A   1      30.646  28.037  24.454  1.00  0.00    -0.321 N 
ATOM     14  C   UNL A   1      30.804  27.549  23.170  1.00  0.00     0.261 C 
ATOM     15  O   UNL A   1      29.777  27.577  22.486  1.00  0.00    -0.269 OA
ATOM     16  H   UNL A   1      29.708  28.180  24.719  1.00  0.00     0.170 HD
BRANCH  14  17
ATOM     17  C   UNL A   1      32.010  26.884  22.655  1.00  0.00     0.105 A 
ATOM     18  C   UNL A   1      32.106  25.446  22.491  1.00  0.00     0.096 A 
ATOM     19  N   UNL A   1      33.268  25.087  21.940  1.00  0.00    -0.084 NA
ATOM     20  O   UNL A   1      34.003  26.229  21.848  1.00  0.00    -0.361 OA
ATOM     21  C   UNL A   1      33.305  27.285  22.349  1.00  0.00     0.146 A 
ATOM     22  C   UNL A   1      34.165  28.480  22.440  1.00  0.00     0.092 C 
BRANCH  18  23
ATOM     23  C   UNL A   1      31.139  24.385  22.927  1.00  0.00     0.057 C 
ATOM     24  C   UNL A   1      31.760  23.007  23.145  1.00  0.00     0.011 C 
ENDBRANCH  18  23
ENDBRANCH  14  17
ENDBRANCH   7  13
ENDBRANCH   3   6
ENDBRANCH   1   2
BRANCH   1  25
ATOM     25  C   UNL A   1      35.372  23.971  25.717  1.00  0.00     0.042 C 
BRANCH  25  26
ATOM     26  C   UNL A   1      36.749  24.061  25.078  1.00  0.00     0.118 C 
BRANCH  26  27
ATOM     27  N   UNL A   1      37.656  22.980  25.443  1.00  0.00    -0.352 N 
ATOM     28  C   UNL A   1      38.803  22.951  26.203  1.00  0.00     0.251 C 
ATOM     29  H   UNL A   1      37.400  22.104  25.075  1.00  0.00     0.163 HD
ATOM     30  O   UNL A   1      39.434  21.898  26.289  1.00  0.00    -0.269 OA
BRANCH  28  31
ATOM     31  C   UNL A   1      39.324  24.164  26.876  1.00  0.00     0.039 A 
ATOM     32  C   UNL A   1      40.075  25.084  26.133  1.00  0.00     0.014 A 
ATOM     33  C   UNL A   1      39.114  24.400  28.230  1.00  0.00     0.014 A 
ATOM     34  C   UNL A   1      40.514  26.275  26.724  1.00  0.00     0.010 A 
ATOM     35  C   UNL A   1      39.436  25.636  28.782  1.00  0.00     0.010 A 
ATOM     36  C   UNL A   1      40.148  26.589  28.040  1.00  0.00    -0.014 A 
BRANCH  36  37
ATOM     37  C   UNL A   1      40.513  27.874  28.698  1.00  0.00     0.031 A 
ATOM     38  C   UNL A   1      41.890  28.040  29.290  1.00  0.00     0.074 A 
ATOM     39  C   UNL A   1      39.591  28.843  28.867  1.00  0.00     0.049 A 
ATOM     40  N   UNL A   1      42.340  28.957  30.109  1.00  0.00    -0.248 NA
ATOM     41  C   UNL A   1      42.882  27.003  28.952  1.00  0.00     0.031 C 
ATOM     42  C   UNL A   1      38.212  28.807  28.375  1.00  0.00     0.029 A 
ATOM     43  N   UNL A   1      39.673  30.047  29.525  1.00  0.00    -0.354 N 
ATOM     44  C   UNL A   1      43.644  28.586  30.410  1.00  0.00     0.074 A 
ATOM     45  C   UNL A   1      43.896  27.331  29.737  1.00  0.00     0.031 C 
ATOM     46  C   UNL A   1      37.585  29.940  28.731  1.00  0.00     0.029 A 
ATOM     47  C   UNL A   1      38.497  30.760  29.521  1.00  0.00     0.049 A 
ATOM     48  H   UNL A   1      40.496  30.369  29.957  1.00  0.00     0.167 HD
ATOM     49  C   UNL A   1      44.564  29.243  31.156  1.00  0.00     0.037 A 
ATOM     50  C   UNL A   1      38.185  31.931  30.107  1.00  0.00     0.037 A 
ATOM     51  C   UNL A   1      44.334  30.520  31.778  1.00  0.00     0.049 A 
ATOM     52  C   UNL A   1      39.226  32.647  30.925  1.00  0.00     0.074 A 
ATOM     53  C   UNL A   1      45.210  31.285  32.528  1.00  0.00     0.029 A 
ATOM     54  N   UNL A   1      43.149  31.232  31.696  1.00  0.00    -0.354 N 
ATOM     55  N   UNL A   1      40.460  32.289  31.189  1.00  0.00    -0.248 NA
ATOM     56  C   UNL A   1      38.833  33.929  31.527  1.00  0.00     0.031 C 
ATOM     57  C   UNL A   1      44.549  32.453  32.916  1.00  0.00     0.029 A 
ATOM     58  C   UNL A   1      43.272  32.431  32.376  1.00  0.00     0.049 A 
ATOM     59  H   UNL A   1      42.338  30.929  31.225  1.00  0.00     0.167 HD
ATOM     60  C   UNL A   1      41.000  33.321  31.947  1.00  0.00     0.074 A 
ATOM     61  C   UNL A   1      39.963  34.319  32.099  1.00  0.00     0.031 C 
ATOM     62  C   UNL A   1      42.243  33.431  32.474  1.00  0.00     0.037 A 
BRANCH  49  63
ATOM     63  C   UNL A   1      45.914  28.607  31.314  1.00  0.00     0.057 A 
ATOM     64  C   UNL A   1      46.189  27.723  32.366  1.00  0.00     0.134 A 
ATOM     65  C   UNL A   1      46.937  28.847  30.390  1.00  0.00     0.134 A 
ATOM     66  F   UNL A   1      45.255  27.461  33.294  1.00  0.00    -0.206 F 
ATOM     67  C   UNL A   1      47.439  27.120  32.507  1.00  0.00     0.040 A 
ATOM     68  C   UNL A   1      48.184  28.229  30.503  1.00  0.00     0.040 A 
ATOM     69  F   UNL A   1      46.740  29.678  29.354  1.00  0.00    -0.206 F 
ATOM     70  C   UNL A   1      48.439  27.367  31.569  1.00  0.00     0.006 A 
ENDBRANCH  49  63
BRANCH  50  71
ATOM     71  C   UNL A   1      36.831  32.522  29.941  1.00  0.00     0.057 A 
ATOM     72  C   UNL A   1      36.572  33.446  28.922  1.00  0.00     0.134 A 
ATOM     73  C   UNL A   1      35.781  32.215  30.814  1.00  0.00     0.134 A 
ATOM     74  F   UNL A   1      37.543  33.796  28.066  1.00  0.00    -0.206 F 
ATOM     75  C   UNL A   1      35.330  34.071  28.796  1.00  0.00     0.040 A 
ATOM     76  C   UNL A   1      34.524  32.811  30.683  1.00  0.00     0.040 A 
ATOM     77  F   UNL A   1      35.961  31.333  31.807  1.00  0.00    -0.206 F 
ATOM     78  C   UNL A   1      34.301  33.751  29.679  1.00  0.00     0.006 A 
ENDBRANCH  50  71
BRANCH  62  79
ATOM     79  C   UNL A   1      42.578  34.702  33.194  1.00  0.00     0.057 A 
ATOM     80  C   UNL A   1      43.125  35.808  32.534  1.00  0.00     0.134 A 
ATOM     81  C   UNL A   1      42.291  34.835  34.559  1.00  0.00     0.134 A 
ATOM     82  F   UNL A   1      43.432  35.738  31.230  1.00  0.00    -0.206 F 
ATOM     83  C   UNL A   1      43.391  36.999  33.211  1.00  0.00     0.040 A 
ATOM     84  C   UNL A   1      42.530  36.028  35.241  1.00  0.00     0.040 A 
ATOM     85  F   UNL A   1      41.758  33.813  35.247  1.00  0.00    -0.206 F 
ATOM     86  C   UNL A   1      43.085  37.114  34.567  1.00  0.00     0.006 A 
ENDBRANCH  62  79
ENDBRANCH  36  37
ENDBRANCH  28  31
ENDBRANCH  26  27
ENDBRANCH  25  26
ENDBRANCH   1  25
TORSDOF 13
ENDMDL
MODEL 3
REMARK VINA RESULT:     -11.3      3.145      7.906
REMARK SMILES CCc1noc(C)c1C(=O)Nc1cc(Cl)ccc1C(=O)NCCCNC(=O)c1ccc(-c2c3nc(c(-c4c(F)cccc4F)c4ccc([nH]4)c(-c4c(F)cccc4F)c4nc(c(-c5c(F)cccc5F)c5ccc2[nH]5)C=C4)C=C3)cc1
REMARK SMILES IDX 22 1 21 2 19 3 20 4 18 6 12 7 13 8 14 9 17 10 15 11 16 12
REMARK SMILES IDX 11 13 9 14 10 15 8 17 3 18 4 19 5 20 6 21 7 22 2 23 1 24
REMARK SMILES IDX 23 25 24 26 25 27 26 28 27 30 28 31 29 32 81 33 30 34 80 35
REMARK SMILES IDX 31 36 32 37 33 38 74 39 34 40 79 41 73 42 75 43 35 44 78 45
REMARK SMILES IDX 72 46 71 47 36 49 62 50 45 51 61 52 46 53 49 54 60 55 76 56
REMARK SMILES IDX 47 57 48 58 59 60 77 61 50 62 37 63 38 64 43 65 39 66 40 67
REMARK SMILES IDX 42 68 44 69 41 70 63 71 64 72 69 73 65 74 66 75 68 76 70 77
REMARK SMILES IDX 67 78 51 79 52 80 57 81 53 82 54 83 56 84 58 85 55 86
REMARK H PARENT 21 5 11 16 25 29 75 48 49 59
REMARK Flexibility Score: inf
ROOT
ATOM      1  C   UNL A   1      34.842  24.388  25.884  1.00  0.00     0.118 C 
ENDROOT
BRANCH   1   2
ATOM      2  N   UNL A   1      33.614  24.054  26.568  1.00  0.00    -0.352 N 
ATOM      3  C   UNL A   1      32.367  24.619  26.611  1.00  0.00     0.253 C 
ATOM      4  O   UNL A   1      31.549  23.997  27.298  1.00  0.00    -0.269 OA
ATOM      5  H   UNL A   1      33.689  23.244  27.123  1.00  0.00     0.163 HD
BRANCH   3   6
ATOM      6  C   UNL A   1      31.909  25.898  25.966  1.00  0.00     0.063 A 
ATOM      7  C   UNL A   1      31.011  26.108  24.898  1.00  0.00     0.055 A 
ATOM      8  C   UNL A   1      30.649  27.415  24.513  1.00  0.00     0.047 A 
ATOM      9  C   UNL A   1      31.225  28.523  25.128  1.00  0.00     0.043 A 
ATOM     10  C   UNL A   1      32.501  27.052  26.537  1.00  0.00     0.017 A 
ATOM     11  Cl  UNL A   1      30.778  30.106  24.634  1.00  0.00    -0.084 Cl
ATOM     12  C   UNL A   1      32.172  28.346  26.122  1.00  0.00     0.021 A 
BRANCH   7  13
ATOM     13  N   UNL A   1      30.320  25.083  24.265  1.00  0.00    -0.321 N 
ATOM     14  C   UNL A   1      30.728  24.128  23.353  1.00  0.00     0.261 C 
ATOM     15  O   UNL A   1      29.804  23.500  22.827  1.00  0.00    -0.269 OA
ATOM     16  H   UNL A   1      29.368  25.026  24.510  1.00  0.00     0.170 HD
BRANCH  14  17
ATOM     17  C   UNL A   1      32.120  23.723  23.111  1.00  0.00     0.105 A 
ATOM     18  C   UNL A   1      33.064  24.547  22.380  1.00  0.00     0.096 A 
ATOM     19  N   UNL A   1      34.282  24.001  22.354  1.00  0.00    -0.084 NA
ATOM     20  O   UNL A   1      34.152  22.776  22.934  1.00  0.00    -0.361 OA
ATOM     21  C   UNL A   1      32.860  22.562  23.306  1.00  0.00     0.146 A 
ATOM     22  C   UNL A   1      32.670  21.167  23.747  1.00  0.00     0.092 C 
BRANCH  18  23
ATOM     23  C   UNL A   1      32.812  25.820  21.628  1.00  0.00     0.057 C 
ATOM     24  C   UNL A   1      33.495  27.053  22.216  1.00  0.00     0.011 C 
ENDBRANCH  18  23
ENDBRANCH  14  17
ENDBRANCH   7  13
ENDBRANCH   3   6
ENDBRANCH   1   2
BRANCH   1  25
ATOM     25  C   UNL A   1      36.014  23.447  26.120  1.00  0.00     0.042 C 
BRANCH  25  26
ATOM     26  C   UNL A   1      37.163  23.582  25.134  1.00  0.00     0.118 C 
BRANCH  26  27
ATOM     27  N   UNL A   1      38.342  22.792  25.468  1.00  0.00    -0.352 N 
ATOM     28  C   UNL A   1      39.470  23.077  26.202  1.00  0.00     0.251 C 
ATOM     29  H   UNL A   1      38.328  21.881  25.096  1.00  0.00     0.163 HD
ATOM     30  O   UNL A   1      40.368  22.239  26.263  1.00  0.00    -0.269 OA
BRANCH  28  31
ATOM     31  C   UNL A   1      39.653  24.384  26.876  1.00  0.00     0.039 A 
ATOM     32  C   UNL A   1      39.162  24.552  28.177  1.00  0.00     0.014 A 
ATOM     33  C   UNL A   1      40.270  25.457  26.244  1.00  0.00     0.014 A 
ATOM     34  C   UNL A   1      39.387  25.751  28.866  1.00  0.00     0.010 A 
ATOM     35  C   UNL A   1      40.608  26.596  26.968  1.00  0.00     0.010 A 
ATOM     36  C   UNL A   1      40.164  26.764  28.287  1.00  0.00    -0.014 A 
BRANCH  36  37
ATOM     37  C   UNL A   1      40.509  28.026  28.998  1.00  0.00     0.031 A 
ATOM     38  C   UNL A   1      41.844  28.149  29.687  1.00  0.00     0.074 A 
ATOM     39  C   UNL A   1      39.598  29.012  29.124  1.00  0.00     0.049 A 
ATOM     40  N   UNL A   1      42.255  29.039  30.555  1.00  0.00    -0.248 NA
ATOM     41  C   UNL A   1      42.836  27.098  29.395  1.00  0.00     0.031 C 
ATOM     42  C   UNL A   1      38.256  29.016  28.537  1.00  0.00     0.029 A 
ATOM     43  N   UNL A   1      39.658  30.199  29.812  1.00  0.00    -0.354 N 
ATOM     44  C   UNL A   1      43.528  28.634  30.938  1.00  0.00     0.074 A 
ATOM     45  C   UNL A   1      43.799  27.388  30.255  1.00  0.00     0.031 C 
ATOM     46  C   UNL A   1      37.629  30.155  28.873  1.00  0.00     0.029 A 
ATOM     47  C   UNL A   1      38.500  30.938  29.743  1.00  0.00     0.049 A 
ATOM     48  H   UNL A   1      40.456  30.494  30.307  1.00  0.00     0.167 HD
ATOM     49  C   UNL A   1      44.406  29.255  31.760  1.00  0.00     0.037 A 
ATOM     50  C   UNL A   1      38.172  32.103  30.332  1.00  0.00     0.037 A 
ATOM     51  C   UNL A   1      44.160  30.523  32.393  1.00  0.00     0.049 A 
ATOM     52  C   UNL A   1      39.168  32.778  31.236  1.00  0.00     0.074 A 
ATOM     53  C   UNL A   1      44.997  31.252  33.219  1.00  0.00     0.029 A 
ATOM     54  N   UNL A   1      42.997  31.262  32.245  1.00  0.00    -0.354 N 
ATOM     55  N   UNL A   1      40.373  32.389  31.577  1.00  0.00    -0.248 NA
ATOM     56  C   UNL A   1      38.760  34.056  31.837  1.00  0.00     0.031 C 
ATOM     57  C   UNL A   1      44.334  32.426  33.585  1.00  0.00     0.029 A 
ATOM     58  C   UNL A   1      43.098  32.443  32.958  1.00  0.00     0.049 A 
ATOM     59  H   UNL A   1      42.216  30.987  31.712  1.00  0.00     0.167 HD
ATOM     60  C   UNL A   1      40.880  33.392  32.393  1.00  0.00     0.074 A 
ATOM     61  C   UNL A   1      39.855  34.410  32.495  1.00  0.00     0.031 C 
ATOM     62  C   UNL A   1      42.085  33.464  33.007  1.00  0.00     0.037 A 
BRANCH  49  63
ATOM     63  C   UNL A   1      45.729  28.586  31.997  1.00  0.00     0.057 A 
ATOM     64  C   UNL A   1      45.910  27.672  33.044  1.00  0.00     0.134 A 
ATOM     65  C   UNL A   1      46.819  28.825  31.153  1.00  0.00     0.134 A 
ATOM     66  F   UNL A   1      44.908  27.409  33.897  1.00  0.00    -0.206 F 
ATOM     67  C   UNL A   1      47.135  27.039  33.257  1.00  0.00     0.040 A 
ATOM     68  C   UNL A   1      48.042  28.177  31.338  1.00  0.00     0.040 A 
ATOM     69  F   UNL A   1      46.712  29.683  30.127  1.00  0.00    -0.206 F 
ATOM     70  C   UNL A   1      48.203  27.286  32.398  1.00  0.00     0.006 A 
ENDBRANCH  49  63
BRANCH  50  71
ATOM     71  C   UNL A   1      36.845  32.727  30.086  1.00  0.00     0.057 A 
ATOM     72  C   UNL A   1      35.743  32.410  30.890  1.00  0.00     0.134 A 
ATOM     73  C   UNL A   1      36.633  33.614  29.025  1.00  0.00     0.134 A 
ATOM     74  F   UNL A   1      35.879  31.550  31.911  1.00  0.00    -0.206 F 
ATOM     75  C   UNL A   1      34.473  32.924  30.629  1.00  0.00     0.040 A 
ATOM     76  C   UNL A   1      35.373  34.159  28.768  1.00  0.00     0.040 A 
ATOM     77  F   UNL A   1      37.649  33.964  28.221  1.00  0.00    -0.206 F 
ATOM     78  C   UNL A   1      34.286  33.804  29.564  1.00  0.00     0.006 A 
ENDBRANCH  50  71
BRANCH  62  79
ATOM     79  C   UNL A   1      42.395  34.712  33.777  1.00  0.00     0.057 A 
ATOM     80  C   UNL A   1      42.920  35.853  33.162  1.00  0.00     0.134 A 
ATOM     81  C   UNL A   1      42.105  34.785  35.146  1.00  0.00     0.134 A 
ATOM     82  F   UNL A   1      43.229  35.841  31.856  1.00  0.00    -0.206 F 
ATOM     83  C   UNL A   1      43.162  37.022  33.884  1.00  0.00     0.040 A 
ATOM     84  C   UNL A   1      42.321  35.956  35.874  1.00  0.00     0.040 A 
ATOM     85  F   UNL A   1      41.591  33.728  35.792  1.00  0.00    -0.206 F 
ATOM     86  C   UNL A   1      42.854  37.078  35.244  1.00  0.00     0.006 A 
ENDBRANCH  62  79
ENDBRANCH  36  37
ENDBRANCH  28  31
ENDBRANCH  26  27
ENDBRANCH  25  26
ENDBRANCH   1  25
TORSDOF 13
ENDMDL
