MODEL 1
REMARK VINA RESULT:     -10.8      0.000      0.000
REMARK SMILES CC(C)c1c(C(=O)NCCCNC(=O)c2ccc(-c3c4nc(c(-c5c(F)cccc5F)c5ccc([nH]5)c(-c5c(F)cccc5F)c5nc(c(-c6c(F)cccc6F)c6ccc3[nH]6)C=C5)C=C4)cc2)cnn1CCC#N
REMARK SMILES IDX 9 1 8 2 6 3 7 4 5 6 4 7 71 8 69 9 70 10 2 11 1 12 3 13 72 14
REMARK SMILES IDX 73 15 74 16 75 17 10 18 11 19 12 20 13 21 14 23 15 24 16 25
REMARK SMILES IDX 68 26 17 27 67 28 18 29 19 30 20 31 61 32 21 33 66 34 60 35
REMARK SMILES IDX 62 36 22 37 65 38 59 39 58 40 23 42 49 43 32 44 48 45 33 46
REMARK SMILES IDX 36 47 47 48 63 49 34 50 35 51 46 53 64 54 37 55 24 56 25 57
REMARK SMILES IDX 30 58 26 59 27 60 29 61 31 62 28 63 50 64 51 65 56 66 52 67
REMARK SMILES IDX 53 68 55 69 57 70 54 71 38 72 39 73 44 74 40 75 41 76 43 77
REMARK SMILES IDX 45 78 42 79
REMARK H PARENT 8 5 12 22 62 41 36 52
REMARK Flexibility Score: inf
ROOT
ATOM      1  C   UNL A   1      33.272  28.782  27.373  1.00  0.00     0.118 C 
ENDROOT
BRANCH   1   2
ATOM      2  N   UNL A   1      33.505  27.620  26.532  1.00  0.00    -0.352 N 
ATOM      3  C   UNL A   1      32.950  27.134  25.377  1.00  0.00     0.254 C 
ATOM      4  O   UNL A   1      33.461  26.089  24.976  1.00  0.00    -0.269 OA
ATOM      5  H   UNL A   1      34.233  27.050  26.870  1.00  0.00     0.163 HD
BRANCH   3   6
ATOM      6  C   UNL A   1      31.859  27.806  24.673  1.00  0.00     0.081 A 
ATOM      7  C   UNL A   1      30.580  27.303  24.343  1.00  0.00     0.054 A 
ATOM      8  N   UNL A   1      29.976  28.310  23.607  1.00  0.00    -0.267 N 
ATOM      9  C   UNL A   1      31.820  29.127  24.179  1.00  0.00     0.149 A 
ATOM     10  N   UNL A   1      30.726  29.405  23.492  1.00  0.00    -0.180 NA
BRANCH   7  11
ATOM     11  C   UNL A   1      29.856  25.988  24.590  1.00  0.00     0.032 C 
ATOM     12  C   UNL A   1      30.343  24.907  23.623  1.00  0.00     0.014 C 
ATOM     13  C   UNL A   1      29.863  25.460  26.021  1.00  0.00     0.014 C 
ENDBRANCH   7  11
BRANCH   8  14
ATOM     14  C   UNL A   1      28.676  28.362  22.954  1.00  0.00     0.159 C 
BRANCH  14  15
ATOM     15  C   UNL A   1      28.445  29.674  22.207  1.00  0.00     0.144 C 
BRANCH  15  16
ATOM     16  C   UNL A   1      27.732  30.686  23.012  1.00  0.00     0.064 C 
ATOM     17  N   UNL A   1      27.164  31.506  23.593  1.00  0.00    -0.198 NA
ENDBRANCH  15  16
ENDBRANCH  14  15
ENDBRANCH   8  14
ENDBRANCH   3   6
ENDBRANCH   1   2
BRANCH   1  18
ATOM     18  C   UNL A   1      34.188  29.952  26.998  1.00  0.00     0.042 C 
BRANCH  18  19
ATOM     19  C   UNL A   1      35.593  29.762  27.559  1.00  0.00     0.118 C 
BRANCH  19  20
ATOM     20  N   UNL A   1      35.659  29.990  29.004  1.00  0.00    -0.352 N 
ATOM     21  C   UNL A   1      36.574  29.500  29.913  1.00  0.00     0.251 C 
ATOM     22  H   UNL A   1      34.958  30.571  29.377  1.00  0.00     0.163 HD
ATOM     23  O   UNL A   1      36.313  29.485  31.111  1.00  0.00    -0.269 OA
BRANCH  21  24
ATOM     24  C   UNL A   1      37.881  29.016  29.428  1.00  0.00     0.039 A 
ATOM     25  C   UNL A   1      38.531  29.627  28.354  1.00  0.00     0.014 A 
ATOM     26  C   UNL A   1      38.459  27.922  30.071  1.00  0.00     0.014 A 
ATOM     27  C   UNL A   1      39.783  29.147  27.974  1.00  0.00     0.010 A 
ATOM     28  C   UNL A   1      39.761  27.571  29.819  1.00  0.00     0.010 A 
ATOM     29  C   UNL A   1      40.403  28.127  28.727  1.00  0.00    -0.014 A 
BRANCH  29  30
ATOM     30  C   UNL A   1      41.821  27.815  28.553  1.00  0.00     0.031 A 
ATOM     31  C   UNL A   1      41.972  26.572  27.756  1.00  0.00     0.074 A 
ATOM     32  C   UNL A   1      42.850  28.629  28.895  1.00  0.00     0.049 A 
ATOM     33  N   UNL A   1      42.214  25.398  28.233  1.00  0.00    -0.248 NA
ATOM     34  C   UNL A   1      41.533  26.551  26.348  1.00  0.00     0.031 C 
ATOM     35  C   UNL A   1      42.778  29.986  29.450  1.00  0.00     0.029 A 
ATOM     36  N   UNL A   1      44.204  28.446  28.759  1.00  0.00    -0.354 N 
ATOM     37  C   UNL A   1      42.296  24.561  27.126  1.00  0.00     0.074 A 
ATOM     38  C   UNL A   1      41.613  25.246  26.066  1.00  0.00     0.031 C 
ATOM     39  C   UNL A   1      43.994  30.581  29.393  1.00  0.00     0.029 A 
ATOM     40  C   UNL A   1      44.973  29.609  28.945  1.00  0.00     0.049 A 
ATOM     41  H   UNL A   1      44.604  27.572  28.549  1.00  0.00     0.167 HD
ATOM     42  C   UNL A   1      43.271  23.611  27.104  1.00  0.00     0.037 A 
ATOM     43  C   UNL A   1      46.318  29.746  28.766  1.00  0.00     0.037 A 
ATOM     44  C   UNL A   1      43.797  23.427  28.443  1.00  0.00     0.049 A 
ATOM     45  C   UNL A   1      46.894  28.389  28.868  1.00  0.00     0.074 A 
ATOM     46  C   UNL A   1      43.317  23.016  29.670  1.00  0.00     0.029 A 
ATOM     47  N   UNL A   1      44.904  24.195  28.684  1.00  0.00    -0.354 N 
ATOM     48  N   UNL A   1      46.927  27.707  29.976  1.00  0.00    -0.248 NA
ATOM     49  C   UNL A   1      47.034  27.619  27.645  1.00  0.00     0.031 C 
ATOM     50  C   UNL A   1      44.039  23.775  30.644  1.00  0.00     0.029 A 
ATOM     51  C   UNL A   1      45.004  24.545  29.996  1.00  0.00     0.049 A 
ATOM     52  H   UNL A   1      45.551  24.463  27.991  1.00  0.00     0.167 HD
ATOM     53  C   UNL A   1      46.596  26.422  29.588  1.00  0.00     0.074 A 
ATOM     54  C   UNL A   1      46.825  26.397  28.140  1.00  0.00     0.031 C 
ATOM     55  C   UNL A   1      45.858  25.630  30.423  1.00  0.00     0.037 A 
BRANCH  42  56
ATOM     56  C   UNL A   1      44.159  23.343  25.891  1.00  0.00     0.057 A 
ATOM     57  C   UNL A   1      44.434  22.002  25.555  1.00  0.00     0.134 A 
ATOM     58  C   UNL A   1      45.009  24.286  25.275  1.00  0.00     0.134 A 
ATOM     59  F   UNL A   1      43.717  20.999  26.086  1.00  0.00    -0.206 F 
ATOM     60  C   UNL A   1      45.519  21.630  24.749  1.00  0.00     0.040 A 
ATOM     61  C   UNL A   1      46.068  23.928  24.433  1.00  0.00     0.040 A 
ATOM     62  F   UNL A   1      44.945  25.598  25.518  1.00  0.00    -0.206 F 
ATOM     63  C   UNL A   1      46.346  22.595  24.191  1.00  0.00     0.006 A 
ENDBRANCH  42  56
BRANCH  43  64
ATOM     64  C   UNL A   1      47.138  30.873  28.238  1.00  0.00     0.057 A 
ATOM     65  C   UNL A   1      46.877  31.450  26.978  1.00  0.00     0.134 A 
ATOM     66  C   UNL A   1      47.964  31.626  29.086  1.00  0.00     0.134 A 
ATOM     67  F   UNL A   1      46.069  30.839  26.100  1.00  0.00    -0.206 F 
ATOM     68  C   UNL A   1      47.368  32.714  26.609  1.00  0.00     0.040 A 
ATOM     69  C   UNL A   1      48.459  32.889  28.730  1.00  0.00     0.040 A 
ATOM     70  F   UNL A   1      48.235  31.206  30.330  1.00  0.00    -0.206 F 
ATOM     71  C   UNL A   1      48.148  33.447  27.495  1.00  0.00     0.006 A 
ENDBRANCH  43  64
BRANCH  55  72
ATOM     72  C   UNL A   1      45.828  25.989  31.881  1.00  0.00     0.057 A 
ATOM     73  C   UNL A   1      46.857  25.744  32.803  1.00  0.00     0.134 A 
ATOM     74  C   UNL A   1      44.729  26.726  32.338  1.00  0.00     0.134 A 
ATOM     75  F   UNL A   1      47.982  25.114  32.440  1.00  0.00    -0.206 F 
ATOM     76  C   UNL A   1      46.773  26.188  34.128  1.00  0.00     0.040 A 
ATOM     77  C   UNL A   1      44.650  27.204  33.646  1.00  0.00     0.040 A 
ATOM     78  F   UNL A   1      43.727  27.031  31.498  1.00  0.00    -0.206 F 
ATOM     79  C   UNL A   1      45.670  26.927  34.550  1.00  0.00     0.006 A 
ENDBRANCH  55  72
ENDBRANCH  29  30
ENDBRANCH  21  24
ENDBRANCH  19  20
ENDBRANCH  18  19
ENDBRANCH   1  18
TORSDOF 14
ENDMDL
MODEL 2
REMARK VINA RESULT:     -10.8      3.993      5.843
REMARK SMILES CC(C)c1c(C(=O)NCCCNC(=O)c2ccc(-c3c4nc(c(-c5c(F)cccc5F)c5ccc([nH]5)c(-c5c(F)cccc5F)c5nc(c(-c6c(F)cccc6F)c6ccc3[nH]6)C=C5)C=C4)cc2)cnn1CCC#N
REMARK SMILES IDX 9 1 8 2 6 3 7 4 5 6 4 7 71 8 69 9 70 10 2 11 1 12 3 13 72 14
REMARK SMILES IDX 73 15 74 16 75 17 10 18 11 19 12 20 13 21 14 23 15 24 16 25
REMARK SMILES IDX 68 26 17 27 67 28 18 29 19 30 20 31 61 32 21 33 66 34 60 35
REMARK SMILES IDX 62 36 22 37 65 38 59 39 58 40 23 42 49 43 32 44 48 45 33 46
REMARK SMILES IDX 36 47 47 48 63 49 34 50 35 51 46 53 64 54 37 55 24 56 25 57
REMARK SMILES IDX 30 58 26 59 27 60 29 61 31 62 28 63 50 64 51 65 56 66 52 67
REMARK SMILES IDX 53 68 55 69 57 70 54 71 38 72 39 73 44 74 40 75 41 76 43 77
REMARK SMILES IDX 45 78 42 79
REMARK H PARENT 8 5 12 22 62 41 36 52
REMARK Flexibility Score: inf
ROOT
ATOM      1  C   UNL A   1      31.783  30.106  26.188  1.00  0.00     0.118 C 
ENDROOT
BRANCH   1   2
ATOM      2  N   UNL A   1      32.450  29.993  24.902  1.00  0.00    -0.352 N 
ATOM      3  C   UNL A   1      33.045  28.974  24.205  1.00  0.00     0.254 C 
ATOM      4  O   UNL A   1      33.497  29.312  23.111  1.00  0.00    -0.269 OA
ATOM      5  H   UNL A   1      32.480  30.850  24.418  1.00  0.00     0.163 HD
BRANCH   3   6
ATOM      6  C   UNL A   1      33.120  27.603  24.707  1.00  0.00     0.081 A 
ATOM      7  C   UNL A   1      32.593  26.424  24.134  1.00  0.00     0.054 A 
ATOM      8  N   UNL A   1      32.869  25.423  25.053  1.00  0.00    -0.267 N 
ATOM      9  C   UNL A   1      33.761  27.134  25.873  1.00  0.00     0.149 A 
ATOM     10  N   UNL A   1      33.559  25.849  26.109  1.00  0.00    -0.180 NA
BRANCH   7  11
ATOM     11  C   UNL A   1      31.829  26.109  22.857  1.00  0.00     0.032 C 
ATOM     12  C   UNL A   1      30.658  27.077  22.670  1.00  0.00     0.014 C 
ATOM     13  C   UNL A   1      32.648  26.015  21.574  1.00  0.00     0.014 C 
ENDBRANCH   7  11
BRANCH   8  14
ATOM     14  C   UNL A   1      32.533  24.007  25.046  1.00  0.00     0.159 C 
BRANCH  14  15
ATOM     15  C   UNL A   1      32.343  23.440  26.451  1.00  0.00     0.144 C 
BRANCH  15  16
ATOM     16  C   UNL A   1      30.928  23.379  26.869  1.00  0.00     0.064 C 
ATOM     17  N   UNL A   1      29.839  23.337  27.251  1.00  0.00    -0.198 NA
ENDBRANCH  15  16
ENDBRANCH  14  15
ENDBRANCH   8  14
ENDBRANCH   3   6
ENDBRANCH   1   2
BRANCH   1  18
ATOM     18  C   UNL A   1      31.494  31.565  26.556  1.00  0.00     0.042 C 
BRANCH  18  19
ATOM     19  C   UNL A   1      32.749  32.274  27.051  1.00  0.00     0.118 C 
BRANCH  19  20
ATOM     20  N   UNL A   1      32.462  33.584  27.640  1.00  0.00    -0.352 N 
ATOM     21  C   UNL A   1      33.083  34.206  28.704  1.00  0.00     0.251 C 
ATOM     22  H   UNL A   1      31.728  34.089  27.221  1.00  0.00     0.163 HD
ATOM     23  O   UNL A   1      32.526  35.122  29.300  1.00  0.00    -0.269 OA
BRANCH  21  24
ATOM     24  C   UNL A   1      34.435  33.770  29.102  1.00  0.00     0.039 A 
ATOM     25  C   UNL A   1      34.633  32.901  30.177  1.00  0.00     0.014 A 
ATOM     26  C   UNL A   1      35.524  34.251  28.376  1.00  0.00     0.014 A 
ATOM     27  C   UNL A   1      35.933  32.494  30.472  1.00  0.00     0.010 A 
ATOM     28  C   UNL A   1      36.772  33.711  28.549  1.00  0.00     0.010 A 
ATOM     29  C   UNL A   1      37.000  32.890  29.638  1.00  0.00    -0.014 A 
BRANCH  29  30
ATOM     30  C   UNL A   1      38.310  32.246  29.730  1.00  0.00     0.031 A 
ATOM     31  C   UNL A   1      38.216  30.838  29.270  1.00  0.00     0.074 A 
ATOM     32  C   UNL A   1      39.477  32.881  30.003  1.00  0.00     0.049 A 
ATOM     33  N   UNL A   1      38.133  29.802  30.036  1.00  0.00    -0.248 NA
ATOM     34  C   UNL A   1      37.888  30.550  27.861  1.00  0.00     0.031 C 
ATOM     35  C   UNL A   1      39.693  34.318  30.212  1.00  0.00     0.029 A 
ATOM     36  N   UNL A   1      40.754  32.383  30.092  1.00  0.00    -0.354 N 
ATOM     37  C   UNL A   1      38.092  28.712  29.175  1.00  0.00     0.074 A 
ATOM     38  C   UNL A   1      37.673  29.230  27.904  1.00  0.00     0.031 C 
ATOM     39  C   UNL A   1      41.016  34.602  30.178  1.00  0.00     0.029 A 
ATOM     40  C   UNL A   1      41.764  33.361  30.101  1.00  0.00     0.049 A 
ATOM     41  H   UNL A   1      40.946  31.419  30.146  1.00  0.00     0.167 HD
ATOM     42  C   UNL A   1      38.809  27.601  29.503  1.00  0.00     0.037 A 
ATOM     43  C   UNL A   1      43.111  33.156  30.071  1.00  0.00     0.037 A 
ATOM     44  C   UNL A   1      39.176  27.660  30.905  1.00  0.00     0.049 A 
ATOM     45  C   UNL A   1      43.335  31.780  30.562  1.00  0.00     0.074 A 
ATOM     46  C   UNL A   1      38.523  27.691  32.120  1.00  0.00     0.029 A 
ATOM     47  N   UNL A   1      40.415  28.208  31.103  1.00  0.00    -0.354 N 
ATOM     48  N   UNL A   1      43.122  31.415  31.793  1.00  0.00    -0.248 NA
ATOM     49  C   UNL A   1      43.375  30.710  29.581  1.00  0.00     0.031 C 
ATOM     50  C   UNL A   1      39.333  28.501  32.976  1.00  0.00     0.029 A 
ATOM     51  C   UNL A   1      40.500  28.854  32.299  1.00  0.00     0.049 A 
ATOM     52  H   UNL A   1      41.156  28.143  30.457  1.00  0.00     0.167 HD
ATOM     53  C   UNL A   1      42.522  30.176  31.675  1.00  0.00     0.074 A 
ATOM     54  C   UNL A   1      42.843  29.731  30.316  1.00  0.00     0.031 C 
ATOM     55  C   UNL A   1      41.556  29.802  32.568  1.00  0.00     0.037 A 
BRANCH  42  56
ATOM     56  C   UNL A   1      39.693  26.846  28.513  1.00  0.00     0.057 A 
ATOM     57  C   UNL A   1      40.576  27.595  27.708  1.00  0.00     0.134 A 
ATOM     58  C   UNL A   1      39.482  25.522  28.073  1.00  0.00     0.134 A 
ATOM     59  F   UNL A   1      40.849  28.877  27.998  1.00  0.00    -0.206 F 
ATOM     60  C   UNL A   1      41.127  27.096  26.520  1.00  0.00     0.040 A 
ATOM     61  C   UNL A   1      40.064  25.000  26.912  1.00  0.00     0.040 A 
ATOM     62  F   UNL A   1      38.633  24.680  28.666  1.00  0.00    -0.206 F 
ATOM     63  C   UNL A   1      40.865  25.795  26.114  1.00  0.00     0.006 A 
ENDBRANCH  42  56
BRANCH  43  64
ATOM     64  C   UNL A   1      44.214  33.906  29.408  1.00  0.00     0.057 A 
ATOM     65  C   UNL A   1      44.243  34.096  28.010  1.00  0.00     0.134 A 
ATOM     66  C   UNL A   1      45.072  34.737  30.145  1.00  0.00     0.134 A 
ATOM     67  F   UNL A   1      43.437  33.386  27.207  1.00  0.00    -0.206 F 
ATOM     68  C   UNL A   1      45.037  35.079  27.396  1.00  0.00     0.040 A 
ATOM     69  C   UNL A   1      45.869  35.722  29.544  1.00  0.00     0.040 A 
ATOM     70  F   UNL A   1      45.089  34.687  31.485  1.00  0.00    -0.206 F 
ATOM     71  C   UNL A   1      45.841  35.910  28.167  1.00  0.00     0.006 A 
ENDBRANCH  43  64
BRANCH  55  72
ATOM     72  C   UNL A   1      41.506  30.522  33.886  1.00  0.00     0.057 A 
ATOM     73  C   UNL A   1      40.712  31.642  34.174  1.00  0.00     0.134 A 
ATOM     74  C   UNL A   1      42.229  29.967  34.948  1.00  0.00     0.134 A 
ATOM     75  F   UNL A   1      39.926  32.197  33.241  1.00  0.00    -0.206 F 
ATOM     76  C   UNL A   1      40.670  32.199  35.458  1.00  0.00     0.040 A 
ATOM     77  C   UNL A   1      42.168  30.491  36.239  1.00  0.00     0.040 A 
ATOM     78  F   UNL A   1      42.978  28.870  34.752  1.00  0.00    -0.206 F 
ATOM     79  C   UNL A   1      41.394  31.618  36.496  1.00  0.00     0.006 A 
ENDBRANCH  55  72
ENDBRANCH  29  30
ENDBRANCH  21  24
ENDBRANCH  19  20
ENDBRANCH  18  19
ENDBRANCH   1  18
TORSDOF 14
ENDMDL
MODEL 3
REMARK VINA RESULT:     -10.7      2.426      6.919
REMARK SMILES CC(C)c1c(C(=O)NCCCNC(=O)c2ccc(-c3c4nc(c(-c5c(F)cccc5F)c5ccc([nH]5)c(-c5c(F)cccc5F)c5nc(c(-c6c(F)cccc6F)c6ccc3[nH]6)C=C5)C=C4)cc2)cnn1CCC#N
REMARK SMILES IDX 9 1 8 2 6 3 7 4 5 6 4 7 71 8 69 9 70 10 2 11 1 12 3 13 72 14
REMARK SMILES IDX 73 15 74 16 75 17 10 18 11 19 12 20 13 21 14 23 15 24 16 25
REMARK SMILES IDX 68 26 17 27 67 28 18 29 19 30 20 31 61 32 21 33 66 34 60 35
REMARK SMILES IDX 62 36 22 37 65 38 59 39 58 40 23 42 49 43 32 44 48 45 33 46
REMARK SMILES IDX 36 47 47 48 63 49 34 50 35 51 46 53 64 54 37 55 24 56 25 57
REMARK SMILES IDX 30 58 26 59 27 60 29 61 31 62 28 63 50 64 51 65 56 66 52 67
REMARK SMILES IDX 53 68 55 69 57 70 54 71 38 72 39 73 44 74 40 75 41 76 43 77
REMARK SMILES IDX 45 78 42 79
REMARK H PARENT 8 5 12 22 62 41 36 52
REMARK Flexibility Score: inf
ROOT
ATOM      1  C   UNL A   1      32.028  29.943  25.723  1.00  0.00     0.118 C 
ENDROOT
BRANCH   1   2
ATOM      2  N   UNL A   1      33.030  29.613  24.724  1.00  0.00    -0.352 N 
ATOM      3  C   UNL A   1      33.535  28.449  24.205  1.00  0.00     0.254 C 
ATOM      4  O   UNL A   1      34.397  28.617  23.343  1.00  0.00    -0.269 OA
ATOM      5  H   UNL A   1      33.444  30.413  24.327  1.00  0.00     0.163 HD
BRANCH   3   6
ATOM      6  C   UNL A   1      33.077  27.125  24.624  1.00  0.00     0.081 A 
ATOM      7  C   UNL A   1      32.214  26.235  23.946  1.00  0.00     0.054 A 
ATOM      8  N   UNL A   1      32.040  25.170  24.816  1.00  0.00    -0.267 N 
ATOM      9  C   UNL A   1      33.411  26.416  25.797  1.00  0.00     0.149 A 
ATOM     10  N   UNL A   1      32.747  25.282  25.939  1.00  0.00    -0.180 NA
BRANCH   7  11
ATOM     11  C   UNL A   1      31.494  26.262  22.606  1.00  0.00     0.032 C 
ATOM     12  C   UNL A   1      30.694  27.556  22.442  1.00  0.00     0.014 C 
ATOM     13  C   UNL A   1      32.346  26.005  21.367  1.00  0.00     0.014 C 
ENDBRANCH   7  11
BRANCH   8  14
ATOM     14  C   UNL A   1      31.224  23.970  24.699  1.00  0.00     0.159 C 
BRANCH  14  15
ATOM     15  C   UNL A   1      31.443  22.995  25.853  1.00  0.00     0.144 C 
BRANCH  15  16
ATOM     16  C   UNL A   1      30.343  23.000  26.839  1.00  0.00     0.064 C 
ATOM     17  N   UNL A   1      29.447  23.005  27.566  1.00  0.00    -0.198 NA
ENDBRANCH  15  16
ENDBRANCH  14  15
ENDBRANCH   8  14
ENDBRANCH   3   6
ENDBRANCH   1   2
BRANCH   1  18
ATOM     18  C   UNL A   1      32.608  29.929  27.141  1.00  0.00     0.042 C 
BRANCH  18  19
ATOM     19  C   UNL A   1      33.882  30.761  27.230  1.00  0.00     0.118 C 
BRANCH  19  20
ATOM     20  N   UNL A   1      33.848  31.729  28.329  1.00  0.00    -0.352 N 
ATOM     21  C   UNL A   1      34.726  31.866  29.384  1.00  0.00     0.251 C 
ATOM     22  H   UNL A   1      33.099  32.367  28.313  1.00  0.00     0.163 HD
ATOM     23  O   UNL A   1      34.392  32.473  30.396  1.00  0.00    -0.269 OA
BRANCH  21  24
ATOM     24  C   UNL A   1      36.081  31.294  29.271  1.00  0.00     0.039 A 
ATOM     25  C   UNL A   1      37.217  32.106  29.263  1.00  0.00     0.014 A 
ATOM     26  C   UNL A   1      36.207  29.909  29.170  1.00  0.00     0.014 A 
ATOM     27  C   UNL A   1      38.469  31.499  29.197  1.00  0.00     0.010 A 
ATOM     28  C   UNL A   1      37.433  29.307  29.291  1.00  0.00     0.010 A 
ATOM     29  C   UNL A   1      38.571  30.092  29.232  1.00  0.00    -0.014 A 
BRANCH  29  30
ATOM     30  C   UNL A   1      39.853  29.432  29.473  1.00  0.00     0.031 A 
ATOM     31  C   UNL A   1      40.160  29.439  30.925  1.00  0.00     0.074 A 
ATOM     32  C   UNL A   1      40.566  28.743  28.548  1.00  0.00     0.049 A 
ATOM     33  N   UNL A   1      40.960  30.259  31.520  1.00  0.00    -0.248 NA
ATOM     34  C   UNL A   1      39.304  28.681  31.857  1.00  0.00     0.031 C 
ATOM     35  C   UNL A   1      40.202  28.469  27.153  1.00  0.00     0.029 A 
ATOM     36  N   UNL A   1      41.759  28.074  28.670  1.00  0.00    -0.354 N 
ATOM     37  C   UNL A   1      40.955  29.874  32.855  1.00  0.00     0.074 A 
ATOM     38  C   UNL A   1      39.751  29.116  33.040  1.00  0.00     0.031 C 
ATOM     39  C   UNL A   1      41.020  27.522  26.633  1.00  0.00     0.029 A 
ATOM     40  C   UNL A   1      42.067  27.226  27.592  1.00  0.00     0.049 A 
ATOM     41  H   UNL A   1      42.351  28.180  29.450  1.00  0.00     0.167 HD
ATOM     42  C   UNL A   1      42.137  29.867  33.532  1.00  0.00     0.037 A 
ATOM     43  C   UNL A   1      43.120  26.365  27.494  1.00  0.00     0.037 A 
ATOM     44  C   UNL A   1      43.119  30.640  32.796  1.00  0.00     0.049 A 
ATOM     45  C   UNL A   1      44.146  26.852  28.439  1.00  0.00     0.074 A 
ATOM     46  C   UNL A   1      43.274  31.948  32.385  1.00  0.00     0.029 A 
ATOM     47  N   UNL A   1      43.882  29.867  31.963  1.00  0.00    -0.354 N 
ATOM     48  N   UNL A   1      44.804  27.963  28.273  1.00  0.00    -0.248 NA
ATOM     49  C   UNL A   1      44.127  26.323  29.791  1.00  0.00     0.031 C 
ATOM     50  C   UNL A   1      43.958  31.883  31.131  1.00  0.00     0.029 A 
ATOM     51  C   UNL A   1      44.292  30.556  30.863  1.00  0.00     0.049 A 
ATOM     52  H   UNL A   1      44.107  28.924  32.139  1.00  0.00     0.167 HD
ATOM     53  C   UNL A   1      44.850  28.516  29.539  1.00  0.00     0.074 A 
ATOM     54  C   UNL A   1      44.560  27.403  30.446  1.00  0.00     0.031 C 
ATOM     55  C   UNL A   1      44.785  29.874  29.688  1.00  0.00     0.037 A 
BRANCH  42  56
ATOM     56  C   UNL A   1      42.587  28.717  34.430  1.00  0.00     0.057 A 
ATOM     57  C   UNL A   1      43.111  29.034  35.700  1.00  0.00     0.134 A 
ATOM     58  C   UNL A   1      42.852  27.399  34.000  1.00  0.00     0.134 A 
ATOM     59  F   UNL A   1      42.951  30.260  36.222  1.00  0.00    -0.206 F 
ATOM     60  C   UNL A   1      43.907  28.145  36.434  1.00  0.00     0.040 A 
ATOM     61  C   UNL A   1      43.609  26.489  34.746  1.00  0.00     0.040 A 
ATOM     62  F   UNL A   1      42.493  26.934  32.802  1.00  0.00    -0.206 F 
ATOM     63  C   UNL A   1      44.166  26.869  35.954  1.00  0.00     0.006 A 
ENDBRANCH  42  56
BRANCH  43  64
ATOM     64  C   UNL A   1      43.240  25.010  26.886  1.00  0.00     0.057 A 
ATOM     65  C   UNL A   1      42.538  23.902  27.404  1.00  0.00     0.134 A 
ATOM     66  C   UNL A   1      43.767  24.840  25.597  1.00  0.00     0.134 A 
ATOM     67  F   UNL A   1      41.957  23.965  28.611  1.00  0.00    -0.206 F 
ATOM     68  C   UNL A   1      42.334  22.724  26.667  1.00  0.00     0.040 A 
ATOM     69  C   UNL A   1      43.571  23.668  24.851  1.00  0.00     0.040 A 
ATOM     70  F   UNL A   1      44.405  25.843  24.978  1.00  0.00    -0.206 F 
ATOM     71  C   UNL A   1      42.837  22.611  25.376  1.00  0.00     0.006 A 
ENDBRANCH  43  64
BRANCH  55  72
ATOM     72  C   UNL A   1      45.129  30.726  28.500  1.00  0.00     0.057 A 
ATOM     73  C   UNL A   1      44.232  31.136  27.503  1.00  0.00     0.134 A 
ATOM     74  C   UNL A   1      46.427  31.244  28.436  1.00  0.00     0.134 A 
ATOM     75  F   UNL A   1      42.948  30.754  27.522  1.00  0.00    -0.206 F 
ATOM     76  C   UNL A   1      44.626  31.998  26.472  1.00  0.00     0.040 A 
ATOM     77  C   UNL A   1      46.823  32.132  27.436  1.00  0.00     0.040 A 
ATOM     78  F   UNL A   1      47.327  30.926  29.381  1.00  0.00    -0.206 F 
ATOM     79  C   UNL A   1      45.923  32.504  26.442  1.00  0.00     0.006 A 
ENDBRANCH  55  72
ENDBRANCH  29  30
ENDBRANCH  21  24
ENDBRANCH  19  20
ENDBRANCH  18  19
ENDBRANCH   1  18
TORSDOF 14
ENDMDL
