MODEL 1
REMARK VINA RESULT:     -10.2      0.000      0.000
REMARK SMILES CS(=O)(=O)c1ccc(C2=NN(c3ccc(C(=O)NCCCNC(=O)c4ccc(-c5c6nc(c(-c7c(F)cccc7F)c7ccc([nH]7)c(-c7c(F)cccc7F)c7nc(c(-c8c(F)cccc8F)c8ccc5[nH]8)C=C7)C=C6)cc4)cc3)[C@H](c3cccs3)C2)cc1
REMARK SMILES IDX 19 1 18 2 16 3 17 4 15 6 12 7 13 8 80 9 14 10 79 11 11 12
REMARK SMILES IDX 9 13 10 14 87 15 81 16 8 17 5 18 6 19 89 20 7 21 88 22 2 23
REMARK SMILES IDX 1 24 3 25 4 26 82 27 83 28 86 29 84 30 85 31 20 32 21 33
REMARK SMILES IDX 22 34 23 35 24 37 25 38 26 39 78 40 27 41 77 42 28 43 29 44
REMARK SMILES IDX 30 45 71 46 31 47 76 48 70 49 72 50 32 51 75 52 69 53 68 54
REMARK SMILES IDX 33 56 59 57 42 58 58 59 43 60 46 61 57 62 73 63 44 64 45 65
REMARK SMILES IDX 56 67 74 68 47 69 34 70 35 71 40 72 36 73 37 74 39 75 41 76
REMARK SMILES IDX 38 77 60 78 61 79 66 80 62 81 63 82 65 83 67 84 64 85 48 86
REMARK SMILES IDX 49 87 54 88 50 89 51 90 53 91 55 92 52 93
REMARK H PARENT 18 5 22 36 72 55 46 66
REMARK Flexibility Score: inf
ROOT
ATOM      1  C   UNL A   1      34.989  34.085  30.204  1.00  0.00     0.118 C 
ENDROOT
BRANCH   1   2
ATOM      2  N   UNL A   1      34.047  33.727  31.252  1.00  0.00    -0.352 N 
ATOM      3  C   UNL A   1      34.233  33.118  32.469  1.00  0.00     0.251 C 
ATOM      4  O   UNL A   1      33.273  33.045  33.233  1.00  0.00    -0.269 OA
ATOM      5  H   UNL A   1      33.112  33.963  31.055  1.00  0.00     0.163 HD
BRANCH   3   6
ATOM      6  C   UNL A   1      35.553  32.594  32.904  1.00  0.00     0.039 A 
ATOM      7  C   UNL A   1      38.065  31.700  33.823  1.00  0.00     0.060 A 
ATOM      8  C   UNL A   1      37.343  32.653  34.548  1.00  0.00     0.029 A 
ATOM      9  C   UNL A   1      37.491  31.163  32.669  1.00  0.00     0.029 A 
ATOM     10  C   UNL A   1      36.100  33.103  34.091  1.00  0.00     0.016 A 
ATOM     11  C   UNL A   1      36.238  31.586  32.226  1.00  0.00     0.016 A 
BRANCH   7  12
ATOM     12  N   UNL A   1      39.328  31.289  34.214  1.00  0.00    -0.257 N 
ATOM     13  C   UNL A   1      40.824  29.837  34.571  1.00  0.00     0.071 C 
ATOM     14  N   UNL A   1      39.829  30.109  33.787  1.00  0.00    -0.176 NA
ATOM     15  C   UNL A   1      41.040  30.780  35.723  1.00  0.00     0.091 C 
ATOM     16  C   UNL A   1      40.003  31.859  35.383  1.00  0.00     0.154 C 
BRANCH  13  17
ATOM     17  C   UNL A   1      41.709  28.689  34.342  1.00  0.00    -0.002 A 
ATOM     18  C   UNL A   1      43.338  26.471  33.980  1.00  0.00     0.067 A 
ATOM     19  C   UNL A   1      42.469  26.513  35.074  1.00  0.00     0.021 A 
ATOM     20  C   UNL A   1      43.398  27.534  33.069  1.00  0.00     0.021 A 
ATOM     21  C   UNL A   1      41.666  27.637  35.264  1.00  0.00     0.011 A 
ATOM     22  C   UNL A   1      42.570  28.646  33.244  1.00  0.00     0.011 A 
BRANCH  18  23
ATOM     23  S   UNL A   1      44.374  25.047  33.728  1.00  0.00     0.175 S 
ATOM     24  C   UNL A   1      43.446  23.671  34.352  1.00  0.00     0.163 C 
ATOM     25  O   UNL A   1      45.535  25.203  34.578  1.00  0.00    -0.224 OA
ATOM     26  O   UNL A   1      44.510  24.892  32.290  1.00  0.00    -0.224 OA
ENDBRANCH  18  23
ENDBRANCH  13  17
BRANCH  16  27
ATOM     27  C   UNL A   1      40.538  33.264  35.170  1.00  0.00     0.030 A 
ATOM     28  C   UNL A   1      40.768  33.875  33.947  1.00  0.00     0.017 A 
ATOM     29  S   UNL A   1      41.058  34.271  36.459  1.00  0.00    -0.147 S 
ATOM     30  C   UNL A   1      41.348  35.169  34.075  1.00  0.00     0.012 A 
ATOM     31  C   UNL A   1      41.536  35.517  35.392  1.00  0.00     0.065 A 
ENDBRANCH  16  27
ENDBRANCH   7  12
ENDBRANCH   3   6
ENDBRANCH   1   2
BRANCH   1  32
ATOM     32  C   UNL A   1      34.404  33.843  28.813  1.00  0.00     0.042 C 
BRANCH  32  33
ATOM     33  C   UNL A   1      35.130  32.758  28.025  1.00  0.00     0.118 C 
BRANCH  33  34
ATOM     34  N   UNL A   1      34.343  31.540  27.910  1.00  0.00    -0.352 N 
ATOM     35  C   UNL A   1      34.758  30.230  27.887  1.00  0.00     0.251 C 
ATOM     36  H   UNL A   1      33.371  31.673  27.839  1.00  0.00     0.163 HD
ATOM     37  O   UNL A   1      33.962  29.344  27.590  1.00  0.00    -0.269 OA
BRANCH  35  38
ATOM     38  C   UNL A   1      36.163  29.881  28.196  1.00  0.00     0.039 A 
ATOM     39  C   UNL A   1      36.465  29.346  29.451  1.00  0.00     0.014 A 
ATOM     40  C   UNL A   1      37.183  30.106  27.267  1.00  0.00     0.014 A 
ATOM     41  C   UNL A   1      37.778  28.978  29.755  1.00  0.00     0.010 A 
ATOM     42  C   UNL A   1      38.481  29.681  27.547  1.00  0.00     0.010 A 
ATOM     43  C   UNL A   1      38.790  29.113  28.792  1.00  0.00    -0.014 A 
BRANCH  43  44
ATOM     44  C   UNL A   1      40.183  28.672  29.059  1.00  0.00     0.031 A 
ATOM     45  C   UNL A   1      41.166  29.623  29.683  1.00  0.00     0.074 A 
ATOM     46  C   UNL A   1      40.585  27.451  28.659  1.00  0.00     0.049 A 
ATOM     47  N   UNL A   1      42.453  29.479  29.867  1.00  0.00    -0.248 NA
ATOM     48  C   UNL A   1      40.634  30.917  30.136  1.00  0.00     0.031 C 
ATOM     49  C   UNL A   1      39.735  26.447  28.015  1.00  0.00     0.029 A 
ATOM     50  N   UNL A   1      41.819  26.853  28.719  1.00  0.00    -0.354 N 
ATOM     51  C   UNL A   1      42.889  30.670  30.434  1.00  0.00     0.074 A 
ATOM     52  C   UNL A   1      41.736  31.538  30.530  1.00  0.00     0.031 C 
ATOM     53  C   UNL A   1      40.470  25.357  27.747  1.00  0.00     0.029 A 
ATOM     54  C   UNL A   1      41.849  25.598  28.162  1.00  0.00     0.049 A 
ATOM     55  H   UNL A   1      42.607  27.283  29.124  1.00  0.00     0.167 HD
ATOM     56  C   UNL A   1      44.134  31.003  30.849  1.00  0.00     0.037 A 
ATOM     57  C   UNL A   1      42.876  24.744  27.991  1.00  0.00     0.037 A 
ATOM     58  C   UNL A   1      45.274  30.128  30.780  1.00  0.00     0.049 A 
ATOM     59  C   UNL A   1      44.249  25.138  28.457  1.00  0.00     0.074 A 
ATOM     60  C   UNL A   1      46.566  30.355  31.221  1.00  0.00     0.029 A 
ATOM     61  N   UNL A   1      45.256  28.852  30.235  1.00  0.00    -0.354 N 
ATOM     62  N   UNL A   1      44.639  26.252  29.028  1.00  0.00    -0.248 NA
ATOM     63  C   UNL A   1      45.325  24.157  28.257  1.00  0.00     0.031 C 
ATOM     64  C   UNL A   1      47.338  29.230  30.916  1.00  0.00     0.029 A 
ATOM     65  C   UNL A   1      46.518  28.285  30.319  1.00  0.00     0.049 A 
ATOM     66  H   UNL A   1      44.465  28.415  29.847  1.00  0.00     0.167 HD
ATOM     67  C   UNL A   1      45.995  26.096  29.281  1.00  0.00     0.074 A 
ATOM     68  C   UNL A   1      46.360  24.777  28.807  1.00  0.00     0.031 C 
ATOM     69  C   UNL A   1      46.859  26.966  29.856  1.00  0.00     0.037 A 
BRANCH  56  70
ATOM     70  C   UNL A   1      44.326  32.378  31.417  1.00  0.00     0.057 A 
ATOM     71  C   UNL A   1      44.532  33.493  30.595  1.00  0.00     0.134 A 
ATOM     72  C   UNL A   1      44.275  32.594  32.800  1.00  0.00     0.134 A 
ATOM     73  F   UNL A   1      44.604  33.351  29.264  1.00  0.00    -0.206 F 
ATOM     74  C   UNL A   1      44.707  34.771  31.129  1.00  0.00     0.040 A 
ATOM     75  C   UNL A   1      44.423  33.872  33.344  1.00  0.00     0.040 A 
ATOM     76  F   UNL A   1      44.074  31.571  33.643  1.00  0.00    -0.206 F 
ATOM     77  C   UNL A   1      44.647  34.964  32.507  1.00  0.00     0.006 A 
ENDBRANCH  56  70
BRANCH  57  78
ATOM     78  C   UNL A   1      42.642  23.422  27.361  1.00  0.00     0.057 A 
ATOM     79  C   UNL A   1      42.841  23.235  25.989  1.00  0.00     0.134 A 
ATOM     80  C   UNL A   1      42.216  22.319  28.109  1.00  0.00     0.134 A 
ATOM     81  F   UNL A   1      43.231  24.261  25.219  1.00  0.00    -0.206 F 
ATOM     82  C   UNL A   1      42.612  22.001  25.379  1.00  0.00     0.040 A 
ATOM     83  C   UNL A   1      42.003  21.073  27.516  1.00  0.00     0.040 A 
ATOM     84  F   UNL A   1      42.012  22.433  29.430  1.00  0.00    -0.206 F 
ATOM     85  C   UNL A   1      42.195  20.914  26.145  1.00  0.00     0.006 A 
ENDBRANCH  57  78
BRANCH  69  86
ATOM     86  C   UNL A   1      48.273  26.504  30.045  1.00  0.00     0.057 A 
ATOM     87  C   UNL A   1      49.258  26.723  29.075  1.00  0.00     0.134 A 
ATOM     88  C   UNL A   1      48.660  25.870  31.232  1.00  0.00     0.134 A 
ATOM     89  F   UNL A   1      48.946  27.314  27.911  1.00  0.00    -0.206 F 
ATOM     90  C   UNL A   1      50.577  26.313  29.272  1.00  0.00     0.040 A 
ATOM     91  C   UNL A   1      49.980  25.475  31.450  1.00  0.00     0.040 A 
ATOM     92  F   UNL A   1      47.764  25.635  32.203  1.00  0.00    -0.206 F 
ATOM     93  C   UNL A   1      50.942  25.693  30.466  1.00  0.00     0.006 A 
ENDBRANCH  69  86
ENDBRANCH  43  44
ENDBRANCH  35  38
ENDBRANCH  33  34
ENDBRANCH  32  33
ENDBRANCH   1  32
TORSDOF 14
ENDMDL
MODEL 2
REMARK VINA RESULT:     -10.2      5.438     11.889
REMARK SMILES CS(=O)(=O)c1ccc(C2=NN(c3ccc(C(=O)NCCCNC(=O)c4ccc(-c5c6nc(c(-c7c(F)cccc7F)c7ccc([nH]7)c(-c7c(F)cccc7F)c7nc(c(-c8c(F)cccc8F)c8ccc5[nH]8)C=C7)C=C6)cc4)cc3)[C@H](c3cccs3)C2)cc1
REMARK SMILES IDX 19 1 18 2 16 3 17 4 15 6 12 7 13 8 80 9 14 10 79 11 11 12
REMARK SMILES IDX 9 13 10 14 87 15 81 16 8 17 5 18 6 19 89 20 7 21 88 22 2 23
REMARK SMILES IDX 1 24 3 25 4 26 82 27 83 28 86 29 84 30 85 31 20 32 21 33
REMARK SMILES IDX 22 34 23 35 24 37 25 38 26 39 78 40 27 41 77 42 28 43 29 44
REMARK SMILES IDX 30 45 71 46 31 47 76 48 70 49 72 50 32 51 75 52 69 53 68 54
REMARK SMILES IDX 33 56 59 57 42 58 58 59 43 60 46 61 57 62 73 63 44 64 45 65
REMARK SMILES IDX 56 67 74 68 47 69 34 70 35 71 40 72 36 73 37 74 39 75 41 76
REMARK SMILES IDX 38 77 60 78 61 79 66 80 62 81 63 82 65 83 67 84 64 85 48 86
REMARK SMILES IDX 49 87 54 88 50 89 51 90 53 91 55 92 52 93
REMARK H PARENT 18 5 22 36 72 55 46 66
REMARK Flexibility Score: inf
ROOT
ATOM      1  C   UNL A   1      38.799  20.537  25.388  1.00  0.00     0.118 C 
ENDROOT
BRANCH   1   2
ATOM      2  N   UNL A   1      39.261  21.844  25.825  1.00  0.00    -0.352 N 
ATOM      3  C   UNL A   1      38.599  23.038  25.973  1.00  0.00     0.251 C 
ATOM      4  O   UNL A   1      39.203  23.977  26.488  1.00  0.00    -0.269 OA
ATOM      5  H   UNL A   1      40.218  21.879  26.054  1.00  0.00     0.163 HD
BRANCH   3   6
ATOM      6  C   UNL A   1      37.177  23.215  25.579  1.00  0.00     0.039 A 
ATOM      7  C   UNL A   1      34.521  23.580  24.705  1.00  0.00     0.060 A 
ATOM      8  C   UNL A   1      35.566  23.494  23.781  1.00  0.00     0.029 A 
ATOM      9  C   UNL A   1      34.815  23.426  26.062  1.00  0.00     0.029 A 
ATOM     10  C   UNL A   1      36.886  23.319  24.212  1.00  0.00     0.016 A 
ATOM     11  C   UNL A   1      36.125  23.222  26.494  1.00  0.00     0.016 A 
BRANCH   7  12
ATOM     12  N   UNL A   1      33.216  23.824  24.311  1.00  0.00    -0.257 N 
ATOM     13  C   UNL A   1      31.513  25.050  24.045  1.00  0.00     0.071 C 
ATOM     14  N   UNL A   1      32.808  25.080  24.027  1.00  0.00    -0.176 NA
ATOM     15  C   UNL A   1      30.885  23.750  24.470  1.00  0.00     0.091 C 
ATOM     16  C   UNL A   1      32.137  22.867  24.566  1.00  0.00     0.154 C 
BRANCH  13  17
ATOM     17  C   UNL A   1      30.697  26.205  23.654  1.00  0.00    -0.002 A 
ATOM     18  C   UNL A   1      29.084  28.356  22.969  1.00  0.00     0.067 A 
ATOM     19  C   UNL A   1      28.537  27.290  23.686  1.00  0.00     0.021 A 
ATOM     20  C   UNL A   1      30.433  28.350  22.590  1.00  0.00     0.021 A 
ATOM     21  C   UNL A   1      29.345  26.202  24.013  1.00  0.00     0.011 A 
ATOM     22  C   UNL A   1      31.249  27.274  22.944  1.00  0.00     0.011 A 
BRANCH  18  23
ATOM     23  S   UNL A   1      28.064  29.749  22.539  1.00  0.00     0.175 S 
ATOM     24  C   UNL A   1      28.792  31.140  23.363  1.00  0.00     0.163 C 
ATOM     25  O   UNL A   1      26.763  29.530  23.134  1.00  0.00    -0.224 OA
ATOM     26  O   UNL A   1      28.214  29.938  21.106  1.00  0.00    -0.224 OA
ENDBRANCH  18  23
ENDBRANCH  13  17
BRANCH  16  27
ATOM     27  C   UNL A   1      32.166  21.641  23.671  1.00  0.00     0.030 A 
ATOM     28  C   UNL A   1      31.829  21.601  22.327  1.00  0.00     0.017 A 
ATOM     29  S   UNL A   1      32.517  20.066  24.256  1.00  0.00    -0.147 S 
ATOM     30  C   UNL A   1      31.881  20.288  21.782  1.00  0.00     0.012 A 
ATOM     31  C   UNL A   1      32.267  19.359  22.721  1.00  0.00     0.065 A 
ENDBRANCH  16  27
ENDBRANCH   7  12
ENDBRANCH   3   6
ENDBRANCH   1   2
BRANCH   1  32
ATOM     32  C   UNL A   1      39.787  19.434  25.762  1.00  0.00     0.042 C 
BRANCH  32  33
ATOM     33  C   UNL A   1      41.013  19.940  26.515  1.00  0.00     0.118 C 
BRANCH  33  34
ATOM     34  N   UNL A   1      42.247  19.702  25.782  1.00  0.00    -0.352 N 
ATOM     35  C   UNL A   1      43.228  20.589  25.410  1.00  0.00     0.251 C 
ATOM     36  H   UNL A   1      42.403  18.768  25.513  1.00  0.00     0.163 HD
ATOM     37  O   UNL A   1      44.106  20.235  24.628  1.00  0.00    -0.269 OA
BRANCH  35  38
ATOM     38  C   UNL A   1      43.224  21.976  25.930  1.00  0.00     0.039 A 
ATOM     39  C   UNL A   1      43.332  22.180  27.308  1.00  0.00     0.014 A 
ATOM     40  C   UNL A   1      43.084  23.068  25.069  1.00  0.00     0.014 A 
ATOM     41  C   UNL A   1      43.364  23.480  27.820  1.00  0.00     0.010 A 
ATOM     42  C   UNL A   1      43.179  24.364  25.573  1.00  0.00     0.010 A 
ATOM     43  C   UNL A   1      43.319  24.582  26.952  1.00  0.00    -0.014 A 
BRANCH  43  44
ATOM     44  C   UNL A   1      43.415  25.975  27.457  1.00  0.00     0.031 A 
ATOM     45  C   UNL A   1      44.763  26.592  27.708  1.00  0.00     0.074 A 
ATOM     46  C   UNL A   1      42.294  26.651  27.771  1.00  0.00     0.049 A 
ATOM     47  N   UNL A   1      45.057  27.734  28.275  1.00  0.00    -0.248 NA
ATOM     48  C   UNL A   1      45.935  25.807  27.291  1.00  0.00     0.031 C 
ATOM     49  C   UNL A   1      40.928  26.152  27.602  1.00  0.00     0.029 A 
ATOM     50  N   UNL A   1      42.127  27.898  28.319  1.00  0.00    -0.354 N 
ATOM     51  C   UNL A   1      46.445  27.794  28.304  1.00  0.00     0.074 A 
ATOM     52  C   UNL A   1      46.933  26.559  27.731  1.00  0.00     0.031 C 
ATOM     53  C   UNL A   1      40.064  27.086  28.028  1.00  0.00     0.029 A 
ATOM     54  C   UNL A   1      40.813  28.231  28.538  1.00  0.00     0.049 A 
ATOM     55  H   UNL A   1      42.879  28.498  28.533  1.00  0.00     0.167 HD
ATOM     56  C   UNL A   1      47.238  28.795  28.755  1.00  0.00     0.037 A 
ATOM     57  C   UNL A   1      40.273  29.328  29.102  1.00  0.00     0.037 A 
ATOM     58  C   UNL A   1      46.751  30.035  29.298  1.00  0.00     0.049 A 
ATOM     59  C   UNL A   1      41.175  30.423  29.597  1.00  0.00     0.074 A 
ATOM     60  C   UNL A   1      47.476  31.131  29.735  1.00  0.00     0.029 A 
ATOM     61  N   UNL A   1      45.411  30.345  29.476  1.00  0.00    -0.354 N 
ATOM     62  N   UNL A   1      42.484  30.484  29.581  1.00  0.00    -0.248 NA
ATOM     63  C   UNL A   1      40.525  31.602  30.187  1.00  0.00     0.031 C 
ATOM     64  C   UNL A   1      46.576  32.092  30.206  1.00  0.00     0.029 A 
ATOM     65  C   UNL A   1      45.289  31.610  30.027  1.00  0.00     0.049 A 
ATOM     66  H   UNL A   1      44.659  29.754  29.245  1.00  0.00     0.167 HD
ATOM     67  C   UNL A   1      42.814  31.716  30.130  1.00  0.00     0.074 A 
ATOM     68  C   UNL A   1      41.567  32.373  30.464  1.00  0.00     0.031 C 
ATOM     69  C   UNL A   1      44.040  32.255  30.338  1.00  0.00     0.037 A 
BRANCH  56  70
ATOM     70  C   UNL A   1      48.722  28.585  28.678  1.00  0.00     0.057 A 
ATOM     71  C   UNL A   1      49.441  28.007  29.732  1.00  0.00     0.134 A 
ATOM     72  C   UNL A   1      49.435  28.939  27.525  1.00  0.00     0.134 A 
ATOM     73  F   UNL A   1      48.818  27.658  30.867  1.00  0.00    -0.206 F 
ATOM     74  C   UNL A   1      50.821  27.811  29.653  1.00  0.00     0.040 A 
ATOM     75  C   UNL A   1      50.811  28.724  27.425  1.00  0.00     0.040 A 
ATOM     76  F   UNL A   1      48.807  29.491  26.477  1.00  0.00    -0.206 F 
ATOM     77  C   UNL A   1      51.509  28.165  28.495  1.00  0.00     0.006 A 
ENDBRANCH  56  70
BRANCH  57  78
ATOM     78  C   UNL A   1      38.799  29.453  29.214  1.00  0.00     0.057 A 
ATOM     79  C   UNL A   1      38.154  29.267  30.441  1.00  0.00     0.134 A 
ATOM     80  C   UNL A   1      38.003  29.760  28.105  1.00  0.00     0.134 A 
ATOM     81  F   UNL A   1      38.864  28.952  31.535  1.00  0.00    -0.206 F 
ATOM     82  C   UNL A   1      36.768  29.368  30.561  1.00  0.00     0.040 A 
ATOM     83  C   UNL A   1      36.617  29.885  28.214  1.00  0.00     0.040 A 
ATOM     84  F   UNL A   1      38.563  29.956  26.902  1.00  0.00    -0.206 F 
ATOM     85  C   UNL A   1      35.995  29.682  29.444  1.00  0.00     0.006 A 
ENDBRANCH  57  78
BRANCH  69  86
ATOM     86  C   UNL A   1      44.092  33.638  30.913  1.00  0.00     0.057 A 
ATOM     87  C   UNL A   1      44.193  33.863  32.291  1.00  0.00     0.134 A 
ATOM     88  C   UNL A   1      44.085  34.757  30.071  1.00  0.00     0.134 A 
ATOM     89  F   UNL A   1      44.190  32.831  33.150  1.00  0.00    -0.206 F 
ATOM     90  C   UNL A   1      44.267  35.154  32.814  1.00  0.00     0.040 A 
ATOM     91  C   UNL A   1      44.181  36.053  30.581  1.00  0.00     0.040 A 
ATOM     92  F   UNL A   1      43.995  34.609  28.741  1.00  0.00    -0.206 F 
ATOM     93  C   UNL A   1      44.269  36.253  31.957  1.00  0.00     0.006 A 
ENDBRANCH  69  86
ENDBRANCH  43  44
ENDBRANCH  35  38
ENDBRANCH  33  34
ENDBRANCH  32  33
ENDBRANCH   1  32
TORSDOF 14
ENDMDL
MODEL 3
REMARK VINA RESULT:     -10.1      4.589     10.070
REMARK SMILES CS(=O)(=O)c1ccc(C2=NN(c3ccc(C(=O)NCCCNC(=O)c4ccc(-c5c6nc(c(-c7c(F)cccc7F)c7ccc([nH]7)c(-c7c(F)cccc7F)c7nc(c(-c8c(F)cccc8F)c8ccc5[nH]8)C=C7)C=C6)cc4)cc3)[C@H](c3cccs3)C2)cc1
REMARK SMILES IDX 19 1 18 2 16 3 17 4 15 6 12 7 13 8 80 9 14 10 79 11 11 12
REMARK SMILES IDX 9 13 10 14 87 15 81 16 8 17 5 18 6 19 89 20 7 21 88 22 2 23
REMARK SMILES IDX 1 24 3 25 4 26 82 27 83 28 86 29 84 30 85 31 20 32 21 33
REMARK SMILES IDX 22 34 23 35 24 37 25 38 26 39 78 40 27 41 77 42 28 43 29 44
REMARK SMILES IDX 30 45 71 46 31 47 76 48 70 49 72 50 32 51 75 52 69 53 68 54
REMARK SMILES IDX 33 56 59 57 42 58 58 59 43 60 46 61 57 62 73 63 44 64 45 65
REMARK SMILES IDX 56 67 74 68 47 69 34 70 35 71 40 72 36 73 37 74 39 75 41 76
REMARK SMILES IDX 38 77 60 78 61 79 66 80 62 81 63 82 65 83 67 84 64 85 48 86
REMARK SMILES IDX 49 87 54 88 50 89 51 90 53 91 55 92 52 93
REMARK H PARENT 18 5 22 36 72 55 46 66
REMARK Flexibility Score: inf
ROOT
ATOM      1  C   UNL A   1      36.813  21.257  25.039  1.00  0.00     0.118 C 
ENDROOT
BRANCH   1   2
ATOM      2  N   UNL A   1      35.533  20.665  24.687  1.00  0.00    -0.352 N 
ATOM      3  C   UNL A   1      34.279  21.214  24.573  1.00  0.00     0.251 C 
ATOM      4  O   UNL A   1      33.375  20.509  24.130  1.00  0.00    -0.269 OA
ATOM      5  H   UNL A   1      35.572  19.700  24.497  1.00  0.00     0.163 HD
BRANCH   3   6
ATOM      6  C   UNL A   1      33.996  22.631  24.920  1.00  0.00     0.039 A 
ATOM      7  C   UNL A   1      33.390  25.276  25.686  1.00  0.00     0.060 A 
ATOM      8  C   UNL A   1      33.174  24.215  26.570  1.00  0.00     0.029 A 
ATOM      9  C   UNL A   1      33.962  25.003  24.442  1.00  0.00     0.029 A 
ATOM     10  C   UNL A   1      33.468  22.901  26.190  1.00  0.00     0.016 A 
ATOM     11  C   UNL A   1      34.284  23.698  24.070  1.00  0.00     0.016 A 
BRANCH   7  12
ATOM     12  N   UNL A   1      33.042  26.577  26.010  1.00  0.00    -0.257 N 
ATOM     13  C   UNL A   1      33.364  28.451  26.936  1.00  0.00     0.071 C 
ATOM     14  N   UNL A   1      33.990  27.474  26.361  1.00  0.00    -0.176 NA
ATOM     15  C   UNL A   1      31.886  28.262  27.144  1.00  0.00     0.091 C 
ATOM     16  C   UNL A   1      31.675  26.944  26.386  1.00  0.00     0.154 C 
BRANCH  13  17
ATOM     17  C   UNL A   1      34.045  29.685  27.343  1.00  0.00    -0.002 A 
ATOM     18  C   UNL A   1      35.249  32.059  28.130  1.00  0.00     0.067 A 
ATOM     19  C   UNL A   1      33.863  32.018  27.954  1.00  0.00     0.021 A 
ATOM     20  C   UNL A   1      36.035  30.920  27.910  1.00  0.00     0.021 A 
ATOM     21  C   UNL A   1      33.263  30.829  27.541  1.00  0.00     0.011 A 
ATOM     22  C   UNL A   1      35.429  29.722  27.526  1.00  0.00     0.011 A 
BRANCH  18  23
ATOM     23  S   UNL A   1      36.030  33.570  28.651  1.00  0.00     0.175 S 
ATOM     24  C   UNL A   1      35.757  33.664  30.400  1.00  0.00     0.163 C 
ATOM     25  O   UNL A   1      35.301  34.663  28.043  1.00  0.00    -0.224 OA
ATOM     26  O   UNL A   1      37.453  33.395  28.419  1.00  0.00    -0.224 OA
ENDBRANCH  18  23
ENDBRANCH  13  17
BRANCH  16  27
ATOM     27  C   UNL A   1      30.698  26.984  25.226  1.00  0.00     0.030 A 
ATOM     28  C   UNL A   1      29.747  26.021  24.924  1.00  0.00     0.017 A 
ATOM     29  S   UNL A   1      30.722  28.210  24.025  1.00  0.00    -0.147 S 
ATOM     30  C   UNL A   1      29.033  26.304  23.726  1.00  0.00     0.012 A 
ATOM     31  C   UNL A   1      29.449  27.482  23.149  1.00  0.00     0.065 A 
ENDBRANCH  16  27
ENDBRANCH   7  12
ENDBRANCH   3   6
ENDBRANCH   1   2
BRANCH   1  32
ATOM     32  C   UNL A   1      37.947  20.237  24.965  1.00  0.00     0.042 C 
BRANCH  32  33
ATOM     33  C   UNL A   1      39.022  20.439  26.028  1.00  0.00     0.118 C 
BRANCH  33  34
ATOM     34  N   UNL A   1      40.064  19.426  25.959  1.00  0.00    -0.352 N 
ATOM     35  C   UNL A   1      41.429  19.570  26.014  1.00  0.00     0.251 C 
ATOM     36  H   UNL A   1      39.743  18.500  25.858  1.00  0.00     0.163 HD
ATOM     37  O   UNL A   1      42.154  18.616  25.746  1.00  0.00    -0.269 OA
BRANCH  35  38
ATOM     38  C   UNL A   1      42.033  20.873  26.373  1.00  0.00     0.039 A 
ATOM     39  C   UNL A   1      42.142  21.861  25.390  1.00  0.00     0.014 A 
ATOM     40  C   UNL A   1      42.518  21.112  27.662  1.00  0.00     0.014 A 
ATOM     41  C   UNL A   1      42.677  23.110  25.713  1.00  0.00     0.010 A 
ATOM     42  C   UNL A   1      42.994  22.378  27.999  1.00  0.00     0.010 A 
ATOM     43  C   UNL A   1      43.078  23.388  27.029  1.00  0.00    -0.014 A 
BRANCH  43  44
ATOM     44  C   UNL A   1      43.592  24.725  27.420  1.00  0.00     0.031 A 
ATOM     45  C   UNL A   1      42.704  25.683  28.164  1.00  0.00     0.074 A 
ATOM     46  C   UNL A   1      44.821  25.109  27.030  1.00  0.00     0.049 A 
ATOM     47  N   UNL A   1      42.914  26.937  28.472  1.00  0.00    -0.248 NA
ATOM     48  C   UNL A   1      41.396  25.167  28.597  1.00  0.00     0.031 C 
ATOM     49  C   UNL A   1      45.769  24.283  26.278  1.00  0.00     0.029 A 
ATOM     50  N   UNL A   1      45.480  26.302  27.196  1.00  0.00    -0.354 N 
ATOM     51  C   UNL A   1      41.758  27.368  29.111  1.00  0.00     0.074 A 
ATOM     52  C   UNL A   1      40.837  26.252  29.115  1.00  0.00     0.031 C 
ATOM     53  C   UNL A   1      46.887  24.991  26.055  1.00  0.00     0.029 A 
ATOM     54  C   UNL A   1      46.722  26.331  26.611  1.00  0.00     0.049 A 
ATOM     55  H   UNL A   1      45.097  27.065  27.688  1.00  0.00     0.167 HD
ATOM     56  C   UNL A   1      41.494  28.579  29.656  1.00  0.00     0.037 A 
ATOM     57  C   UNL A   1      47.620  27.330  26.519  1.00  0.00     0.037 A 
ATOM     58  C   UNL A   1      42.422  29.679  29.677  1.00  0.00     0.049 A 
ATOM     59  C   UNL A   1      47.303  28.666  27.130  1.00  0.00     0.074 A 
ATOM     60  C   UNL A   1      42.266  30.929  30.250  1.00  0.00     0.029 A 
ATOM     61  N   UNL A   1      43.682  29.658  29.099  1.00  0.00    -0.354 N 
ATOM     62  N   UNL A   1      46.222  29.046  27.767  1.00  0.00    -0.248 NA
ATOM     63  C   UNL A   1      48.330  29.710  27.011  1.00  0.00     0.031 C 
ATOM     64  C   UNL A   1      43.421  31.675  29.992  1.00  0.00     0.029 A 
ATOM     65  C   UNL A   1      44.311  30.877  29.292  1.00  0.00     0.049 A 
ATOM     66  H   UNL A   1      44.072  28.890  28.622  1.00  0.00     0.167 HD
ATOM     67  C   UNL A   1      46.449  30.362  28.149  1.00  0.00     0.074 A 
ATOM     68  C   UNL A   1      47.773  30.712  27.678  1.00  0.00     0.031 C 
ATOM     69  C   UNL A   1      45.634  31.203  28.830  1.00  0.00     0.037 A 
BRANCH  56  70
ATOM     70  C   UNL A   1      40.143  28.775  30.277  1.00  0.00     0.057 A 
ATOM     71  C   UNL A   1      39.057  29.264  29.540  1.00  0.00     0.134 A 
ATOM     72  C   UNL A   1      39.917  28.445  31.619  1.00  0.00     0.134 A 
ATOM     73  F   UNL A   1      39.210  29.612  28.254  1.00  0.00    -0.206 F 
ATOM     74  C   UNL A   1      37.800  29.442  30.122  1.00  0.00     0.040 A 
ATOM     75  C   UNL A   1      38.659  28.594  32.206  1.00  0.00     0.040 A 
ATOM     76  F   UNL A   1      40.913  27.965  32.380  1.00  0.00    -0.206 F 
ATOM     77  C   UNL A   1      37.598  29.101  31.458  1.00  0.00     0.006 A 
ENDBRANCH  56  70
BRANCH  57  78
ATOM     78  C   UNL A   1      48.915  27.100  25.834  1.00  0.00     0.057 A 
ATOM     79  C   UNL A   1      50.043  26.684  26.551  1.00  0.00     0.134 A 
ATOM     80  C   UNL A   1      49.059  27.288  24.455  1.00  0.00     0.134 A 
ATOM     81  F   UNL A   1      49.969  26.506  27.878  1.00  0.00    -0.206 F 
ATOM     82  C   UNL A   1      51.272  26.477  25.924  1.00  0.00     0.040 A 
ATOM     83  C   UNL A   1      50.277  27.065  23.811  1.00  0.00     0.040 A 
ATOM     84  F   UNL A   1      48.014  27.681  23.712  1.00  0.00    -0.206 F 
ATOM     85  C   UNL A   1      51.390  26.664  24.548  1.00  0.00     0.006 A 
ENDBRANCH  57  78
BRANCH  69  86
ATOM     86  C   UNL A   1      46.168  32.568  29.146  1.00  0.00     0.057 A 
ATOM     87  C   UNL A   1      46.920  32.819  30.300  1.00  0.00     0.134 A 
ATOM     88  C   UNL A   1      45.961  33.633  28.260  1.00  0.00     0.134 A 
ATOM     89  F   UNL A   1      47.140  31.842  31.193  1.00  0.00    -0.206 F 
ATOM     90  C   UNL A   1      47.434  34.088  30.571  1.00  0.00     0.040 A 
ATOM     91  C   UNL A   1      46.489  34.900  28.510  1.00  0.00     0.040 A 
ATOM     92  F   UNL A   1      45.253  33.456  27.135  1.00  0.00    -0.206 F 
ATOM     93  C   UNL A   1      47.225  35.130  29.670  1.00  0.00     0.006 A 
ENDBRANCH  69  86
ENDBRANCH  43  44
ENDBRANCH  35  38
ENDBRANCH  33  34
ENDBRANCH  32  33
ENDBRANCH   1  32
TORSDOF 14
ENDMDL
