MODEL 1
REMARK VINA RESULT:     -11.6      0.000      0.000
REMARK SMILES Cc1csc(CNC(=O)NC[C@H]2CC[C@@H](C(=O)NCCCNC(=O)c3ccc(-c4c5nc(c(-c6c(F)cccc6F)c6ccc([nH]6)c(-c6c(F)cccc6F)c6nc(c(-c7c(F)cccc7F)c7ccc4[nH]7)C=C6)C=C5)cc3)CC2)n1
REMARK SMILES IDX 19 1 18 2 16 3 17 4 15 6 12 7 13 8 80 9 14 10 79 11 11 12
REMARK SMILES IDX 10 13 7 14 8 15 9 17 6 19 5 20 1 21 2 22 3 23 81 24 4 25
REMARK SMILES IDX 20 26 21 27 22 28 23 29 24 31 25 32 26 33 78 34 27 35 77 36
REMARK SMILES IDX 28 37 29 38 30 39 71 40 31 41 76 42 70 43 72 44 32 45 75 46
REMARK SMILES IDX 69 47 68 48 33 50 59 51 42 52 58 53 43 54 46 55 57 56 73 57
REMARK SMILES IDX 44 58 45 59 56 61 74 62 47 63 34 64 35 65 40 66 36 67 37 68
REMARK SMILES IDX 39 69 41 70 38 71 60 72 61 73 66 74 62 75 63 76 65 77 67 78
REMARK SMILES IDX 64 79 48 80 49 81 54 82 50 83 51 84 53 85 55 86 52 87
REMARK H PARENT 18 5 7 16 10 18 22 30 72 49 46 60
REMARK Flexibility Score: inf
ROOT
ATOM      1  C   UNL A   1      37.893  21.788  25.175  1.00  0.00     0.117 C 
ENDROOT
BRANCH   1   2
ATOM      2  N   UNL A   1      37.222  22.375  24.041  1.00  0.00    -0.356 N 
ATOM      3  C   UNL A   1      35.923  22.686  23.814  1.00  0.00     0.223 C 
ATOM      4  O   UNL A   1      35.704  23.306  22.765  1.00  0.00    -0.275 OA
ATOM      5  H   UNL A   1      37.821  22.590  23.291  1.00  0.00     0.163 HD
BRANCH   3   6
ATOM      6  C   UNL A   1      34.740  22.312  24.724  1.00  0.00     0.078 C 
ATOM      7  C   UNL A   1      31.934  23.403  24.348  1.00  0.00     0.008 C 
ATOM      8  C   UNL A   1      32.382  22.113  23.630  1.00  0.00     0.006 C 
ATOM      9  C   UNL A   1      33.036  24.209  25.049  1.00  0.00     0.006 C 
ATOM     10  C   UNL A   1      33.642  21.427  24.145  1.00  0.00     0.014 C 
ATOM     11  C   UNL A   1      34.208  23.427  25.613  1.00  0.00     0.014 C 
BRANCH   7  12
ATOM     12  C   UNL A   1      31.187  24.332  23.358  1.00  0.00     0.121 C 
BRANCH  12  13
ATOM     13  N   UNL A   1      31.878  24.460  22.096  1.00  0.00    -0.338 N 
ATOM     14  N   UNL A   1      31.987  26.770  21.636  1.00  0.00    -0.332 N 
ATOM     15  C   UNL A   1      32.382  25.513  21.446  1.00  0.00     0.315 C 
ATOM     16  H   UNL A   1      32.580  27.422  21.197  1.00  0.00     0.165 HD
ATOM     17  O   UNL A   1      33.258  25.299  20.604  1.00  0.00    -0.249 OA
ATOM     18  H   UNL A   1      32.001  23.605  21.624  1.00  0.00     0.165 HD
BRANCH  14  19
ATOM     19  C   UNL A   1      30.888  27.404  22.337  1.00  0.00     0.185 C 
BRANCH  19  20
ATOM     20  C   UNL A   1      31.402  28.048  23.596  1.00  0.00     0.112 A 
ATOM     21  C   UNL A   1      33.882  28.225  26.198  1.00  0.00     0.067 C 
ATOM     22  C   UNL A   1      32.720  28.514  25.322  1.00  0.00     0.049 A 
ATOM     23  C   UNL A   1      31.882  29.609  25.385  1.00  0.00     0.090 A 
ATOM     24  N   UNL A   1      32.415  27.612  24.318  1.00  0.00    -0.245 NA
ATOM     25  S   UNL A   1      30.691  29.513  24.158  1.00  0.00    -0.125 S 
ENDBRANCH  19  20
ENDBRANCH  14  19
ENDBRANCH  12  13
ENDBRANCH   7  12
ENDBRANCH   3   6
ENDBRANCH   1   2
BRANCH   1  26
ATOM     26  C   UNL A   1      38.442  20.397  24.898  1.00  0.00     0.042 C 
BRANCH  26  27
ATOM     27  C   UNL A   1      39.064  19.723  26.106  1.00  0.00     0.118 C 
BRANCH  27  28
ATOM     28  N   UNL A   1      40.344  19.091  25.808  1.00  0.00    -0.352 N 
ATOM     29  C   UNL A   1      41.639  19.542  25.917  1.00  0.00     0.251 C 
ATOM     30  H   UNL A   1      40.267  18.171  25.464  1.00  0.00     0.163 HD
ATOM     31  O   UNL A   1      42.547  18.831  25.504  1.00  0.00    -0.269 OA
BRANCH  29  32
ATOM     32  C   UNL A   1      41.955  20.872  26.494  1.00  0.00     0.039 A 
ATOM     33  C   UNL A   1      42.297  21.913  25.621  1.00  0.00     0.014 A 
ATOM     34  C   UNL A   1      41.955  21.109  27.867  1.00  0.00     0.014 A 
ATOM     35  C   UNL A   1      42.552  23.193  26.120  1.00  0.00     0.010 A 
ATOM     36  C   UNL A   1      42.095  22.402  28.356  1.00  0.00     0.010 A 
ATOM     37  C   UNL A   1      42.411  23.454  27.488  1.00  0.00    -0.014 A 
BRANCH  37  38
ATOM     38  C   UNL A   1      42.671  24.800  28.051  1.00  0.00     0.031 A 
ATOM     39  C   UNL A   1      44.068  25.170  28.460  1.00  0.00     0.074 A 
ATOM     40  C   UNL A   1      41.653  25.658  28.253  1.00  0.00     0.049 A 
ATOM     41  N   UNL A   1      44.501  26.260  29.037  1.00  0.00    -0.248 NA
ATOM     42  C   UNL A   1      45.112  24.157  28.226  1.00  0.00     0.031 C 
ATOM     43  C   UNL A   1      40.246  25.382  27.967  1.00  0.00     0.029 A 
ATOM     44  N   UNL A   1      41.646  26.934  28.756  1.00  0.00    -0.354 N 
ATOM     45  C   UNL A   1      45.855  26.051  29.262  1.00  0.00     0.074 A 
ATOM     46  C   UNL A   1      46.161  24.711  28.812  1.00  0.00     0.031 C 
ATOM     47  C   UNL A   1      39.517  26.473  28.256  1.00  0.00     0.029 A 
ATOM     48  C   UNL A   1      40.399  27.510  28.783  1.00  0.00     0.049 A 
ATOM     49  H   UNL A   1      42.458  27.395  29.068  1.00  0.00     0.167 HD
ATOM     50  C   UNL A   1      46.769  26.907  29.773  1.00  0.00     0.037 A 
ATOM     51  C   UNL A   1      40.015  28.736  29.187  1.00  0.00     0.037 A 
ATOM     52  C   UNL A   1      46.466  28.250  30.185  1.00  0.00     0.049 A 
ATOM     53  C   UNL A   1      41.055  29.685  29.714  1.00  0.00     0.074 A 
ATOM     54  C   UNL A   1      47.325  29.220  30.669  1.00  0.00     0.029 A 
ATOM     55  N   UNL A   1      45.199  28.814  30.154  1.00  0.00    -0.354 N 
ATOM     56  N   UNL A   1      42.346  29.498  29.864  1.00  0.00    -0.248 NA
ATOM     57  C   UNL A   1      40.590  31.015  30.128  1.00  0.00     0.031 C 
ATOM     58  C   UNL A   1      46.572  30.363  30.959  1.00  0.00     0.029 A 
ATOM     59  C   UNL A   1      45.251  30.117  30.618  1.00  0.00     0.049 A 
ATOM     60  H   UNL A   1      44.384  28.355  29.847  1.00  0.00     0.167 HD
ATOM     61  C   UNL A   1      42.848  30.691  30.365  1.00  0.00     0.074 A 
ATOM     62  C   UNL A   1      41.727  31.602  30.477  1.00  0.00     0.031 C 
ATOM     63  C   UNL A   1      44.121  31.006  30.708  1.00  0.00     0.037 A 
BRANCH  50  64
ATOM     64  C   UNL A   1      48.176  26.404  29.903  1.00  0.00     0.057 A 
ATOM     65  C   UNL A   1      48.622  25.752  31.061  1.00  0.00     0.134 A 
ATOM     66  C   UNL A   1      49.100  26.586  28.867  1.00  0.00     0.134 A 
ATOM     67  F   UNL A   1      47.791  25.565  32.099  1.00  0.00    -0.206 F 
ATOM     68  C   UNL A   1      49.946  25.331  31.199  1.00  0.00     0.040 A 
ATOM     69  C   UNL A   1      50.420  26.144  28.983  1.00  0.00     0.040 A 
ATOM     70  F   UNL A   1      48.739  27.202  27.732  1.00  0.00    -0.206 F 
ATOM     71  C   UNL A   1      50.848  25.524  30.155  1.00  0.00     0.006 A 
ENDBRANCH  50  64
BRANCH  51  72
ATOM     72  C   UNL A   1      38.595  29.153  29.073  1.00  0.00     0.057 A 
ATOM     73  C   UNL A   1      38.082  29.628  27.859  1.00  0.00     0.134 A 
ATOM     74  C   UNL A   1      37.721  29.102  30.164  1.00  0.00     0.134 A 
ATOM     75  F   UNL A   1      38.876  29.714  26.780  1.00  0.00    -0.206 F 
ATOM     76  C   UNL A   1      36.760  30.056  27.738  1.00  0.00     0.040 A 
ATOM     77  C   UNL A   1      36.388  29.505  30.052  1.00  0.00     0.040 A 
ATOM     78  F   UNL A   1      38.145  28.647  31.352  1.00  0.00    -0.206 F 
ATOM     79  C   UNL A   1      35.907  29.992  28.838  1.00  0.00     0.006 A 
ENDBRANCH  51  72
BRANCH  63  80
ATOM     80  C   UNL A   1      44.370  32.399  31.203  1.00  0.00     0.057 A 
ATOM     81  C   UNL A   1      44.654  33.453  30.328  1.00  0.00     0.134 A 
ATOM     82  C   UNL A   1      44.283  32.693  32.569  1.00  0.00     0.134 A 
ATOM     83  F   UNL A   1      44.763  33.232  29.008  1.00  0.00    -0.206 F 
ATOM     84  C   UNL A   1      44.863  34.751  30.796  1.00  0.00     0.040 A 
ATOM     85  C   UNL A   1      44.466  33.991  33.047  1.00  0.00     0.040 A 
ATOM     86  F   UNL A   1      44.006  31.727  33.457  1.00  0.00    -0.206 F 
ATOM     87  C   UNL A   1      44.762  35.023  32.159  1.00  0.00     0.006 A 
ENDBRANCH  63  80
ENDBRANCH  37  38
ENDBRANCH  29  32
ENDBRANCH  27  28
ENDBRANCH  26  27
ENDBRANCH   1  26
TORSDOF 14
ENDMDL
MODEL 2
REMARK VINA RESULT:     -11.5      2.118      3.616
REMARK SMILES Cc1csc(CNC(=O)NC[C@H]2CC[C@@H](C(=O)NCCCNC(=O)c3ccc(-c4c5nc(c(-c6c(F)cccc6F)c6ccc([nH]6)c(-c6c(F)cccc6F)c6nc(c(-c7c(F)cccc7F)c7ccc4[nH]7)C=C6)C=C5)cc3)CC2)n1
REMARK SMILES IDX 19 1 18 2 16 3 17 4 15 6 12 7 13 8 80 9 14 10 79 11 11 12
REMARK SMILES IDX 10 13 7 14 8 15 9 17 6 19 5 20 1 21 2 22 3 23 81 24 4 25
REMARK SMILES IDX 20 26 21 27 22 28 23 29 24 31 25 32 26 33 78 34 27 35 77 36
REMARK SMILES IDX 28 37 29 38 30 39 71 40 31 41 76 42 70 43 72 44 32 45 75 46
REMARK SMILES IDX 69 47 68 48 33 50 59 51 42 52 58 53 43 54 46 55 57 56 73 57
REMARK SMILES IDX 44 58 45 59 56 61 74 62 47 63 34 64 35 65 40 66 36 67 37 68
REMARK SMILES IDX 39 69 41 70 38 71 60 72 61 73 66 74 62 75 63 76 65 77 67 78
REMARK SMILES IDX 64 79 48 80 49 81 54 82 50 83 51 84 53 85 55 86 52 87
REMARK H PARENT 18 5 7 16 10 18 22 30 72 49 46 60
REMARK Flexibility Score: inf
ROOT
ATOM      1  C   UNL A   1      38.125  21.911  25.461  1.00  0.00     0.117 C 
ENDROOT
BRANCH   1   2
ATOM      2  N   UNL A   1      36.858  21.862  26.149  1.00  0.00    -0.356 N 
ATOM      3  C   UNL A   1      35.684  22.502  25.937  1.00  0.00     0.223 C 
ATOM      4  O   UNL A   1      34.742  22.128  26.649  1.00  0.00    -0.275 OA
ATOM      5  H   UNL A   1      36.846  21.248  26.919  1.00  0.00     0.163 HD
BRANCH   3   6
ATOM      6  C   UNL A   1      35.453  23.640  24.928  1.00  0.00     0.078 C 
ATOM      7  C   UNL A   1      32.758  24.230  23.663  1.00  0.00     0.008 C 
ATOM      8  C   UNL A   1      33.162  24.883  25.001  1.00  0.00     0.006 C 
ATOM      9  C   UNL A   1      33.673  23.109  23.150  1.00  0.00     0.006 C 
ATOM     10  C   UNL A   1      34.638  24.847  25.380  1.00  0.00     0.014 C 
ATOM     11  C   UNL A   1      35.146  23.209  23.501  1.00  0.00     0.014 C 
BRANCH   7  12
ATOM     12  C   UNL A   1      31.308  23.690  23.749  1.00  0.00     0.121 C 
BRANCH  12  13
ATOM     13  N   UNL A   1      30.892  23.445  25.110  1.00  0.00    -0.338 N 
ATOM     14  N   UNL A   1      31.822  21.365  25.718  1.00  0.00    -0.332 N 
ATOM     15  C   UNL A   1      31.262  22.535  26.017  1.00  0.00     0.315 C 
ATOM     16  H   UNL A   1      32.176  20.903  26.512  1.00  0.00     0.165 HD
ATOM     17  O   UNL A   1      31.054  22.794  27.204  1.00  0.00    -0.249 OA
ATOM     18  H   UNL A   1      30.203  24.069  25.433  1.00  0.00     0.165 HD
BRANCH  14  19
ATOM     19  C   UNL A   1      32.031  20.611  24.497  1.00  0.00     0.185 C 
BRANCH  19  20
ATOM     20  C   UNL A   1      32.704  19.305  24.823  1.00  0.00     0.112 A 
ATOM     21  C   UNL A   1      32.453  15.822  25.695  1.00  0.00     0.067 C 
ATOM     22  C   UNL A   1      32.978  17.154  25.306  1.00  0.00     0.049 A 
ATOM     23  C   UNL A   1      34.281  17.474  24.985  1.00  0.00     0.090 A 
ATOM     24  N   UNL A   1      32.092  18.215  25.244  1.00  0.00    -0.245 NA
ATOM     25  S   UNL A   1      34.402  19.136  24.590  1.00  0.00    -0.125 S 
ENDBRANCH  19  20
ENDBRANCH  14  19
ENDBRANCH  12  13
ENDBRANCH   7  12
ENDBRANCH   3   6
ENDBRANCH   1   2
BRANCH   1  26
ATOM     26  C   UNL A   1      38.621  20.545  25.011  1.00  0.00     0.042 C 
BRANCH  26  27
ATOM     27  C   UNL A   1      39.154  19.677  26.135  1.00  0.00     0.118 C 
BRANCH  27  28
ATOM     28  N   UNL A   1      40.439  19.064  25.819  1.00  0.00    -0.352 N 
ATOM     29  C   UNL A   1      41.728  19.533  25.912  1.00  0.00     0.251 C 
ATOM     30  H   UNL A   1      40.371  18.144  25.475  1.00  0.00     0.163 HD
ATOM     31  O   UNL A   1      42.641  18.836  25.486  1.00  0.00    -0.269 OA
BRANCH  29  32
ATOM     32  C   UNL A   1      42.034  20.867  26.486  1.00  0.00     0.039 A 
ATOM     33  C   UNL A   1      42.356  21.912  25.611  1.00  0.00     0.014 A 
ATOM     34  C   UNL A   1      42.041  21.104  27.859  1.00  0.00     0.014 A 
ATOM     35  C   UNL A   1      42.600  23.195  26.108  1.00  0.00     0.010 A 
ATOM     36  C   UNL A   1      42.170  22.398  28.348  1.00  0.00     0.010 A 
ATOM     37  C   UNL A   1      42.466  23.455  27.478  1.00  0.00    -0.014 A 
BRANCH  37  38
ATOM     38  C   UNL A   1      42.714  24.804  28.038  1.00  0.00     0.031 A 
ATOM     39  C   UNL A   1      44.108  25.185  28.450  1.00  0.00     0.074 A 
ATOM     40  C   UNL A   1      41.689  25.653  28.237  1.00  0.00     0.049 A 
ATOM     41  N   UNL A   1      44.530  26.279  29.026  1.00  0.00    -0.248 NA
ATOM     42  C   UNL A   1      45.160  24.180  28.221  1.00  0.00     0.031 C 
ATOM     43  C   UNL A   1      40.285  25.366  27.948  1.00  0.00     0.029 A 
ATOM     44  N   UNL A   1      41.671  26.930  28.737  1.00  0.00    -0.354 N 
ATOM     45  C   UNL A   1      45.885  26.081  29.254  1.00  0.00     0.074 A 
ATOM     46  C   UNL A   1      46.202  24.743  28.808  1.00  0.00     0.031 C 
ATOM     47  C   UNL A   1      39.547  26.452  28.233  1.00  0.00     0.029 A 
ATOM     48  C   UNL A   1      40.419  27.497  28.760  1.00  0.00     0.049 A 
ATOM     49  H   UNL A   1      42.478  27.398  29.051  1.00  0.00     0.167 HD
ATOM     50  C   UNL A   1      46.791  26.946  29.766  1.00  0.00     0.037 A 
ATOM     51  C   UNL A   1      40.025  28.720  29.161  1.00  0.00     0.037 A 
ATOM     52  C   UNL A   1      46.477  28.287  30.175  1.00  0.00     0.049 A 
ATOM     53  C   UNL A   1      41.056  29.678  29.689  1.00  0.00     0.074 A 
ATOM     54  C   UNL A   1      47.327  29.264  30.659  1.00  0.00     0.029 A 
ATOM     55  N   UNL A   1      45.206  28.841  30.140  1.00  0.00    -0.354 N 
ATOM     56  N   UNL A   1      42.348  29.502  29.842  1.00  0.00    -0.248 NA
ATOM     57  C   UNL A   1      40.579  31.006  30.099  1.00  0.00     0.031 C 
ATOM     58  C   UNL A   1      46.564  30.402  30.946  1.00  0.00     0.029 A 
ATOM     59  C   UNL A   1      45.246  30.145  30.602  1.00  0.00     0.049 A 
ATOM     60  H   UNL A   1      44.395  28.375  29.833  1.00  0.00     0.167 HD
ATOM     61  C   UNL A   1      42.839  30.699  30.343  1.00  0.00     0.074 A 
ATOM     62  C   UNL A   1      41.711  31.602  30.450  1.00  0.00     0.031 C 
ATOM     63  C   UNL A   1      44.109  31.025  30.687  1.00  0.00     0.037 A 
BRANCH  50  64
ATOM     64  C   UNL A   1      48.202  26.454  29.901  1.00  0.00     0.057 A 
ATOM     65  C   UNL A   1      48.644  25.787  31.052  1.00  0.00     0.134 A 
ATOM     66  C   UNL A   1      49.133  26.661  28.876  1.00  0.00     0.134 A 
ATOM     67  F   UNL A   1      47.807  25.576  32.080  1.00  0.00    -0.206 F 
ATOM     68  C   UNL A   1      49.971  25.377  31.195  1.00  0.00     0.040 A 
ATOM     69  C   UNL A   1      50.456  26.230  28.996  1.00  0.00     0.040 A 
ATOM     70  F   UNL A   1      48.776  27.291  27.748  1.00  0.00    -0.206 F 
ATOM     71  C   UNL A   1      50.880  25.595  30.162  1.00  0.00     0.006 A 
ENDBRANCH  50  64
BRANCH  51  72
ATOM     72  C   UNL A   1      38.602  29.126  29.043  1.00  0.00     0.057 A 
ATOM     73  C   UNL A   1      38.085  29.583  27.823  1.00  0.00     0.134 A 
ATOM     74  C   UNL A   1      37.728  29.082  30.135  1.00  0.00     0.134 A 
ATOM     75  F   UNL A   1      38.878  29.663  26.744  1.00  0.00    -0.206 F 
ATOM     76  C   UNL A   1      36.759  30.001  27.698  1.00  0.00     0.040 A 
ATOM     77  C   UNL A   1      36.392  29.474  30.019  1.00  0.00     0.040 A 
ATOM     78  F   UNL A   1      38.156  28.644  31.328  1.00  0.00    -0.206 F 
ATOM     79  C   UNL A   1      35.907  29.944  28.800  1.00  0.00     0.006 A 
ENDBRANCH  51  72
BRANCH  63  80
ATOM     80  C   UNL A   1      44.346  32.421  31.180  1.00  0.00     0.057 A 
ATOM     81  C   UNL A   1      44.284  32.744  32.541  1.00  0.00     0.134 A 
ATOM     82  C   UNL A   1      44.682  33.443  30.284  1.00  0.00     0.134 A 
ATOM     83  F   UNL A   1      43.955  31.811  33.447  1.00  0.00    -0.206 F 
ATOM     84  C   UNL A   1      44.528  34.042  32.992  1.00  0.00     0.040 A 
ATOM     85  C   UNL A   1      44.953  34.738  30.725  1.00  0.00     0.040 A 
ATOM     86  F   UNL A   1      44.766  33.195  28.968  1.00  0.00    -0.206 F 
ATOM     87  C   UNL A   1      44.871  35.041  32.082  1.00  0.00     0.006 A 
ENDBRANCH  63  80
ENDBRANCH  37  38
ENDBRANCH  29  32
ENDBRANCH  27  28
ENDBRANCH  26  27
ENDBRANCH   1  26
TORSDOF 14
ENDMDL
MODEL 3
REMARK VINA RESULT:     -11.4      3.850      8.892
REMARK SMILES Cc1csc(CNC(=O)NC[C@H]2CC[C@@H](C(=O)NCCCNC(=O)c3ccc(-c4c5nc(c(-c6c(F)cccc6F)c6ccc([nH]6)c(-c6c(F)cccc6F)c6nc(c(-c7c(F)cccc7F)c7ccc4[nH]7)C=C6)C=C5)cc3)CC2)n1
REMARK SMILES IDX 19 1 18 2 16 3 17 4 15 6 12 7 13 8 80 9 14 10 79 11 11 12
REMARK SMILES IDX 10 13 7 14 8 15 9 17 6 19 5 20 1 21 2 22 3 23 81 24 4 25
REMARK SMILES IDX 20 26 21 27 22 28 23 29 24 31 25 32 26 33 78 34 27 35 77 36
REMARK SMILES IDX 28 37 29 38 30 39 71 40 31 41 76 42 70 43 72 44 32 45 75 46
REMARK SMILES IDX 69 47 68 48 33 50 59 51 42 52 58 53 43 54 46 55 57 56 73 57
REMARK SMILES IDX 44 58 45 59 56 61 74 62 47 63 34 64 35 65 40 66 36 67 37 68
REMARK SMILES IDX 39 69 41 70 38 71 60 72 61 73 66 74 62 75 63 76 65 77 67 78
REMARK SMILES IDX 64 79 48 80 49 81 54 82 50 83 51 84 53 85 55 86 52 87
REMARK H PARENT 18 5 7 16 10 18 22 30 72 49 46 60
REMARK Flexibility Score: inf
ROOT
ATOM      1  C   UNL A   1      32.639  30.164  27.185  1.00  0.00     0.117 C 
ENDROOT
BRANCH   1   2
ATOM      2  N   UNL A   1      31.941  28.935  27.472  1.00  0.00    -0.356 N 
ATOM      3  C   UNL A   1      31.641  27.860  26.704  1.00  0.00     0.223 C 
ATOM      4  O   UNL A   1      31.134  26.905  27.308  1.00  0.00    -0.275 OA
ATOM      5  H   UNL A   1      31.622  28.865  28.400  1.00  0.00     0.163 HD
BRANCH   3   6
ATOM      6  C   UNL A   1      31.855  27.757  25.184  1.00  0.00     0.078 C 
ATOM      7  C   UNL A   1      31.482  25.186  23.616  1.00  0.00     0.008 C 
ATOM      8  C   UNL A   1      30.299  26.148  23.845  1.00  0.00     0.006 C 
ATOM      9  C   UNL A   1      32.762  25.479  24.412  1.00  0.00     0.006 C 
ATOM     10  C   UNL A   1      30.628  27.566  24.298  1.00  0.00     0.014 C 
ATOM     11  C   UNL A   1      33.053  26.932  24.737  1.00  0.00     0.014 C 
BRANCH   7  12
ATOM     12  C   UNL A   1      31.044  23.726  23.894  1.00  0.00     0.121 C 
BRANCH  12  13
ATOM     13  N   UNL A   1      30.364  23.588  25.160  1.00  0.00    -0.338 N 
ATOM     14  N   UNL A   1      31.720  22.188  26.487  1.00  0.00    -0.332 N 
ATOM     15  C   UNL A   1      30.740  23.077  26.336  1.00  0.00     0.315 C 
ATOM     16  H   UNL A   1      31.965  22.054  27.431  1.00  0.00     0.165 HD
ATOM     17  O   UNL A   1      30.128  23.443  27.341  1.00  0.00    -0.249 OA
ATOM     18  H   UNL A   1      29.443  23.937  25.155  1.00  0.00     0.165 HD
BRANCH  14  19
ATOM     19  C   UNL A   1      32.509  21.369  25.587  1.00  0.00     0.185 C 
BRANCH  19  20
ATOM     20  C   UNL A   1      33.865  21.994  25.400  1.00  0.00     0.112 A 
ATOM     21  C   UNL A   1      36.580  22.915  23.224  1.00  0.00     0.067 C 
ATOM     22  C   UNL A   1      35.697  22.763  24.407  1.00  0.00     0.049 A 
ATOM     23  C   UNL A   1      35.866  23.336  25.651  1.00  0.00     0.090 A 
ATOM     24  N   UNL A   1      34.569  21.971  24.285  1.00  0.00    -0.245 NA
ATOM     25  S   UNL A   1      34.583  22.881  26.690  1.00  0.00    -0.125 S 
ENDBRANCH  19  20
ENDBRANCH  14  19
ENDBRANCH  12  13
ENDBRANCH   7  12
ENDBRANCH   3   6
ENDBRANCH   1   2
BRANCH   1  26
ATOM     26  C   UNL A   1      31.750  31.396  27.261  1.00  0.00     0.042 C 
BRANCH  26  27
ATOM     27  C   UNL A   1      32.287  32.597  26.506  1.00  0.00     0.118 C 
BRANCH  27  28
ATOM     28  N   UNL A   1      32.182  33.838  27.265  1.00  0.00    -0.352 N 
ATOM     29  C   UNL A   1      32.943  34.357  28.287  1.00  0.00     0.251 C 
ATOM     30  H   UNL A   1      31.427  34.410  26.997  1.00  0.00     0.163 HD
ATOM     31  O   UNL A   1      32.578  35.396  28.823  1.00  0.00    -0.269 OA
BRANCH  29  32
ATOM     32  C   UNL A   1      34.170  33.676  28.771  1.00  0.00     0.039 A 
ATOM     33  C   UNL A   1      35.395  34.012  28.182  1.00  0.00     0.014 A 
ATOM     34  C   UNL A   1      34.137  32.697  29.762  1.00  0.00     0.014 A 
ATOM     35  C   UNL A   1      36.579  33.431  28.643  1.00  0.00     0.010 A 
ATOM     36  C   UNL A   1      35.320  32.204  30.300  1.00  0.00     0.010 A 
ATOM     37  C   UNL A   1      36.552  32.554  29.734  1.00  0.00    -0.014 A 
BRANCH  37  38
ATOM     38  C   UNL A   1      37.789  31.922  30.251  1.00  0.00     0.031 A 
ATOM     39  C   UNL A   1      38.469  32.512  31.454  1.00  0.00     0.074 A 
ATOM     40  C   UNL A   1      38.332  30.871  29.609  1.00  0.00     0.049 A 
ATOM     41  N   UNL A   1      39.594  32.164  32.022  1.00  0.00    -0.248 NA
ATOM     42  C   UNL A   1      37.817  33.679  32.073  1.00  0.00     0.031 C 
ATOM     43  C   UNL A   1      37.805  30.261  28.389  1.00  0.00     0.029 A 
ATOM     44  N   UNL A   1      39.455  30.135  29.890  1.00  0.00    -0.354 N 
ATOM     45  C   UNL A   1      39.796  33.084  33.042  1.00  0.00     0.074 A 
ATOM     46  C   UNL A   1      38.711  34.038  32.979  1.00  0.00     0.031 C 
ATOM     47  C   UNL A   1      38.577  29.215  28.052  1.00  0.00     0.029 A 
ATOM     48  C   UNL A   1      39.674  29.104  29.009  1.00  0.00     0.049 A 
ATOM     49  H   UNL A   1      40.048  30.326  30.652  1.00  0.00     0.167 HD
ATOM     50  C   UNL A   1      40.783  33.117  33.967  1.00  0.00     0.037 A 
ATOM     51  C   UNL A   1      40.650  28.177  28.979  1.00  0.00     0.037 A 
ATOM     52  C   UNL A   1      41.839  32.146  34.047  1.00  0.00     0.049 A 
ATOM     53  C   UNL A   1      41.714  28.210  30.041  1.00  0.00     0.074 A 
ATOM     54  C   UNL A   1      42.861  32.055  34.975  1.00  0.00     0.029 A 
ATOM     55  N   UNL A   1      42.002  31.089  33.164  1.00  0.00    -0.354 N 
ATOM     56  N   UNL A   1      41.861  29.049  31.040  1.00  0.00    -0.248 NA
ATOM     57  C   UNL A   1      42.749  27.168  29.975  1.00  0.00     0.031 C 
ATOM     58  C   UNL A   1      43.661  30.958  34.634  1.00  0.00     0.029 A 
ATOM     59  C   UNL A   1      43.113  30.344  33.519  1.00  0.00     0.049 A 
ATOM     60  H   UNL A   1      41.414  30.897  32.398  1.00  0.00     0.167 HD
ATOM     61  C   UNL A   1      42.986  28.624  31.732  1.00  0.00     0.074 A 
ATOM     62  C   UNL A   1      43.474  27.441  31.051  1.00  0.00     0.031 C 
ATOM     63  C   UNL A   1      43.569  29.164  32.830  1.00  0.00     0.037 A 
BRANCH  50  64
ATOM     64  C   UNL A   1      40.750  34.242  34.959  1.00  0.00     0.057 A 
ATOM     65  C   UNL A   1      40.065  34.131  36.177  1.00  0.00     0.134 A 
ATOM     66  C   UNL A   1      41.396  35.454  34.689  1.00  0.00     0.134 A 
ATOM     67  F   UNL A   1      39.407  33.003  36.487  1.00  0.00    -0.206 F 
ATOM     68  C   UNL A   1      39.992  35.198  37.075  1.00  0.00     0.040 A 
ATOM     69  C   UNL A   1      41.355  36.518  35.592  1.00  0.00     0.040 A 
ATOM     70  F   UNL A   1      42.070  35.627  33.542  1.00  0.00    -0.206 F 
ATOM     71  C   UNL A   1      40.643  36.394  36.784  1.00  0.00     0.006 A 
ENDBRANCH  50  64
BRANCH  51  72
ATOM     72  C   UNL A   1      40.648  27.118  27.939  1.00  0.00     0.057 A 
ATOM     73  C   UNL A   1      41.359  27.286  26.744  1.00  0.00     0.134 A 
ATOM     74  C   UNL A   1      39.936  25.925  28.102  1.00  0.00     0.134 A 
ATOM     75  F   UNL A   1      42.049  28.415  26.523  1.00  0.00    -0.206 F 
ATOM     76  C   UNL A   1      41.343  26.317  25.739  1.00  0.00     0.040 A 
ATOM     77  C   UNL A   1      39.931  24.936  27.115  1.00  0.00     0.040 A 
ATOM     78  F   UNL A   1      39.245  25.696  29.228  1.00  0.00    -0.206 F 
ATOM     79  C   UNL A   1      40.629  25.135  25.926  1.00  0.00     0.006 A 
ENDBRANCH  51  72
BRANCH  63  80
ATOM     80  C   UNL A   1      44.775  28.462  33.379  1.00  0.00     0.057 A 
ATOM     81  C   UNL A   1      46.074  28.829  33.009  1.00  0.00     0.134 A 
ATOM     82  C   UNL A   1      44.632  27.435  34.320  1.00  0.00     0.134 A 
ATOM     83  F   UNL A   1      46.276  29.797  32.101  1.00  0.00    -0.206 F 
ATOM     84  C   UNL A   1      47.191  28.184  33.542  1.00  0.00     0.040 A 
ATOM     85  C   UNL A   1      45.742  26.800  34.878  1.00  0.00     0.040 A 
ATOM     86  F   UNL A   1      43.414  27.044  34.721  1.00  0.00    -0.206 F 
ATOM     87  C   UNL A   1      47.025  27.171  34.485  1.00  0.00     0.006 A 
ENDBRANCH  63  80
ENDBRANCH  37  38
ENDBRANCH  29  32
ENDBRANCH  27  28
ENDBRANCH  26  27
ENDBRANCH   1  26
TORSDOF 14
ENDMDL
