MODEL 1
REMARK VINA RESULT:     -13.6      0.000      0.000
REMARK SMILES COc1cccc(-c2nn(-c3cc4c(cc3C(N)=O)OCO4)cc2C(=O)NCCCNC(=O)c2ccc(-c3c4nc(c(-c5c(F)cccc5F)c5ccc([nH]5)c(-c5c(F)cccc5F)c5nc(c(-c6c(F)cccc6F)c6ccc3[nH]6)C=C5)C=C4)cc2)c1
REMARK SMILES IDX 29 1 28 2 27 3 25 4 26 5 24 7 8 8 9 9 10 10 23 11 7 12 3 13
REMARK SMILES IDX 4 14 88 15 5 16 6 17 2 18 1 19 11 20 12 21 16 22 13 23 15 24
REMARK SMILES IDX 14 25 22 26 20 27 21 28 17 29 18 30 19 31 30 34 31 35 32 36
REMARK SMILES IDX 33 38 34 39 35 40 87 41 36 42 86 43 37 44 38 45 39 46 80 47
REMARK SMILES IDX 40 48 85 49 79 50 81 51 41 52 84 53 78 54 77 55 42 57 68 58
REMARK SMILES IDX 51 59 67 60 52 61 55 62 66 63 82 64 53 65 54 66 65 68 83 69
REMARK SMILES IDX 56 70 43 71 44 72 49 73 45 74 46 75 48 76 50 77 47 78 69 79
REMARK SMILES IDX 70 80 75 81 71 82 72 83 74 84 76 85 73 86 57 87 58 88 63 89
REMARK SMILES IDX 59 90 60 91 62 92 64 93 61 94
REMARK H PARENT 27 6 18 32 18 33 31 37 81 56 55 67
REMARK Flexibility Score: inf
ROOT
ATOM      1  C   UNL A   1      34.029  29.723  27.229  1.00  0.00     0.042 C 
ENDROOT
BRANCH   1   2
ATOM      2  C   UNL A   1      33.778  28.570  26.251  1.00  0.00     0.118 C 
BRANCH   2   3
ATOM      3  N   UNL A   1      34.237  28.876  24.906  1.00  0.00    -0.352 N 
ATOM      4  C   UNL A   1      33.887  28.373  23.674  1.00  0.00     0.255 C 
ATOM      5  O   UNL A   1      34.410  28.920  22.704  1.00  0.00    -0.269 OA
ATOM      6  H   UNL A   1      34.929  29.575  24.869  1.00  0.00     0.163 HD
BRANCH   4   7
ATOM      7  C   UNL A   1      32.935  27.279  23.536  1.00  0.00     0.086 A 
ATOM      8  C   UNL A   1      31.502  27.342  23.395  1.00  0.00     0.106 A 
ATOM      9  N   UNL A   1      30.948  26.109  23.402  1.00  0.00    -0.167 NA
ATOM     10  N   UNL A   1      31.982  25.301  23.720  1.00  0.00    -0.239 N 
ATOM     11  C   UNL A   1      33.182  25.925  23.490  1.00  0.00     0.129 A 
BRANCH   8  12
ATOM     12  C   UNL A   1      30.677  28.544  23.257  1.00  0.00     0.007 A 
ATOM     13  C   UNL A   1      28.987  29.823  22.080  1.00  0.00     0.119 A 
ATOM     14  C   UNL A   1      29.014  30.791  23.085  1.00  0.00     0.046 A 
ATOM     15  C   UNL A   1      29.832  28.710  22.151  1.00  0.00     0.056 A 
ATOM     16  C   UNL A   1      29.864  30.642  24.178  1.00  0.00     0.005 A 
ATOM     17  C   UNL A   1      30.697  29.525  24.260  1.00  0.00     0.011 A 
BRANCH  13  18
ATOM     18  O   UNL A   1      28.149  30.076  21.027  1.00  0.00    -0.497 OA
ATOM     19  C   UNL A   1      28.028  31.461  20.716  1.00  0.00     0.278 C 
ENDBRANCH  13  18
ENDBRANCH   8  12
BRANCH  10  20
ATOM     20  C   UNL A   1      31.846  23.934  24.063  1.00  0.00     0.081 A 
ATOM     21  C   UNL A   1      32.122  22.974  23.073  1.00  0.00     0.079 A 
ATOM     22  C   UNL A   1      31.555  23.542  25.406  1.00  0.00     0.069 A 
ATOM     23  C   UNL A   1      32.185  21.655  23.476  1.00  0.00     0.167 A 
ATOM     24  C   UNL A   1      31.735  22.202  25.780  1.00  0.00     0.066 A 
ATOM     25  C   UNL A   1      32.029  21.291  24.793  1.00  0.00     0.166 A 
ATOM     26  O   UNL A   1      32.416  20.577  22.679  1.00  0.00    -0.454 OA
ATOM     27  O   UNL A   1      32.141  19.949  24.984  1.00  0.00    -0.454 OA
ATOM     28  C   UNL A   1      32.190  19.499  23.615  1.00  0.00     0.468 C 
BRANCH  22  29
ATOM     29  C   UNL A   1      30.862  24.467  26.370  1.00  0.00     0.251 C 
ATOM     30  N   UNL A   1      29.528  24.282  26.612  1.00  0.00    -0.366 N 
ATOM     31  O   UNL A   1      31.402  25.431  26.890  1.00  0.00    -0.269 OA
ATOM     32  H   UNL A   1      29.056  23.517  26.212  1.00  0.00     0.159 HD
ATOM     33  H   UNL A   1      29.041  24.914  27.188  1.00  0.00     0.159 HD
ENDBRANCH  22  29
ENDBRANCH  10  20
ENDBRANCH   4   7
ENDBRANCH   2   3
ENDBRANCH   1   2
BRANCH   1  34
ATOM     34  C   UNL A   1      35.459  29.711  27.742  1.00  0.00     0.118 C 
BRANCH  34  35
ATOM     35  N   UNL A   1      35.545  30.061  29.163  1.00  0.00    -0.352 N 
ATOM     36  C   UNL A   1      36.491  29.677  30.098  1.00  0.00     0.251 C 
ATOM     37  H   UNL A   1      34.831  30.651  29.499  1.00  0.00     0.163 HD
ATOM     38  O   UNL A   1      36.276  29.778  31.290  1.00  0.00    -0.269 OA
BRANCH  36  39
ATOM     39  C   UNL A   1      37.769  29.132  29.607  1.00  0.00     0.039 A 
ATOM     40  C   UNL A   1      38.412  29.667  28.489  1.00  0.00     0.014 A 
ATOM     41  C   UNL A   1      38.347  28.102  30.336  1.00  0.00     0.014 A 
ATOM     42  C   UNL A   1      39.690  29.213  28.176  1.00  0.00     0.010 A 
ATOM     43  C   UNL A   1      39.671  27.816  30.158  1.00  0.00     0.010 A 
ATOM     44  C   UNL A   1      40.326  28.303  29.036  1.00  0.00    -0.014 A 
BRANCH  44  45
ATOM     45  C   UNL A   1      41.715  27.910  28.833  1.00  0.00     0.031 A 
ATOM     46  C   UNL A   1      41.894  26.649  28.068  1.00  0.00     0.074 A 
ATOM     47  C   UNL A   1      42.753  28.727  29.121  1.00  0.00     0.049 A 
ATOM     48  N   UNL A   1      42.338  25.518  28.507  1.00  0.00    -0.248 NA
ATOM     49  C   UNL A   1      41.388  26.594  26.686  1.00  0.00     0.031 C 
ATOM     50  C   UNL A   1      42.713  30.118  29.596  1.00  0.00     0.029 A 
ATOM     51  N   UNL A   1      44.087  28.513  28.950  1.00  0.00    -0.354 N 
ATOM     52  C   UNL A   1      42.381  24.673  27.402  1.00  0.00     0.074 A 
ATOM     53  C   UNL A   1      41.613  25.316  26.370  1.00  0.00     0.031 C 
ATOM     54  C   UNL A   1      43.925  30.690  29.446  1.00  0.00     0.029 A 
ATOM     55  C   UNL A   1      44.867  29.659  29.061  1.00  0.00     0.049 A 
ATOM     56  H   UNL A   1      44.466  27.625  28.765  1.00  0.00     0.167 HD
ATOM     57  C   UNL A   1      43.277  23.650  27.346  1.00  0.00     0.037 A 
ATOM     58  C   UNL A   1      46.200  29.761  28.858  1.00  0.00     0.037 A 
ATOM     59  C   UNL A   1      43.844  23.389  28.646  1.00  0.00     0.049 A 
ATOM     60  C   UNL A   1      46.765  28.403  28.997  1.00  0.00     0.074 A 
ATOM     61  C   UNL A   1      43.370  22.952  29.865  1.00  0.00     0.029 A 
ATOM     62  N   UNL A   1      45.062  23.971  28.889  1.00  0.00    -0.354 N 
ATOM     63  N   UNL A   1      46.783  27.739  30.119  1.00  0.00    -0.248 NA
ATOM     64  C   UNL A   1      46.948  27.604  27.797  1.00  0.00     0.031 C 
ATOM     65  C   UNL A   1      44.150  23.644  30.843  1.00  0.00     0.029 A 
ATOM     66  C   UNL A   1      45.095  24.427  30.179  1.00  0.00     0.049 A 
ATOM     67  H   UNL A   1      45.797  24.050  28.238  1.00  0.00     0.167 HD
ATOM     68  C   UNL A   1      46.534  26.426  29.752  1.00  0.00     0.074 A 
ATOM     69  C   UNL A   1      46.799  26.382  28.317  1.00  0.00     0.031 C 
ATOM     70  C   UNL A   1      45.860  25.585  30.593  1.00  0.00     0.037 A 
BRANCH  57  71
ATOM     71  C   UNL A   1      43.981  23.200  26.083  1.00  0.00     0.057 A 
ATOM     72  C   UNL A   1      43.970  21.831  25.747  1.00  0.00     0.134 A 
ATOM     73  C   UNL A   1      44.918  23.978  25.373  1.00  0.00     0.134 A 
ATOM     74  F   UNL A   1      43.136  20.979  26.362  1.00  0.00    -0.206 F 
ATOM     75  C   UNL A   1      44.876  21.273  24.837  1.00  0.00     0.040 A 
ATOM     76  C   UNL A   1      45.792  23.439  24.425  1.00  0.00     0.040 A 
ATOM     77  F   UNL A   1      45.117  25.276  25.629  1.00  0.00    -0.206 F 
ATOM     78  C   UNL A   1      45.798  22.077  24.178  1.00  0.00     0.006 A 
ENDBRANCH  57  71
BRANCH  58  79
ATOM     79  C   UNL A   1      46.960  30.901  28.306  1.00  0.00     0.057 A 
ATOM     80  C   UNL A   1      46.835  31.289  26.967  1.00  0.00     0.134 A 
ATOM     81  C   UNL A   1      47.623  31.805  29.156  1.00  0.00     0.134 A 
ATOM     82  F   UNL A   1      46.183  30.510  26.092  1.00  0.00    -0.206 F 
ATOM     83  C   UNL A   1      47.320  32.518  26.501  1.00  0.00     0.040 A 
ATOM     84  C   UNL A   1      48.115  33.034  28.704  1.00  0.00     0.040 A 
ATOM     85  F   UNL A   1      47.731  31.563  30.471  1.00  0.00    -0.206 F 
ATOM     86  C   UNL A   1      47.952  33.401  27.373  1.00  0.00     0.006 A 
ENDBRANCH  58  79
BRANCH  70  87
ATOM     87  C   UNL A   1      45.726  26.013  32.031  1.00  0.00     0.057 A 
ATOM     88  C   UNL A   1      44.593  26.639  32.571  1.00  0.00     0.134 A 
ATOM     89  C   UNL A   1      46.744  25.673  32.927  1.00  0.00     0.134 A 
ATOM     90  F   UNL A   1      43.529  26.923  31.814  1.00  0.00    -0.206 F 
ATOM     91  C   UNL A   1      44.498  26.952  33.932  1.00  0.00     0.040 A 
ATOM     92  C   UNL A   1      46.649  25.949  34.293  1.00  0.00     0.040 A 
ATOM     93  F   UNL A   1      47.837  25.026  32.492  1.00  0.00    -0.206 F 
ATOM     94  C   UNL A   1      45.528  26.601  34.799  1.00  0.00     0.006 A 
ENDBRANCH  70  87
ENDBRANCH  44  45
ENDBRANCH  36  39
ENDBRANCH  34  35
ENDBRANCH   1  34
TORSDOF 14
ENDMDL
MODEL 2
REMARK VINA RESULT:     -13.6      2.357      6.106
REMARK SMILES COc1cccc(-c2nn(-c3cc4c(cc3C(N)=O)OCO4)cc2C(=O)NCCCNC(=O)c2ccc(-c3c4nc(c(-c5c(F)cccc5F)c5ccc([nH]5)c(-c5c(F)cccc5F)c5nc(c(-c6c(F)cccc6F)c6ccc3[nH]6)C=C5)C=C4)cc2)c1
REMARK SMILES IDX 29 1 28 2 27 3 25 4 26 5 24 7 8 8 9 9 10 10 23 11 7 12 3 13
REMARK SMILES IDX 4 14 88 15 5 16 6 17 2 18 1 19 11 20 12 21 16 22 13 23 15 24
REMARK SMILES IDX 14 25 22 26 20 27 21 28 17 29 18 30 19 31 30 34 31 35 32 36
REMARK SMILES IDX 33 38 34 39 35 40 87 41 36 42 86 43 37 44 38 45 39 46 80 47
REMARK SMILES IDX 40 48 85 49 79 50 81 51 41 52 84 53 78 54 77 55 42 57 68 58
REMARK SMILES IDX 51 59 67 60 52 61 55 62 66 63 82 64 53 65 54 66 65 68 83 69
REMARK SMILES IDX 56 70 43 71 44 72 49 73 45 74 46 75 48 76 50 77 47 78 69 79
REMARK SMILES IDX 70 80 75 81 71 82 72 83 74 84 76 85 73 86 57 87 58 88 63 89
REMARK SMILES IDX 59 90 60 91 62 92 64 93 61 94
REMARK H PARENT 27 6 18 32 18 33 31 37 81 56 55 67
REMARK Flexibility Score: inf
ROOT
ATOM      1  C   UNL A   1      34.854  29.984  27.491  1.00  0.00     0.042 C 
ENDROOT
BRANCH   1   2
ATOM      2  C   UNL A   1      33.567  30.048  26.661  1.00  0.00     0.118 C 
BRANCH   2   3
ATOM      3  N   UNL A   1      32.432  29.461  27.353  1.00  0.00    -0.352 N 
ATOM      4  C   UNL A   1      31.840  28.222  27.272  1.00  0.00     0.255 C 
ATOM      5  O   UNL A   1      30.933  28.008  28.075  1.00  0.00    -0.269 OA
ATOM      6  H   UNL A   1      32.005  30.065  28.003  1.00  0.00     0.163 HD
BRANCH   4   7
ATOM      7  C   UNL A   1      32.286  27.221  26.312  1.00  0.00     0.086 A 
ATOM      8  C   UNL A   1      31.694  26.851  25.052  1.00  0.00     0.106 A 
ATOM      9  N   UNL A   1      32.335  25.801  24.491  1.00  0.00    -0.167 NA
ATOM     10  N   UNL A   1      33.194  25.406  25.455  1.00  0.00    -0.239 N 
ATOM     11  C   UNL A   1      33.392  26.402  26.376  1.00  0.00     0.129 A 
BRANCH   8  12
ATOM     12  C   UNL A   1      30.545  27.478  24.394  1.00  0.00     0.007 A 
ATOM     13  C   UNL A   1      29.526  29.370  23.273  1.00  0.00     0.119 A 
ATOM     14  C   UNL A   1      28.381  28.612  23.023  1.00  0.00     0.046 A 
ATOM     15  C   UNL A   1      30.601  28.815  23.977  1.00  0.00     0.056 A 
ATOM     16  C   UNL A   1      28.313  27.288  23.452  1.00  0.00     0.005 A 
ATOM     17  C   UNL A   1      29.389  26.726  24.140  1.00  0.00     0.011 A 
BRANCH  13  18
ATOM     18  O   UNL A   1      29.485  30.672  22.849  1.00  0.00    -0.497 OA
ATOM     19  C   UNL A   1      28.605  31.491  23.612  1.00  0.00     0.278 C 
ENDBRANCH  13  18
ENDBRANCH   8  12
BRANCH  10  20
ATOM     20  C   UNL A   1      33.932  24.198  25.414  1.00  0.00     0.081 A 
ATOM     21  C   UNL A   1      35.114  24.170  24.653  1.00  0.00     0.079 A 
ATOM     22  C   UNL A   1      33.551  23.080  26.220  1.00  0.00     0.069 A 
ATOM     23  C   UNL A   1      35.923  23.061  24.788  1.00  0.00     0.167 A 
ATOM     24  C   UNL A   1      34.460  22.027  26.399  1.00  0.00     0.066 A 
ATOM     25  C   UNL A   1      35.618  22.041  25.659  1.00  0.00     0.166 A 
ATOM     26  O   UNL A   1      37.091  22.828  24.129  1.00  0.00    -0.454 OA
ATOM     27  O   UNL A   1      36.549  21.050  25.654  1.00  0.00    -0.454 OA
ATOM     28  C   UNL A   1      37.366  21.471  24.543  1.00  0.00     0.468 C 
BRANCH  22  29
ATOM     29  C   UNL A   1      32.137  22.896  26.702  1.00  0.00     0.251 C 
ATOM     30  N   UNL A   1      31.346  21.970  26.079  1.00  0.00    -0.366 N 
ATOM     31  O   UNL A   1      31.623  23.586  27.570  1.00  0.00    -0.269 OA
ATOM     32  H   UNL A   1      31.723  21.394  25.375  1.00  0.00     0.159 HD
ATOM     33  H   UNL A   1      30.400  21.879  26.335  1.00  0.00     0.159 HD
ENDBRANCH  22  29
ENDBRANCH  10  20
ENDBRANCH   4   7
ENDBRANCH   2   3
ENDBRANCH   1   2
BRANCH   1  34
ATOM     34  C   UNL A   1      35.484  31.358  27.639  1.00  0.00     0.118 C 
BRANCH  34  35
ATOM     35  N   UNL A   1      35.026  32.055  28.845  1.00  0.00    -0.352 N 
ATOM     36  C   UNL A   1      35.394  31.846  30.163  1.00  0.00     0.251 C 
ATOM     37  H   UNL A   1      34.365  32.770  28.698  1.00  0.00     0.163 HD
ATOM     38  O   UNL A   1      34.720  32.269  31.081  1.00  0.00    -0.269 OA
BRANCH  36  39
ATOM     39  C   UNL A   1      36.629  31.085  30.426  1.00  0.00     0.039 A 
ATOM     40  C   UNL A   1      36.598  29.721  30.724  1.00  0.00     0.014 A 
ATOM     41  C   UNL A   1      37.836  31.760  30.302  1.00  0.00     0.014 A 
ATOM     42  C   UNL A   1      37.804  29.030  30.802  1.00  0.00     0.010 A 
ATOM     43  C   UNL A   1      38.992  31.047  30.165  1.00  0.00     0.010 A 
ATOM     44  C   UNL A   1      39.000  29.698  30.492  1.00  0.00    -0.014 A 
BRANCH  44  45
ATOM     45  C   UNL A   1      40.270  28.985  30.415  1.00  0.00     0.031 A 
ATOM     46  C   UNL A   1      40.973  28.837  31.715  1.00  0.00     0.074 A 
ATOM     47  C   UNL A   1      40.670  28.327  29.305  1.00  0.00     0.049 A 
ATOM     48  N   UNL A   1      42.076  29.400  32.083  1.00  0.00    -0.248 NA
ATOM     49  C   UNL A   1      40.301  28.087  32.791  1.00  0.00     0.031 C 
ATOM     50  C   UNL A   1      39.934  28.132  28.047  1.00  0.00     0.029 A 
ATOM     51  N   UNL A   1      41.799  27.594  29.101  1.00  0.00    -0.354 N 
ATOM     52  C   UNL A   1      42.356  28.897  33.350  1.00  0.00     0.074 A 
ATOM     53  C   UNL A   1      41.151  28.258  33.807  1.00  0.00     0.031 C 
ATOM     54  C   UNL A   1      40.516  27.155  27.321  1.00  0.00     0.029 A 
ATOM     55  C   UNL A   1      41.767  26.801  27.960  1.00  0.00     0.049 A 
ATOM     56  H   UNL A   1      42.571  27.623  29.710  1.00  0.00     0.167 HD
ATOM     57  C   UNL A   1      43.640  28.809  33.794  1.00  0.00     0.037 A 
ATOM     58  C   UNL A   1      42.704  25.915  27.555  1.00  0.00     0.037 A 
ATOM     59  C   UNL A   1      44.525  29.596  32.971  1.00  0.00     0.049 A 
ATOM     60  C   UNL A   1      43.968  26.283  28.227  1.00  0.00     0.074 A 
ATOM     61  C   UNL A   1      44.681  30.935  32.681  1.00  0.00     0.029 A 
ATOM     62  N   UNL A   1      45.192  28.906  31.991  1.00  0.00    -0.354 N 
ATOM     63  N   UNL A   1      44.619  27.387  27.987  1.00  0.00    -0.248 NA
ATOM     64  C   UNL A   1      44.309  25.617  29.473  1.00  0.00     0.031 C 
ATOM     65  C   UNL A   1      45.106  30.979  31.318  1.00  0.00     0.029 A 
ATOM     66  C   UNL A   1      45.241  29.668  30.856  1.00  0.00     0.049 A 
ATOM     67  H   UNL A   1      45.576  28.005  32.089  1.00  0.00     0.167 HD
ATOM     68  C   UNL A   1      45.107  27.781  29.223  1.00  0.00     0.074 A 
ATOM     69  C   UNL A   1      45.020  26.586  30.057  1.00  0.00     0.031 C 
ATOM     70  C   UNL A   1      45.256  29.106  29.521  1.00  0.00     0.037 A 
BRANCH  57  71
ATOM     71  C   UNL A   1      44.171  27.682  34.654  1.00  0.00     0.057 A 
ATOM     72  C   UNL A   1      44.004  26.353  34.216  1.00  0.00     0.134 A 
ATOM     73  C   UNL A   1      44.538  27.819  36.009  1.00  0.00     0.134 A 
ATOM     74  F   UNL A   1      43.640  26.086  32.953  1.00  0.00    -0.206 F 
ATOM     75  C   UNL A   1      44.115  25.257  35.081  1.00  0.00     0.040 A 
ATOM     76  C   UNL A   1      44.702  26.728  36.867  1.00  0.00     0.040 A 
ATOM     77  F   UNL A   1      44.654  29.010  36.607  1.00  0.00    -0.206 F 
ATOM     78  C   UNL A   1      44.457  25.443  36.414  1.00  0.00     0.006 A 
ENDBRANCH  57  71
BRANCH  58  79
ATOM     79  C   UNL A   1      42.512  24.638  26.837  1.00  0.00     0.057 A 
ATOM     80  C   UNL A   1      43.012  24.441  25.544  1.00  0.00     0.134 A 
ATOM     81  C   UNL A   1      42.067  23.489  27.514  1.00  0.00     0.134 A 
ATOM     82  F   UNL A   1      43.496  25.472  24.837  1.00  0.00    -0.206 F 
ATOM     83  C   UNL A   1      43.088  23.167  24.964  1.00  0.00     0.040 A 
ATOM     84  C   UNL A   1      42.135  22.213  26.946  1.00  0.00     0.040 A 
ATOM     85  F   UNL A   1      41.639  23.559  28.783  1.00  0.00    -0.206 F 
ATOM     86  C   UNL A   1      42.660  22.046  25.671  1.00  0.00     0.006 A 
ENDBRANCH  58  79
BRANCH  70  87
ATOM     87  C   UNL A   1      45.223  30.077  28.371  1.00  0.00     0.057 A 
ATOM     88  C   UNL A   1      44.074  30.751  27.932  1.00  0.00     0.134 A 
ATOM     89  C   UNL A   1      46.430  30.428  27.757  1.00  0.00     0.134 A 
ATOM     90  F   UNL A   1      42.888  30.553  28.516  1.00  0.00    -0.206 F 
ATOM     91  C   UNL A   1      44.117  31.695  26.901  1.00  0.00     0.040 A 
ATOM     92  C   UNL A   1      46.493  31.393  26.750  1.00  0.00     0.040 A 
ATOM     93  F   UNL A   1      47.580  29.864  28.159  1.00  0.00    -0.206 F 
ATOM     94  C   UNL A   1      45.332  32.023  26.309  1.00  0.00     0.006 A 
ENDBRANCH  70  87
ENDBRANCH  44  45
ENDBRANCH  36  39
ENDBRANCH  34  35
ENDBRANCH   1  34
TORSDOF 14
ENDMDL
MODEL 3
REMARK VINA RESULT:     -13.6      1.771      5.832
REMARK SMILES COc1cccc(-c2nn(-c3cc4c(cc3C(N)=O)OCO4)cc2C(=O)NCCCNC(=O)c2ccc(-c3c4nc(c(-c5c(F)cccc5F)c5ccc([nH]5)c(-c5c(F)cccc5F)c5nc(c(-c6c(F)cccc6F)c6ccc3[nH]6)C=C5)C=C4)cc2)c1
REMARK SMILES IDX 29 1 28 2 27 3 25 4 26 5 24 7 8 8 9 9 10 10 23 11 7 12 3 13
REMARK SMILES IDX 4 14 88 15 5 16 6 17 2 18 1 19 11 20 12 21 16 22 13 23 15 24
REMARK SMILES IDX 14 25 22 26 20 27 21 28 17 29 18 30 19 31 30 34 31 35 32 36
REMARK SMILES IDX 33 38 34 39 35 40 87 41 36 42 86 43 37 44 38 45 39 46 80 47
REMARK SMILES IDX 40 48 85 49 79 50 81 51 41 52 84 53 78 54 77 55 42 57 68 58
REMARK SMILES IDX 51 59 67 60 52 61 55 62 66 63 82 64 53 65 54 66 65 68 83 69
REMARK SMILES IDX 56 70 43 71 44 72 49 73 45 74 46 75 48 76 50 77 47 78 69 79
REMARK SMILES IDX 70 80 75 81 71 82 72 83 74 84 76 85 73 86 57 87 58 88 63 89
REMARK SMILES IDX 59 90 60 91 62 92 64 93 61 94
REMARK H PARENT 27 6 18 32 18 33 31 37 81 56 55 67
REMARK Flexibility Score: inf
ROOT
ATOM      1  C   UNL A   1      33.513  29.762  27.209  1.00  0.00     0.042 C 
ENDROOT
BRANCH   1   2
ATOM      2  C   UNL A   1      33.785  28.504  26.377  1.00  0.00     0.118 C 
BRANCH   2   3
ATOM      3  N   UNL A   1      34.262  28.817  25.039  1.00  0.00    -0.352 N 
ATOM      4  C   UNL A   1      33.928  28.323  23.800  1.00  0.00     0.255 C 
ATOM      5  O   UNL A   1      34.465  28.876  22.841  1.00  0.00    -0.269 OA
ATOM      6  H   UNL A   1      34.956  29.515  25.017  1.00  0.00     0.163 HD
BRANCH   4   7
ATOM      7  C   UNL A   1      32.975  27.233  23.641  1.00  0.00     0.086 A 
ATOM      8  C   UNL A   1      31.545  27.301  23.479  1.00  0.00     0.106 A 
ATOM      9  N   UNL A   1      30.988  26.069  23.472  1.00  0.00    -0.167 NA
ATOM     10  N   UNL A   1      32.015  25.257  23.800  1.00  0.00    -0.239 N 
ATOM     11  C   UNL A   1      33.220  25.878  23.592  1.00  0.00     0.129 A 
BRANCH   8  12
ATOM     12  C   UNL A   1      30.725  28.505  23.335  1.00  0.00     0.007 A 
ATOM     13  C   UNL A   1      29.034  29.781  22.157  1.00  0.00     0.119 A 
ATOM     14  C   UNL A   1      29.072  30.759  23.152  1.00  0.00     0.046 A 
ATOM     15  C   UNL A   1      29.874  28.665  22.233  1.00  0.00     0.056 A 
ATOM     16  C   UNL A   1      29.929  30.616  24.241  1.00  0.00     0.005 A 
ATOM     17  C   UNL A   1      30.757  29.496  24.328  1.00  0.00     0.011 A 
BRANCH  13  18
ATOM     18  O   UNL A   1      28.190  30.029  21.107  1.00  0.00    -0.497 OA
ATOM     19  C   UNL A   1      28.065  31.412  20.791  1.00  0.00     0.278 C 
ENDBRANCH  13  18
ENDBRANCH   8  12
BRANCH  10  20
ATOM     20  C   UNL A   1      31.870  23.888  24.134  1.00  0.00     0.081 A 
ATOM     21  C   UNL A   1      32.152  22.933  23.142  1.00  0.00     0.079 A 
ATOM     22  C   UNL A   1      31.565  23.489  25.472  1.00  0.00     0.069 A 
ATOM     23  C   UNL A   1      32.206  21.611  23.537  1.00  0.00     0.167 A 
ATOM     24  C   UNL A   1      31.735  22.146  25.840  1.00  0.00     0.066 A 
ATOM     25  C   UNL A   1      32.036  21.240  24.850  1.00  0.00     0.166 A 
ATOM     26  O   UNL A   1      32.441  20.537  22.736  1.00  0.00    -0.454 OA
ATOM     27  O   UNL A   1      32.141  19.896  25.034  1.00  0.00    -0.454 OA
ATOM     28  C   UNL A   1      32.201  19.454  23.663  1.00  0.00     0.468 C 
BRANCH  22  29
ATOM     29  C   UNL A   1      30.865  24.411  26.434  1.00  0.00     0.251 C 
ATOM     30  N   UNL A   1      29.551  24.174  26.732  1.00  0.00    -0.366 N 
ATOM     31  O   UNL A   1      31.380  25.414  26.906  1.00  0.00    -0.269 OA
ATOM     32  H   UNL A   1      29.100  23.377  26.371  1.00  0.00     0.159 HD
ATOM     33  H   UNL A   1      29.056  24.802  27.307  1.00  0.00     0.159 HD
ENDBRANCH  22  29
ENDBRANCH  10  20
ENDBRANCH   4   7
ENDBRANCH   2   3
ENDBRANCH   1   2
BRANCH   1  34
ATOM     34  C   UNL A   1      34.805  30.469  27.579  1.00  0.00     0.118 C 
BRANCH  34  35
ATOM     35  N   UNL A   1      34.586  31.580  28.509  1.00  0.00    -0.352 N 
ATOM     36  C   UNL A   1      35.180  31.817  29.737  1.00  0.00     0.251 C 
ATOM     37  H   UNL A   1      33.924  32.251  28.223  1.00  0.00     0.163 HD
ATOM     38  O   UNL A   1      34.690  32.591  30.536  1.00  0.00    -0.269 OA
BRANCH  36  39
ATOM     39  C   UNL A   1      36.425  31.095  30.055  1.00  0.00     0.039 A 
ATOM     40  C   UNL A   1      36.414  29.757  30.452  1.00  0.00     0.014 A 
ATOM     41  C   UNL A   1      37.622  31.778  29.884  1.00  0.00     0.014 A 
ATOM     42  C   UNL A   1      37.630  29.091  30.581  1.00  0.00     0.010 A 
ATOM     43  C   UNL A   1      38.789  31.073  29.800  1.00  0.00     0.010 A 
ATOM     44  C   UNL A   1      38.816  29.752  30.224  1.00  0.00    -0.014 A 
BRANCH  44  45
ATOM     45  C   UNL A   1      40.097  29.055  30.200  1.00  0.00     0.031 A 
ATOM     46  C   UNL A   1      40.757  28.933  31.525  1.00  0.00     0.074 A 
ATOM     47  C   UNL A   1      40.543  28.387  29.113  1.00  0.00     0.049 A 
ATOM     48  N   UNL A   1      41.840  29.515  31.922  1.00  0.00    -0.248 NA
ATOM     49  C   UNL A   1      40.058  28.189  32.587  1.00  0.00     0.031 C 
ATOM     50  C   UNL A   1      39.853  28.167  27.833  1.00  0.00     0.029 A 
ATOM     51  N   UNL A   1      41.687  27.666  28.958  1.00  0.00    -0.354 N 
ATOM     52  C   UNL A   1      42.083  29.032  33.205  1.00  0.00     0.074 A 
ATOM     53  C   UNL A   1      40.871  28.384  33.629  1.00  0.00     0.031 C 
ATOM     54  C   UNL A   1      40.471  27.188  27.141  1.00  0.00     0.029 A 
ATOM     55  C   UNL A   1      41.703  26.858  27.827  1.00  0.00     0.049 A 
ATOM     56  H   UNL A   1      42.438  27.713  29.592  1.00  0.00     0.167 HD
ATOM     57  C   UNL A   1      43.352  28.966  33.693  1.00  0.00     0.037 A 
ATOM     58  C   UNL A   1      42.665  25.978  27.466  1.00  0.00     0.037 A 
ATOM     59  C   UNL A   1      44.254  29.754  32.890  1.00  0.00     0.049 A 
ATOM     60  C   UNL A   1      43.901  26.371  28.175  1.00  0.00     0.074 A 
ATOM     61  C   UNL A   1      44.404  31.090  32.588  1.00  0.00     0.029 A 
ATOM     62  N   UNL A   1      44.963  29.059  31.943  1.00  0.00    -0.354 N 
ATOM     63  N   UNL A   1      44.546  27.481  27.942  1.00  0.00    -0.248 NA
ATOM     64  C   UNL A   1      44.207  25.726  29.441  1.00  0.00     0.031 C 
ATOM     65  C   UNL A   1      44.874  31.122  31.239  1.00  0.00     0.029 A 
ATOM     66  C   UNL A   1      45.041  29.807  30.800  1.00  0.00     0.049 A 
ATOM     67  H   UNL A   1      45.354  28.164  32.066  1.00  0.00     0.167 HD
ATOM     68  C   UNL A   1      44.986  27.897  29.189  1.00  0.00     0.074 A 
ATOM     69  C   UNL A   1      44.885  26.712  30.036  1.00  0.00     0.031 C 
ATOM     70  C   UNL A   1      45.109  29.228  29.474  1.00  0.00     0.037 A 
BRANCH  57  71
ATOM     71  C   UNL A   1      43.867  27.858  34.586  1.00  0.00     0.057 A 
ATOM     72  C   UNL A   1      43.792  26.526  34.132  1.00  0.00     0.134 A 
ATOM     73  C   UNL A   1      44.126  28.001  35.965  1.00  0.00     0.134 A 
ATOM     74  F   UNL A   1      43.534  26.252  32.844  1.00  0.00    -0.206 F 
ATOM     75  C   UNL A   1      43.887  25.429  34.998  1.00  0.00     0.040 A 
ATOM     76  C   UNL A   1      44.274  26.912  36.828  1.00  0.00     0.040 A 
ATOM     77  F   UNL A   1      44.145  29.192  36.574  1.00  0.00    -0.206 F 
ATOM     78  C   UNL A   1      44.120  25.621  36.354  1.00  0.00     0.006 A 
ENDBRANCH  57  71
BRANCH  58  79
ATOM     79  C   UNL A   1      42.513  24.690  26.759  1.00  0.00     0.057 A 
ATOM     80  C   UNL A   1      43.077  24.475  25.496  1.00  0.00     0.134 A 
ATOM     81  C   UNL A   1      42.040  23.549  27.432  1.00  0.00     0.134 A 
ATOM     82  F   UNL A   1      43.591  25.497  24.798  1.00  0.00    -0.206 F 
ATOM     83  C   UNL A   1      43.186  23.193  24.940  1.00  0.00     0.040 A 
ATOM     84  C   UNL A   1      42.140  22.265  26.888  1.00  0.00     0.040 A 
ATOM     85  F   UNL A   1      41.549  23.637  28.677  1.00  0.00    -0.206 F 
ATOM     86  C   UNL A   1      42.728  22.081  25.642  1.00  0.00     0.006 A 
ENDBRANCH  58  79
BRANCH  70  87
ATOM     87  C   UNL A   1      45.103  30.183  28.310  1.00  0.00     0.057 A 
ATOM     88  C   UNL A   1      43.958  30.824  27.813  1.00  0.00     0.134 A 
ATOM     89  C   UNL A   1      46.327  30.554  27.744  1.00  0.00     0.134 A 
ATOM     90  F   UNL A   1      42.753  30.605  28.348  1.00  0.00    -0.206 F 
ATOM     91  C   UNL A   1      44.024  31.756  26.772  1.00  0.00     0.040 A 
ATOM     92  C   UNL A   1      46.411  31.508  26.727  1.00  0.00     0.040 A 
ATOM     93  F   UNL A   1      47.471  30.023  28.202  1.00  0.00    -0.206 F 
ATOM     94  C   UNL A   1      45.256  32.105  26.229  1.00  0.00     0.006 A 
ENDBRANCH  70  87
ENDBRANCH  44  45
ENDBRANCH  36  39
ENDBRANCH  34  35
ENDBRANCH   1  34
TORSDOF 14
ENDMDL
