MODEL 1
REMARK VINA RESULT:     -11.1      0.000      0.000
REMARK SMILES COc1ncnc(N2CCSC[C@@H]2CC(=O)NCCCNC(=O)c2ccc(-c3c4nc(c(-c5c(F)cccc5F)c5ccc([nH]5)c(-c5c(F)cccc5F)c5nc(c(-c6c(F)cccc6F)c6ccc3[nH]6)C=C5)C=C4)cc2)c1[N+](=O)[O-]
REMARK SMILES IDX 18 1 17 2 15 3 16 4 14 6 13 7 8 8 9 9 10 10 12 11 11 12 7 13
REMARK SMILES IDX 3 14 4 15 78 16 5 17 6 18 2 19 1 20 79 21 80 22 81 23 19 24
REMARK SMILES IDX 20 25 21 26 22 27 23 29 24 30 25 31 77 32 26 33 76 34 27 35
REMARK SMILES IDX 28 36 29 37 70 38 30 39 75 40 69 41 71 42 31 43 74 44 68 45
REMARK SMILES IDX 67 46 32 48 58 49 41 50 57 51 42 52 45 53 56 54 72 55 43 56
REMARK SMILES IDX 44 57 55 59 73 60 46 61 33 62 34 63 39 64 35 65 36 66 38 67
REMARK SMILES IDX 40 68 37 69 59 70 60 71 65 72 61 73 62 74 64 75 66 76 63 77
REMARK SMILES IDX 47 78 48 79 53 80 49 81 50 82 52 83 54 84 51 85
REMARK H PARENT 17 5 21 28 71 47 45 58
REMARK Flexibility Score: inf
ROOT
ATOM      1  C   UNL A   1      32.704  28.835  25.269  1.00  0.00     0.117 C 
ENDROOT
BRANCH   1   2
ATOM      2  N   UNL A   1      31.644  28.041  25.868  1.00  0.00    -0.356 N 
ATOM      3  C   UNL A   1      31.547  26.714  26.150  1.00  0.00     0.222 C 
ATOM      4  O   UNL A   1      30.613  26.357  26.877  1.00  0.00    -0.275 OA
ATOM      5  H   UNL A   1      30.845  28.562  26.116  1.00  0.00     0.163 HD
BRANCH   3   6
ATOM      6  C   UNL A   1      32.525  25.686  25.620  1.00  0.00     0.126 C 
BRANCH   6   7
ATOM      7  C   UNL A   1      31.940  24.737  24.565  1.00  0.00     0.103 C 
ATOM      8  N   UNL A   1      32.988  24.031  23.797  1.00  0.00    -0.345 N 
ATOM      9  C   UNL A   1      33.794  24.814  22.841  1.00  0.00     0.129 C 
ATOM     10  C   UNL A   1      32.940  25.404  21.719  1.00  0.00     0.091 C 
ATOM     11  C   UNL A   1      30.935  25.426  23.608  1.00  0.00     0.095 C 
ATOM     12  S   UNL A   1      31.684  26.552  22.373  1.00  0.00    -0.158 SA
BRANCH   8  13
ATOM     13  C   UNL A   1      32.877  22.658  23.686  1.00  0.00     0.215 A 
ATOM     14  C   UNL A   1      33.186  20.419  24.367  1.00  0.00     0.299 A 
ATOM     15  N   UNL A   1      32.441  19.938  23.358  1.00  0.00    -0.196 NA
ATOM     16  C   UNL A   1      33.433  21.755  24.566  1.00  0.00     0.372 A 
ATOM     17  C   UNL A   1      31.938  20.864  22.542  1.00  0.00     0.228 A 
ATOM     18  N   UNL A   1      32.116  22.191  22.664  1.00  0.00    -0.212 NA
BRANCH  14  19
ATOM     19  O   UNL A   1      33.730  19.473  25.194  1.00  0.00    -0.476 OA
ATOM     20  C   UNL A   1      32.750  18.490  25.477  1.00  0.00     0.280 C 
ENDBRANCH  14  19
BRANCH  16  21
ATOM     21  N   UNL A   1      34.043  22.154  25.791  1.00  0.00     0.072 N 
ATOM     22  O   UNL A   1      35.271  22.336  25.776  1.00  0.00    -0.258 OA
ATOM     23  O   UNL A   1      33.299  22.352  26.760  1.00  0.00    -0.258 OA
ENDBRANCH  16  21
ENDBRANCH   8  13
ENDBRANCH   6   7
ENDBRANCH   3   6
ENDBRANCH   1   2
BRANCH   1  24
ATOM     24  C   UNL A   1      33.273  29.930  26.193  1.00  0.00     0.042 C 
BRANCH  24  25
ATOM     25  C   UNL A   1      34.256  29.473  27.288  1.00  0.00     0.118 C 
BRANCH  25  26
ATOM     26  N   UNL A   1      34.393  30.423  28.389  1.00  0.00    -0.352 N 
ATOM     27  C   UNL A   1      35.451  30.764  29.198  1.00  0.00     0.251 C 
ATOM     28  H   UNL A   1      33.565  30.914  28.591  1.00  0.00     0.163 HD
ATOM     29  O   UNL A   1      35.256  31.591  30.095  1.00  0.00    -0.269 OA
BRANCH  27  30
ATOM     30  C   UNL A   1      36.808  30.170  29.087  1.00  0.00     0.039 A 
ATOM     31  C   UNL A   1      37.486  30.299  27.870  1.00  0.00     0.014 A 
ATOM     32  C   UNL A   1      37.373  29.365  30.071  1.00  0.00     0.014 A 
ATOM     33  C   UNL A   1      38.752  29.712  27.679  1.00  0.00     0.010 A 
ATOM     34  C   UNL A   1      38.664  28.816  29.886  1.00  0.00     0.010 A 
ATOM     35  C   UNL A   1      39.407  29.012  28.707  1.00  0.00    -0.014 A 
BRANCH  35  36
ATOM     36  C   UNL A   1      40.841  28.545  28.540  1.00  0.00     0.031 A 
ATOM     37  C   UNL A   1      41.208  27.125  28.140  1.00  0.00     0.074 A 
ATOM     38  C   UNL A   1      41.875  29.387  28.786  1.00  0.00     0.049 A 
ATOM     39  N   UNL A   1      42.399  26.592  27.965  1.00  0.00    -0.248 NA
ATOM     40  C   UNL A   1      40.109  26.170  27.953  1.00  0.00     0.031 C 
ATOM     41  C   UNL A   1      41.758  30.760  29.282  1.00  0.00     0.029 A 
ATOM     42  N   UNL A   1      43.238  29.219  28.635  1.00  0.00    -0.354 N 
ATOM     43  C   UNL A   1      42.190  25.242  27.701  1.00  0.00     0.074 A 
ATOM     44  C   UNL A   1      40.761  25.028  27.796  1.00  0.00     0.031 C 
ATOM     45  C   UNL A   1      42.972  31.332  29.304  1.00  0.00     0.029 A 
ATOM     46  C   UNL A   1      43.973  30.358  28.880  1.00  0.00     0.049 A 
ATOM     47  H   UNL A   1      43.648  28.362  28.377  1.00  0.00     0.167 HD
ATOM     48  C   UNL A   1      43.078  24.268  27.369  1.00  0.00     0.037 A 
ATOM     49  C   UNL A   1      45.293  30.615  28.771  1.00  0.00     0.037 A 
ATOM     50  C   UNL A   1      44.496  24.454  27.182  1.00  0.00     0.049 A 
ATOM     51  C   UNL A   1      46.257  29.543  28.344  1.00  0.00     0.074 A 
ATOM     52  C   UNL A   1      45.434  23.534  26.738  1.00  0.00     0.029 A 
ATOM     53  N   UNL A   1      45.183  25.633  27.417  1.00  0.00    -0.354 N 
ATOM     54  N   UNL A   1      46.018  28.300  28.012  1.00  0.00    -0.248 NA
ATOM     55  C   UNL A   1      47.681  29.913  28.283  1.00  0.00     0.031 C 
ATOM     56  C   UNL A   1      46.692  24.147  26.732  1.00  0.00     0.029 A 
ATOM     57  C   UNL A   1      46.532  25.459  27.138  1.00  0.00     0.049 A 
ATOM     58  H   UNL A   1      44.775  26.469  27.736  1.00  0.00     0.167 HD
ATOM     59  C   UNL A   1      47.251  27.753  27.673  1.00  0.00     0.074 A 
ATOM     60  C   UNL A   1      48.237  28.798  27.830  1.00  0.00     0.031 C 
ATOM     61  C   UNL A   1      47.528  26.490  27.270  1.00  0.00     0.037 A 
BRANCH  48  62
ATOM     62  C   UNL A   1      42.530  22.883  27.149  1.00  0.00     0.057 A 
ATOM     63  C   UNL A   1      42.135  22.068  28.219  1.00  0.00     0.134 A 
ATOM     64  C   UNL A   1      42.362  22.373  25.856  1.00  0.00     0.134 A 
ATOM     65  F   UNL A   1      42.267  22.497  29.484  1.00  0.00    -0.206 F 
ATOM     66  C   UNL A   1      41.643  20.779  28.013  1.00  0.00     0.040 A 
ATOM     67  C   UNL A   1      41.838  21.097  25.636  1.00  0.00     0.040 A 
ATOM     68  F   UNL A   1      42.693  23.108  24.783  1.00  0.00    -0.206 F 
ATOM     69  C   UNL A   1      41.490  20.291  26.718  1.00  0.00     0.006 A 
ENDBRANCH  48  62
BRANCH  49  70
ATOM     70  C   UNL A   1      45.803  31.990  29.016  1.00  0.00     0.057 A 
ATOM     71  C   UNL A   1      46.255  32.364  30.290  1.00  0.00     0.134 A 
ATOM     72  C   UNL A   1      45.823  32.964  28.013  1.00  0.00     0.134 A 
ATOM     73  F   UNL A   1      46.231  31.482  31.299  1.00  0.00    -0.206 F 
ATOM     74  C   UNL A   1      46.694  33.661  30.559  1.00  0.00     0.040 A 
ATOM     75  C   UNL A   1      46.282  34.259  28.262  1.00  0.00     0.040 A 
ATOM     76  F   UNL A   1      45.402  32.669  26.774  1.00  0.00    -0.206 F 
ATOM     77  C   UNL A   1      46.714  34.612  29.541  1.00  0.00     0.006 A 
ENDBRANCH  49  70
BRANCH  61  78
ATOM     78  C   UNL A   1      48.951  26.164  26.917  1.00  0.00     0.057 A 
ATOM     79  C   UNL A   1      49.831  25.586  27.841  1.00  0.00     0.134 A 
ATOM     80  C   UNL A   1      49.439  26.401  25.626  1.00  0.00     0.134 A 
ATOM     81  F   UNL A   1      49.434  25.345  29.100  1.00  0.00    -0.206 F 
ATOM     82  C   UNL A   1      51.148  25.271  27.498  1.00  0.00     0.040 A 
ATOM     83  C   UNL A   1      50.748  26.072  25.265  1.00  0.00     0.040 A 
ATOM     84  F   UNL A   1      48.650  26.949  24.690  1.00  0.00    -0.206 F 
ATOM     85  C   UNL A   1      51.609  25.508  26.205  1.00  0.00     0.006 A 
ENDBRANCH  61  78
ENDBRANCH  35  36
ENDBRANCH  27  30
ENDBRANCH  25  26
ENDBRANCH  24  25
ENDBRANCH   1  24
TORSDOF 14
ENDMDL
MODEL 2
REMARK VINA RESULT:     -11.0      2.681      7.634
REMARK SMILES COc1ncnc(N2CCSC[C@@H]2CC(=O)NCCCNC(=O)c2ccc(-c3c4nc(c(-c5c(F)cccc5F)c5ccc([nH]5)c(-c5c(F)cccc5F)c5nc(c(-c6c(F)cccc6F)c6ccc3[nH]6)C=C5)C=C4)cc2)c1[N+](=O)[O-]
REMARK SMILES IDX 18 1 17 2 15 3 16 4 14 6 13 7 8 8 9 9 10 10 12 11 11 12 7 13
REMARK SMILES IDX 3 14 4 15 78 16 5 17 6 18 2 19 1 20 79 21 80 22 81 23 19 24
REMARK SMILES IDX 20 25 21 26 22 27 23 29 24 30 25 31 77 32 26 33 76 34 27 35
REMARK SMILES IDX 28 36 29 37 70 38 30 39 75 40 69 41 71 42 31 43 74 44 68 45
REMARK SMILES IDX 67 46 32 48 58 49 41 50 57 51 42 52 45 53 56 54 72 55 43 56
REMARK SMILES IDX 44 57 55 59 73 60 46 61 33 62 34 63 39 64 35 65 36 66 38 67
REMARK SMILES IDX 40 68 37 69 59 70 60 71 65 72 61 73 62 74 64 75 66 76 63 77
REMARK SMILES IDX 47 78 48 79 53 80 49 81 50 82 52 83 54 84 51 85
REMARK H PARENT 17 5 21 28 71 47 45 58
REMARK Flexibility Score: inf
ROOT
ATOM      1  C   UNL A   1      34.240  20.858  25.153  1.00  0.00     0.117 C 
ENDROOT
BRANCH   1   2
ATOM      2  N   UNL A   1      33.189  20.675  24.165  1.00  0.00    -0.356 N 
ATOM      3  C   UNL A   1      32.563  21.544  23.327  1.00  0.00     0.222 C 
ATOM      4  O   UNL A   1      31.868  21.061  22.428  1.00  0.00    -0.275 OA
ATOM      5  H   UNL A   1      32.870  19.746  24.089  1.00  0.00     0.163 HD
BRANCH   3   6
ATOM      6  C   UNL A   1      32.693  23.048  23.455  1.00  0.00     0.126 C 
BRANCH   6   7
ATOM      7  C   UNL A   1      31.464  23.742  24.059  1.00  0.00     0.103 C 
ATOM      8  N   UNL A   1      31.723  25.160  24.388  1.00  0.00    -0.345 N 
ATOM      9  C   UNL A   1      32.617  25.458  25.524  1.00  0.00     0.129 C 
ATOM     10  C   UNL A   1      32.057  24.935  26.846  1.00  0.00     0.091 C 
ATOM     11  C   UNL A   1      30.878  22.998  25.284  1.00  0.00     0.095 C 
ATOM     12  S   UNL A   1      31.869  23.122  26.818  1.00  0.00    -0.158 SA
BRANCH   8  13
ATOM     13  C   UNL A   1      30.815  26.095  23.926  1.00  0.00     0.215 A 
ATOM     14  C   UNL A   1      30.089  27.906  22.596  1.00  0.00     0.299 A 
ATOM     15  N   UNL A   1      28.822  27.804  23.031  1.00  0.00    -0.196 NA
ATOM     16  C   UNL A   1      31.108  27.086  23.015  1.00  0.00     0.372 A 
ATOM     17  C   UNL A   1      28.608  26.828  23.913  1.00  0.00     0.228 A 
ATOM     18  N   UNL A   1      29.539  25.973  24.371  1.00  0.00    -0.212 NA
BRANCH  14  19
ATOM     19  O   UNL A   1      30.324  28.923  21.711  1.00  0.00    -0.476 OA
ATOM     20  C   UNL A   1      29.597  30.068  22.123  1.00  0.00     0.280 C 
ENDBRANCH  14  19
BRANCH  16  21
ATOM     21  N   UNL A   1      32.351  27.145  22.318  1.00  0.00     0.072 N 
ATOM     22  O   UNL A   1      33.183  27.974  22.719  1.00  0.00    -0.258 OA
ATOM     23  O   UNL A   1      32.534  26.323  21.411  1.00  0.00    -0.258 OA
ENDBRANCH  16  21
ENDBRANCH   8  13
ENDBRANCH   6   7
ENDBRANCH   3   6
ENDBRANCH   1   2
BRANCH   1  24
ATOM     24  C   UNL A   1      35.496  19.999  24.907  1.00  0.00     0.042 C 
BRANCH  24  25
ATOM     25  C   UNL A   1      36.851  20.732  24.910  1.00  0.00     0.118 C 
BRANCH  25  26
ATOM     26  N   UNL A   1      37.992  19.859  25.169  1.00  0.00    -0.352 N 
ATOM     27  C   UNL A   1      39.247  20.092  25.680  1.00  0.00     0.251 C 
ATOM     28  H   UNL A   1      37.831  18.918  24.930  1.00  0.00     0.163 HD
ATOM     29  O   UNL A   1      40.036  19.144  25.745  1.00  0.00    -0.269 OA
BRANCH  27  30
ATOM     30  C   UNL A   1      39.729  21.426  26.121  1.00  0.00     0.039 A 
ATOM     31  C   UNL A   1      40.972  21.501  26.757  1.00  0.00     0.014 A 
ATOM     32  C   UNL A   1      38.946  22.576  26.073  1.00  0.00     0.014 A 
ATOM     33  C   UNL A   1      41.464  22.724  27.250  1.00  0.00     0.010 A 
ATOM     34  C   UNL A   1      39.467  23.810  26.531  1.00  0.00     0.010 A 
ATOM     35  C   UNL A   1      40.754  23.928  27.089  1.00  0.00    -0.014 A 
BRANCH  35  36
ATOM     36  C   UNL A   1      41.380  25.257  27.463  1.00  0.00     0.031 A 
ATOM     37  C   UNL A   1      42.761  25.685  26.990  1.00  0.00     0.074 A 
ATOM     38  C   UNL A   1      40.733  26.119  28.286  1.00  0.00     0.049 A 
ATOM     39  N   UNL A   1      43.418  26.798  27.241  1.00  0.00    -0.248 NA
ATOM     40  C   UNL A   1      43.518  24.732  26.169  1.00  0.00     0.031 C 
ATOM     41  C   UNL A   1      39.448  25.870  28.942  1.00  0.00     0.029 A 
ATOM     42  N   UNL A   1      41.060  27.395  28.702  1.00  0.00    -0.354 N 
ATOM     43  C   UNL A   1      44.672  26.653  26.655  1.00  0.00     0.074 A 
ATOM     44  C   UNL A   1      44.702  25.322  26.086  1.00  0.00     0.031 C 
ATOM     45  C   UNL A   1      39.055  26.977  29.591  1.00  0.00     0.029 A 
ATOM     46  C   UNL A   1      40.081  28.006  29.455  1.00  0.00     0.049 A 
ATOM     47  H   UNL A   1      41.916  27.829  28.483  1.00  0.00     0.167 HD
ATOM     48  C   UNL A   1      45.696  27.540  26.552  1.00  0.00     0.037 A 
ATOM     49  C   UNL A   1      39.992  29.249  29.973  1.00  0.00     0.037 A 
ATOM     50  C   UNL A   1      45.678  28.902  27.029  1.00  0.00     0.049 A 
ATOM     51  C   UNL A   1      41.109  30.241  29.799  1.00  0.00     0.074 A 
ATOM     52  C   UNL A   1      46.639  29.887  26.858  1.00  0.00     0.029 A 
ATOM     53  N   UNL A   1      44.652  29.476  27.759  1.00  0.00    -0.354 N 
ATOM     54  N   UNL A   1      42.243  30.106  29.161  1.00  0.00    -0.248 NA
ATOM     55  C   UNL A   1      40.930  31.562  30.426  1.00  0.00     0.031 C 
ATOM     56  C   UNL A   1      46.209  31.048  27.510  1.00  0.00     0.029 A 
ATOM     57  C   UNL A   1      44.963  30.797  28.055  1.00  0.00     0.049 A 
ATOM     58  H   UNL A   1      43.826  29.017  28.029  1.00  0.00     0.167 HD
ATOM     59  C   UNL A   1      42.896  31.328  29.283  1.00  0.00     0.074 A 
ATOM     60  C   UNL A   1      42.029  32.198  30.046  1.00  0.00     0.031 C 
ATOM     61  C   UNL A   1      44.108  31.685  28.798  1.00  0.00     0.037 A 
BRANCH  48  62
ATOM     62  C   UNL A   1      46.945  27.072  25.853  1.00  0.00     0.057 A 
ATOM     63  C   UNL A   1      47.164  27.317  24.490  1.00  0.00     0.134 A 
ATOM     64  C   UNL A   1      47.954  26.403  26.557  1.00  0.00     0.134 A 
ATOM     65  F   UNL A   1      46.238  27.956  23.759  1.00  0.00    -0.206 F 
ATOM     66  C   UNL A   1      48.315  26.868  23.843  1.00  0.00     0.040 A 
ATOM     67  C   UNL A   1      49.126  25.979  25.926  1.00  0.00     0.040 A 
ATOM     68  F   UNL A   1      47.826  26.158  27.870  1.00  0.00    -0.206 F 
ATOM     69  C   UNL A   1      49.302  26.200  24.562  1.00  0.00     0.006 A 
ENDBRANCH  48  62
BRANCH  49  70
ATOM     70  C   UNL A   1      38.752  29.672  30.676  1.00  0.00     0.057 A 
ATOM     71  C   UNL A   1      37.742  30.357  29.985  1.00  0.00     0.134 A 
ATOM     72  C   UNL A   1      38.556  29.438  32.040  1.00  0.00     0.134 A 
ATOM     73  F   UNL A   1      37.887  30.637  28.682  1.00  0.00    -0.206 F 
ATOM     74  C   UNL A   1      36.590  30.807  30.631  1.00  0.00     0.040 A 
ATOM     75  C   UNL A   1      37.397  29.862  32.694  1.00  0.00     0.040 A 
ATOM     76  F   UNL A   1      39.486  28.789  32.756  1.00  0.00    -0.206 F 
ATOM     77  C   UNL A   1      36.412  30.554  31.989  1.00  0.00     0.006 A 
ENDBRANCH  49  70
BRANCH  61  78
ATOM     78  C   UNL A   1      44.568  33.096  29.032  1.00  0.00     0.057 A 
ATOM     79  C   UNL A   1      45.315  33.457  30.161  1.00  0.00     0.134 A 
ATOM     80  C   UNL A   1      44.288  34.103  28.099  1.00  0.00     0.134 A 
ATOM     81  F   UNL A   1      45.608  32.547  31.102  1.00  0.00    -0.206 F 
ATOM     82  C   UNL A   1      45.752  34.769  30.360  1.00  0.00     0.040 A 
ATOM     83  C   UNL A   1      44.736  35.413  28.276  1.00  0.00     0.040 A 
ATOM     84  F   UNL A   1      43.579  33.827  26.993  1.00  0.00    -0.206 F 
ATOM     85  C   UNL A   1      45.468  35.751  29.413  1.00  0.00     0.006 A 
ENDBRANCH  61  78
ENDBRANCH  35  36
ENDBRANCH  27  30
ENDBRANCH  25  26
ENDBRANCH  24  25
ENDBRANCH   1  24
TORSDOF 14
ENDMDL
MODEL 3
REMARK VINA RESULT:     -10.8      4.146      7.586
REMARK SMILES COc1ncnc(N2CCSC[C@@H]2CC(=O)NCCCNC(=O)c2ccc(-c3c4nc(c(-c5c(F)cccc5F)c5ccc([nH]5)c(-c5c(F)cccc5F)c5nc(c(-c6c(F)cccc6F)c6ccc3[nH]6)C=C5)C=C4)cc2)c1[N+](=O)[O-]
REMARK SMILES IDX 18 1 17 2 15 3 16 4 14 6 13 7 8 8 9 9 10 10 12 11 11 12 7 13
REMARK SMILES IDX 3 14 4 15 78 16 5 17 6 18 2 19 1 20 79 21 80 22 81 23 19 24
REMARK SMILES IDX 20 25 21 26 22 27 23 29 24 30 25 31 77 32 26 33 76 34 27 35
REMARK SMILES IDX 28 36 29 37 70 38 30 39 75 40 69 41 71 42 31 43 74 44 68 45
REMARK SMILES IDX 67 46 32 48 58 49 41 50 57 51 42 52 45 53 56 54 72 55 43 56
REMARK SMILES IDX 44 57 55 59 73 60 46 61 33 62 34 63 39 64 35 65 36 66 38 67
REMARK SMILES IDX 40 68 37 69 59 70 60 71 65 72 61 73 62 74 64 75 66 76 63 77
REMARK SMILES IDX 47 78 48 79 53 80 49 81 50 82 52 83 54 84 51 85
REMARK H PARENT 17 5 21 28 71 47 45 58
REMARK Flexibility Score: inf
ROOT
ATOM      1  C   UNL A   1      33.878  28.414  24.545  1.00  0.00     0.117 C 
ENDROOT
BRANCH   1   2
ATOM      2  N   UNL A   1      34.082  27.620  23.344  1.00  0.00    -0.356 N 
ATOM      3  C   UNL A   1      33.357  26.619  22.779  1.00  0.00     0.222 C 
ATOM      4  O   UNL A   1      33.653  26.287  21.627  1.00  0.00    -0.275 OA
ATOM      5  H   UNL A   1      34.900  27.852  22.846  1.00  0.00     0.163 HD
BRANCH   3   6
ATOM      6  C   UNL A   1      32.221  25.919  23.497  1.00  0.00     0.126 C 
BRANCH   6   7
ATOM      7  C   UNL A   1      32.622  25.251  24.820  1.00  0.00     0.103 C 
ATOM      8  N   UNL A   1      32.409  23.788  24.801  1.00  0.00    -0.345 N 
ATOM      9  C   UNL A   1      31.021  23.289  24.815  1.00  0.00     0.129 C 
ATOM     10  C   UNL A   1      30.280  23.688  26.091  1.00  0.00     0.091 C 
ATOM     11  C   UNL A   1      31.942  25.884  26.059  1.00  0.00     0.095 C 
ATOM     12  S   UNL A   1      30.162  25.500  26.251  1.00  0.00    -0.158 SA
BRANCH   8  13
ATOM     13  C   UNL A   1      33.464  22.988  25.201  1.00  0.00     0.215 A 
ATOM     14  C   UNL A   1      35.545  21.901  24.955  1.00  0.00     0.299 A 
ATOM     15  N   UNL A   1      35.543  21.465  26.226  1.00  0.00    -0.196 NA
ATOM     16  C   UNL A   1      34.536  22.652  24.404  1.00  0.00     0.372 A 
ATOM     17  C   UNL A   1      34.475  21.821  26.939  1.00  0.00     0.228 A 
ATOM     18  N   UNL A   1      33.448  22.562  26.489  1.00  0.00    -0.212 NA
BRANCH  14  19
ATOM     19  O   UNL A   1      36.624  21.516  24.206  1.00  0.00    -0.476 OA
ATOM     20  C   UNL A   1      37.777  21.509  25.031  1.00  0.00     0.280 C 
ENDBRANCH  14  19
BRANCH  16  21
ATOM     21  N   UNL A   1      34.756  23.242  23.125  1.00  0.00     0.072 N 
ATOM     22  O   UNL A   1      33.951  22.954  22.225  1.00  0.00    -0.258 OA
ATOM     23  O   UNL A   1      35.690  24.047  23.022  1.00  0.00    -0.258 OA
ENDBRANCH  16  21
ENDBRANCH   8  13
ENDBRANCH   6   7
ENDBRANCH   3   6
ENDBRANCH   1   2
BRANCH   1  24
ATOM     24  C   UNL A   1      32.639  29.329  24.496  1.00  0.00     0.042 C 
BRANCH  24  25
ATOM     25  C   UNL A   1      31.877  29.540  25.818  1.00  0.00     0.118 C 
BRANCH  25  26
ATOM     26  N   UNL A   1      31.778  30.938  26.225  1.00  0.00    -0.352 N 
ATOM     27  C   UNL A   1      32.582  31.743  26.996  1.00  0.00     0.251 C 
ATOM     28  H   UNL A   1      30.978  31.394  25.878  1.00  0.00     0.163 HD
ATOM     29  O   UNL A   1      32.215  32.903  27.209  1.00  0.00    -0.269 OA
BRANCH  27  30
ATOM     30  C   UNL A   1      33.849  31.291  27.626  1.00  0.00     0.039 A 
ATOM     31  C   UNL A   1      34.799  32.261  27.966  1.00  0.00     0.014 A 
ATOM     32  C   UNL A   1      34.204  29.952  27.756  1.00  0.00     0.014 A 
ATOM     33  C   UNL A   1      36.043  31.897  28.515  1.00  0.00     0.010 A 
ATOM     34  C   UNL A   1      35.439  29.597  28.348  1.00  0.00     0.010 A 
ATOM     35  C   UNL A   1      36.371  30.557  28.786  1.00  0.00    -0.014 A 
BRANCH  35  36
ATOM     36  C   UNL A   1      37.638  30.203  29.542  1.00  0.00     0.031 A 
ATOM     37  C   UNL A   1      37.887  30.621  30.982  1.00  0.00     0.074 A 
ATOM     38  C   UNL A   1      38.636  29.517  28.933  1.00  0.00     0.049 A 
ATOM     39  N   UNL A   1      38.932  30.387  31.748  1.00  0.00    -0.248 NA
ATOM     40  C   UNL A   1      36.858  31.440  31.635  1.00  0.00     0.031 C 
ATOM     41  C   UNL A   1      38.658  29.108  27.528  1.00  0.00     0.029 A 
ATOM     42  N   UNL A   1      39.830  29.023  29.426  1.00  0.00    -0.354 N 
ATOM     43  C   UNL A   1      38.706  31.066  32.940  1.00  0.00     0.074 A 
ATOM     44  C   UNL A   1      37.450  31.769  32.774  1.00  0.00     0.031 C 
ATOM     45  C   UNL A   1      39.745  28.355  27.298  1.00  0.00     0.029 A 
ATOM     46  C   UNL A   1      40.539  28.267  28.519  1.00  0.00     0.049 A 
ATOM     47  H   UNL A   1      40.145  29.196  30.342  1.00  0.00     0.167 HD
ATOM     48  C   UNL A   1      39.434  31.086  34.087  1.00  0.00     0.037 A 
ATOM     49  C   UNL A   1      41.687  27.568  28.637  1.00  0.00     0.037 A 
ATOM     50  C   UNL A   1      40.644  30.337  34.326  1.00  0.00     0.049 A 
ATOM     51  C   UNL A   1      42.452  27.550  29.931  1.00  0.00     0.074 A 
ATOM     52  C   UNL A   1      41.369  30.225  35.503  1.00  0.00     0.029 A 
ATOM     53  N   UNL A   1      41.303  29.567  33.383  1.00  0.00    -0.354 N 
ATOM     54  N   UNL A   1      42.165  28.127  31.069  1.00  0.00    -0.248 NA
ATOM     55  C   UNL A   1      43.708  26.781  29.953  1.00  0.00     0.031 C 
ATOM     56  C   UNL A   1      42.484  29.412  35.264  1.00  0.00     0.029 A 
ATOM     57  C   UNL A   1      42.432  28.989  33.948  1.00  0.00     0.049 A 
ATOM     58  H   UNL A   1      41.015  29.449  32.450  1.00  0.00     0.167 HD
ATOM     59  C   UNL A   1      43.183  27.768  31.946  1.00  0.00     0.074 A 
ATOM     60  C   UNL A   1      44.092  26.914  31.215  1.00  0.00     0.031 C 
ATOM     61  C   UNL A   1      43.340  28.122  33.243  1.00  0.00     0.037 A 
BRANCH  48  62
ATOM     62  C   UNL A   1      38.918  31.938  35.216  1.00  0.00     0.057 A 
ATOM     63  C   UNL A   1      38.192  31.390  36.282  1.00  0.00     0.134 A 
ATOM     64  C   UNL A   1      39.181  33.313  35.257  1.00  0.00     0.134 A 
ATOM     65  F   UNL A   1      37.908  30.078  36.306  1.00  0.00    -0.206 F 
ATOM     66  C   UNL A   1      37.702  32.184  37.319  1.00  0.00     0.040 A 
ATOM     67  C   UNL A   1      38.725  34.113  36.307  1.00  0.00     0.040 A 
ATOM     68  F   UNL A   1      39.893  33.902  34.284  1.00  0.00    -0.206 F 
ATOM     69  C   UNL A   1      37.972  33.550  37.335  1.00  0.00     0.006 A 
ENDBRANCH  48  62
BRANCH  49  70
ATOM     70  C   UNL A   1      42.179  26.753  27.494  1.00  0.00     0.057 A 
ATOM     71  C   UNL A   1      41.841  25.396  27.392  1.00  0.00     0.134 A 
ATOM     72  C   UNL A   1      43.014  27.287  26.508  1.00  0.00     0.134 A 
ATOM     73  F   UNL A   1      41.069  24.821  28.324  1.00  0.00    -0.206 F 
ATOM     74  C   UNL A   1      42.328  24.597  26.356  1.00  0.00     0.040 A 
ATOM     75  C   UNL A   1      43.489  26.505  25.454  1.00  0.00     0.040 A 
ATOM     76  F   UNL A   1      43.375  28.578  26.552  1.00  0.00    -0.206 F 
ATOM     77  C   UNL A   1      43.151  25.153  25.379  1.00  0.00     0.006 A 
ENDBRANCH  49  70
BRANCH  61  78
ATOM     78  C   UNL A   1      44.514  27.554  33.988  1.00  0.00     0.057 A 
ATOM     79  C   UNL A   1      45.736  28.234  34.078  1.00  0.00     0.134 A 
ATOM     80  C   UNL A   1      44.413  26.324  34.651  1.00  0.00     0.134 A 
ATOM     81  F   UNL A   1      45.907  29.410  33.455  1.00  0.00    -0.206 F 
ATOM     82  C   UNL A   1      46.817  27.704  34.787  1.00  0.00     0.040 A 
ATOM     83  C   UNL A   1      45.479  25.794  35.380  1.00  0.00     0.040 A 
ATOM     84  F   UNL A   1      43.271  25.621  34.610  1.00  0.00    -0.206 F 
ATOM     85  C   UNL A   1      46.689  26.483  35.446  1.00  0.00     0.006 A 
ENDBRANCH  61  78
ENDBRANCH  35  36
ENDBRANCH  27  30
ENDBRANCH  25  26
ENDBRANCH  24  25
ENDBRANCH   1  24
TORSDOF 14
ENDMDL
