MODEL 1
REMARK VINA RESULT:     -13.0      0.000      0.000
REMARK SMILES CS(=O)(=O)c1ccc(C2=NN(c3ccc(C(=O)NCCCNC(=O)c4ccc(-c5c6nc(c(-c7c(F)cccc7F)c7ccc([nH]7)c(-c7c(F)cccc7F)c7nc(c(-c8c(F)cccc8F)c8ccc5[nH]8)C=C7)C=C6)cc4)cc3)[C@H](c3ccc(F)cc3)C2)cc1
REMARK SMILES IDX 19 1 18 2 16 3 17 4 15 6 12 7 13 8 80 9 14 10 79 11 11 12
REMARK SMILES IDX 9 13 10 14 89 15 81 16 8 17 5 18 6 19 91 20 7 21 90 22 2 23
REMARK SMILES IDX 1 24 3 25 4 26 82 27 83 28 88 29 84 30 87 31 85 32 86 33
REMARK SMILES IDX 20 34 21 35 22 36 23 37 24 39 25 40 26 41 78 42 27 43 77 44
REMARK SMILES IDX 28 45 29 46 30 47 71 48 31 49 76 50 70 51 72 52 32 53 75 54
REMARK SMILES IDX 69 55 68 56 33 58 59 59 42 60 58 61 43 62 46 63 57 64 73 65
REMARK SMILES IDX 44 66 45 67 56 69 74 70 47 71 34 72 35 73 40 74 36 75 37 76
REMARK SMILES IDX 39 77 41 78 38 79 60 80 61 81 66 82 62 83 63 84 65 85 67 86
REMARK SMILES IDX 64 87 48 88 49 89 54 90 50 91 51 92 53 93 55 94 52 95
REMARK H PARENT 18 5 22 38 72 57 46 68
REMARK Flexibility Score: inf
ROOT
ATOM      1  C   UNL A   1      39.359  24.824  26.483  1.00  0.00     0.118 C 
ENDROOT
BRANCH   1   2
ATOM      2  N   UNL A   1      39.515  23.386  26.342  1.00  0.00    -0.352 N 
ATOM      3  C   UNL A   1      38.660  22.432  25.844  1.00  0.00     0.251 C 
ATOM      4  O   UNL A   1      39.079  21.285  25.700  1.00  0.00    -0.269 OA
ATOM      5  H   UNL A   1      40.380  23.036  26.656  1.00  0.00     0.163 HD
BRANCH   3   6
ATOM      6  C   UNL A   1      37.274  22.760  25.427  1.00  0.00     0.039 A 
ATOM      7  C   UNL A   1      34.602  23.341  24.756  1.00  0.00     0.060 A 
ATOM      8  C   UNL A   1      35.036  23.435  26.082  1.00  0.00     0.029 A 
ATOM      9  C   UNL A   1      35.535  23.019  23.767  1.00  0.00     0.029 A 
ATOM     10  C   UNL A   1      36.364  23.149  26.418  1.00  0.00     0.016 A 
ATOM     11  C   UNL A   1      36.862  22.747  24.095  1.00  0.00     0.016 A 
BRANCH   7  12
ATOM     12  N   UNL A   1      33.283  23.555  24.392  1.00  0.00    -0.257 N 
ATOM     13  C   UNL A   1      31.630  24.868  24.153  1.00  0.00     0.071 C 
ATOM     14  N   UNL A   1      32.915  24.797  24.007  1.00  0.00    -0.176 NA
ATOM     15  C   UNL A   1      30.971  23.650  24.743  1.00  0.00     0.091 C 
ATOM     16  C   UNL A   1      32.181  22.704  24.851  1.00  0.00     0.144 C 
BRANCH  13  17
ATOM     17  C   UNL A   1      30.873  26.069  23.762  1.00  0.00    -0.002 A 
ATOM     18  C   UNL A   1      29.339  28.267  23.019  1.00  0.00     0.067 A 
ATOM     19  C   UNL A   1      28.721  27.178  23.637  1.00  0.00     0.021 A 
ATOM     20  C   UNL A   1      30.719  28.270  22.781  1.00  0.00     0.021 A 
ATOM     21  C   UNL A   1      29.490  26.074  23.996  1.00  0.00     0.011 A 
ATOM     22  C   UNL A   1      31.491  27.166  23.155  1.00  0.00     0.011 A 
BRANCH  18  23
ATOM     23  S   UNL A   1      28.373  29.692  22.576  1.00  0.00     0.175 S 
ATOM     24  C   UNL A   1      29.071  30.995  23.557  1.00  0.00     0.163 C 
ATOM     25  O   UNL A   1      27.021  29.444  23.039  1.00  0.00    -0.224 OA
ATOM     26  O   UNL A   1      28.640  29.992  21.182  1.00  0.00    -0.224 OA
ENDBRANCH  18  23
ENDBRANCH  13  17
BRANCH  16  27
ATOM     27  C   UNL A   1      32.160  21.402  24.051  1.00  0.00    -0.023 A 
ATOM     28  C   UNL A   1      31.990  21.337  22.658  1.00  0.00     0.009 A 
ATOM     29  C   UNL A   1      32.394  20.191  24.742  1.00  0.00     0.009 A 
ATOM     30  C   UNL A   1      32.037  20.109  21.987  1.00  0.00     0.039 A 
ATOM     31  C   UNL A   1      32.467  18.971  24.070  1.00  0.00     0.039 A 
ATOM     32  C   UNL A   1      32.283  18.940  22.696  1.00  0.00     0.123 A 
ATOM     33  F   UNL A   1      32.353  17.772  22.045  1.00  0.00    -0.207 F 
ENDBRANCH  16  27
ENDBRANCH   7  12
ENDBRANCH   3   6
ENDBRANCH   1   2
BRANCH   1  34
ATOM     34  C   UNL A   1      39.617  25.284  27.916  1.00  0.00     0.042 C 
BRANCH  34  35
ATOM     35  C   UNL A   1      41.096  25.386  28.273  1.00  0.00     0.118 C 
BRANCH  35  36
ATOM     36  N   UNL A   1      41.800  24.131  28.062  1.00  0.00    -0.352 N 
ATOM     37  C   UNL A   1      43.066  23.899  27.584  1.00  0.00     0.251 C 
ATOM     38  H   UNL A   1      41.291  23.323  28.298  1.00  0.00     0.163 HD
ATOM     39  O   UNL A   1      43.398  22.755  27.288  1.00  0.00    -0.269 OA
BRANCH  37  40
ATOM     40  C   UNL A   1      44.029  25.010  27.409  1.00  0.00     0.039 A 
ATOM     41  C   UNL A   1      44.259  25.499  26.118  1.00  0.00     0.014 A 
ATOM     42  C   UNL A   1      44.746  25.536  28.486  1.00  0.00     0.014 A 
ATOM     43  C   UNL A   1      45.163  26.545  25.916  1.00  0.00     0.010 A 
ATOM     44  C   UNL A   1      45.598  26.622  28.296  1.00  0.00     0.010 A 
ATOM     45  C   UNL A   1      45.820  27.134  27.008  1.00  0.00    -0.014 A 
BRANCH  45  46
ATOM     46  C   UNL A   1      46.749  28.278  26.820  1.00  0.00     0.031 A 
ATOM     47  C   UNL A   1      46.220  29.686  26.786  1.00  0.00     0.074 A 
ATOM     48  C   UNL A   1      48.062  28.046  26.624  1.00  0.00     0.049 A 
ATOM     49  N   UNL A   1      46.858  30.804  26.544  1.00  0.00    -0.248 NA
ATOM     50  C   UNL A   1      44.780  29.859  27.036  1.00  0.00     0.031 C 
ATOM     51  C   UNL A   1      48.694  26.726  26.596  1.00  0.00     0.029 A 
ATOM     52  N   UNL A   1      49.099  28.915  26.396  1.00  0.00    -0.354 N 
ATOM     53  C   UNL A   1      45.899  31.808  26.607  1.00  0.00     0.074 A 
ATOM     54  C   UNL A   1      44.628  31.163  26.858  1.00  0.00     0.031 C 
ATOM     55  C   UNL A   1      50.010  26.872  26.373  1.00  0.00     0.029 A 
ATOM     56  C   UNL A   1      50.310  28.291  26.207  1.00  0.00     0.049 A 
ATOM     57  H   UNL A   1      48.988  29.894  26.370  1.00  0.00     0.167 HD
ATOM     58  C   UNL A   1      46.066  33.146  26.488  1.00  0.00     0.037 A 
ATOM     59  C   UNL A   1      51.520  28.804  25.918  1.00  0.00     0.037 A 
ATOM     60  C   UNL A   1      47.332  33.790  26.255  1.00  0.00     0.049 A 
ATOM     61  C   UNL A   1      51.675  30.294  25.783  1.00  0.00     0.074 A 
ATOM     62  C   UNL A   1      47.606  35.142  26.146  1.00  0.00     0.029 A 
ATOM     63  N   UNL A   1      48.538  33.124  26.102  1.00  0.00    -0.354 N 
ATOM     64  N   UNL A   1      50.766  31.232  25.886  1.00  0.00    -0.248 NA
ATOM     65  C   UNL A   1      53.027  30.796  25.496  1.00  0.00     0.031 C 
ATOM     66  C   UNL A   1      48.974  35.294  25.898  1.00  0.00     0.029 A 
ATOM     67  C   UNL A   1      49.558  34.037  25.892  1.00  0.00     0.049 A 
ATOM     68  H   UNL A   1      48.653  32.146  26.137  1.00  0.00     0.167 HD
ATOM     69  C   UNL A   1      51.438  32.434  25.708  1.00  0.00     0.074 A 
ATOM     70  C   UNL A   1      52.834  32.108  25.504  1.00  0.00     0.031 C 
ATOM     71  C   UNL A   1      50.944  33.696  25.709  1.00  0.00     0.037 A 
BRANCH  58  72
ATOM     72  C   UNL A   1      44.848  34.012  26.627  1.00  0.00     0.057 A 
ATOM     73  C   UNL A   1      44.033  34.312  25.528  1.00  0.00     0.134 A 
ATOM     74  C   UNL A   1      44.455  34.507  27.877  1.00  0.00     0.134 A 
ATOM     75  F   UNL A   1      44.361  33.876  24.301  1.00  0.00    -0.206 F 
ATOM     76  C   UNL A   1      42.880  35.086  25.662  1.00  0.00     0.040 A 
ATOM     77  C   UNL A   1      43.289  35.263  28.028  1.00  0.00     0.040 A 
ATOM     78  F   UNL A   1      45.186  34.252  28.973  1.00  0.00    -0.206 F 
ATOM     79  C   UNL A   1      42.501  35.557  26.917  1.00  0.00     0.006 A 
ENDBRANCH  58  72
BRANCH  59  80
ATOM     80  C   UNL A   1      52.689  27.906  25.740  1.00  0.00     0.057 A 
ATOM     81  C   UNL A   1      53.532  27.593  26.813  1.00  0.00     0.134 A 
ATOM     82  C   UNL A   1      53.008  27.363  24.489  1.00  0.00     0.134 A 
ATOM     83  F   UNL A   1      53.290  28.100  28.030  1.00  0.00    -0.206 F 
ATOM     84  C   UNL A   1      54.665  26.796  26.644  1.00  0.00     0.040 A 
ATOM     85  C   UNL A   1      54.122  26.543  24.311  1.00  0.00     0.040 A 
ATOM     86  F   UNL A   1      52.235  27.619  23.423  1.00  0.00    -0.206 F 
ATOM     87  C   UNL A   1      54.961  26.266  25.389  1.00  0.00     0.006 A 
ENDBRANCH  59  80
BRANCH  71  88
ATOM     88  C   UNL A   1      51.924  34.815  25.525  1.00  0.00     0.057 A 
ATOM     89  C   UNL A   1      52.350  35.224  24.256  1.00  0.00     0.134 A 
ATOM     90  C   UNL A   1      52.420  35.516  26.633  1.00  0.00     0.134 A 
ATOM     91  F   UNL A   1      51.922  34.585  23.156  1.00  0.00    -0.206 F 
ATOM     92  C   UNL A   1      53.253  36.277  24.095  1.00  0.00     0.040 A 
ATOM     93  C   UNL A   1      53.304  36.586  26.483  1.00  0.00     0.040 A 
ATOM     94  F   UNL A   1      52.044  35.179  27.875  1.00  0.00    -0.206 F 
ATOM     95  C   UNL A   1      53.727  36.965  25.210  1.00  0.00     0.006 A 
ENDBRANCH  71  88
ENDBRANCH  45  46
ENDBRANCH  37  40
ENDBRANCH  35  36
ENDBRANCH  34  35
ENDBRANCH   1  34
TORSDOF 14
ENDMDL
MODEL 2
REMARK VINA RESULT:     -13.0      0.427      5.891
REMARK SMILES CS(=O)(=O)c1ccc(C2=NN(c3ccc(C(=O)NCCCNC(=O)c4ccc(-c5c6nc(c(-c7c(F)cccc7F)c7ccc([nH]7)c(-c7c(F)cccc7F)c7nc(c(-c8c(F)cccc8F)c8ccc5[nH]8)C=C7)C=C6)cc4)cc3)[C@H](c3ccc(F)cc3)C2)cc1
REMARK SMILES IDX 19 1 18 2 16 3 17 4 15 6 12 7 13 8 80 9 14 10 79 11 11 12
REMARK SMILES IDX 9 13 10 14 89 15 81 16 8 17 5 18 6 19 91 20 7 21 90 22 2 23
REMARK SMILES IDX 1 24 3 25 4 26 82 27 83 28 88 29 84 30 87 31 85 32 86 33
REMARK SMILES IDX 20 34 21 35 22 36 23 37 24 39 25 40 26 41 78 42 27 43 77 44
REMARK SMILES IDX 28 45 29 46 30 47 71 48 31 49 76 50 70 51 72 52 32 53 75 54
REMARK SMILES IDX 69 55 68 56 33 58 59 59 42 60 58 61 43 62 46 63 57 64 73 65
REMARK SMILES IDX 44 66 45 67 56 69 74 70 47 71 34 72 35 73 40 74 36 75 37 76
REMARK SMILES IDX 39 77 41 78 38 79 60 80 61 81 66 82 62 83 63 84 65 85 67 86
REMARK SMILES IDX 64 87 48 88 49 89 54 90 50 91 51 92 53 93 55 94 52 95
REMARK H PARENT 18 5 22 38 72 57 46 68
REMARK Flexibility Score: inf
ROOT
ATOM      1  C   UNL A   1      39.402  24.722  26.506  1.00  0.00     0.118 C 
ENDROOT
BRANCH   1   2
ATOM      2  N   UNL A   1      39.548  23.282  26.379  1.00  0.00    -0.352 N 
ATOM      3  C   UNL A   1      38.691  22.330  25.881  1.00  0.00     0.251 C 
ATOM      4  O   UNL A   1      39.102  21.179  25.751  1.00  0.00    -0.269 OA
ATOM      5  H   UNL A   1      40.407  22.928  26.704  1.00  0.00     0.163 HD
BRANCH   3   6
ATOM      6  C   UNL A   1      37.311  22.665  25.448  1.00  0.00     0.039 A 
ATOM      7  C   UNL A   1      34.650  23.260  24.746  1.00  0.00     0.060 A 
ATOM      8  C   UNL A   1      35.074  23.368  26.074  1.00  0.00     0.029 A 
ATOM      9  C   UNL A   1      35.588  22.917  23.769  1.00  0.00     0.029 A 
ATOM     10  C   UNL A   1      36.396  23.074  26.425  1.00  0.00     0.016 A 
ATOM     11  C   UNL A   1      36.910  22.637  24.112  1.00  0.00     0.016 A 
BRANCH   7  12
ATOM     12  N   UNL A   1      33.336  23.481  24.368  1.00  0.00    -0.257 N 
ATOM     13  C   UNL A   1      31.692  24.802  24.112  1.00  0.00     0.071 C 
ATOM     14  N   UNL A   1      32.978  24.726  23.980  1.00  0.00    -0.176 NA
ATOM     15  C   UNL A   1      31.022  23.588  24.694  1.00  0.00     0.091 C 
ATOM     16  C   UNL A   1      32.225  22.635  24.815  1.00  0.00     0.144 C 
BRANCH  13  17
ATOM     17  C   UNL A   1      30.946  26.007  23.714  1.00  0.00    -0.002 A 
ATOM     18  C   UNL A   1      29.429  28.223  22.989  1.00  0.00     0.067 A 
ATOM     19  C   UNL A   1      28.894  27.287  23.876  1.00  0.00     0.021 A 
ATOM     20  C   UNL A   1      30.721  28.066  22.472  1.00  0.00     0.021 A 
ATOM     21  C   UNL A   1      29.651  26.172  24.227  1.00  0.00     0.011 A 
ATOM     22  C   UNL A   1      31.484  26.953  22.836  1.00  0.00     0.011 A 
BRANCH  18  23
ATOM     23  S   UNL A   1      28.481  29.662  22.551  1.00  0.00     0.175 S 
ATOM     24  C   UNL A   1      29.141  30.934  23.597  1.00  0.00     0.163 C 
ATOM     25  O   UNL A   1      27.113  29.403  22.953  1.00  0.00    -0.224 OA
ATOM     26  O   UNL A   1      28.803  30.003  21.178  1.00  0.00    -0.224 OA
ENDBRANCH  18  23
ENDBRANCH  13  17
BRANCH  16  27
ATOM     27  C   UNL A   1      32.206  21.334  24.013  1.00  0.00    -0.023 A 
ATOM     28  C   UNL A   1      32.016  21.268  22.624  1.00  0.00     0.009 A 
ATOM     29  C   UNL A   1      32.464  20.125  24.700  1.00  0.00     0.009 A 
ATOM     30  C   UNL A   1      32.066  20.041  21.951  1.00  0.00     0.039 A 
ATOM     31  C   UNL A   1      32.540  18.906  24.025  1.00  0.00     0.039 A 
ATOM     32  C   UNL A   1      32.336  18.875  22.654  1.00  0.00     0.123 A 
ATOM     33  F   UNL A   1      32.409  17.708  22.001  1.00  0.00    -0.207 F 
ENDBRANCH  16  27
ENDBRANCH   7  12
ENDBRANCH   3   6
ENDBRANCH   1   2
BRANCH   1  34
ATOM     34  C   UNL A   1      40.740  25.406  26.776  1.00  0.00     0.042 C 
BRANCH  34  35
ATOM     35  C   UNL A   1      41.483  24.848  27.986  1.00  0.00     0.118 C 
BRANCH  35  36
ATOM     36  N   UNL A   1      42.276  23.675  27.652  1.00  0.00    -0.352 N 
ATOM     37  C   UNL A   1      43.523  23.586  27.084  1.00  0.00     0.251 C 
ATOM     38  H   UNL A   1      41.853  22.812  27.865  1.00  0.00     0.163 HD
ATOM     39  O   UNL A   1      43.930  22.495  26.695  1.00  0.00    -0.269 OA
BRANCH  37  40
ATOM     40  C   UNL A   1      44.374  24.786  26.923  1.00  0.00     0.039 A 
ATOM     41  C   UNL A   1      44.507  25.346  25.648  1.00  0.00     0.014 A 
ATOM     42  C   UNL A   1      45.084  25.330  27.996  1.00  0.00     0.014 A 
ATOM     43  C   UNL A   1      45.305  26.477  25.460  1.00  0.00     0.010 A 
ATOM     44  C   UNL A   1      45.827  26.497  27.823  1.00  0.00     0.010 A 
ATOM     45  C   UNL A   1      45.950  27.079  26.552  1.00  0.00    -0.014 A 
BRANCH  45  46
ATOM     46  C   UNL A   1      46.764  28.310  26.381  1.00  0.00     0.031 A 
ATOM     47  C   UNL A   1      48.255  28.213  26.202  1.00  0.00     0.074 A 
ATOM     48  C   UNL A   1      46.169  29.517  26.443  1.00  0.00     0.049 A 
ATOM     49  N   UNL A   1      49.143  29.173  26.127  1.00  0.00    -0.248 NA
ATOM     50  C   UNL A   1      48.825  26.859  26.116  1.00  0.00     0.031 C 
ATOM     51  C   UNL A   1      44.738  29.747  26.651  1.00  0.00     0.029 A 
ATOM     52  N   UNL A   1      46.698  30.780  26.352  1.00  0.00    -0.354 N 
ATOM     53  C   UNL A   1      50.372  28.540  25.993  1.00  0.00     0.074 A 
ATOM     54  C   UNL A   1      50.123  27.115  26.048  1.00  0.00     0.031 C 
ATOM     55  C   UNL A   1      44.502  31.069  26.662  1.00  0.00     0.029 A 
ATOM     56  C   UNL A   1      45.766  31.780  26.499  1.00  0.00     0.049 A 
ATOM     57  H   UNL A   1      47.655  30.955  26.196  1.00  0.00     0.167 HD
ATOM     58  C   UNL A   1      51.595  29.095  25.818  1.00  0.00     0.037 A 
ATOM     59  C   UNL A   1      45.916  33.118  26.516  1.00  0.00     0.037 A 
ATOM     60  C   UNL A   1      51.842  30.511  25.746  1.00  0.00     0.049 A 
ATOM     61  C   UNL A   1      47.287  33.707  26.328  1.00  0.00     0.074 A 
ATOM     62  C   UNL A   1      53.043  31.169  25.545  1.00  0.00     0.029 A 
ATOM     63  N   UNL A   1      50.867  31.488  25.868  1.00  0.00    -0.354 N 
ATOM     64  N   UNL A   1      48.434  33.095  26.160  1.00  0.00    -0.248 NA
ATOM     65  C   UNL A   1      47.383  35.174  26.325  1.00  0.00     0.031 C 
ATOM     66  C   UNL A   1      52.799  32.545  25.573  1.00  0.00     0.029 A 
ATOM     67  C   UNL A   1      51.440  32.744  25.752  1.00  0.00     0.049 A 
ATOM     68  H   UNL A   1      49.908  31.316  26.015  1.00  0.00     0.167 HD
ATOM     69  C   UNL A   1      49.380  34.099  26.002  1.00  0.00     0.074 A 
ATOM     70  C   UNL A   1      48.672  35.359  26.080  1.00  0.00     0.031 C 
ATOM     71  C   UNL A   1      50.718  33.988  25.814  1.00  0.00     0.037 A 
BRANCH  58  72
ATOM     72  C   UNL A   1      52.764  28.165  25.672  1.00  0.00     0.057 A 
ATOM     73  C   UNL A   1      53.499  27.731  26.783  1.00  0.00     0.134 A 
ATOM     74  C   UNL A   1      53.127  27.656  24.418  1.00  0.00     0.134 A 
ATOM     75  F   UNL A   1      53.207  28.190  28.010  1.00  0.00    -0.206 F 
ATOM     76  C   UNL A   1      54.563  26.838  26.653  1.00  0.00     0.040 A 
ATOM     77  C   UNL A   1      54.175  26.743  24.277  1.00  0.00     0.040 A 
ATOM     78  F   UNL A   1      52.462  28.025  23.313  1.00  0.00    -0.206 F 
ATOM     79  C   UNL A   1      54.898  26.335  25.397  1.00  0.00     0.006 A 
ENDBRANCH  58  72
BRANCH  59  80
ATOM     80  C   UNL A   1      44.738  33.999  26.713  1.00  0.00     0.057 A 
ATOM     81  C   UNL A   1      43.973  34.441  25.627  1.00  0.00     0.134 A 
ATOM     82  C   UNL A   1      44.366  34.445  27.988  1.00  0.00     0.134 A 
ATOM     83  F   UNL A   1      44.293  34.064  24.380  1.00  0.00    -0.206 F 
ATOM     84  C   UNL A   1      42.899  35.315  25.796  1.00  0.00     0.040 A 
ATOM     85  C   UNL A   1      43.277  35.297  28.174  1.00  0.00     0.040 A 
ATOM     86  F   UNL A   1      45.052  34.052  29.070  1.00  0.00    -0.206 F 
ATOM     87  C   UNL A   1      42.546  35.744  27.075  1.00  0.00     0.006 A 
ENDBRANCH  59  80
BRANCH  71  88
ATOM     88  C   UNL A   1      51.492  35.258  25.638  1.00  0.00     0.057 A 
ATOM     89  C   UNL A   1      51.902  35.705  24.375  1.00  0.00     0.134 A 
ATOM     90  C   UNL A   1      51.799  36.064  26.742  1.00  0.00     0.134 A 
ATOM     91  F   UNL A   1      51.651  34.972  23.280  1.00  0.00    -0.206 F 
ATOM     92  C   UNL A   1      52.611  36.897  24.220  1.00  0.00     0.040 A 
ATOM     93  C   UNL A   1      52.486  37.271  26.596  1.00  0.00     0.040 A 
ATOM     94  F   UNL A   1      51.427  35.697  27.977  1.00  0.00    -0.206 F 
ATOM     95  C   UNL A   1      52.899  37.687  25.331  1.00  0.00     0.006 A 
ENDBRANCH  71  88
ENDBRANCH  45  46
ENDBRANCH  37  40
ENDBRANCH  35  36
ENDBRANCH  34  35
ENDBRANCH   1  34
TORSDOF 14
ENDMDL
MODEL 3
REMARK VINA RESULT:     -12.9      5.688     12.317
REMARK SMILES CS(=O)(=O)c1ccc(C2=NN(c3ccc(C(=O)NCCCNC(=O)c4ccc(-c5c6nc(c(-c7c(F)cccc7F)c7ccc([nH]7)c(-c7c(F)cccc7F)c7nc(c(-c8c(F)cccc8F)c8ccc5[nH]8)C=C7)C=C6)cc4)cc3)[C@H](c3ccc(F)cc3)C2)cc1
REMARK SMILES IDX 19 1 18 2 16 3 17 4 15 6 12 7 13 8 80 9 14 10 79 11 11 12
REMARK SMILES IDX 9 13 10 14 89 15 81 16 8 17 5 18 6 19 91 20 7 21 90 22 2 23
REMARK SMILES IDX 1 24 3 25 4 26 82 27 83 28 88 29 84 30 87 31 85 32 86 33
REMARK SMILES IDX 20 34 21 35 22 36 23 37 24 39 25 40 26 41 78 42 27 43 77 44
REMARK SMILES IDX 28 45 29 46 30 47 71 48 31 49 76 50 70 51 72 52 32 53 75 54
REMARK SMILES IDX 69 55 68 56 33 58 59 59 42 60 58 61 43 62 46 63 57 64 73 65
REMARK SMILES IDX 44 66 45 67 56 69 74 70 47 71 34 72 35 73 40 74 36 75 37 76
REMARK SMILES IDX 39 77 41 78 38 79 60 80 61 81 66 82 62 83 63 84 65 85 67 86
REMARK SMILES IDX 64 87 48 88 49 89 54 90 50 91 51 92 53 93 55 94 52 95
REMARK H PARENT 18 5 22 38 72 57 46 68
REMARK Flexibility Score: inf
ROOT
ATOM      1  C   UNL A   1      41.766  35.985  28.776  1.00  0.00     0.118 C 
ENDROOT
BRANCH   1   2
ATOM      2  N   UNL A   1      41.996  35.381  30.078  1.00  0.00    -0.352 N 
ATOM      3  C   UNL A   1      41.198  34.570  30.848  1.00  0.00     0.251 C 
ATOM      4  O   UNL A   1      41.675  34.068  31.863  1.00  0.00    -0.269 OA
ATOM      5  H   UNL A   1      42.873  35.587  30.475  1.00  0.00     0.163 HD
BRANCH   3   6
ATOM      6  C   UNL A   1      39.803  34.244  30.460  1.00  0.00     0.039 A 
ATOM      7  C   UNL A   1      37.172  33.506  29.781  1.00  0.00     0.060 A 
ATOM      8  C   UNL A   1      37.775  32.998  30.935  1.00  0.00     0.029 A 
ATOM      9  C   UNL A   1      37.876  34.436  29.011  1.00  0.00     0.029 A 
ATOM     10  C   UNL A   1      39.082  33.365  31.276  1.00  0.00     0.016 A 
ATOM     11  C   UNL A   1      39.173  34.815  29.354  1.00  0.00     0.016 A 
BRANCH   7  12
ATOM     12  N   UNL A   1      35.905  33.120  29.375  1.00  0.00    -0.257 N 
ATOM     13  C   UNL A   1      34.650  31.869  28.202  1.00  0.00     0.071 C 
ATOM     14  N   UNL A   1      35.734  31.861  28.912  1.00  0.00    -0.176 NA
ATOM     15  C   UNL A   1      33.981  33.208  28.046  1.00  0.00     0.091 C 
ATOM     16  C   UNL A   1      34.879  34.075  28.948  1.00  0.00     0.144 C 
BRANCH  13  17
ATOM     17  C   UNL A   1      34.118  30.639  27.594  1.00  0.00    -0.002 A 
ATOM     18  C   UNL A   1      32.996  28.347  26.486  1.00  0.00     0.067 A 
ATOM     19  C   UNL A   1      32.183  29.452  26.742  1.00  0.00     0.021 A 
ATOM     20  C   UNL A   1      34.368  28.383  26.769  1.00  0.00     0.021 A 
ATOM     21  C   UNL A   1      32.745  30.594  27.308  1.00  0.00     0.011 A 
ATOM     22  C   UNL A   1      34.932  29.535  27.325  1.00  0.00     0.011 A 
BRANCH  18  23
ATOM     23  S   UNL A   1      32.296  26.892  25.743  1.00  0.00     0.175 S 
ATOM     24  C   UNL A   1      31.527  27.503  24.266  1.00  0.00     0.163 C 
ATOM     25  O   UNL A   1      31.258  26.420  26.639  1.00  0.00    -0.224 OA
ATOM     26  O   UNL A   1      33.391  26.025  25.349  1.00  0.00    -0.224 OA
ENDBRANCH  18  23
ENDBRANCH  13  17
BRANCH  16  27
ATOM     27  C   UNL A   1      34.251  34.746  30.169  1.00  0.00    -0.023 A 
ATOM     28  C   UNL A   1      34.406  34.286  31.487  1.00  0.00     0.009 A 
ATOM     29  C   UNL A   1      33.524  35.942  29.972  1.00  0.00     0.009 A 
ATOM     30  C   UNL A   1      33.844  34.986  32.561  1.00  0.00     0.039 A 
ATOM     31  C   UNL A   1      32.987  36.654  31.045  1.00  0.00     0.039 A 
ATOM     32  C   UNL A   1      33.149  36.166  32.332  1.00  0.00     0.123 A 
ATOM     33  F   UNL A   1      32.637  36.846  33.367  1.00  0.00    -0.207 F 
ENDBRANCH  16  27
ENDBRANCH   7  12
ENDBRANCH   3   6
ENDBRANCH   1   2
BRANCH   1  34
ATOM     34  C   UNL A   1      42.640  37.219  28.561  1.00  0.00     0.042 C 
BRANCH  34  35
ATOM     35  C   UNL A   1      43.673  37.440  29.661  1.00  0.00     0.118 C 
BRANCH  35  36
ATOM     36  N   UNL A   1      45.026  37.530  29.135  1.00  0.00    -0.352 N 
ATOM     37  C   UNL A   1      45.898  36.535  28.768  1.00  0.00     0.251 C 
ATOM     38  H   UNL A   1      45.370  38.445  29.024  1.00  0.00     0.163 HD
ATOM     39  O   UNL A   1      47.071  36.816  28.541  1.00  0.00    -0.269 OA
BRANCH  37  40
ATOM     40  C   UNL A   1      45.447  35.129  28.658  1.00  0.00     0.039 A 
ATOM     41  C   UNL A   1      44.854  34.708  27.463  1.00  0.00     0.014 A 
ATOM     42  C   UNL A   1      45.550  34.240  29.731  1.00  0.00     0.014 A 
ATOM     43  C   UNL A   1      44.415  33.389  27.326  1.00  0.00     0.010 A 
ATOM     44  C   UNL A   1      45.173  32.907  29.574  1.00  0.00     0.010 A 
ATOM     45  C   UNL A   1      44.596  32.469  28.371  1.00  0.00    -0.014 A 
BRANCH  45  46
ATOM     46  C   UNL A   1      44.180  31.051  28.229  1.00  0.00     0.031 A 
ATOM     47  C   UNL A   1      45.016  30.093  27.424  1.00  0.00     0.074 A 
ATOM     48  C   UNL A   1      43.021  30.637  28.777  1.00  0.00     0.049 A 
ATOM     49  N   UNL A   1      44.773  28.844  27.110  1.00  0.00    -0.248 NA
ATOM     50  C   UNL A   1      46.281  30.612  26.881  1.00  0.00     0.031 C 
ATOM     51  C   UNL A   1      42.101  31.476  29.548  1.00  0.00     0.029 A 
ATOM     52  N   UNL A   1      42.409  29.409  28.757  1.00  0.00    -0.354 N 
ATOM     53  C   UNL A   1      45.848  28.434  26.332  1.00  0.00     0.074 A 
ATOM     54  C   UNL A   1      46.720  29.579  26.177  1.00  0.00     0.031 C 
ATOM     55  C   UNL A   1      41.049  30.737  29.934  1.00  0.00     0.029 A 
ATOM     56  C   UNL A   1      41.200  29.384  29.409  1.00  0.00     0.049 A 
ATOM     57  H   UNL A   1      42.800  28.619  28.316  1.00  0.00     0.167 HD
ATOM     58  C   UNL A   1      46.098  27.209  25.813  1.00  0.00     0.037 A 
ATOM     59  C   UNL A   1      40.307  28.386  29.556  1.00  0.00     0.037 A 
ATOM     60  C   UNL A   1      45.240  26.065  25.981  1.00  0.00     0.049 A 
ATOM     61  C   UNL A   1      40.606  27.039  28.960  1.00  0.00     0.074 A 
ATOM     62  C   UNL A   1      45.422  24.774  25.514  1.00  0.00     0.029 A 
ATOM     63  N   UNL A   1      44.042  26.074  26.676  1.00  0.00    -0.354 N 
ATOM     64  N   UNL A   1      41.648  26.655  28.263  1.00  0.00    -0.248 NA
ATOM     65  C   UNL A   1      39.608  25.982  29.179  1.00  0.00     0.031 C 
ATOM     66  C   UNL A   1      44.318  24.009  25.902  1.00  0.00     0.029 A 
ATOM     67  C   UNL A   1      43.469  24.813  26.645  1.00  0.00     0.049 A 
ATOM     68  H   UNL A   1      43.654  26.860  27.125  1.00  0.00     0.167 HD
ATOM     69  C   UNL A   1      41.444  25.309  27.985  1.00  0.00     0.074 A 
ATOM     70  C   UNL A   1      40.188  24.939  28.602  1.00  0.00     0.031 C 
ATOM     71  C   UNL A   1      42.226  24.457  27.279  1.00  0.00     0.037 A 
BRANCH  58  72
ATOM     72  C   UNL A   1      47.364  27.034  25.025  1.00  0.00     0.057 A 
ATOM     73  C   UNL A   1      48.465  26.347  25.551  1.00  0.00     0.134 A 
ATOM     74  C   UNL A   1      47.465  27.511  23.712  1.00  0.00     0.134 A 
ATOM     75  F   UNL A   1      48.434  25.875  26.807  1.00  0.00    -0.206 F 
ATOM     76  C   UNL A   1      49.629  26.153  24.806  1.00  0.00     0.040 A 
ATOM     77  C   UNL A   1      48.616  27.302  22.948  1.00  0.00     0.040 A 
ATOM     78  F   UNL A   1      46.446  28.173  23.144  1.00  0.00    -0.206 F 
ATOM     79  C   UNL A   1      49.703  26.624  23.497  1.00  0.00     0.006 A 
ENDBRANCH  58  72
BRANCH  59  80
ATOM     80  C   UNL A   1      39.044  28.618  30.300  1.00  0.00     0.057 A 
ATOM     81  C   UNL A   1      37.881  29.035  29.642  1.00  0.00     0.134 A 
ATOM     82  C   UNL A   1      38.976  28.457  31.690  1.00  0.00     0.134 A 
ATOM     83  F   UNL A   1      37.889  29.226  28.315  1.00  0.00    -0.206 F 
ATOM     84  C   UNL A   1      36.704  29.310  30.340  1.00  0.00     0.040 A 
ATOM     85  C   UNL A   1      37.798  28.702  32.397  1.00  0.00     0.040 A 
ATOM     86  F   UNL A   1      40.053  28.052  32.378  1.00  0.00    -0.206 F 
ATOM     87  C   UNL A   1      36.660  29.141  31.723  1.00  0.00     0.006 A 
ENDBRANCH  59  80
BRANCH  71  88
ATOM     88  C   UNL A   1      41.766  23.035  27.173  1.00  0.00     0.057 A 
ATOM     89  C   UNL A   1      42.402  21.999  27.869  1.00  0.00     0.134 A 
ATOM     90  C   UNL A   1      40.650  22.704  26.394  1.00  0.00     0.134 A 
ATOM     91  F   UNL A   1      43.484  22.248  28.621  1.00  0.00    -0.206 F 
ATOM     92  C   UNL A   1      41.957  20.679  27.773  1.00  0.00     0.040 A 
ATOM     93  C   UNL A   1      40.181  21.392  26.311  1.00  0.00     0.040 A 
ATOM     94  F   UNL A   1      39.992  23.652  25.710  1.00  0.00    -0.206 F 
ATOM     95  C   UNL A   1      40.840  20.374  26.998  1.00  0.00     0.006 A 
ENDBRANCH  71  88
ENDBRANCH  45  46
ENDBRANCH  37  40
ENDBRANCH  35  36
ENDBRANCH  34  35
ENDBRANCH   1  34
TORSDOF 14
ENDMDL
