MODEL 1
REMARK VINA RESULT:     -10.8      0.000      0.000
REMARK SMILES CC[C@@H]1CC[C@H]([C@@H](C)C(=O)NCCCNC(=O)c2ccc(-c3c4nc(c(-c5c(F)cccc5F)c5ccc([nH]5)c(-c5c(F)cccc5F)c5nc(c(-c6c(F)cccc6F)c6ccc3[nH]6)C=C5)C=C4)cc2)C1
REMARK SMILES IDX 13 1 12 2 11 3 9 4 10 5 7 7 8 8 6 9 3 10 4 11 72 12 5 13
REMARK SMILES IDX 2 14 1 15 14 16 15 17 16 18 17 20 18 21 19 22 71 23 20 24
REMARK SMILES IDX 70 25 21 26 22 27 23 28 64 29 24 30 69 31 63 32 65 33 25 34
REMARK SMILES IDX 68 35 62 36 61 37 26 39 52 40 35 41 51 42 36 43 39 44 50 45
REMARK SMILES IDX 66 46 37 47 38 48 49 50 67 51 40 52 27 53 28 54 33 55 29 56
REMARK SMILES IDX 30 57 32 58 34 59 31 60 53 61 54 62 59 63 55 64 56 65 58 66
REMARK SMILES IDX 60 67 57 68 41 69 42 70 47 71 43 72 44 73 46 74 48 75 45 76
REMARK H PARENT 11 6 15 19 65 38 39 49
REMARK Flexibility Score: inf
ROOT
ATOM      1  C   UNL A   1      38.067  19.966  24.763  1.00  0.00     0.042 C 
ENDROOT
BRANCH   1   2
ATOM      2  C   UNL A   1      37.142  21.164  24.583  1.00  0.00     0.117 C 
BRANCH   2   3
ATOM      3  N   UNL A   1      36.243  21.344  25.709  1.00  0.00    -0.356 N 
ATOM      4  C   UNL A   1      34.891  21.446  25.784  1.00  0.00     0.223 C 
ATOM      5  O   UNL A   1      34.405  21.617  26.905  1.00  0.00    -0.275 OA
ATOM      6  H   UNL A   1      36.699  21.404  26.580  1.00  0.00     0.163 HD
BRANCH   4   7
ATOM      7  C   UNL A   1      33.984  21.351  24.560  1.00  0.00     0.078 C 
ATOM      8  C   UNL A   1      33.201  22.649  24.350  1.00  0.00     0.018 C 
BRANCH   7   9
ATOM      9  C   UNL A   1      33.133  20.068  24.539  1.00  0.00     0.001 C 
ATOM     10  C   UNL A   1      33.062  17.702  24.125  1.00  0.00    -0.011 C 
ATOM     11  C   UNL A   1      32.427  18.368  22.906  1.00  0.00     0.004 C 
ATOM     12  C   UNL A   1      33.982  18.795  24.666  1.00  0.00     0.008 C 
ATOM     13  C   UNL A   1      32.336  19.858  23.242  1.00  0.00     0.005 C 
BRANCH  10  14
ATOM     14  C   UNL A   1      33.814  16.409  23.810  1.00  0.00     0.000 C 
ATOM     15  C   UNL A   1      34.774  16.000  24.917  1.00  0.00     0.004 C 
ENDBRANCH  10  14
ENDBRANCH   7   9
ENDBRANCH   4   7
ENDBRANCH   2   3
ENDBRANCH   1   2
BRANCH   1  16
ATOM     16  C   UNL A   1      38.974  20.046  25.987  1.00  0.00     0.118 C 
BRANCH  16  17
ATOM     17  N   UNL A   1      40.189  19.256  25.843  1.00  0.00    -0.352 N 
ATOM     18  C   UNL A   1      41.507  19.604  25.991  1.00  0.00     0.251 C 
ATOM     19  H   UNL A   1      40.039  18.315  25.598  1.00  0.00     0.163 HD
ATOM     20  O   UNL A   1      42.380  18.810  25.636  1.00  0.00    -0.269 OA
BRANCH  18  21
ATOM     21  C   UNL A   1      41.902  20.917  26.547  1.00  0.00     0.039 A 
ATOM     22  C   UNL A   1      42.293  21.927  25.662  1.00  0.00     0.014 A 
ATOM     23  C   UNL A   1      41.941  21.151  27.924  1.00  0.00     0.014 A 
ATOM     24  C   UNL A   1      42.652  23.185  26.151  1.00  0.00     0.010 A 
ATOM     25  C   UNL A   1      42.228  22.427  28.409  1.00  0.00     0.010 A 
ATOM     26  C   UNL A   1      42.587  23.457  27.527  1.00  0.00    -0.014 A 
BRANCH  26  27
ATOM     27  C   UNL A   1      42.874  24.816  28.053  1.00  0.00     0.031 A 
ATOM     28  C   UNL A   1      44.270  25.208  28.449  1.00  0.00     0.074 A 
ATOM     29  C   UNL A   1      41.858  25.684  28.229  1.00  0.00     0.049 A 
ATOM     30  N   UNL A   1      44.698  26.331  28.969  1.00  0.00    -0.248 NA
ATOM     31  C   UNL A   1      45.322  24.195  28.262  1.00  0.00     0.031 C 
ATOM     32  C   UNL A   1      40.450  25.408  27.940  1.00  0.00     0.029 A 
ATOM     33  N   UNL A   1      41.852  26.972  28.704  1.00  0.00    -0.354 N 
ATOM     34  C   UNL A   1      46.058  26.155  29.186  1.00  0.00     0.074 A 
ATOM     35  C   UNL A   1      46.379  24.803  28.783  1.00  0.00     0.031 C 
ATOM     36  C   UNL A   1      39.720  26.499  28.221  1.00  0.00     0.029 A 
ATOM     37  C   UNL A   1      40.603  27.540  28.739  1.00  0.00     0.049 A 
ATOM     38  H   UNL A   1      42.667  27.442  28.993  1.00  0.00     0.167 HD
ATOM     39  C   UNL A   1      46.963  27.045  29.659  1.00  0.00     0.037 A 
ATOM     40  C   UNL A   1      40.210  28.762  29.145  1.00  0.00     0.037 A 
ATOM     41  C   UNL A   1      46.652  28.402  30.030  1.00  0.00     0.049 A 
ATOM     42  C   UNL A   1      41.236  29.738  29.642  1.00  0.00     0.074 A 
ATOM     43  C   UNL A   1      47.513  29.401  30.450  1.00  0.00     0.029 A 
ATOM     44  N   UNL A   1      45.378  28.949  30.027  1.00  0.00    -0.354 N 
ATOM     45  N   UNL A   1      42.531  29.581  29.774  1.00  0.00    -0.248 NA
ATOM     46  C   UNL A   1      40.748  31.066  30.042  1.00  0.00     0.031 C 
ATOM     47  C   UNL A   1      46.756  30.542  30.733  1.00  0.00     0.029 A 
ATOM     48  C   UNL A   1      45.427  30.265  30.455  1.00  0.00     0.049 A 
ATOM     49  H   UNL A   1      44.559  28.471  29.760  1.00  0.00     0.167 HD
ATOM     50  C   UNL A   1      43.014  30.791  30.253  1.00  0.00     0.074 A 
ATOM     51  C   UNL A   1      41.876  31.679  30.369  1.00  0.00     0.031 C 
ATOM     52  C   UNL A   1      44.285  31.134  30.570  1.00  0.00     0.037 A 
BRANCH  39  53
ATOM     53  C   UNL A   1      48.384  26.582  29.795  1.00  0.00     0.057 A 
ATOM     54  C   UNL A   1      49.322  26.775  28.774  1.00  0.00     0.134 A 
ATOM     55  C   UNL A   1      48.828  25.971  30.975  1.00  0.00     0.134 A 
ATOM     56  F   UNL A   1      48.959  27.343  27.615  1.00  0.00    -0.206 F 
ATOM     57  C   UNL A   1      50.647  26.355  28.912  1.00  0.00     0.040 A 
ATOM     58  C   UNL A   1      50.155  25.569  31.133  1.00  0.00     0.040 A 
ATOM     59  F   UNL A   1      47.981  25.761  31.994  1.00  0.00    -0.206 F 
ATOM     60  C   UNL A   1      51.068  25.756  30.097  1.00  0.00     0.006 A 
ENDBRANCH  39  53
BRANCH  40  61
ATOM     61  C   UNL A   1      38.778  29.140  29.072  1.00  0.00     0.057 A 
ATOM     62  C   UNL A   1      37.953  29.055  30.201  1.00  0.00     0.134 A 
ATOM     63  C   UNL A   1      38.199  29.590  27.880  1.00  0.00     0.134 A 
ATOM     64  F   UNL A   1      38.448  28.614  31.366  1.00  0.00    -0.206 F 
ATOM     65  C   UNL A   1      36.599  29.389  30.142  1.00  0.00     0.040 A 
ATOM     66  C   UNL A   1      36.852  29.947  27.813  1.00  0.00     0.040 A 
ATOM     67  F   UNL A   1      38.939  29.699  26.767  1.00  0.00    -0.206 F 
ATOM     68  C   UNL A   1      36.047  29.841  28.946  1.00  0.00     0.006 A 
ENDBRANCH  40  61
BRANCH  52  69
ATOM     69  C   UNL A   1      44.509  32.534  31.058  1.00  0.00     0.057 A 
ATOM     70  C   UNL A   1      44.760  33.591  30.174  1.00  0.00     0.134 A 
ATOM     71  C   UNL A   1      44.455  32.833  32.425  1.00  0.00     0.134 A 
ATOM     72  F   UNL A   1      44.839  33.367  28.853  1.00  0.00    -0.206 F 
ATOM     73  C   UNL A   1      44.974  34.891  30.633  1.00  0.00     0.040 A 
ATOM     74  C   UNL A   1      44.644  34.132  32.895  1.00  0.00     0.040 A 
ATOM     75  F   UNL A   1      44.212  31.867  33.324  1.00  0.00    -0.206 F 
ATOM     76  C   UNL A   1      44.912  35.166  31.999  1.00  0.00     0.006 A 
ENDBRANCH  52  69
ENDBRANCH  26  27
ENDBRANCH  18  21
ENDBRANCH  16  17
ENDBRANCH   1  16
TORSDOF 12
ENDMDL
MODEL 2
REMARK VINA RESULT:     -10.7      2.778      7.662
REMARK SMILES CC[C@@H]1CC[C@H]([C@@H](C)C(=O)NCCCNC(=O)c2ccc(-c3c4nc(c(-c5c(F)cccc5F)c5ccc([nH]5)c(-c5c(F)cccc5F)c5nc(c(-c6c(F)cccc6F)c6ccc3[nH]6)C=C5)C=C4)cc2)C1
REMARK SMILES IDX 13 1 12 2 11 3 9 4 10 5 7 7 8 8 6 9 3 10 4 11 72 12 5 13
REMARK SMILES IDX 2 14 1 15 14 16 15 17 16 18 17 20 18 21 19 22 71 23 20 24
REMARK SMILES IDX 70 25 21 26 22 27 23 28 64 29 24 30 69 31 63 32 65 33 25 34
REMARK SMILES IDX 68 35 62 36 61 37 26 39 52 40 35 41 51 42 36 43 39 44 50 45
REMARK SMILES IDX 66 46 37 47 38 48 49 50 67 51 40 52 27 53 28 54 33 55 29 56
REMARK SMILES IDX 30 57 32 58 34 59 31 60 53 61 54 62 59 63 55 64 56 65 58 66
REMARK SMILES IDX 60 67 57 68 41 69 42 70 47 71 43 72 44 73 46 74 48 75 45 76
REMARK H PARENT 11 6 15 19 65 38 39 49
REMARK Flexibility Score: inf
ROOT
ATOM      1  C   UNL A   1      32.224  27.992  27.274  1.00  0.00     0.042 C 
ENDROOT
BRANCH   1   2
ATOM      2  C   UNL A   1      31.999  26.884  26.252  1.00  0.00     0.117 C 
BRANCH   2   3
ATOM      3  N   UNL A   1      31.497  25.664  26.859  1.00  0.00    -0.356 N 
ATOM      4  C   UNL A   1      31.574  24.363  26.478  1.00  0.00     0.223 C 
ATOM      5  O   UNL A   1      31.020  23.534  27.206  1.00  0.00    -0.275 OA
ATOM      6  H   UNL A   1      31.010  25.808  27.703  1.00  0.00     0.163 HD
BRANCH   4   7
ATOM      7  C   UNL A   1      32.307  23.909  25.219  1.00  0.00     0.078 C 
ATOM      8  C   UNL A   1      31.336  23.305  24.201  1.00  0.00     0.018 C 
BRANCH   7   9
ATOM      9  C   UNL A   1      33.550  23.053  25.521  1.00  0.00     0.001 C 
ATOM     10  C   UNL A   1      35.943  22.973  25.725  1.00  0.00    -0.011 C 
ATOM     11  C   UNL A   1      35.609  22.348  24.371  1.00  0.00     0.004 C 
ATOM     12  C   UNL A   1      34.751  23.895  25.975  1.00  0.00     0.008 C 
ATOM     13  C   UNL A   1      34.082  22.262  24.315  1.00  0.00     0.005 C 
BRANCH  10  14
ATOM     14  C   UNL A   1      37.276  23.722  25.755  1.00  0.00     0.000 C 
ATOM     15  C   UNL A   1      38.454  22.815  26.079  1.00  0.00     0.004 C 
ENDBRANCH  10  14
ENDBRANCH   7   9
ENDBRANCH   4   7
ENDBRANCH   2   3
ENDBRANCH   1   2
BRANCH   1  16
ATOM     16  C   UNL A   1      33.621  28.604  27.245  1.00  0.00     0.118 C 
BRANCH  16  17
ATOM     17  N   UNL A   1      33.636  29.998  27.668  1.00  0.00    -0.352 N 
ATOM     18  C   UNL A   1      34.603  30.731  28.306  1.00  0.00     0.251 C 
ATOM     19  H   UNL A   1      32.814  30.498  27.461  1.00  0.00     0.163 HD
ATOM     20  O   UNL A   1      34.322  31.852  28.731  1.00  0.00    -0.269 OA
BRANCH  18  21
ATOM     21  C   UNL A   1      35.967  30.197  28.513  1.00  0.00     0.039 A 
ATOM     22  C   UNL A   1      36.862  30.215  27.438  1.00  0.00     0.014 A 
ATOM     23  C   UNL A   1      36.360  29.637  29.731  1.00  0.00     0.014 A 
ATOM     24  C   UNL A   1      38.164  29.737  27.603  1.00  0.00     0.010 A 
ATOM     25  C   UNL A   1      37.681  29.228  29.919  1.00  0.00     0.010 A 
ATOM     26  C   UNL A   1      38.596  29.274  28.856  1.00  0.00    -0.014 A 
BRANCH  26  27
ATOM     27  C   UNL A   1      40.004  28.853  29.072  1.00  0.00     0.031 A 
ATOM     28  C   UNL A   1      41.000  29.794  29.692  1.00  0.00     0.074 A 
ATOM     29  C   UNL A   1      40.401  27.636  28.653  1.00  0.00     0.049 A 
ATOM     30  N   UNL A   1      42.278  29.615  29.913  1.00  0.00    -0.248 NA
ATOM     31  C   UNL A   1      40.502  31.119  30.092  1.00  0.00     0.031 C 
ATOM     32  C   UNL A   1      39.548  26.651  27.984  1.00  0.00     0.029 A 
ATOM     33  N   UNL A   1      41.627  27.022  28.718  1.00  0.00    -0.354 N 
ATOM     34  C   UNL A   1      42.739  30.806  30.460  1.00  0.00     0.074 A 
ATOM     35  C   UNL A   1      41.614  31.716  30.497  1.00  0.00     0.031 C 
ATOM     36  C   UNL A   1      40.270  25.550  27.721  1.00  0.00     0.029 A 
ATOM     37  C   UNL A   1      41.641  25.761  28.174  1.00  0.00     0.049 A 
ATOM     38  H   UNL A   1      42.421  27.446  29.117  1.00  0.00     0.167 HD
ATOM     39  C   UNL A   1      43.980  31.108  30.909  1.00  0.00     0.037 A 
ATOM     40  C   UNL A   1      42.646  24.874  28.051  1.00  0.00     0.037 A 
ATOM     41  C   UNL A   1      45.093  30.193  30.903  1.00  0.00     0.049 A 
ATOM     42  C   UNL A   1      44.006  25.224  28.580  1.00  0.00     0.074 A 
ATOM     43  C   UNL A   1      46.369  30.382  31.404  1.00  0.00     0.029 A 
ATOM     44  N   UNL A   1      45.060  28.914  30.367  1.00  0.00    -0.354 N 
ATOM     45  N   UNL A   1      44.409  26.329  29.159  1.00  0.00    -0.248 NA
ATOM     46  C   UNL A   1      45.053  24.201  28.441  1.00  0.00     0.031 C 
ATOM     47  C   UNL A   1      47.119  29.231  31.141  1.00  0.00     0.029 A 
ATOM     48  C   UNL A   1      46.299  28.311  30.508  1.00  0.00     0.049 A 
ATOM     49  H   UNL A   1      44.272  28.498  29.947  1.00  0.00     0.167 HD
ATOM     50  C   UNL A   1      45.746  26.129  29.472  1.00  0.00     0.074 A 
ATOM     51  C   UNL A   1      46.082  24.789  29.035  1.00  0.00     0.031 C 
ATOM     52  C   UNL A   1      46.619  26.979  30.064  1.00  0.00     0.037 A 
BRANCH  39  53
ATOM     53  C   UNL A   1      44.202  32.488  31.455  1.00  0.00     0.057 A 
ATOM     54  C   UNL A   1      44.611  33.547  30.635  1.00  0.00     0.134 A 
ATOM     55  C   UNL A   1      43.967  32.770  32.807  1.00  0.00     0.134 A 
ATOM     56  F   UNL A   1      44.863  33.342  29.334  1.00  0.00    -0.206 F 
ATOM     57  C   UNL A   1      44.801  34.834  31.145  1.00  0.00     0.040 A 
ATOM     58  C   UNL A   1      44.131  34.057  33.322  1.00  0.00     0.040 A 
ATOM     59  F   UNL A   1      43.569  31.802  33.645  1.00  0.00    -0.206 F 
ATOM     60  C   UNL A   1      44.555  35.092  32.491  1.00  0.00     0.006 A 
ENDBRANCH  39  53
BRANCH  40  61
ATOM     61  C   UNL A   1      42.394  23.555  27.422  1.00  0.00     0.057 A 
ATOM     62  C   UNL A   1      42.533  23.378  26.040  1.00  0.00     0.134 A 
ATOM     63  C   UNL A   1      42.008  22.444  28.180  1.00  0.00     0.134 A 
ATOM     64  F   UNL A   1      42.883  24.411  25.260  1.00  0.00    -0.206 F 
ATOM     65  C   UNL A   1      42.280  22.148  25.432  1.00  0.00     0.040 A 
ATOM     66  C   UNL A   1      41.773  21.202  27.588  1.00  0.00     0.040 A 
ATOM     67  F   UNL A   1      41.865  22.548  29.510  1.00  0.00    -0.206 F 
ATOM     68  C   UNL A   1      41.903  21.054  26.208  1.00  0.00     0.006 A 
ENDBRANCH  40  61
BRANCH  52  69
ATOM     69  C   UNL A   1      48.013  26.476  30.286  1.00  0.00     0.057 A 
ATOM     70  C   UNL A   1      49.016  26.637  29.322  1.00  0.00     0.134 A 
ATOM     71  C   UNL A   1      48.362  25.839  31.483  1.00  0.00     0.134 A 
ATOM     72  F   UNL A   1      48.742  27.225  28.148  1.00  0.00    -0.206 F 
ATOM     73  C   UNL A   1      50.311  26.161  29.530  1.00  0.00     0.040 A 
ATOM     74  C   UNL A   1      49.659  25.379  31.713  1.00  0.00     0.040 A 
ATOM     75  F   UNL A   1      47.450  25.658  32.450  1.00  0.00    -0.206 F 
ATOM     76  C   UNL A   1      50.637  25.534  30.732  1.00  0.00     0.006 A 
ENDBRANCH  52  69
ENDBRANCH  26  27
ENDBRANCH  18  21
ENDBRANCH  16  17
ENDBRANCH   1  16
TORSDOF 12
ENDMDL
MODEL 3
REMARK VINA RESULT:     -10.7      0.529      6.614
REMARK SMILES CC[C@@H]1CC[C@H]([C@@H](C)C(=O)NCCCNC(=O)c2ccc(-c3c4nc(c(-c5c(F)cccc5F)c5ccc([nH]5)c(-c5c(F)cccc5F)c5nc(c(-c6c(F)cccc6F)c6ccc3[nH]6)C=C5)C=C4)cc2)C1
REMARK SMILES IDX 13 1 12 2 11 3 9 4 10 5 7 7 8 8 6 9 3 10 4 11 72 12 5 13
REMARK SMILES IDX 2 14 1 15 14 16 15 17 16 18 17 20 18 21 19 22 71 23 20 24
REMARK SMILES IDX 70 25 21 26 22 27 23 28 64 29 24 30 69 31 63 32 65 33 25 34
REMARK SMILES IDX 68 35 62 36 61 37 26 39 52 40 35 41 51 42 36 43 39 44 50 45
REMARK SMILES IDX 66 46 37 47 38 48 49 50 67 51 40 52 27 53 28 54 33 55 29 56
REMARK SMILES IDX 30 57 32 58 34 59 31 60 53 61 54 62 59 63 55 64 56 65 58 66
REMARK SMILES IDX 60 67 57 68 41 69 42 70 47 71 43 72 44 73 46 74 48 75 45 76
REMARK H PARENT 11 6 15 19 65 38 39 49
REMARK Flexibility Score: inf
ROOT
ATOM      1  C   UNL A   1      38.176  20.066  24.874  1.00  0.00     0.042 C 
ENDROOT
BRANCH   1   2
ATOM      2  C   UNL A   1      37.377  21.348  24.671  1.00  0.00     0.117 C 
BRANCH   2   3
ATOM      3  N   UNL A   1      36.467  21.613  25.771  1.00  0.00    -0.356 N 
ATOM      4  C   UNL A   1      35.113  21.684  25.830  1.00  0.00     0.223 C 
ATOM      5  O   UNL A   1      34.614  21.952  26.928  1.00  0.00    -0.275 OA
ATOM      6  H   UNL A   1      36.916  21.770  26.634  1.00  0.00     0.163 HD
BRANCH   4   7
ATOM      7  C   UNL A   1      34.215  21.446  24.619  1.00  0.00     0.078 C 
ATOM      8  C   UNL A   1      33.395  22.694  24.283  1.00  0.00     0.018 C 
BRANCH   7   9
ATOM      9  C   UNL A   1      33.405  20.141  24.717  1.00  0.00     0.001 C 
ATOM     10  C   UNL A   1      33.326  17.778  24.287  1.00  0.00    -0.011 C 
ATOM     11  C   UNL A   1      32.487  18.439  23.195  1.00  0.00     0.004 C 
ATOM     12  C   UNL A   1      34.294  18.890  24.688  1.00  0.00     0.008 C 
ATOM     13  C   UNL A   1      32.414  19.922  23.562  1.00  0.00     0.005 C 
BRANCH  10  14
ATOM     14  C   UNL A   1      34.050  16.509  23.837  1.00  0.00     0.000 C 
ATOM     15  C   UNL A   1      34.823  15.840  24.963  1.00  0.00     0.004 C 
ENDBRANCH  10  14
ENDBRANCH   7   9
ENDBRANCH   4   7
ENDBRANCH   2   3
ENDBRANCH   1   2
BRANCH   1  16
ATOM     16  C   UNL A   1      39.116  20.089  26.074  1.00  0.00     0.118 C 
BRANCH  16  17
ATOM     17  N   UNL A   1      40.307  19.274  25.876  1.00  0.00    -0.352 N 
ATOM     18  C   UNL A   1      41.637  19.592  25.971  1.00  0.00     0.251 C 
ATOM     19  H   UNL A   1      40.126  18.337  25.634  1.00  0.00     0.163 HD
ATOM     20  O   UNL A   1      42.477  18.781  25.577  1.00  0.00    -0.269 OA
BRANCH  18  21
ATOM     21  C   UNL A   1      42.084  20.893  26.516  1.00  0.00     0.039 A 
ATOM     22  C   UNL A   1      42.503  21.884  25.621  1.00  0.00     0.014 A 
ATOM     23  C   UNL A   1      42.143  21.133  27.891  1.00  0.00     0.014 A 
ATOM     24  C   UNL A   1      42.912  23.131  26.100  1.00  0.00     0.010 A 
ATOM     25  C   UNL A   1      42.480  22.400  28.366  1.00  0.00     0.010 A 
ATOM     26  C   UNL A   1      42.868  23.412  27.475  1.00  0.00    -0.014 A 
BRANCH  26  27
ATOM     27  C   UNL A   1      43.208  24.763  27.990  1.00  0.00     0.031 A 
ATOM     28  C   UNL A   1      42.130  25.779  28.251  1.00  0.00     0.074 A 
ATOM     29  C   UNL A   1      44.501  25.096  28.169  1.00  0.00     0.049 A 
ATOM     30  N   UNL A   1      42.244  27.019  28.655  1.00  0.00    -0.248 NA
ATOM     31  C   UNL A   1      40.744  25.356  27.998  1.00  0.00     0.031 C 
ATOM     32  C   UNL A   1      45.645  24.223  27.898  1.00  0.00     0.029 A 
ATOM     33  N   UNL A   1      45.073  26.262  28.612  1.00  0.00    -0.354 N 
ATOM     34  C   UNL A   1      40.952  27.528  28.689  1.00  0.00     0.074 A 
ATOM     35  C   UNL A   1      40.073  26.477  28.223  1.00  0.00     0.031 C 
ATOM     36  C   UNL A   1      46.778  24.875  28.201  1.00  0.00     0.029 A 
ATOM     37  C   UNL A   1      46.445  26.220  28.658  1.00  0.00     0.049 A 
ATOM     38  H   UNL A   1      44.549  27.054  28.872  1.00  0.00     0.167 HD
ATOM     39  C   UNL A   1      40.534  28.751  29.092  1.00  0.00     0.037 A 
ATOM     40  C   UNL A   1      47.336  27.160  29.025  1.00  0.00     0.037 A 
ATOM     41  C   UNL A   1      41.403  29.787  29.587  1.00  0.00     0.049 A 
ATOM     42  C   UNL A   1      46.844  28.500  29.490  1.00  0.00     0.074 A 
ATOM     43  C   UNL A   1      41.065  31.032  30.087  1.00  0.00     0.029 A 
ATOM     44  N   UNL A   1      42.786  29.696  29.642  1.00  0.00    -0.354 N 
ATOM     45  N   UNL A   1      45.614  28.941  29.585  1.00  0.00    -0.248 NA
ATOM     46  C   UNL A   1      47.865  29.472  29.905  1.00  0.00     0.031 C 
ATOM     47  C   UNL A   1      42.245  31.709  30.414  1.00  0.00     0.029 A 
ATOM     48  C   UNL A   1      43.316  30.871  30.151  1.00  0.00     0.049 A 
ATOM     49  H   UNL A   1      43.312  28.913  29.361  1.00  0.00     0.167 HD
ATOM     50  C   UNL A   1      45.710  30.231  30.086  1.00  0.00     0.074 A 
ATOM     51  C   UNL A   1      47.119  30.495  30.295  1.00  0.00     0.031 C 
ATOM     52  C   UNL A   1      44.721  31.120  30.348  1.00  0.00     0.037 A 
BRANCH  39  53
ATOM     53  C   UNL A   1      39.062  29.037  29.021  1.00  0.00     0.057 A 
ATOM     54  C   UNL A   1      38.235  28.924  30.146  1.00  0.00     0.134 A 
ATOM     55  C   UNL A   1      38.472  29.465  27.824  1.00  0.00     0.134 A 
ATOM     56  F   UNL A   1      38.735  28.508  31.318  1.00  0.00    -0.206 F 
ATOM     57  C   UNL A   1      36.869  29.206  30.078  1.00  0.00     0.040 A 
ATOM     58  C   UNL A   1      37.112  29.772  27.751  1.00  0.00     0.040 A 
ATOM     59  F   UNL A   1      39.209  29.599  26.712  1.00  0.00    -0.206 F 
ATOM     60  C   UNL A   1      36.306  29.637  28.880  1.00  0.00     0.006 A 
ENDBRANCH  39  53
BRANCH  40  61
ATOM     61  C   UNL A   1      48.787  26.856  28.992  1.00  0.00     0.057 A 
ATOM     62  C   UNL A   1      49.564  27.176  27.872  1.00  0.00     0.134 A 
ATOM     63  C   UNL A   1      49.430  26.238  30.071  1.00  0.00     0.134 A 
ATOM     64  F   UNL A   1      48.999  27.752  26.802  1.00  0.00    -0.206 F 
ATOM     65  C   UNL A   1      50.926  26.877  27.820  1.00  0.00     0.040 A 
ATOM     66  C   UNL A   1      50.796  25.954  30.040  1.00  0.00     0.040 A 
ATOM     67  F   UNL A   1      48.741  25.913  31.174  1.00  0.00    -0.206 F 
ATOM     68  C   UNL A   1      51.546  26.268  28.909  1.00  0.00     0.006 A 
ENDBRANCH  40  61
BRANCH  52  69
ATOM     69  C   UNL A   1      45.132  32.450  30.902  1.00  0.00     0.057 A 
ATOM     70  C   UNL A   1      45.401  33.544  30.069  1.00  0.00     0.134 A 
ATOM     71  C   UNL A   1      45.243  32.646  32.284  1.00  0.00     0.134 A 
ATOM     72  F   UNL A   1      45.326  33.416  28.736  1.00  0.00    -0.206 F 
ATOM     73  C   UNL A   1      45.790  34.779  30.589  1.00  0.00     0.040 A 
ATOM     74  C   UNL A   1      45.609  33.882  32.818  1.00  0.00     0.040 A 
ATOM     75  F   UNL A   1      44.994  31.642  33.137  1.00  0.00    -0.206 F 
ATOM     76  C   UNL A   1      45.890  34.952  31.969  1.00  0.00     0.006 A 
ENDBRANCH  52  69
ENDBRANCH  26  27
ENDBRANCH  18  21
ENDBRANCH  16  17
ENDBRANCH   1  16
TORSDOF 12
ENDMDL
