MODEL 1
REMARK VINA RESULT:     -12.7      0.000      0.000
REMARK SMILES Cc1cc2c(c(C)c1Cl)C=C(C(=O)NCCCNC(=O)c1ccc(-c3c4nc(c(-c5c(F)cccc5F)c5ccc([nH]5)c(-c5c(F)cccc5F)c5nc(c(-c6c(F)cccc6F)c6ccc3[nH]6)C=C5)C=C4)cc1)[C@@H](C(F)(F)F)O2
REMARK SMILES IDX 16 1 15 2 14 3 12 4 13 5 11 7 1 8 2 9 3 10 8 11 4 12 6 13
REMARK SMILES IDX 9 14 5 15 80 16 7 17 10 18 75 19 76 20 77 21 78 22 79 23
REMARK SMILES IDX 17 24 18 25 19 26 20 28 21 29 22 30 74 31 23 32 73 33 24 34
REMARK SMILES IDX 25 35 26 36 67 37 27 38 72 39 66 40 68 41 28 42 71 43 65 44
REMARK SMILES IDX 64 45 29 47 55 48 38 49 54 50 39 51 42 52 53 53 69 54 40 55
REMARK SMILES IDX 41 56 52 58 70 59 43 60 30 61 31 62 36 63 32 64 33 65 35 66
REMARK SMILES IDX 37 67 34 68 56 69 57 70 62 71 58 72 59 73 61 74 63 75 60 76
REMARK SMILES IDX 44 77 45 78 50 79 46 80 47 81 49 82 51 83 48 84
REMARK H PARENT 14 6 18 27 68 46 42 57
REMARK Flexibility Score: inf
ROOT
ATOM      1  C   UNL A   1      37.682  19.723  24.831  1.00  0.00     0.042 C 
ENDROOT
BRANCH   1   2
ATOM      2  C   UNL A   1      36.379  20.477  25.041  1.00  0.00     0.118 C 
BRANCH   2   3
ATOM      3  N   UNL A   1      35.227  19.588  24.987  1.00  0.00    -0.352 N 
ATOM      4  C   UNL A   1      33.880  19.706  24.983  1.00  0.00     0.251 C 
ATOM      5  O   UNL A   1      33.260  18.638  24.930  1.00  0.00    -0.270 OA
ATOM      6  H   UNL A   1      35.505  18.645  24.942  1.00  0.00     0.163 HD
BRANCH   4   7
ATOM      7  C   UNL A   1      33.132  20.995  25.039  1.00  0.00     0.067 C 
ATOM      8  C   UNL A   1      29.971  26.588  24.013  1.00  0.00     0.046 C 
ATOM      9  C   UNL A   1      30.802  25.338  23.919  1.00  0.00    -0.028 A 
ATOM     10  C   UNL A   1      30.802  24.460  25.005  1.00  0.00     0.052 A 
ATOM     11  C   UNL A   1      31.588  25.026  22.791  1.00  0.00     0.047 A 
ATOM     12  C   UNL A   1      31.561  23.296  24.970  1.00  0.00     0.128 A 
ATOM     13  C   UNL A   1      32.357  23.836  22.738  1.00  0.00    -0.021 A 
ATOM     14  Cl  UNL A   1      31.587  26.139  21.456  1.00  0.00    -0.084 Cl
ATOM     15  C   UNL A   1      32.329  22.961  23.850  1.00  0.00     0.022 A 
ATOM     16  O   UNL A   1      31.455  22.504  26.077  1.00  0.00    -0.475 OA
ATOM     17  C   UNL A   1      33.193  23.478  21.531  1.00  0.00     0.047 C 
ATOM     18  C   UNL A   1      33.038  21.676  23.882  1.00  0.00     0.026 C 
ATOM     19  C   UNL A   1      32.523  21.550  26.289  1.00  0.00     0.314 C 
BRANCH  19  20
ATOM     20  C   UNL A   1      33.571  22.152  27.246  1.00  0.00     0.429 C 
ATOM     21  F   UNL A   1      32.963  22.662  28.348  1.00  0.00    -0.167 F 
ATOM     22  F   UNL A   1      34.459  21.232  27.693  1.00  0.00    -0.167 F 
ATOM     23  F   UNL A   1      34.288  23.147  26.680  1.00  0.00    -0.167 F 
ENDBRANCH  19  20
ENDBRANCH   4   7
ENDBRANCH   2   3
ENDBRANCH   1   2
BRANCH   1  24
ATOM     24  C   UNL A   1      38.811  20.292  25.680  1.00  0.00     0.118 C 
BRANCH  24  25
ATOM     25  N   UNL A   1      39.901  19.331  25.844  1.00  0.00    -0.352 N 
ATOM     26  C   UNL A   1      41.229  19.539  26.113  1.00  0.00     0.251 C 
ATOM     27  H   UNL A   1      39.640  18.387  25.747  1.00  0.00     0.163 HD
ATOM     28  O   UNL A   1      42.041  18.633  25.926  1.00  0.00    -0.269 OA
BRANCH  26  29
ATOM     29  C   UNL A   1      41.683  20.845  26.622  1.00  0.00     0.039 A 
ATOM     30  C   UNL A   1      42.154  21.806  25.726  1.00  0.00     0.014 A 
ATOM     31  C   UNL A   1      41.666  21.108  27.994  1.00  0.00     0.014 A 
ATOM     32  C   UNL A   1      42.548  23.056  26.205  1.00  0.00     0.010 A 
ATOM     33  C   UNL A   1      41.954  22.383  28.456  1.00  0.00     0.010 A 
ATOM     34  C   UNL A   1      42.418  23.363  27.569  1.00  0.00    -0.014 A 
BRANCH  34  35
ATOM     35  C   UNL A   1      42.794  24.695  28.100  1.00  0.00     0.031 A 
ATOM     36  C   UNL A   1      41.732  25.739  28.310  1.00  0.00     0.074 A 
ATOM     37  C   UNL A   1      44.089  24.975  28.337  1.00  0.00     0.049 A 
ATOM     38  N   UNL A   1      41.864  26.979  28.704  1.00  0.00    -0.248 NA
ATOM     39  C   UNL A   1      40.343  25.352  28.008  1.00  0.00     0.031 C 
ATOM     40  C   UNL A   1      45.208  24.055  28.121  1.00  0.00     0.029 A 
ATOM     41  N   UNL A   1      44.685  26.118  28.807  1.00  0.00    -0.354 N 
ATOM     42  C   UNL A   1      40.583  27.516  28.687  1.00  0.00     0.074 A 
ATOM     43  C   UNL A   1      39.696  26.494  28.181  1.00  0.00     0.031 C 
ATOM     44  C   UNL A   1      46.350  24.656  28.491  1.00  0.00     0.029 A 
ATOM     45  C   UNL A   1      46.050  26.017  28.930  1.00  0.00     0.049 A 
ATOM     46  H   UNL A   1      44.183  26.933  29.034  1.00  0.00     0.167 HD
ATOM     47  C   UNL A   1      40.179  28.742  29.092  1.00  0.00     0.037 A 
ATOM     48  C   UNL A   1      46.956  26.921  29.347  1.00  0.00     0.037 A 
ATOM     49  C   UNL A   1      41.064  29.739  29.631  1.00  0.00     0.049 A 
ATOM     50  C   UNL A   1      46.481  28.280  29.782  1.00  0.00     0.074 A 
ATOM     51  C   UNL A   1      40.745  30.989  30.129  1.00  0.00     0.029 A 
ATOM     52  N   UNL A   1      42.437  29.596  29.747  1.00  0.00    -0.354 N 
ATOM     53  N   UNL A   1      45.258  28.750  29.827  1.00  0.00    -0.248 NA
ATOM     54  C   UNL A   1      47.507  29.233  30.228  1.00  0.00     0.031 C 
ATOM     55  C   UNL A   1      41.932  31.624  30.500  1.00  0.00     0.029 A 
ATOM     56  C   UNL A   1      42.984  30.748  30.283  1.00  0.00     0.049 A 
ATOM     57  H   UNL A   1      42.947  28.795  29.485  1.00  0.00     0.167 HD
ATOM     58  C   UNL A   1      45.364  30.043  30.325  1.00  0.00     0.074 A 
ATOM     59  C   UNL A   1      46.769  30.275  30.585  1.00  0.00     0.031 C 
ATOM     60  C   UNL A   1      44.387  30.955  30.543  1.00  0.00     0.037 A 
BRANCH  47  61
ATOM     61  C   UNL A   1      38.719  29.070  28.995  1.00  0.00     0.057 A 
ATOM     62  C   UNL A   1      37.866  28.962  30.102  1.00  0.00     0.134 A 
ATOM     63  C   UNL A   1      38.174  29.572  27.806  1.00  0.00     0.134 A 
ATOM     64  F   UNL A   1      38.322  28.474  31.265  1.00  0.00    -0.206 F 
ATOM     65  C   UNL A   1      36.523  29.333  30.027  1.00  0.00     0.040 A 
ATOM     66  C   UNL A   1      36.840  29.973  27.727  1.00  0.00     0.040 A 
ATOM     67  F   UNL A   1      38.937  29.704  26.710  1.00  0.00    -0.206 F 
ATOM     68  C   UNL A   1      36.011  29.853  28.840  1.00  0.00     0.006 A 
ENDBRANCH  47  61
BRANCH  48  69
ATOM     69  C   UNL A   1      48.395  26.558  29.401  1.00  0.00     0.057 A 
ATOM     70  C   UNL A   1      48.935  25.910  30.518  1.00  0.00     0.134 A 
ATOM     71  C   UNL A   1      49.264  26.839  28.338  1.00  0.00     0.134 A 
ATOM     72  F   UNL A   1      48.158  25.628  31.574  1.00  0.00    -0.206 F 
ATOM     73  C   UNL A   1      50.286  25.567  30.583  1.00  0.00     0.040 A 
ATOM     74  C   UNL A   1      50.611  26.478  28.380  1.00  0.00     0.040 A 
ATOM     75  F   UNL A   1      48.809  27.450  27.234  1.00  0.00    -0.206 F 
ATOM     76  C   UNL A   1      51.128  25.845  29.509  1.00  0.00     0.006 A 
ENDBRANCH  48  69
BRANCH  60  77
ATOM     77  C   UNL A   1      44.789  32.287  31.104  1.00  0.00     0.057 A 
ATOM     78  C   UNL A   1      45.080  33.375  30.273  1.00  0.00     0.134 A 
ATOM     79  C   UNL A   1      44.792  32.506  32.487  1.00  0.00     0.134 A 
ATOM     80  F   UNL A   1      45.101  33.226  28.939  1.00  0.00    -0.206 F 
ATOM     81  C   UNL A   1      45.368  34.635  30.798  1.00  0.00     0.040 A 
ATOM     82  C   UNL A   1      45.051  33.768  33.024  1.00  0.00     0.040 A 
ATOM     83  F   UNL A   1      44.509  31.508  33.337  1.00  0.00    -0.206 F 
ATOM     84  C   UNL A   1      45.342  34.836  32.177  1.00  0.00     0.006 A 
ENDBRANCH  60  77
ENDBRANCH  34  35
ENDBRANCH  26  29
ENDBRANCH  24  25
ENDBRANCH   1  24
TORSDOF 11
ENDMDL
MODEL 2
REMARK VINA RESULT:     -12.5      0.355      6.217
REMARK SMILES Cc1cc2c(c(C)c1Cl)C=C(C(=O)NCCCNC(=O)c1ccc(-c3c4nc(c(-c5c(F)cccc5F)c5ccc([nH]5)c(-c5c(F)cccc5F)c5nc(c(-c6c(F)cccc6F)c6ccc3[nH]6)C=C5)C=C4)cc1)[C@@H](C(F)(F)F)O2
REMARK SMILES IDX 16 1 15 2 14 3 12 4 13 5 11 7 1 8 2 9 3 10 8 11 4 12 6 13
REMARK SMILES IDX 9 14 5 15 80 16 7 17 10 18 75 19 76 20 77 21 78 22 79 23
REMARK SMILES IDX 17 24 18 25 19 26 20 28 21 29 22 30 74 31 23 32 73 33 24 34
REMARK SMILES IDX 25 35 26 36 67 37 27 38 72 39 66 40 68 41 28 42 71 43 65 44
REMARK SMILES IDX 64 45 29 47 55 48 38 49 54 50 39 51 42 52 53 53 69 54 40 55
REMARK SMILES IDX 41 56 52 58 70 59 43 60 30 61 31 62 36 63 32 64 33 65 35 66
REMARK SMILES IDX 37 67 34 68 56 69 57 70 62 71 58 72 59 73 61 74 63 75 60 76
REMARK SMILES IDX 44 77 45 78 50 79 46 80 47 81 49 82 51 83 48 84
REMARK H PARENT 14 6 18 27 68 46 42 57
REMARK Flexibility Score: inf
ROOT
ATOM      1  C   UNL A   1      37.586  19.518  24.846  1.00  0.00     0.042 C 
ENDROOT
BRANCH   1   2
ATOM      2  C   UNL A   1      36.310  20.324  25.022  1.00  0.00     0.118 C 
BRANCH   2   3
ATOM      3  N   UNL A   1      35.128  19.474  25.010  1.00  0.00    -0.352 N 
ATOM      4  C   UNL A   1      33.786  19.638  25.033  1.00  0.00     0.251 C 
ATOM      5  O   UNL A   1      33.130  18.591  25.012  1.00  0.00    -0.270 OA
ATOM      6  H   UNL A   1      35.373  18.522  24.976  1.00  0.00     0.163 HD
BRANCH   4   7
ATOM      7  C   UNL A   1      33.083  20.952  25.081  1.00  0.00     0.067 C 
ATOM      8  C   UNL A   1      30.074  26.622  24.018  1.00  0.00     0.046 C 
ATOM      9  C   UNL A   1      30.860  25.342  23.929  1.00  0.00    -0.028 A 
ATOM     10  C   UNL A   1      30.869  24.492  25.036  1.00  0.00     0.052 A 
ATOM     11  C   UNL A   1      31.595  24.976  22.783  1.00  0.00     0.047 A 
ATOM     12  C   UNL A   1      31.586  23.303  25.006  1.00  0.00     0.128 A 
ATOM     13  C   UNL A   1      32.322  23.760  22.734  1.00  0.00    -0.021 A 
ATOM     14  Cl  UNL A   1      31.583  26.056  21.420  1.00  0.00    -0.084 Cl
ATOM     15  C   UNL A   1      32.304  22.915  23.869  1.00  0.00     0.022 A 
ATOM     16  O   UNL A   1      31.494  22.542  26.135  1.00  0.00    -0.475 OA
ATOM     17  C   UNL A   1      33.103  23.345  21.509  1.00  0.00     0.047 C 
ATOM     18  C   UNL A   1      32.971  21.608  23.910  1.00  0.00     0.026 C 
ATOM     19  C   UNL A   1      32.537  21.559  26.336  1.00  0.00     0.314 C 
BRANCH  19  20
ATOM     20  C   UNL A   1      33.637  22.149  27.241  1.00  0.00     0.429 C 
ATOM     21  F   UNL A   1      33.084  22.709  28.347  1.00  0.00    -0.167 F 
ATOM     22  F   UNL A   1      34.507  21.210  27.683  1.00  0.00    -0.167 F 
ATOM     23  F   UNL A   1      34.368  23.102  26.624  1.00  0.00    -0.167 F 
ENDBRANCH  19  20
ENDBRANCH   4   7
ENDBRANCH   2   3
ENDBRANCH   1   2
BRANCH   1  24
ATOM     24  C   UNL A   1      38.783  20.195  25.500  1.00  0.00     0.118 C 
BRANCH  24  25
ATOM     25  N   UNL A   1      39.854  19.243  25.784  1.00  0.00    -0.352 N 
ATOM     26  C   UNL A   1      41.165  19.462  26.119  1.00  0.00     0.251 C 
ATOM     27  H   UNL A   1      39.594  18.295  25.726  1.00  0.00     0.163 HD
ATOM     28  O   UNL A   1      41.982  18.545  26.033  1.00  0.00    -0.269 OA
BRANCH  26  29
ATOM     29  C   UNL A   1      41.596  20.794  26.578  1.00  0.00     0.039 A 
ATOM     30  C   UNL A   1      42.068  21.722  25.648  1.00  0.00     0.014 A 
ATOM     31  C   UNL A   1      41.557  21.115  27.936  1.00  0.00     0.014 A 
ATOM     32  C   UNL A   1      42.440  22.996  26.078  1.00  0.00     0.010 A 
ATOM     33  C   UNL A   1      41.823  22.412  28.348  1.00  0.00     0.010 A 
ATOM     34  C   UNL A   1      42.288  23.360  27.426  1.00  0.00    -0.014 A 
BRANCH  34  35
ATOM     35  C   UNL A   1      42.640  24.717  27.905  1.00  0.00     0.031 A 
ATOM     36  C   UNL A   1      44.082  25.066  28.155  1.00  0.00     0.074 A 
ATOM     37  C   UNL A   1      41.664  25.606  28.165  1.00  0.00     0.049 A 
ATOM     38  N   UNL A   1      44.590  26.173  28.632  1.00  0.00    -0.248 NA
ATOM     39  C   UNL A   1      45.083  24.026  27.860  1.00  0.00     0.031 C 
ATOM     40  C   UNL A   1      40.229  25.358  28.007  1.00  0.00     0.029 A 
ATOM     41  N   UNL A   1      41.729  26.898  28.622  1.00  0.00    -0.354 N 
ATOM     42  C   UNL A   1      45.960  25.957  28.702  1.00  0.00     0.074 A 
ATOM     43  C   UNL A   1      46.202  24.595  28.284  1.00  0.00     0.031 C 
ATOM     44  C   UNL A   1      39.552  26.473  28.327  1.00  0.00     0.029 A 
ATOM     45  C   UNL A   1      40.500  27.499  28.752  1.00  0.00     0.049 A 
ATOM     46  H   UNL A   1      42.576  27.351  28.836  1.00  0.00     0.167 HD
ATOM     47  C   UNL A   1      46.933  26.830  29.050  1.00  0.00     0.037 A 
ATOM     48  C   UNL A   1      40.176  28.737  29.170  1.00  0.00     0.037 A 
ATOM     49  C   UNL A   1      46.687  28.196  29.426  1.00  0.00     0.049 A 
ATOM     50  C   UNL A   1      41.277  29.684  29.560  1.00  0.00     0.074 A 
ATOM     51  C   UNL A   1      47.607  29.179  29.734  1.00  0.00     0.029 A 
ATOM     52  N   UNL A   1      45.430  28.769  29.538  1.00  0.00    -0.354 N 
ATOM     53  N   UNL A   1      42.573  29.489  29.555  1.00  0.00    -0.248 NA
ATOM     54  C   UNL A   1      40.874  31.024  30.010  1.00  0.00     0.031 C 
ATOM     55  C   UNL A   1      46.906  30.336  30.083  1.00  0.00     0.029 A 
ATOM     56  C   UNL A   1      45.550  30.087  29.939  1.00  0.00     0.049 A 
ATOM     57  H   UNL A   1      44.578  28.306  29.360  1.00  0.00     0.167 HD
ATOM     58  C   UNL A   1      43.141  30.684  29.978  1.00  0.00     0.074 A 
ATOM     59  C   UNL A   1      42.049  31.605  30.214  1.00  0.00     0.031 C 
ATOM     60  C   UNL A   1      44.448  30.990  30.159  1.00  0.00     0.037 A 
BRANCH  47  61
ATOM     61  C   UNL A   1      48.354  26.351  29.017  1.00  0.00     0.057 A 
ATOM     62  C   UNL A   1      48.944  25.724  30.122  1.00  0.00     0.134 A 
ATOM     63  C   UNL A   1      49.116  26.447  27.846  1.00  0.00     0.134 A 
ATOM     64  F   UNL A   1      48.273  25.612  31.279  1.00  0.00    -0.206 F 
ATOM     65  C   UNL A   1      50.243  25.218  30.066  1.00  0.00     0.040 A 
ATOM     66  C   UNL A   1      50.405  25.921  27.768  1.00  0.00     0.040 A 
ATOM     67  F   UNL A   1      48.609  27.034  26.750  1.00  0.00    -0.206 F 
ATOM     68  C   UNL A   1      50.972  25.304  28.882  1.00  0.00     0.006 A 
ENDBRANCH  47  61
BRANCH  48  69
ATOM     69  C   UNL A   1      38.752  29.157  29.210  1.00  0.00     0.057 A 
ATOM     70  C   UNL A   1      38.001  29.052  30.387  1.00  0.00     0.134 A 
ATOM     71  C   UNL A   1      38.110  29.685  28.083  1.00  0.00     0.134 A 
ATOM     72  F   UNL A   1      38.555  28.540  31.496  1.00  0.00    -0.206 F 
ATOM     73  C   UNL A   1      36.661  29.439  30.438  1.00  0.00     0.040 A 
ATOM     74  C   UNL A   1      36.778  30.100  28.127  1.00  0.00     0.040 A 
ATOM     75  F   UNL A   1      38.775  29.822  26.926  1.00  0.00    -0.206 F 
ATOM     76  C   UNL A   1      36.047  29.971  29.306  1.00  0.00     0.006 A 
ENDBRANCH  48  69
BRANCH  60  77
ATOM     77  C   UNL A   1      44.783  32.377  30.621  1.00  0.00     0.057 A 
ATOM     78  C   UNL A   1      44.965  32.675  31.976  1.00  0.00     0.134 A 
ATOM     79  C   UNL A   1      45.016  33.400  29.693  1.00  0.00     0.134 A 
ATOM     80  F   UNL A   1      44.748  31.740  32.914  1.00  0.00    -0.206 F 
ATOM     81  C   UNL A   1      45.362  33.946  32.395  1.00  0.00     0.040 A 
ATOM     82  C   UNL A   1      45.440  34.667  30.097  1.00  0.00     0.040 A 
ATOM     83  F   UNL A   1      44.871  33.175  28.379  1.00  0.00    -0.206 F 
ATOM     84  C   UNL A   1      45.612  34.942  31.452  1.00  0.00     0.006 A 
ENDBRANCH  60  77
ENDBRANCH  34  35
ENDBRANCH  26  29
ENDBRANCH  24  25
ENDBRANCH   1  24
TORSDOF 11
ENDMDL
MODEL 3
REMARK VINA RESULT:     -12.4      2.728      7.352
REMARK SMILES Cc1cc2c(c(C)c1Cl)C=C(C(=O)NCCCNC(=O)c1ccc(-c3c4nc(c(-c5c(F)cccc5F)c5ccc([nH]5)c(-c5c(F)cccc5F)c5nc(c(-c6c(F)cccc6F)c6ccc3[nH]6)C=C5)C=C4)cc1)[C@@H](C(F)(F)F)O2
REMARK SMILES IDX 16 1 15 2 14 3 12 4 13 5 11 7 1 8 2 9 3 10 8 11 4 12 6 13
REMARK SMILES IDX 9 14 5 15 80 16 7 17 10 18 75 19 76 20 77 21 78 22 79 23
REMARK SMILES IDX 17 24 18 25 19 26 20 28 21 29 22 30 74 31 23 32 73 33 24 34
REMARK SMILES IDX 25 35 26 36 67 37 27 38 72 39 66 40 68 41 28 42 71 43 65 44
REMARK SMILES IDX 64 45 29 47 55 48 38 49 54 50 39 51 42 52 53 53 69 54 40 55
REMARK SMILES IDX 41 56 52 58 70 59 43 60 30 61 31 62 36 63 32 64 33 65 35 66
REMARK SMILES IDX 37 67 34 68 56 69 57 70 62 71 58 72 59 73 61 74 63 75 60 76
REMARK SMILES IDX 44 77 45 78 50 79 46 80 47 81 49 82 51 83 48 84
REMARK H PARENT 14 6 18 27 68 46 42 57
REMARK Flexibility Score: inf
ROOT
ATOM      1  C   UNL A   1      33.898  28.587  25.457  1.00  0.00     0.042 C 
ENDROOT
BRANCH   1   2
ATOM      2  C   UNL A   1      33.378  27.281  24.878  1.00  0.00     0.118 C 
BRANCH   2   3
ATOM      3  N   UNL A   1      32.362  26.679  25.729  1.00  0.00    -0.352 N 
ATOM      4  C   UNL A   1      32.022  25.437  26.144  1.00  0.00     0.251 C 
ATOM      5  O   UNL A   1      31.041  25.387  26.894  1.00  0.00    -0.270 OA
ATOM      6  H   UNL A   1      31.760  27.361  26.104  1.00  0.00     0.163 HD
BRANCH   4   7
ATOM      7  C   UNL A   1      32.730  24.182  25.764  1.00  0.00     0.067 C 
ATOM      8  C   UNL A   1      36.790  19.195  24.773  1.00  0.00     0.046 C 
ATOM      9  C   UNL A   1      36.142  20.512  25.103  1.00  0.00    -0.028 A 
ATOM     10  C   UNL A   1      34.750  20.602  25.027  1.00  0.00     0.052 A 
ATOM     11  C   UNL A   1      36.880  21.656  25.469  1.00  0.00     0.047 A 
ATOM     12  C   UNL A   1      34.105  21.799  25.315  1.00  0.00     0.128 A 
ATOM     13  C   UNL A   1      36.233  22.880  25.776  1.00  0.00    -0.021 A 
ATOM     14  Cl  UNL A   1      38.612  21.527  25.542  1.00  0.00    -0.084 Cl
ATOM     15  C   UNL A   1      34.821  22.937  25.701  1.00  0.00     0.022 A 
ATOM     16  O   UNL A   1      32.743  21.755  25.237  1.00  0.00    -0.475 OA
ATOM     17  C   UNL A   1      37.008  24.111  26.185  1.00  0.00     0.047 C 
ATOM     18  C   UNL A   1      34.045  24.132  26.052  1.00  0.00     0.026 C 
ATOM     19  C   UNL A   1      32.067  23.026  25.082  1.00  0.00     0.314 C 
BRANCH  19  20
ATOM     20  C   UNL A   1      31.798  23.290  23.587  1.00  0.00     0.429 C 
ATOM     21  F   UNL A   1      31.968  22.150  22.870  1.00  0.00    -0.167 F 
ATOM     22  F   UNL A   1      30.530  23.703  23.350  1.00  0.00    -0.167 F 
ATOM     23  F   UNL A   1      32.619  24.225  23.064  1.00  0.00    -0.167 F 
ENDBRANCH  19  20
ENDBRANCH   4   7
ENDBRANCH   2   3
ENDBRANCH   1   2
BRANCH   1  24
ATOM     24  C   UNL A   1      33.938  28.558  26.979  1.00  0.00     0.118 C 
BRANCH  24  25
ATOM     25  N   UNL A   1      33.861  29.903  27.547  1.00  0.00    -0.352 N 
ATOM     26  C   UNL A   1      34.739  30.569  28.362  1.00  0.00     0.251 C 
ATOM     27  H   UNL A   1      33.052  30.409  27.307  1.00  0.00     0.163 HD
ATOM     28  O   UNL A   1      34.369  31.573  28.971  1.00  0.00    -0.269 OA
BRANCH  26  29
ATOM     29  C   UNL A   1      36.121  30.082  28.512  1.00  0.00     0.039 A 
ATOM     30  C   UNL A   1      37.005  30.180  27.435  1.00  0.00     0.014 A 
ATOM     31  C   UNL A   1      36.536  29.503  29.713  1.00  0.00     0.014 A 
ATOM     32  C   UNL A   1      38.324  29.754  27.589  1.00  0.00     0.010 A 
ATOM     33  C   UNL A   1      37.871  29.180  29.900  1.00  0.00     0.010 A 
ATOM     34  C   UNL A   1      38.774  29.283  28.834  1.00  0.00    -0.014 A 
BRANCH  34  35
ATOM     35  C   UNL A   1      40.179  28.857  29.037  1.00  0.00     0.031 A 
ATOM     36  C   UNL A   1      41.162  29.808  29.663  1.00  0.00     0.074 A 
ATOM     37  C   UNL A   1      40.576  27.645  28.608  1.00  0.00     0.049 A 
ATOM     38  N   UNL A   1      42.443  29.650  29.869  1.00  0.00    -0.248 NA
ATOM     39  C   UNL A   1      40.645  31.121  30.087  1.00  0.00     0.031 C 
ATOM     40  C   UNL A   1      39.720  26.660  27.941  1.00  0.00     0.029 A 
ATOM     41  N   UNL A   1      41.803  27.033  28.664  1.00  0.00    -0.354 N 
ATOM     42  C   UNL A   1      42.883  30.841  30.433  1.00  0.00     0.074 A 
ATOM     43  C   UNL A   1      41.750  31.738  30.477  1.00  0.00     0.031 C 
ATOM     44  C   UNL A   1      40.438  25.556  27.682  1.00  0.00     0.029 A 
ATOM     45  C   UNL A   1      41.814  25.769  28.125  1.00  0.00     0.049 A 
ATOM     46  H   UNL A   1      42.600  27.460  29.052  1.00  0.00     0.167 HD
ATOM     47  C   UNL A   1      44.113  31.145  30.904  1.00  0.00     0.037 A 
ATOM     48  C   UNL A   1      42.821  24.884  28.002  1.00  0.00     0.037 A 
ATOM     49  C   UNL A   1      45.224  30.233  30.893  1.00  0.00     0.049 A 
ATOM     50  C   UNL A   1      44.181  25.252  28.526  1.00  0.00     0.074 A 
ATOM     51  C   UNL A   1      46.494  30.421  31.404  1.00  0.00     0.029 A 
ATOM     52  N   UNL A   1      45.193  28.959  30.346  1.00  0.00    -0.354 N 
ATOM     53  N   UNL A   1      44.565  26.355  29.120  1.00  0.00    -0.248 NA
ATOM     54  C   UNL A   1      45.248  24.253  28.367  1.00  0.00     0.031 C 
ATOM     55  C   UNL A   1      47.249  29.281  31.122  1.00  0.00     0.029 A 
ATOM     56  C   UNL A   1      46.432  28.361  30.483  1.00  0.00     0.049 A 
ATOM     57  H   UNL A   1      44.407  28.544  29.923  1.00  0.00     0.167 HD
ATOM     58  C   UNL A   1      45.908  26.177  29.426  1.00  0.00     0.074 A 
ATOM     59  C   UNL A   1      46.268  24.851  28.968  1.00  0.00     0.031 C 
ATOM     60  C   UNL A   1      46.767  27.035  30.028  1.00  0.00     0.037 A 
BRANCH  47  61
ATOM     61  C   UNL A   1      44.323  32.507  31.497  1.00  0.00     0.057 A 
ATOM     62  C   UNL A   1      44.743  33.592  30.717  1.00  0.00     0.134 A 
ATOM     63  C   UNL A   1      44.029  32.755  32.844  1.00  0.00     0.134 A 
ATOM     64  F   UNL A   1      45.055  33.419  29.423  1.00  0.00    -0.206 F 
ATOM     65  C   UNL A   1      44.872  34.873  31.256  1.00  0.00     0.040 A 
ATOM     66  C   UNL A   1      44.127  34.036  33.388  1.00  0.00     0.040 A 
ATOM     67  F   UNL A   1      43.619  31.761  33.646  1.00  0.00    -0.206 F 
ATOM     68  C   UNL A   1      44.550  35.099  32.593  1.00  0.00     0.006 A 
ENDBRANCH  47  61
BRANCH  48  69
ATOM     69  C   UNL A   1      42.570  23.557  27.384  1.00  0.00     0.057 A 
ATOM     70  C   UNL A   1      42.192  22.457  28.163  1.00  0.00     0.134 A 
ATOM     71  C   UNL A   1      42.689  23.355  26.003  1.00  0.00     0.134 A 
ATOM     72  F   UNL A   1      42.076  22.581  29.493  1.00  0.00    -0.206 F 
ATOM     73  C   UNL A   1      41.957  21.203  27.596  1.00  0.00     0.040 A 
ATOM     74  C   UNL A   1      42.432  22.114  25.419  1.00  0.00     0.040 A 
ATOM     75  F   UNL A   1      43.039  24.370  25.197  1.00  0.00    -0.206 F 
ATOM     76  C   UNL A   1      42.071  21.031  26.218  1.00  0.00     0.006 A 
ENDBRANCH  48  69
BRANCH  60  77
ATOM     77  C   UNL A   1      48.177  26.573  30.245  1.00  0.00     0.057 A 
ATOM     78  C   UNL A   1      49.196  26.875  29.334  1.00  0.00     0.134 A 
ATOM     79  C   UNL A   1      48.535  25.901  31.420  1.00  0.00     0.134 A 
ATOM     80  F   UNL A   1      48.916  27.510  28.185  1.00  0.00    -0.206 F 
ATOM     81  C   UNL A   1      50.522  26.520  29.581  1.00  0.00     0.040 A 
ATOM     82  C   UNL A   1      49.861  25.565  31.693  1.00  0.00     0.040 A 
ATOM     83  F   UNL A   1      47.608  25.593  32.339  1.00  0.00    -0.206 F 
ATOM     84  C   UNL A   1      50.859  25.873  30.770  1.00  0.00     0.006 A 
ENDBRANCH  60  77
ENDBRANCH  34  35
ENDBRANCH  26  29
ENDBRANCH  24  25
ENDBRANCH   1  24
TORSDOF 11
ENDMDL
