MODEL 1
REMARK VINA RESULT:     -11.3      0.000      0.000
REMARK SMILES CCn1cnc(S(=O)(=O)NC[C@H]2CC[C@@H](C(=O)NCCCNC(=O)c3ccc(-c4c5nc(c(-c6c(F)cccc6F)c6ccc([nH]6)c(-c6c(F)cccc6F)c6nc(c(-c7c(F)cccc7F)c7ccc4[nH]7)C=C6)C=C5)cc3)O2)c1
REMARK SMILES IDX 16 1 17 2 18 3 15 5 12 6 13 7 79 8 14 9 11 10 10 11 7 13
REMARK SMILES IDX 8 14 9 15 6 16 3 17 4 18 80 19 5 20 2 21 1 22 19 23 20 24
REMARK SMILES IDX 21 25 22 26 23 27 24 29 25 30 26 31 78 32 27 33 77 34 28 35
REMARK SMILES IDX 29 36 30 37 71 38 31 39 76 40 70 41 72 42 32 43 75 44 69 45
REMARK SMILES IDX 68 46 33 48 59 49 42 50 58 51 43 52 46 53 57 54 73 55 44 56
REMARK SMILES IDX 45 57 56 59 74 60 47 61 34 62 35 63 40 64 36 65 37 66 39 67
REMARK SMILES IDX 41 68 38 69 60 70 61 71 66 72 62 73 63 74 65 75 67 76 64 77
REMARK SMILES IDX 48 78 49 79 54 80 50 81 51 82 53 83 55 84 52 85
REMARK H PARENT 18 4 10 12 22 28 72 47 46 58
REMARK Flexibility Score: inf
ROOT
ATOM      1  C   UNL A   1      36.595  22.432  24.339  1.00  0.00     0.249 C 
ATOM      2  O   UNL A   1      36.234  22.761  23.208  1.00  0.00    -0.272 OA
ATOM      3  N   UNL A   1      37.750  22.982  24.836  1.00  0.00    -0.354 N 
ATOM      4  H   UNL A   1      38.204  23.621  24.241  1.00  0.00     0.163 HD
ENDROOT
BRANCH   1   5
ATOM      5  C   UNL A   1      35.836  21.406  25.198  1.00  0.00     0.207 C 
ATOM      6  C   UNL A   1      34.199  21.488  26.882  1.00  0.00     0.134 C 
ATOM      7  C   UNL A   1      33.686  20.617  25.745  1.00  0.00     0.037 C 
ATOM      8  O   UNL A   1      35.551  21.838  26.532  1.00  0.00    -0.364 OA
ATOM      9  C   UNL A   1      34.491  21.092  24.568  1.00  0.00     0.045 C 
BRANCH   6  10
ATOM     10  C   UNL A   1      33.395  22.784  27.051  1.00  0.00     0.131 C 
BRANCH  10  11
ATOM     11  N   UNL A   1      32.048  22.579  27.628  1.00  0.00    -0.207 NA
ATOM     12  H   UNL A   1      31.983  21.592  27.879  1.00  0.00     0.141 HD
BRANCH  11  13
ATOM     13  S   UNL A   1      30.665  22.945  26.712  1.00  0.00     0.259 S 
ATOM     14  O   UNL A   1      29.556  23.121  27.628  1.00  0.00    -0.205 OA
ATOM     15  O   UNL A   1      30.629  21.946  25.672  1.00  0.00    -0.205 OA
BRANCH  13  16
ATOM     16  C   UNL A   1      30.875  24.460  25.881  1.00  0.00     0.188 A 
ATOM     17  N   UNL A   1      31.510  25.984  24.456  1.00  0.00    -0.336 N 
ATOM     18  C   UNL A   1      30.697  26.545  25.399  1.00  0.00     0.201 A 
ATOM     19  C   UNL A   1      31.606  24.649  24.724  1.00  0.00     0.129 A 
ATOM     20  N   UNL A   1      30.288  25.654  26.273  1.00  0.00    -0.224 NA
BRANCH  17  21
ATOM     21  C   UNL A   1      32.193  26.677  23.385  1.00  0.00     0.120 C 
ATOM     22  C   UNL A   1      31.635  26.323  22.016  1.00  0.00     0.027 C 
ENDBRANCH  17  21
ENDBRANCH  13  16
ENDBRANCH  11  13
ENDBRANCH  10  11
ENDBRANCH   6  10
ENDBRANCH   1   5
BRANCH   3  23
ATOM     23  C   UNL A   1      38.402  22.754  26.119  1.00  0.00     0.117 C 
BRANCH  23  24
ATOM     24  C   UNL A   1      39.272  21.493  26.143  1.00  0.00     0.042 C 
BRANCH  24  25
ATOM     25  C   UNL A   1      40.568  21.682  26.908  1.00  0.00     0.118 C 
BRANCH  25  26
ATOM     26  N   UNL A   1      41.735  21.910  26.049  1.00  0.00    -0.352 N 
ATOM     27  C   UNL A   1      42.361  23.109  25.744  1.00  0.00     0.251 C 
ATOM     28  H   UNL A   1      42.124  21.106  25.635  1.00  0.00     0.163 HD
ATOM     29  O   UNL A   1      43.093  23.203  24.766  1.00  0.00    -0.269 OA
BRANCH  27  30
ATOM     30  C   UNL A   1      42.129  24.273  26.618  1.00  0.00     0.039 A 
ATOM     31  C   UNL A   1      42.759  24.433  27.855  1.00  0.00     0.014 A 
ATOM     32  C   UNL A   1      41.270  25.251  26.142  1.00  0.00     0.014 A 
ATOM     33  C   UNL A   1      42.545  25.618  28.557  1.00  0.00     0.010 A 
ATOM     34  C   UNL A   1      41.309  26.505  26.669  1.00  0.00     0.010 A 
ATOM     35  C   UNL A   1      41.823  26.655  27.940  1.00  0.00    -0.014 A 
BRANCH  35  36
ATOM     36  C   UNL A   1      41.603  27.943  28.570  1.00  0.00     0.031 A 
ATOM     37  C   UNL A   1      42.626  28.955  28.242  1.00  0.00     0.074 A 
ATOM     38  C   UNL A   1      40.465  28.267  29.223  1.00  0.00     0.049 A 
ATOM     39  N   UNL A   1      43.592  29.349  28.999  1.00  0.00    -0.248 NA
ATOM     40  C   UNL A   1      42.696  29.463  26.865  1.00  0.00     0.031 C 
ATOM     41  C   UNL A   1      39.210  27.513  29.347  1.00  0.00     0.029 A 
ATOM     42  N   UNL A   1      40.176  29.424  29.873  1.00  0.00    -0.354 N 
ATOM     43  C   UNL A   1      44.261  30.330  28.279  1.00  0.00     0.074 A 
ATOM     44  C   UNL A   1      43.806  30.203  26.919  1.00  0.00     0.031 C 
ATOM     45  C   UNL A   1      38.240  28.318  29.839  1.00  0.00     0.029 A 
ATOM     46  C   UNL A   1      38.843  29.576  30.233  1.00  0.00     0.049 A 
ATOM     47  H   UNL A   1      40.861  30.102  30.075  1.00  0.00     0.167 HD
ATOM     48  C   UNL A   1      44.932  31.322  28.927  1.00  0.00     0.037 A 
ATOM     49  C   UNL A   1      38.291  30.676  30.804  1.00  0.00     0.037 A 
ATOM     50  C   UNL A   1      45.097  30.997  30.327  1.00  0.00     0.049 A 
ATOM     51  C   UNL A   1      39.401  31.450  31.416  1.00  0.00     0.074 A 
ATOM     52  C   UNL A   1      45.686  29.957  31.021  1.00  0.00     0.029 A 
ATOM     53  N   UNL A   1      44.247  31.603  31.223  1.00  0.00    -0.354 N 
ATOM     54  N   UNL A   1      40.086  31.039  32.446  1.00  0.00    -0.248 NA
ATOM     55  C   UNL A   1      40.057  32.452  30.588  1.00  0.00     0.031 C 
ATOM     56  C   UNL A   1      44.799  29.691  32.108  1.00  0.00     0.029 A 
ATOM     57  C   UNL A   1      43.769  30.631  32.063  1.00  0.00     0.049 A 
ATOM     58  H   UNL A   1      44.022  32.561  31.255  1.00  0.00     0.167 HD
ATOM     59  C   UNL A   1      41.399  31.382  32.156  1.00  0.00     0.074 A 
ATOM     60  C   UNL A   1      41.307  32.323  31.040  1.00  0.00     0.031 C 
ATOM     61  C   UNL A   1      42.444  30.650  32.643  1.00  0.00     0.037 A 
BRANCH  48  62
ATOM     62  C   UNL A   1      45.082  32.735  28.419  1.00  0.00     0.057 A 
ATOM     63  C   UNL A   1      46.378  33.267  28.288  1.00  0.00     0.134 A 
ATOM     64  C   UNL A   1      44.038  33.678  28.341  1.00  0.00     0.134 A 
ATOM     65  F   UNL A   1      47.458  32.474  28.338  1.00  0.00    -0.206 F 
ATOM     66  C   UNL A   1      46.619  34.643  28.192  1.00  0.00     0.040 A 
ATOM     67  C   UNL A   1      44.266  35.049  28.192  1.00  0.00     0.040 A 
ATOM     68  F   UNL A   1      42.751  33.352  28.504  1.00  0.00    -0.206 F 
ATOM     69  C   UNL A   1      45.561  35.540  28.156  1.00  0.00     0.006 A 
ENDBRANCH  48  62
BRANCH  49  70
ATOM     70  C   UNL A   1      36.946  31.261  30.599  1.00  0.00     0.057 A 
ATOM     71  C   UNL A   1      36.086  31.488  31.683  1.00  0.00     0.134 A 
ATOM     72  C   UNL A   1      36.597  31.892  29.392  1.00  0.00     0.134 A 
ATOM     73  F   UNL A   1      36.352  30.955  32.885  1.00  0.00    -0.206 F 
ATOM     74  C   UNL A   1      34.970  32.329  31.588  1.00  0.00     0.040 A 
ATOM     75  C   UNL A   1      35.482  32.732  29.282  1.00  0.00     0.040 A 
ATOM     76  F   UNL A   1      37.378  31.791  28.307  1.00  0.00    -0.206 F 
ATOM     77  C   UNL A   1      34.675  32.968  30.388  1.00  0.00     0.006 A 
ENDBRANCH  49  70
BRANCH  61  78
ATOM     78  C   UNL A   1      42.153  29.624  33.707  1.00  0.00     0.057 A 
ATOM     79  C   UNL A   1      41.824  28.285  33.451  1.00  0.00     0.134 A 
ATOM     80  C   UNL A   1      42.358  29.977  35.045  1.00  0.00     0.134 A 
ATOM     81  F   UNL A   1      41.703  27.824  32.201  1.00  0.00    -0.206 F 
ATOM     82  C   UNL A   1      41.663  27.353  34.482  1.00  0.00     0.040 A 
ATOM     83  C   UNL A   1      42.233  29.049  36.081  1.00  0.00     0.040 A 
ATOM     84  F   UNL A   1      42.728  31.226  35.365  1.00  0.00    -0.206 F 
ATOM     85  C   UNL A   1      41.873  27.733  35.803  1.00  0.00     0.006 A 
ENDBRANCH  61  78
ENDBRANCH  35  36
ENDBRANCH  27  30
ENDBRANCH  25  26
ENDBRANCH  24  25
ENDBRANCH  23  24
ENDBRANCH   3  23
TORSDOF 15
ENDMDL
MODEL 2
REMARK VINA RESULT:     -11.1      4.781      6.842
REMARK SMILES CCn1cnc(S(=O)(=O)NC[C@H]2CC[C@@H](C(=O)NCCCNC(=O)c3ccc(-c4c5nc(c(-c6c(F)cccc6F)c6ccc([nH]6)c(-c6c(F)cccc6F)c6nc(c(-c7c(F)cccc7F)c7ccc4[nH]7)C=C6)C=C5)cc3)O2)c1
REMARK SMILES IDX 16 1 17 2 18 3 15 5 12 6 13 7 79 8 14 9 11 10 10 11 7 13
REMARK SMILES IDX 8 14 9 15 6 16 3 17 4 18 80 19 5 20 2 21 1 22 19 23 20 24
REMARK SMILES IDX 21 25 22 26 23 27 24 29 25 30 26 31 78 32 27 33 77 34 28 35
REMARK SMILES IDX 29 36 30 37 71 38 31 39 76 40 70 41 72 42 32 43 75 44 69 45
REMARK SMILES IDX 68 46 33 48 59 49 42 50 58 51 43 52 46 53 57 54 73 55 44 56
REMARK SMILES IDX 45 57 56 59 74 60 47 61 34 62 35 63 40 64 36 65 37 66 39 67
REMARK SMILES IDX 41 68 38 69 60 70 61 71 66 72 62 73 63 74 65 75 67 76 64 77
REMARK SMILES IDX 48 78 49 79 54 80 50 81 51 82 53 83 55 84 52 85
REMARK H PARENT 18 4 10 12 22 28 72 47 46 58
REMARK Flexibility Score: inf
ROOT
ATOM      1  C   UNL A   1      43.091  18.436  26.265  1.00  0.00     0.249 C 
ATOM      2  O   UNL A   1      43.599  17.510  26.900  1.00  0.00    -0.272 OA
ATOM      3  N   UNL A   1      41.839  18.863  26.631  1.00  0.00    -0.354 N 
ATOM      4  H   UNL A   1      41.441  18.393  27.399  1.00  0.00     0.163 HD
ENDROOT
BRANCH   1   5
ATOM      5  C   UNL A   1      43.775  19.104  25.060  1.00  0.00     0.207 C 
ATOM      6  C   UNL A   1      45.008  21.070  24.687  1.00  0.00     0.134 C 
ATOM      7  C   UNL A   1      45.846  19.879  24.250  1.00  0.00     0.037 C 
ATOM      8  O   UNL A   1      43.725  20.534  25.060  1.00  0.00    -0.364 OA
ATOM      9  C   UNL A   1      45.250  18.742  25.032  1.00  0.00     0.045 C 
BRANCH   6  10
ATOM     10  C   UNL A   1      45.596  21.800  25.903  1.00  0.00     0.131 C 
BRANCH  10  11
ATOM     11  N   UNL A   1      46.372  23.010  25.553  1.00  0.00    -0.207 NA
ATOM     12  H   UNL A   1      47.286  22.690  25.230  1.00  0.00     0.141 HD
BRANCH  11  13
ATOM     13  S   UNL A   1      46.657  24.206  26.724  1.00  0.00     0.259 S 
ATOM     14  O   UNL A   1      48.024  24.067  27.184  1.00  0.00    -0.205 OA
ATOM     15  O   UNL A   1      45.544  24.109  27.638  1.00  0.00    -0.205 OA
BRANCH  13  16
ATOM     16  C   UNL A   1      46.525  25.790  26.015  1.00  0.00     0.188 A 
ATOM     17  N   UNL A   1      46.449  27.953  25.747  1.00  0.00    -0.336 N 
ATOM     18  C   UNL A   1      46.273  27.334  24.543  1.00  0.00     0.201 A 
ATOM     19  C   UNL A   1      46.648  26.988  26.692  1.00  0.00     0.129 A 
ATOM     20  N   UNL A   1      46.319  26.026  24.663  1.00  0.00    -0.224 NA
BRANCH  17  21
ATOM     21  C   UNL A   1      46.391  29.377  26.000  1.00  0.00     0.120 C 
ATOM     22  C   UNL A   1      47.527  29.856  26.889  1.00  0.00     0.027 C 
ENDBRANCH  17  21
ENDBRANCH  13  16
ENDBRANCH  11  13
ENDBRANCH  10  11
ENDBRANCH   6  10
ENDBRANCH   1   5
BRANCH   3  23
ATOM     23  C   UNL A   1      41.015  19.913  26.046  1.00  0.00     0.117 C 
BRANCH  23  24
ATOM     24  C   UNL A   1      40.643  21.017  27.042  1.00  0.00     0.042 C 
BRANCH  24  25
ATOM     25  C   UNL A   1      40.685  22.404  26.430  1.00  0.00     0.118 C 
BRANCH  25  26
ATOM     26  N   UNL A   1      41.920  22.690  25.693  1.00  0.00    -0.352 N 
ATOM     27  C   UNL A   1      42.573  23.903  25.538  1.00  0.00     0.251 C 
ATOM     28  H   UNL A   1      42.342  21.918  25.251  1.00  0.00     0.163 HD
ATOM     29  O   UNL A   1      43.384  24.068  24.636  1.00  0.00    -0.269 OA
BRANCH  27  30
ATOM     30  C   UNL A   1      42.270  24.996  26.480  1.00  0.00     0.039 A 
ATOM     31  C   UNL A   1      42.798  25.055  27.772  1.00  0.00     0.014 A 
ATOM     32  C   UNL A   1      41.450  26.014  26.014  1.00  0.00     0.014 A 
ATOM     33  C   UNL A   1      42.526  26.183  28.545  1.00  0.00     0.010 A 
ATOM     34  C   UNL A   1      41.446  27.221  26.639  1.00  0.00     0.010 A 
ATOM     35  C   UNL A   1      41.855  27.269  27.956  1.00  0.00    -0.014 A 
BRANCH  35  36
ATOM     36  C   UNL A   1      41.584  28.505  28.665  1.00  0.00     0.031 A 
ATOM     37  C   UNL A   1      42.575  29.570  28.419  1.00  0.00     0.074 A 
ATOM     38  C   UNL A   1      40.427  28.747  29.322  1.00  0.00     0.049 A 
ATOM     39  N   UNL A   1      43.518  29.945  29.213  1.00  0.00    -0.248 NA
ATOM     40  C   UNL A   1      42.644  30.169  27.079  1.00  0.00     0.031 C 
ATOM     41  C   UNL A   1      39.197  27.946  29.378  1.00  0.00     0.029 A 
ATOM     42  N   UNL A   1      40.091  29.848  30.042  1.00  0.00    -0.354 N 
ATOM     43  C   UNL A   1      44.162  30.993  28.569  1.00  0.00     0.074 A 
ATOM     44  C   UNL A   1      43.728  30.941  27.197  1.00  0.00     0.031 C 
ATOM     45  C   UNL A   1      38.194  28.683  29.907  1.00  0.00     0.029 A 
ATOM     46  C   UNL A   1      38.749  29.933  30.392  1.00  0.00     0.049 A 
ATOM     47  H   UNL A   1      40.749  30.535  30.296  1.00  0.00     0.167 HD
ATOM     48  C   UNL A   1      44.790  31.962  29.290  1.00  0.00     0.037 A 
ATOM     49  C   UNL A   1      38.152  30.973  31.025  1.00  0.00     0.037 A 
ATOM     50  C   UNL A   1      44.949  31.552  30.667  1.00  0.00     0.049 A 
ATOM     51  C   UNL A   1      39.228  31.743  31.702  1.00  0.00     0.074 A 
ATOM     52  C   UNL A   1      45.565  30.488  31.301  1.00  0.00     0.029 A 
ATOM     53  N   UNL A   1      44.068  32.069  31.589  1.00  0.00    -0.354 N 
ATOM     54  N   UNL A   1      39.915  31.288  32.713  1.00  0.00    -0.248 NA
ATOM     55  C   UNL A   1      39.860  32.818  30.951  1.00  0.00     0.031 C 
ATOM     56  C   UNL A   1      44.674  30.122  32.355  1.00  0.00     0.029 A 
ATOM     57  C   UNL A   1      43.613  31.028  32.357  1.00  0.00     0.049 A 
ATOM     58  H   UNL A   1      43.810  33.015  31.680  1.00  0.00     0.167 HD
ATOM     59  C   UNL A   1      41.219  31.693  32.464  1.00  0.00     0.074 A 
ATOM     60  C   UNL A   1      41.108  32.702  31.411  1.00  0.00     0.031 C 
ATOM     61  C   UNL A   1      42.282  30.965  32.917  1.00  0.00     0.037 A 
BRANCH  48  62
ATOM     62  C   UNL A   1      44.898  33.409  28.877  1.00  0.00     0.057 A 
ATOM     63  C   UNL A   1      43.714  34.135  28.653  1.00  0.00     0.134 A 
ATOM     64  C   UNL A   1      46.075  34.027  28.408  1.00  0.00     0.134 A 
ATOM     65  F   UNL A   1      42.527  33.659  29.057  1.00  0.00    -0.206 F 
ATOM     66  C   UNL A   1      43.691  35.330  27.926  1.00  0.00     0.040 A 
ATOM     67  C   UNL A   1      46.069  35.248  27.726  1.00  0.00     0.040 A 
ATOM     68  F   UNL A   1      47.279  33.451  28.487  1.00  0.00    -0.206 F 
ATOM     69  C   UNL A   1      44.871  35.884  27.449  1.00  0.00     0.006 A 
ENDBRANCH  48  62
BRANCH  49  70
ATOM     70  C   UNL A   1      36.792  31.526  30.839  1.00  0.00     0.057 A 
ATOM     71  C   UNL A   1      35.977  31.820  31.942  1.00  0.00     0.134 A 
ATOM     72  C   UNL A   1      36.379  32.063  29.606  1.00  0.00     0.134 A 
ATOM     73  F   UNL A   1      36.303  31.379  33.166  1.00  0.00    -0.206 F 
ATOM     74  C   UNL A   1      34.844  32.639  31.836  1.00  0.00     0.040 A 
ATOM     75  C   UNL A   1      35.248  32.879  29.487  1.00  0.00     0.040 A 
ATOM     76  F   UNL A   1      37.113  31.893  28.497  1.00  0.00    -0.206 F 
ATOM     77  C   UNL A   1      34.487  33.186  30.608  1.00  0.00     0.006 A 
ENDBRANCH  49  70
BRANCH  61  78
ATOM     78  C   UNL A   1      42.013  29.863  33.908  1.00  0.00     0.057 A 
ATOM     79  C   UNL A   1      41.741  28.531  33.561  1.00  0.00     0.134 A 
ATOM     80  C   UNL A   1      42.181  30.136  35.270  1.00  0.00     0.134 A 
ATOM     81  F   UNL A   1      41.660  28.148  32.282  1.00  0.00    -0.206 F 
ATOM     82  C   UNL A   1      41.599  27.529  34.527  1.00  0.00     0.040 A 
ATOM     83  C   UNL A   1      42.074  29.139  36.242  1.00  0.00     0.040 A 
ATOM     84  F   UNL A   1      42.496  31.375  35.676  1.00  0.00    -0.206 F 
ATOM     85  C   UNL A   1      41.772  27.831  35.874  1.00  0.00     0.006 A 
ENDBRANCH  61  78
ENDBRANCH  35  36
ENDBRANCH  27  30
ENDBRANCH  25  26
ENDBRANCH  24  25
ENDBRANCH  23  24
ENDBRANCH   3  23
TORSDOF 15
ENDMDL
MODEL 3
REMARK VINA RESULT:     -11.1      1.657      3.071
REMARK SMILES CCn1cnc(S(=O)(=O)NC[C@H]2CC[C@@H](C(=O)NCCCNC(=O)c3ccc(-c4c5nc(c(-c6c(F)cccc6F)c6ccc([nH]6)c(-c6c(F)cccc6F)c6nc(c(-c7c(F)cccc7F)c7ccc4[nH]7)C=C6)C=C5)cc3)O2)c1
REMARK SMILES IDX 16 1 17 2 18 3 15 5 12 6 13 7 79 8 14 9 11 10 10 11 7 13
REMARK SMILES IDX 8 14 9 15 6 16 3 17 4 18 80 19 5 20 2 21 1 22 19 23 20 24
REMARK SMILES IDX 21 25 22 26 23 27 24 29 25 30 26 31 78 32 27 33 77 34 28 35
REMARK SMILES IDX 29 36 30 37 71 38 31 39 76 40 70 41 72 42 32 43 75 44 69 45
REMARK SMILES IDX 68 46 33 48 59 49 42 50 58 51 43 52 46 53 57 54 73 55 44 56
REMARK SMILES IDX 45 57 56 59 74 60 47 61 34 62 35 63 40 64 36 65 37 66 39 67
REMARK SMILES IDX 41 68 38 69 60 70 61 71 66 72 62 73 63 74 65 75 67 76 64 77
REMARK SMILES IDX 48 78 49 79 54 80 50 81 51 82 53 83 55 84 52 85
REMARK H PARENT 18 4 10 12 22 28 72 47 46 58
REMARK Flexibility Score: inf
ROOT
ATOM      1  C   UNL A   1      34.601  25.010  24.853  1.00  0.00     0.249 C 
ATOM      2  O   UNL A   1      34.519  25.814  25.783  1.00  0.00    -0.272 OA
ATOM      3  N   UNL A   1      35.479  23.964  24.975  1.00  0.00    -0.354 N 
ATOM      4  H   UNL A   1      35.979  23.929  25.822  1.00  0.00     0.163 HD
ENDROOT
BRANCH   1   5
ATOM      5  C   UNL A   1      33.795  25.150  23.549  1.00  0.00     0.207 C 
ATOM      6  C   UNL A   1      31.524  25.104  22.948  1.00  0.00     0.134 C 
ATOM      7  C   UNL A   1      32.125  26.421  22.484  1.00  0.00     0.037 C 
ATOM      8  O   UNL A   1      32.619  24.338  23.483  1.00  0.00    -0.364 OA
ATOM      9  C   UNL A   1      33.319  26.582  23.381  1.00  0.00     0.045 C 
BRANCH   6  10
ATOM     10  C   UNL A   1      30.476  25.282  24.055  1.00  0.00     0.131 C 
BRANCH  10  11
ATOM     11  N   UNL A   1      30.235  24.058  24.850  1.00  0.00    -0.207 NA
ATOM     12  H   UNL A   1      29.224  23.960  24.941  1.00  0.00     0.141 HD
BRANCH  11  13
ATOM     13  S   UNL A   1      30.884  23.918  26.413  1.00  0.00     0.259 S 
ATOM     14  O   UNL A   1      29.836  23.438  27.292  1.00  0.00    -0.205 OA
ATOM     15  O   UNL A   1      31.552  25.173  26.656  1.00  0.00    -0.205 OA
BRANCH  13  16
ATOM     16  C   UNL A   1      32.147  22.719  26.437  1.00  0.00     0.188 A 
ATOM     17  N   UNL A   1      33.395  20.998  25.952  1.00  0.00    -0.336 N 
ATOM     18  C   UNL A   1      33.901  21.640  27.045  1.00  0.00     0.201 A 
ATOM     19  C   UNL A   1      32.298  21.691  25.527  1.00  0.00     0.129 A 
ATOM     20  N   UNL A   1      33.177  22.689  27.365  1.00  0.00    -0.224 NA
BRANCH  17  21
ATOM     21  C   UNL A   1      33.894  19.774  25.364  1.00  0.00     0.120 C 
ATOM     22  C   UNL A   1      32.799  18.742  25.151  1.00  0.00     0.027 C 
ENDBRANCH  17  21
ENDBRANCH  13  16
ENDBRANCH  11  13
ENDBRANCH  10  11
ENDBRANCH   6  10
ENDBRANCH   1   5
BRANCH   3  23
ATOM     23  C   UNL A   1      35.779  22.896  24.030  1.00  0.00     0.117 C 
BRANCH  23  24
ATOM     24  C   UNL A   1      36.913  21.975  24.495  1.00  0.00     0.042 C 
BRANCH  24  25
ATOM     25  C   UNL A   1      38.012  22.715  25.233  1.00  0.00     0.118 C 
BRANCH  25  26
ATOM     26  N   UNL A   1      38.752  21.881  26.186  1.00  0.00    -0.352 N 
ATOM     27  C   UNL A   1      39.761  22.256  27.060  1.00  0.00     0.251 C 
ATOM     28  H   UNL A   1      38.499  20.930  26.207  1.00  0.00     0.163 HD
ATOM     29  O   UNL A   1      40.516  21.420  27.541  1.00  0.00    -0.269 OA
BRANCH  27  30
ATOM     30  C   UNL A   1      39.912  23.682  27.398  1.00  0.00     0.039 A 
ATOM     31  C   UNL A   1      38.883  24.614  27.241  1.00  0.00     0.014 A 
ATOM     32  C   UNL A   1      41.132  24.074  27.930  1.00  0.00     0.014 A 
ATOM     33  C   UNL A   1      39.099  25.918  27.685  1.00  0.00     0.010 A 
ATOM     34  C   UNL A   1      41.226  25.237  28.629  1.00  0.00     0.010 A 
ATOM     35  C   UNL A   1      40.279  26.211  28.392  1.00  0.00    -0.014 A 
BRANCH  35  36
ATOM     36  C   UNL A   1      40.560  27.523  28.943  1.00  0.00     0.031 A 
ATOM     37  C   UNL A   1      41.660  28.237  28.265  1.00  0.00     0.074 A 
ATOM     38  C   UNL A   1      39.765  28.136  29.848  1.00  0.00     0.049 A 
ATOM     39  N   UNL A   1      42.865  28.385  28.695  1.00  0.00    -0.248 NA
ATOM     40  C   UNL A   1      41.456  28.687  26.880  1.00  0.00     0.031 C 
ATOM     41  C   UNL A   1      38.454  27.729  30.371  1.00  0.00     0.029 A 
ATOM     42  N   UNL A   1      39.957  29.339  30.448  1.00  0.00    -0.354 N 
ATOM     43  C   UNL A   1      43.517  29.152  27.739  1.00  0.00     0.074 A 
ATOM     44  C   UNL A   1      42.679  29.122  26.569  1.00  0.00     0.031 C 
ATOM     45  C   UNL A   1      37.884  28.761  31.034  1.00  0.00     0.029 A 
ATOM     46  C   UNL A   1      38.857  29.832  31.139  1.00  0.00     0.049 A 
ATOM     47  H   UNL A   1      40.812  29.825  30.397  1.00  0.00     0.167 HD
ATOM     48  C   UNL A   1      44.561  29.951  28.093  1.00  0.00     0.037 A 
ATOM     49  C   UNL A   1      38.768  31.045  31.740  1.00  0.00     0.037 A 
ATOM     50  C   UNL A   1      45.032  29.619  29.419  1.00  0.00     0.049 A 
ATOM     51  C   UNL A   1      40.157  31.522  31.959  1.00  0.00     0.074 A 
ATOM     52  C   UNL A   1      45.527  28.475  30.017  1.00  0.00     0.029 A 
ATOM     53  N   UNL A   1      44.641  30.436  30.455  1.00  0.00    -0.354 N 
ATOM     54  N   UNL A   1      40.987  30.968  32.798  1.00  0.00    -0.248 NA
ATOM     55  C   UNL A   1      40.772  32.311  30.901  1.00  0.00     0.031 C 
ATOM     56  C   UNL A   1      44.947  28.461  31.322  1.00  0.00     0.029 A 
ATOM     57  C   UNL A   1      44.202  29.631  31.474  1.00  0.00     0.049 A 
ATOM     58  H   UNL A   1      44.670  31.420  30.462  1.00  0.00     0.167 HD
ATOM     59  C   UNL A   1      42.207  30.961  32.136  1.00  0.00     0.074 A 
ATOM     60  C   UNL A   1      42.031  31.876  31.008  1.00  0.00     0.031 C 
ATOM     61  C   UNL A   1      43.140  29.996  32.386  1.00  0.00     0.037 A 
BRANCH  48  62
ATOM     62  C   UNL A   1      44.894  31.271  27.442  1.00  0.00     0.057 A 
ATOM     63  C   UNL A   1      46.118  31.393  26.758  1.00  0.00     0.134 A 
ATOM     64  C   UNL A   1      44.231  32.488  27.701  1.00  0.00     0.134 A 
ATOM     65  F   UNL A   1      46.844  30.310  26.446  1.00  0.00    -0.206 F 
ATOM     66  C   UNL A   1      46.687  32.634  26.451  1.00  0.00     0.040 A 
ATOM     67  C   UNL A   1      44.766  33.731  27.350  1.00  0.00     0.040 A 
ATOM     68  F   UNL A   1      43.088  32.559  28.391  1.00  0.00    -0.206 F 
ATOM     69  C   UNL A   1      46.016  33.809  26.758  1.00  0.00     0.006 A 
ENDBRANCH  48  62
BRANCH  49  70
ATOM     70  C   UNL A   1      37.601  31.949  31.854  1.00  0.00     0.057 A 
ATOM     71  C   UNL A   1      36.991  32.485  30.711  1.00  0.00     0.134 A 
ATOM     72  C   UNL A   1      36.872  32.059  33.051  1.00  0.00     0.134 A 
ATOM     73  F   UNL A   1      37.593  32.401  29.515  1.00  0.00    -0.206 F 
ATOM     74  C   UNL A   1      35.712  33.057  30.745  1.00  0.00     0.040 A 
ATOM     75  C   UNL A   1      35.595  32.630  33.100  1.00  0.00     0.040 A 
ATOM     76  F   UNL A   1      37.334  31.530  34.194  1.00  0.00    -0.206 F 
ATOM     77  C   UNL A   1      35.002  33.114  31.940  1.00  0.00     0.006 A 
ENDBRANCH  49  70
BRANCH  61  78
ATOM     78  C   UNL A   1      42.926  29.096  33.574  1.00  0.00     0.057 A 
ATOM     79  C   UNL A   1      42.162  27.919  33.552  1.00  0.00     0.134 A 
ATOM     80  C   UNL A   1      43.642  29.359  34.747  1.00  0.00     0.134 A 
ATOM     81  F   UNL A   1      41.518  27.527  32.447  1.00  0.00    -0.206 F 
ATOM     82  C   UNL A   1      42.081  27.069  34.662  1.00  0.00     0.040 A 
ATOM     83  C   UNL A   1      43.596  28.502  35.848  1.00  0.00     0.040 A 
ATOM     84  F   UNL A   1      44.437  30.437  34.824  1.00  0.00    -0.206 F 
ATOM     85  C   UNL A   1      42.805  27.358  35.813  1.00  0.00     0.006 A 
ENDBRANCH  61  78
ENDBRANCH  35  36
ENDBRANCH  27  30
ENDBRANCH  25  26
ENDBRANCH  24  25
ENDBRANCH  23  24
ENDBRANCH   3  23
TORSDOF 15
ENDMDL
