MODEL 1
REMARK VINA RESULT:     -13.0      0.000      0.000
REMARK SMILES O=C(NCCCNC(=O)c1cc2c(C(F)(F)F)onc2c2ccccc12)c1ccc(-c2c3nc(c(-c4c(F)cccc4F)c4ccc([nH]4)c(-c4c(F)cccc4F)c4nc(c(-c5c(F)cccc5F)c5ccc2[nH]5)C=C4)C=C3)cc1
REMARK SMILES IDX 4 1 3 2 1 3 2 4 27 6 28 7 80 8 29 9 79 10 30 11 31 12 32 13
REMARK SMILES IDX 73 14 33 15 78 16 72 17 74 18 34 19 77 20 71 21 70 22 35 24
REMARK SMILES IDX 61 25 44 26 60 27 45 28 48 29 59 30 75 31 46 32 47 33 58 35
REMARK SMILES IDX 76 36 49 37 36 38 37 39 42 40 38 41 39 42 41 43 43 44 40 45
REMARK SMILES IDX 62 46 63 47 68 48 64 49 65 50 67 51 69 52 66 53 50 54 51 55
REMARK SMILES IDX 56 56 52 57 53 58 55 59 57 60 54 61 5 62 6 63 7 64 8 65 9 67
REMARK SMILES IDX 10 68 11 69 26 70 12 71 21 72 25 73 13 74 20 75 22 76 24 77
REMARK SMILES IDX 18 78 19 79 23 80 14 81 15 82 16 83 17 84
REMARK H PARENT 3 5 74 23 48 34 7 66
REMARK Flexibility Score: inf
ROOT
ATOM      1  C   UNL A   1      39.371  20.440  26.079  1.00  0.00     0.118 C 
ENDROOT
BRANCH   1   2
ATOM      2  N   UNL A   1      40.409  19.407  25.918  1.00  0.00    -0.352 N 
ATOM      3  O   UNL A   1      42.560  18.760  25.457  1.00  0.00    -0.269 OA
ATOM      4  C   UNL A   1      41.797  19.602  25.872  1.00  0.00     0.251 C 
ATOM      5  H   UNL A   1      40.094  18.478  25.834  1.00  0.00     0.163 HD
BRANCH   4   6
ATOM      6  C   UNL A   1      42.292  20.889  26.403  1.00  0.00     0.039 A 
ATOM      7  C   UNL A   1      42.627  22.004  25.633  1.00  0.00     0.014 A 
ATOM      8  C   UNL A   1      42.203  20.987  27.776  1.00  0.00     0.014 A 
ATOM      9  C   UNL A   1      42.789  23.219  26.301  1.00  0.00     0.010 A 
ATOM     10  C   UNL A   1      41.850  22.198  28.264  1.00  0.00     0.010 A 
ATOM     11  C   UNL A   1      42.379  23.300  27.642  1.00  0.00    -0.014 A 
BRANCH  11  12
ATOM     12  C   UNL A   1      42.430  24.492  28.472  1.00  0.00     0.031 A 
ATOM     13  C   UNL A   1      41.284  25.397  28.277  1.00  0.00     0.074 A 
ATOM     14  C   UNL A   1      43.354  24.673  29.450  1.00  0.00     0.049 A 
ATOM     15  N   UNL A   1      41.273  26.480  27.579  1.00  0.00    -0.248 NA
ATOM     16  C   UNL A   1      39.955  24.954  28.722  1.00  0.00     0.031 C 
ATOM     17  C   UNL A   1      44.377  23.748  29.974  1.00  0.00     0.029 A 
ATOM     18  N   UNL A   1      43.535  25.765  30.240  1.00  0.00    -0.354 N 
ATOM     19  C   UNL A   1      39.989  26.992  27.700  1.00  0.00     0.074 A 
ATOM     20  C   UNL A   1      39.181  25.918  28.217  1.00  0.00     0.031 C 
ATOM     21  C   UNL A   1      44.905  24.232  31.120  1.00  0.00     0.029 A 
ATOM     22  C   UNL A   1      44.416  25.581  31.305  1.00  0.00     0.049 A 
ATOM     23  H   UNL A   1      43.079  26.622  30.073  1.00  0.00     0.167 HD
ATOM     24  C   UNL A   1      39.781  28.335  27.614  1.00  0.00     0.037 A 
ATOM     25  C   UNL A   1      44.731  26.493  32.257  1.00  0.00     0.037 A 
ATOM     26  C   UNL A   1      40.946  28.994  27.064  1.00  0.00     0.049 A 
ATOM     27  C   UNL A   1      44.384  27.828  31.702  1.00  0.00     0.074 A 
ATOM     28  C   UNL A   1      41.630  28.915  25.866  1.00  0.00     0.029 A 
ATOM     29  N   UNL A   1      41.820  29.576  27.953  1.00  0.00    -0.354 N 
ATOM     30  N   UNL A   1      45.014  28.366  30.694  1.00  0.00    -0.248 NA
ATOM     31  C   UNL A   1      43.028  28.307  31.919  1.00  0.00     0.031 C 
ATOM     32  C   UNL A   1      43.011  28.997  26.222  1.00  0.00     0.029 A 
ATOM     33  C   UNL A   1      43.094  29.209  27.600  1.00  0.00     0.049 A 
ATOM     34  H   UNL A   1      41.574  30.155  28.710  1.00  0.00     0.167 HD
ATOM     35  C   UNL A   1      44.014  28.912  29.899  1.00  0.00     0.074 A 
ATOM     36  C   UNL A   1      42.816  28.900  30.740  1.00  0.00     0.031 C 
ATOM     37  C   UNL A   1      44.174  29.039  28.548  1.00  0.00     0.037 A 
BRANCH  24  38
ATOM     38  C   UNL A   1      38.736  29.090  28.398  1.00  0.00     0.057 A 
ATOM     39  C   UNL A   1      37.602  29.711  27.838  1.00  0.00     0.134 A 
ATOM     40  C   UNL A   1      38.694  28.919  29.795  1.00  0.00     0.134 A 
ATOM     41  F   UNL A   1      37.460  29.917  26.525  1.00  0.00    -0.206 F 
ATOM     42  C   UNL A   1      36.485  30.073  28.596  1.00  0.00     0.040 A 
ATOM     43  C   UNL A   1      37.561  29.235  30.555  1.00  0.00     0.040 A 
ATOM     44  F   UNL A   1      39.720  28.358  30.452  1.00  0.00    -0.206 F 
ATOM     45  C   UNL A   1      36.445  29.797  29.952  1.00  0.00     0.006 A 
ENDBRANCH  24  38
BRANCH  25  46
ATOM     46  C   UNL A   1      44.999  26.268  33.696  1.00  0.00     0.057 A 
ATOM     47  C   UNL A   1      46.309  26.067  34.166  1.00  0.00     0.134 A 
ATOM     48  C   UNL A   1      43.969  25.961  34.596  1.00  0.00     0.134 A 
ATOM     49  F   UNL A   1      47.367  26.259  33.364  1.00  0.00    -0.206 F 
ATOM     50  C   UNL A   1      46.579  25.567  35.446  1.00  0.00     0.040 A 
ATOM     51  C   UNL A   1      44.226  25.459  35.881  1.00  0.00     0.040 A 
ATOM     52  F   UNL A   1      42.686  26.081  34.227  1.00  0.00    -0.206 F 
ATOM     53  C   UNL A   1      45.536  25.248  36.304  1.00  0.00     0.006 A 
ENDBRANCH  25  46
BRANCH  37  54
ATOM     54  C   UNL A   1      45.547  28.777  27.981  1.00  0.00     0.057 A 
ATOM     55  C   UNL A   1      46.414  29.858  27.789  1.00  0.00     0.134 A 
ATOM     56  C   UNL A   1      45.987  27.531  27.504  1.00  0.00     0.134 A 
ATOM     57  F   UNL A   1      46.043  31.093  28.162  1.00  0.00    -0.206 F 
ATOM     58  C   UNL A   1      47.659  29.708  27.173  1.00  0.00     0.040 A 
ATOM     59  C   UNL A   1      47.244  27.359  26.913  1.00  0.00     0.040 A 
ATOM     60  F   UNL A   1      45.194  26.454  27.549  1.00  0.00    -0.206 F 
ATOM     61  C   UNL A   1      48.084  28.454  26.744  1.00  0.00     0.006 A 
ENDBRANCH  37  54
ENDBRANCH  11  12
ENDBRANCH   4   6
ENDBRANCH   1   2
BRANCH   1  62
ATOM     62  C   UNL A   1      38.258  20.424  25.061  1.00  0.00     0.042 C 
BRANCH  62  63
ATOM     63  C   UNL A   1      37.435  21.704  25.057  1.00  0.00     0.118 C 
BRANCH  63  64
ATOM     64  N   UNL A   1      36.532  21.901  26.195  1.00  0.00    -0.352 N 
ATOM     65  C   UNL A   1      35.192  21.588  26.309  1.00  0.00     0.251 C 
ATOM     66  H   UNL A   1      36.940  22.314  26.990  1.00  0.00     0.163 HD
ATOM     67  O   UNL A   1      34.595  21.778  27.364  1.00  0.00    -0.269 OA
BRANCH  65  68
ATOM     68  C   UNL A   1      34.444  21.108  25.119  1.00  0.00     0.048 A 
ATOM     69  C   UNL A   1      34.489  19.700  24.943  1.00  0.00     0.029 A 
ATOM     70  C   UNL A   1      33.628  22.026  24.344  1.00  0.00    -0.003 A 
ATOM     71  C   UNL A   1      33.555  19.286  24.004  1.00  0.00     0.056 A 
ATOM     72  C   UNL A   1      32.614  21.531  23.471  1.00  0.00     0.012 A 
ATOM     73  C   UNL A   1      33.724  23.433  24.446  1.00  0.00     0.009 A 
ATOM     74  C   UNL A   1      33.314  17.999  23.605  1.00  0.00     0.248 A 
ATOM     75  C   UNL A   1      32.615  20.115  23.291  1.00  0.00     0.122 A 
ATOM     76  C   UNL A   1      31.664  22.389  22.882  1.00  0.00     0.011 A 
ATOM     77  C   UNL A   1      32.769  24.283  23.880  1.00  0.00     0.001 A 
ATOM     78  O   UNL A   1      32.281  18.026  22.716  1.00  0.00    -0.350 OA
ATOM     79  N   UNL A   1      31.838  19.323  22.531  1.00  0.00    -0.079 NA
ATOM     80  C   UNL A   1      31.724  23.759  23.126  1.00  0.00     0.001 A 
BRANCH  74  81
ATOM     81  C   UNL A   1      33.879  16.672  23.889  1.00  0.00     0.453 C 
ATOM     82  F   UNL A   1      34.846  16.715  24.840  1.00  0.00    -0.163 F 
ATOM     83  F   UNL A   1      32.933  15.801  24.326  1.00  0.00    -0.163 F 
ATOM     84  F   UNL A   1      34.447  16.105  22.792  1.00  0.00    -0.163 F 
ENDBRANCH  74  81
ENDBRANCH  65  68
ENDBRANCH  63  64
ENDBRANCH  62  63
ENDBRANCH   1  62
TORSDOF 11
ENDMDL
MODEL 2
REMARK VINA RESULT:     -12.9      2.444      3.145
REMARK SMILES O=C(NCCCNC(=O)c1cc2c(C(F)(F)F)onc2c2ccccc12)c1ccc(-c2c3nc(c(-c4c(F)cccc4F)c4ccc([nH]4)c(-c4c(F)cccc4F)c4nc(c(-c5c(F)cccc5F)c5ccc2[nH]5)C=C4)C=C3)cc1
REMARK SMILES IDX 4 1 3 2 1 3 2 4 27 6 28 7 80 8 29 9 79 10 30 11 31 12 32 13
REMARK SMILES IDX 73 14 33 15 78 16 72 17 74 18 34 19 77 20 71 21 70 22 35 24
REMARK SMILES IDX 61 25 44 26 60 27 45 28 48 29 59 30 75 31 46 32 47 33 58 35
REMARK SMILES IDX 76 36 49 37 36 38 37 39 42 40 38 41 39 42 41 43 43 44 40 45
REMARK SMILES IDX 62 46 63 47 68 48 64 49 65 50 67 51 69 52 66 53 50 54 51 55
REMARK SMILES IDX 56 56 52 57 53 58 55 59 57 60 54 61 5 62 6 63 7 64 8 65 9 67
REMARK SMILES IDX 10 68 11 69 26 70 12 71 21 72 25 73 13 74 20 75 22 76 24 77
REMARK SMILES IDX 18 78 19 79 23 80 14 81 15 82 16 83 17 84
REMARK H PARENT 3 5 74 23 48 34 7 66
REMARK Flexibility Score: inf
ROOT
ATOM      1  C   UNL A   1      38.944  20.770  25.567  1.00  0.00     0.118 C 
ENDROOT
BRANCH   1   2
ATOM      2  N   UNL A   1      39.804  19.579  25.671  1.00  0.00    -0.352 N 
ATOM      3  O   UNL A   1      41.862  18.567  25.666  1.00  0.00    -0.269 OA
ATOM      4  C   UNL A   1      41.191  19.552  25.875  1.00  0.00     0.251 C 
ATOM      5  H   UNL A   1      39.356  18.706  25.589  1.00  0.00     0.163 HD
BRANCH   4   6
ATOM      6  C   UNL A   1      41.796  20.791  26.406  1.00  0.00     0.039 A 
ATOM      7  C   UNL A   1      42.272  21.852  25.633  1.00  0.00     0.014 A 
ATOM      8  C   UNL A   1      41.666  20.923  27.772  1.00  0.00     0.014 A 
ATOM      9  C   UNL A   1      42.533  23.056  26.290  1.00  0.00     0.010 A 
ATOM     10  C   UNL A   1      41.422  22.172  28.229  1.00  0.00     0.010 A 
ATOM     11  C   UNL A   1      42.083  23.203  27.613  1.00  0.00    -0.014 A 
BRANCH  11  12
ATOM     12  C   UNL A   1      42.226  24.399  28.426  1.00  0.00     0.031 A 
ATOM     13  C   UNL A   1      41.121  25.360  28.263  1.00  0.00     0.074 A 
ATOM     14  C   UNL A   1      43.193  24.542  29.368  1.00  0.00     0.049 A 
ATOM     15  N   UNL A   1      41.140  26.435  27.554  1.00  0.00    -0.248 NA
ATOM     16  C   UNL A   1      39.788  24.990  28.761  1.00  0.00     0.031 C 
ATOM     17  C   UNL A   1      44.186  23.570  29.866  1.00  0.00     0.029 A 
ATOM     18  N   UNL A   1      43.458  25.630  30.139  1.00  0.00    -0.354 N 
ATOM     19  C   UNL A   1      39.889  27.014  27.714  1.00  0.00     0.074 A 
ATOM     20  C   UNL A   1      39.046  25.988  28.272  1.00  0.00     0.031 C 
ATOM     21  C   UNL A   1      44.779  24.037  30.986  1.00  0.00     0.029 A 
ATOM     22  C   UNL A   1      44.367  25.411  31.174  1.00  0.00     0.049 A 
ATOM     23  H   UNL A   1      43.041  26.508  29.979  1.00  0.00     0.167 HD
ATOM     24  C   UNL A   1      39.747  28.365  27.621  1.00  0.00     0.037 A 
ATOM     25  C   UNL A   1      44.763  26.315  32.104  1.00  0.00     0.037 A 
ATOM     26  C   UNL A   1      40.923  28.958  27.022  1.00  0.00     0.049 A 
ATOM     27  C   UNL A   1      44.464  27.660  31.546  1.00  0.00     0.074 A 
ATOM     28  C   UNL A   1      41.557  28.833  25.801  1.00  0.00     0.029 A 
ATOM     29  N   UNL A   1      41.857  29.502  27.872  1.00  0.00    -0.354 N 
ATOM     30  N   UNL A   1      45.083  28.156  30.510  1.00  0.00    -0.248 NA
ATOM     31  C   UNL A   1      43.143  28.210  31.807  1.00  0.00     0.031 C 
ATOM     32  C   UNL A   1      42.953  28.846  26.106  1.00  0.00     0.029 A 
ATOM     33  C   UNL A   1      43.097  29.067  27.477  1.00  0.00     0.049 A 
ATOM     34  H   UNL A   1      41.669  30.101  28.631  1.00  0.00     0.167 HD
ATOM     35  C   UNL A   1      44.085  28.745  29.746  1.00  0.00     0.074 A 
ATOM     36  C   UNL A   1      42.918  28.802  30.629  1.00  0.00     0.031 C 
ATOM     37  C   UNL A   1      44.201  28.850  28.388  1.00  0.00     0.037 A 
BRANCH  24  38
ATOM     38  C   UNL A   1      38.770  29.180  28.434  1.00  0.00     0.057 A 
ATOM     39  C   UNL A   1      37.618  29.804  27.918  1.00  0.00     0.134 A 
ATOM     40  C   UNL A   1      38.813  29.072  29.837  1.00  0.00     0.134 A 
ATOM     41  F   UNL A   1      37.397  29.956  26.608  1.00  0.00    -0.206 F 
ATOM     42  C   UNL A   1      36.559  30.227  28.727  1.00  0.00     0.040 A 
ATOM     43  C   UNL A   1      37.739  29.449  30.651  1.00  0.00     0.040 A 
ATOM     44  F   UNL A   1      39.866  28.514  30.453  1.00  0.00    -0.206 F 
ATOM     45  C   UNL A   1      36.599  30.013  30.094  1.00  0.00     0.006 A 
ENDBRANCH  24  38
BRANCH  25  46
ATOM     46  C   UNL A   1      45.071  26.090  33.535  1.00  0.00     0.057 A 
ATOM     47  C   UNL A   1      46.391  25.867  33.964  1.00  0.00     0.134 A 
ATOM     48  C   UNL A   1      44.065  25.805  34.467  1.00  0.00     0.134 A 
ATOM     49  F   UNL A   1      47.427  26.037  33.129  1.00  0.00    -0.206 F 
ATOM     50  C   UNL A   1      46.692  25.366  35.237  1.00  0.00     0.040 A 
ATOM     51  C   UNL A   1      44.352  25.302  35.745  1.00  0.00     0.040 A 
ATOM     52  F   UNL A   1      42.773  25.946  34.138  1.00  0.00    -0.206 F 
ATOM     53  C   UNL A   1      45.670  25.069  36.128  1.00  0.00     0.006 A 
ENDBRANCH  25  46
BRANCH  37  54
ATOM     54  C   UNL A   1      45.537  28.514  27.775  1.00  0.00     0.057 A 
ATOM     55  C   UNL A   1      46.452  29.545  27.543  1.00  0.00     0.134 A 
ATOM     56  C   UNL A   1      45.894  27.242  27.294  1.00  0.00     0.134 A 
ATOM     57  F   UNL A   1      46.160  30.801  27.919  1.00  0.00    -0.206 F 
ATOM     58  C   UNL A   1      47.665  29.326  26.885  1.00  0.00     0.040 A 
ATOM     59  C   UNL A   1      47.118  27.001  26.660  1.00  0.00     0.040 A 
ATOM     60  F   UNL A   1      45.047  26.209  27.376  1.00  0.00    -0.206 F 
ATOM     61  C   UNL A   1      48.008  28.049  26.452  1.00  0.00     0.006 A 
ENDBRANCH  37  54
ENDBRANCH  11  12
ENDBRANCH   4   6
ENDBRANCH   1   2
BRANCH   1  62
ATOM     62  C   UNL A   1      37.594  20.557  24.928  1.00  0.00     0.042 C 
BRANCH  62  63
ATOM     63  C   UNL A   1      36.623  21.699  25.191  1.00  0.00     0.118 C 
BRANCH  63  64
ATOM     64  N   UNL A   1      35.910  21.663  26.473  1.00  0.00    -0.352 N 
ATOM     65  C   UNL A   1      34.602  22.006  26.752  1.00  0.00     0.251 C 
ATOM     66  H   UNL A   1      36.440  21.351  27.242  1.00  0.00     0.163 HD
ATOM     67  O   UNL A   1      34.150  21.867  27.884  1.00  0.00    -0.269 OA
BRANCH  65  68
ATOM     68  C   UNL A   1      33.764  22.636  25.700  1.00  0.00     0.048 A 
ATOM     69  C   UNL A   1      33.830  24.054  25.687  1.00  0.00     0.029 A 
ATOM     70  C   UNL A   1      33.093  21.817  24.706  1.00  0.00    -0.003 A 
ATOM     71  C   UNL A   1      33.269  24.568  24.527  1.00  0.00     0.056 A 
ATOM     72  C   UNL A   1      32.630  22.395  23.487  1.00  0.00     0.012 A 
ATOM     73  C   UNL A   1      32.918  20.420  24.833  1.00  0.00     0.009 A 
ATOM     74  C   UNL A   1      33.181  25.888  24.178  1.00  0.00     0.248 A 
ATOM     75  C   UNL A   1      32.706  23.819  23.430  1.00  0.00     0.122 A 
ATOM     76  C   UNL A   1      32.183  21.597  22.415  1.00  0.00     0.011 A 
ATOM     77  C   UNL A   1      32.496  19.626  23.763  1.00  0.00     0.001 A 
ATOM     78  O   UNL A   1      32.617  25.954  22.938  1.00  0.00    -0.350 OA
ATOM     79  N   UNL A   1      32.337  24.684  22.468  1.00  0.00    -0.079 NA
ATOM     80  C   UNL A   1      32.159  20.211  22.548  1.00  0.00     0.001 A 
BRANCH  74  81
ATOM     81  C   UNL A   1      33.527  27.179  24.792  1.00  0.00     0.453 C 
ATOM     82  F   UNL A   1      34.341  27.924  24.002  1.00  0.00    -0.163 F 
ATOM     83  F   UNL A   1      32.425  27.931  25.044  1.00  0.00    -0.163 F 
ATOM     84  F   UNL A   1      34.173  27.031  25.978  1.00  0.00    -0.163 F 
ENDBRANCH  74  81
ENDBRANCH  65  68
ENDBRANCH  63  64
ENDBRANCH  62  63
ENDBRANCH   1  62
TORSDOF 11
ENDMDL
MODEL 3
REMARK VINA RESULT:     -12.8      3.296      7.510
REMARK SMILES O=C(NCCCNC(=O)c1cc2c(C(F)(F)F)onc2c2ccccc12)c1ccc(-c2c3nc(c(-c4c(F)cccc4F)c4ccc([nH]4)c(-c4c(F)cccc4F)c4nc(c(-c5c(F)cccc5F)c5ccc2[nH]5)C=C4)C=C3)cc1
REMARK SMILES IDX 4 1 3 2 1 3 2 4 27 6 28 7 80 8 29 9 79 10 30 11 31 12 32 13
REMARK SMILES IDX 73 14 33 15 78 16 72 17 74 18 34 19 77 20 71 21 70 22 35 24
REMARK SMILES IDX 61 25 44 26 60 27 45 28 48 29 59 30 75 31 46 32 47 33 58 35
REMARK SMILES IDX 76 36 49 37 36 38 37 39 42 40 38 41 39 42 41 43 43 44 40 45
REMARK SMILES IDX 62 46 63 47 68 48 64 49 65 50 67 51 69 52 66 53 50 54 51 55
REMARK SMILES IDX 56 56 52 57 53 58 55 59 57 60 54 61 5 62 6 63 7 64 8 65 9 67
REMARK SMILES IDX 10 68 11 69 26 70 12 71 21 72 25 73 13 74 20 75 22 76 24 77
REMARK SMILES IDX 18 78 19 79 23 80 14 81 15 82 16 83 17 84
REMARK H PARENT 3 5 74 23 48 34 7 66
REMARK Flexibility Score: inf
ROOT
ATOM      1  C   UNL A   1      35.315  29.425  27.569  1.00  0.00     0.118 C 
ENDROOT
BRANCH   1   2
ATOM      2  N   UNL A   1      35.507  29.706  29.003  1.00  0.00    -0.352 N 
ATOM      3  O   UNL A   1      36.551  29.338  31.011  1.00  0.00    -0.269 OA
ATOM      4  C   UNL A   1      36.594  29.323  29.802  1.00  0.00     0.251 C 
ATOM      5  H   UNL A   1      34.794  30.218  29.449  1.00  0.00     0.163 HD
BRANCH   4   6
ATOM      6  C   UNL A   1      37.827  28.938  29.085  1.00  0.00     0.039 A 
ATOM      7  C   UNL A   1      38.339  29.582  27.957  1.00  0.00     0.014 A 
ATOM      8  C   UNL A   1      38.577  27.992  29.752  1.00  0.00     0.014 A 
ATOM      9  C   UNL A   1      39.652  29.283  27.589  1.00  0.00     0.010 A 
ATOM     10  C   UNL A   1      39.919  28.144  29.688  1.00  0.00     0.010 A 
ATOM     11  C   UNL A   1      40.446  28.554  28.491  1.00  0.00    -0.014 A 
BRANCH  11  12
ATOM     12  C   UNL A   1      41.841  28.197  28.292  1.00  0.00     0.031 A 
ATOM     13  C   UNL A   1      42.029  26.956  27.520  1.00  0.00     0.074 A 
ATOM     14  C   UNL A   1      42.869  29.013  28.637  1.00  0.00     0.049 A 
ATOM     15  N   UNL A   1      42.310  25.793  27.997  1.00  0.00    -0.248 NA
ATOM     16  C   UNL A   1      41.662  26.951  26.097  1.00  0.00     0.031 C 
ATOM     17  C   UNL A   1      42.854  30.401  29.139  1.00  0.00     0.029 A 
ATOM     18  N   UNL A   1      44.203  28.762  28.556  1.00  0.00    -0.354 N 
ATOM     19  C   UNL A   1      42.400  24.948  26.900  1.00  0.00     0.074 A 
ATOM     20  C   UNL A   1      41.784  25.653  25.806  1.00  0.00     0.031 C 
ATOM     21  C   UNL A   1      44.097  30.928  29.102  1.00  0.00     0.029 A 
ATOM     22  C   UNL A   1      45.024  29.867  28.772  1.00  0.00     0.049 A 
ATOM     23  H   UNL A   1      44.562  27.866  28.360  1.00  0.00     0.167 HD
ATOM     24  C   UNL A   1      43.218  23.861  26.943  1.00  0.00     0.037 A 
ATOM     25  C   UNL A   1      46.378  29.891  28.703  1.00  0.00     0.037 A 
ATOM     26  C   UNL A   1      43.620  23.583  28.306  1.00  0.00     0.049 A 
ATOM     27  C   UNL A   1      46.839  28.486  28.854  1.00  0.00     0.074 A 
ATOM     28  C   UNL A   1      42.948  23.259  29.469  1.00  0.00     0.029 A 
ATOM     29  N   UNL A   1      44.853  24.045  28.705  1.00  0.00    -0.354 N 
ATOM     30  N   UNL A   1      46.707  27.808  29.962  1.00  0.00    -0.248 NA
ATOM     31  C   UNL A   1      46.951  27.688  27.643  1.00  0.00     0.031 C 
ATOM     32  C   UNL A   1      43.614  23.993  30.498  1.00  0.00     0.029 A 
ATOM     33  C   UNL A   1      44.705  24.651  29.927  1.00  0.00     0.049 A 
ATOM     34  H   UNL A   1      45.694  23.955  28.202  1.00  0.00     0.167 HD
ATOM     35  C   UNL A   1      46.285  26.548  29.560  1.00  0.00     0.074 A 
ATOM     36  C   UNL A   1      46.516  26.515  28.115  1.00  0.00     0.031 C 
ATOM     37  C   UNL A   1      45.512  25.767  30.374  1.00  0.00     0.037 A 
BRANCH  24  38
ATOM     38  C   UNL A   1      43.984  23.319  25.762  1.00  0.00     0.057 A 
ATOM     39  C   UNL A   1      45.008  24.007  25.083  1.00  0.00     0.134 A 
ATOM     40  C   UNL A   1      43.912  21.939  25.493  1.00  0.00     0.134 A 
ATOM     41  F   UNL A   1      45.242  25.313  25.248  1.00  0.00    -0.206 F 
ATOM     42  C   UNL A   1      45.932  23.364  24.254  1.00  0.00     0.040 A 
ATOM     43  C   UNL A   1      44.861  21.279  24.704  1.00  0.00     0.040 A 
ATOM     44  F   UNL A   1      42.969  21.174  26.063  1.00  0.00    -0.206 F 
ATOM     45  C   UNL A   1      45.886  21.990  24.095  1.00  0.00     0.006 A 
ENDBRANCH  24  38
BRANCH  25  46
ATOM     46  C   UNL A   1      47.257  30.973  28.203  1.00  0.00     0.057 A 
ATOM     47  C   UNL A   1      48.144  31.643  29.064  1.00  0.00     0.134 A 
ATOM     48  C   UNL A   1      47.049  31.568  26.951  1.00  0.00     0.134 A 
ATOM     49  F   UNL A   1      48.358  31.201  30.312  1.00  0.00    -0.206 F 
ATOM     50  C   UNL A   1      48.768  32.845  28.713  1.00  0.00     0.040 A 
ATOM     51  C   UNL A   1      47.668  32.774  26.586  1.00  0.00     0.040 A 
ATOM     52  F   UNL A   1      46.190  31.028  26.075  1.00  0.00    -0.206 F 
ATOM     53  C   UNL A   1      48.521  33.423  27.474  1.00  0.00     0.006 A 
ENDBRANCH  25  46
BRANCH  37  54
ATOM     54  C   UNL A   1      45.321  26.221  31.799  1.00  0.00     0.057 A 
ATOM     55  C   UNL A   1      46.249  25.819  32.765  1.00  0.00     0.134 A 
ATOM     56  C   UNL A   1      44.197  26.924  32.267  1.00  0.00     0.134 A 
ATOM     57  F   UNL A   1      47.319  25.091  32.408  1.00  0.00    -0.206 F 
ATOM     58  C   UNL A   1      46.082  26.113  34.121  1.00  0.00     0.040 A 
ATOM     59  C   UNL A   1      44.032  27.253  33.617  1.00  0.00     0.040 A 
ATOM     60  F   UNL A   1      43.203  27.268  31.439  1.00  0.00    -0.206 F 
ATOM     61  C   UNL A   1      44.977  26.843  34.550  1.00  0.00     0.006 A 
ENDBRANCH  37  54
ENDBRANCH  11  12
ENDBRANCH   4   6
ENDBRANCH   1   2
BRANCH   1  62
ATOM     62  C   UNL A   1      34.057  28.678  27.204  1.00  0.00     0.042 C 
BRANCH  62  63
ATOM     63  C   UNL A   1      33.248  29.369  26.115  1.00  0.00     0.118 C 
BRANCH  63  64
ATOM     64  N   UNL A   1      33.854  29.408  24.780  1.00  0.00    -0.352 N 
ATOM     65  C   UNL A   1      33.735  28.505  23.742  1.00  0.00     0.251 C 
ATOM     66  H   UNL A   1      34.427  30.188  24.600  1.00  0.00     0.163 HD
ATOM     67  O   UNL A   1      34.277  28.721  22.664  1.00  0.00    -0.269 OA
BRANCH  65  68
ATOM     68  C   UNL A   1      33.025  27.219  23.962  1.00  0.00     0.048 A 
ATOM     69  C   UNL A   1      33.835  26.208  24.542  1.00  0.00     0.029 A 
ATOM     70  C   UNL A   1      31.594  27.121  23.734  1.00  0.00    -0.003 A 
ATOM     71  C   UNL A   1      33.063  25.143  24.983  1.00  0.00     0.056 A 
ATOM     72  C   UNL A   1      30.844  26.050  24.304  1.00  0.00     0.012 A 
ATOM     73  C   UNL A   1      30.849  28.084  23.016  1.00  0.00     0.009 A 
ATOM     74  C   UNL A   1      33.513  24.011  25.606  1.00  0.00     0.248 A 
ATOM     75  C   UNL A   1      31.627  25.028  24.919  1.00  0.00     0.122 A 
ATOM     76  C   UNL A   1      29.434  26.049  24.293  1.00  0.00     0.011 A 
ATOM     77  C   UNL A   1      29.451  28.096  23.023  1.00  0.00     0.001 A 
ATOM     78  O   UNL A   1      32.427  23.252  25.924  1.00  0.00    -0.350 OA
ATOM     79  N   UNL A   1      31.264  23.879  25.517  1.00  0.00    -0.079 NA
ATOM     80  C   UNL A   1      28.747  27.097  23.686  1.00  0.00     0.001 A 
BRANCH  74  81
ATOM     81  C   UNL A   1      34.819  23.451  25.986  1.00  0.00     0.453 C 
ATOM     82  F   UNL A   1      34.853  23.059  27.285  1.00  0.00    -0.163 F 
ATOM     83  F   UNL A   1      35.142  22.365  25.238  1.00  0.00    -0.163 F 
ATOM     84  F   UNL A   1      35.832  24.343  25.828  1.00  0.00    -0.163 F 
ENDBRANCH  74  81
ENDBRANCH  65  68
ENDBRANCH  63  64
ENDBRANCH  62  63
ENDBRANCH   1  62
TORSDOF 11
ENDMDL
