MODEL 1
REMARK VINA RESULT:     -12.2      0.000      0.000
REMARK SMILES CC(C)COc1cccc(C(=O)Nc2ccc(O)c(C(=O)NCCCNC(=O)c3ccc(-c4c5nc(c(-c6c(F)cccc6F)c6ccc([nH]6)c(-c6c(F)cccc6F)c6nc(c(-c7c(F)cccc7F)c7ccc4[nH]7)C=C6)C=C5)cc3)c2)c1
REMARK SMILES IDX 20 1 21 2 22 3 19 5 14 6 15 7 83 8 16 9 17 10 13 11 11 12
REMARK SMILES IDX 12 13 10 15 6 16 7 17 84 18 8 19 9 20 5 21 4 22 2 23 1 24
REMARK SMILES IDX 3 25 18 26 23 28 24 29 25 30 26 31 27 32 28 34 29 35 30 36
REMARK SMILES IDX 82 37 31 38 81 39 32 40 33 41 34 42 75 43 35 44 80 45 74 46
REMARK SMILES IDX 76 47 36 48 79 49 73 50 72 51 37 53 63 54 46 55 62 56 47 57
REMARK SMILES IDX 50 58 61 59 77 60 48 61 49 62 60 64 78 65 51 66 38 67 39 68
REMARK SMILES IDX 44 69 40 70 41 71 43 72 45 73 42 74 64 75 65 76 70 77 66 78
REMARK SMILES IDX 67 79 69 80 71 81 68 82 52 83 53 84 58 85 54 86 55 87 57 88
REMARK SMILES IDX 59 89 56 90
REMARK H PARENT 22 4 13 14 18 27 26 33 76 52 50 63
REMARK Flexibility Score: inf
ROOT
ATOM      1  C   UNL A   1      31.439  29.305  24.417  1.00  0.00     0.255 C 
ATOM      2  O   UNL A   1      31.050  29.271  23.245  1.00  0.00    -0.269 OA
ATOM      3  N   UNL A   1      31.151  30.445  25.117  1.00  0.00    -0.352 N 
ATOM      4  H   UNL A   1      30.624  31.104  24.608  1.00  0.00     0.163 HD
ENDROOT
BRANCH   1   5
ATOM      5  C   UNL A   1      32.097  28.082  24.983  1.00  0.00     0.083 A 
ATOM      6  C   UNL A   1      32.088  25.975  26.227  1.00  0.00     0.042 A 
ATOM      7  C   UNL A   1      33.372  25.686  25.764  1.00  0.00     0.030 A 
ATOM      8  C   UNL A   1      31.514  27.213  25.920  1.00  0.00     0.043 A 
ATOM      9  C   UNL A   1      34.006  26.561  24.883  1.00  0.00     0.049 A 
ATOM     10  C   UNL A   1      33.360  27.727  24.473  1.00  0.00     0.128 A 
BRANCH   6  11
ATOM     11  N   UNL A   1      31.420  24.982  26.967  1.00  0.00    -0.322 N 
ATOM     12  C   UNL A   1      31.067  23.672  26.686  1.00  0.00     0.255 C 
ATOM     13  O   UNL A   1      30.213  23.142  27.401  1.00  0.00    -0.269 OA
ATOM     14  H   UNL A   1      31.148  25.278  27.865  1.00  0.00     0.170 HD
BRANCH  12  15
ATOM     15  C   UNL A   1      31.733  22.826  25.645  1.00  0.00     0.043 A 
ATOM     16  C   UNL A   1      33.498  21.315  24.908  1.00  0.00     0.120 A 
ATOM     17  C   UNL A   1      33.004  21.378  23.605  1.00  0.00     0.046 A 
ATOM     18  C   UNL A   1      32.815  21.982  25.925  1.00  0.00     0.060 A 
ATOM     19  C   UNL A   1      31.850  22.114  23.325  1.00  0.00     0.005 A 
ATOM     20  C   UNL A   1      31.230  22.853  24.337  1.00  0.00     0.014 A 
BRANCH  16  21
ATOM     21  O   UNL A   1      34.793  20.888  25.043  1.00  0.00    -0.493 OA
BRANCH  21  22
ATOM     22  C   UNL A   1      35.746  21.699  25.744  1.00  0.00     0.232 C 
BRANCH  22  23
ATOM     23  C   UNL A   1      36.166  22.984  24.993  1.00  0.00     0.020 C 
ATOM     24  C   UNL A   1      37.340  23.698  25.677  1.00  0.00     0.011 C 
ATOM     25  C   UNL A   1      36.591  22.692  23.550  1.00  0.00     0.011 C 
ENDBRANCH  22  23
ENDBRANCH  21  22
ENDBRANCH  16  21
ENDBRANCH  12  15
ENDBRANCH   6  11
BRANCH  10  26
ATOM     26  O   UNL A   1      34.026  28.452  23.517  1.00  0.00    -0.507 OA
ATOM     27  H   UNL A   1      33.973  29.388  23.516  1.00  0.00     0.293 HD
ENDBRANCH  10  26
ENDBRANCH   1   5
BRANCH   3  28
ATOM     28  C   UNL A   1      31.473  30.868  26.459  1.00  0.00     0.118 C 
BRANCH  28  29
ATOM     29  C   UNL A   1      31.364  32.376  26.591  1.00  0.00     0.042 C 
BRANCH  29  30
ATOM     30  C   UNL A   1      32.698  32.972  26.988  1.00  0.00     0.118 C 
BRANCH  30  31
ATOM     31  N   UNL A   1      32.517  34.237  27.687  1.00  0.00    -0.352 N 
ATOM     32  C   UNL A   1      33.142  34.675  28.823  1.00  0.00     0.251 C 
ATOM     33  H   UNL A   1      31.862  34.857  27.291  1.00  0.00     0.163 HD
ATOM     34  O   UNL A   1      32.710  35.656  29.430  1.00  0.00    -0.269 OA
BRANCH  32  35
ATOM     35  C   UNL A   1      34.324  33.949  29.321  1.00  0.00     0.039 A 
ATOM     36  C   UNL A   1      35.597  34.376  28.939  1.00  0.00     0.014 A 
ATOM     37  C   UNL A   1      34.173  32.853  30.177  1.00  0.00     0.014 A 
ATOM     38  C   UNL A   1      36.719  33.717  29.439  1.00  0.00     0.010 A 
ATOM     39  C   UNL A   1      35.289  32.271  30.759  1.00  0.00     0.010 A 
ATOM     40  C   UNL A   1      36.573  32.673  30.367  1.00  0.00    -0.014 A 
BRANCH  40  41
ATOM     41  C   UNL A   1      37.748  31.937  30.888  1.00  0.00     0.031 A 
ATOM     42  C   UNL A   1      38.283  32.269  32.255  1.00  0.00     0.074 A 
ATOM     43  C   UNL A   1      38.355  31.012  30.122  1.00  0.00     0.049 A 
ATOM     44  N   UNL A   1      39.327  31.783  32.877  1.00  0.00    -0.248 NA
ATOM     45  C   UNL A   1      37.568  33.310  33.013  1.00  0.00     0.031 C 
ATOM     46  C   UNL A   1      37.958  30.642  28.762  1.00  0.00     0.029 A 
ATOM     47  N   UNL A   1      39.442  30.217  30.379  1.00  0.00    -0.354 N 
ATOM     48  C   UNL A   1      39.401  32.472  34.081  1.00  0.00     0.074 A 
ATOM     49  C   UNL A   1      38.344  33.455  34.076  1.00  0.00     0.031 C 
ATOM     50  C   UNL A   1      38.768  29.667  28.319  1.00  0.00     0.029 A 
ATOM     51  C   UNL A   1      39.763  29.373  29.344  1.00  0.00     0.049 A 
ATOM     52  H   UNL A   1      39.943  30.247  31.225  1.00  0.00     0.167 HD
ATOM     53  C   UNL A   1      40.256  32.279  35.114  1.00  0.00     0.037 A 
ATOM     54  C   UNL A   1      40.751  28.465  29.239  1.00  0.00     0.037 A 
ATOM     55  C   UNL A   1      41.287  31.278  35.124  1.00  0.00     0.049 A 
ATOM     56  C   UNL A   1      41.683  28.267  30.403  1.00  0.00     0.074 A 
ATOM     57  C   UNL A   1      42.176  30.965  36.135  1.00  0.00     0.029 A 
ATOM     58  N   UNL A   1      41.565  30.425  34.066  1.00  0.00    -0.354 N 
ATOM     59  N   UNL A   1      41.706  28.881  31.561  1.00  0.00    -0.248 NA
ATOM     60  C   UNL A   1      42.720  27.238  30.248  1.00  0.00     0.031 C 
ATOM     61  C   UNL A   1      43.022  29.952  35.673  1.00  0.00     0.029 A 
ATOM     62  C   UNL A   1      42.621  29.593  34.396  1.00  0.00     0.049 A 
ATOM     63  H   UNL A   1      41.082  30.412  33.208  1.00  0.00     0.167 HD
ATOM     64  C   UNL A   1      42.729  28.286  32.288  1.00  0.00     0.074 A 
ATOM     65  C   UNL A   1      43.296  27.257  31.442  1.00  0.00     0.031 C 
ATOM     66  C   UNL A   1      43.159  28.562  33.545  1.00  0.00     0.037 A 
BRANCH  53  67
ATOM     67  C   UNL A   1      40.099  33.170  36.314  1.00  0.00     0.057 A 
ATOM     68  C   UNL A   1      39.213  32.862  37.355  1.00  0.00     0.134 A 
ATOM     69  C   UNL A   1      40.858  34.340  36.440  1.00  0.00     0.134 A 
ATOM     70  F   UNL A   1      38.443  31.764  37.292  1.00  0.00    -0.206 F 
ATOM     71  C   UNL A   1      39.062  33.701  38.461  1.00  0.00     0.040 A 
ATOM     72  C   UNL A   1      40.740  35.170  37.556  1.00  0.00     0.040 A 
ATOM     73  F   UNL A   1      41.729  34.694  35.484  1.00  0.00    -0.206 F 
ATOM     74  C   UNL A   1      39.833  34.857  38.566  1.00  0.00     0.006 A 
ENDBRANCH  53  67
BRANCH  54  75
ATOM     75  C   UNL A   1      40.888  27.651  28.005  1.00  0.00     0.057 A 
ATOM     76  C   UNL A   1      40.260  26.405  27.889  1.00  0.00     0.134 A 
ATOM     77  C   UNL A   1      41.656  28.089  26.920  1.00  0.00     0.134 A 
ATOM     78  F   UNL A   1      39.522  25.924  28.900  1.00  0.00    -0.206 F 
ATOM     79  C   UNL A   1      40.411  25.612  26.751  1.00  0.00     0.040 A 
ATOM     80  C   UNL A   1      41.794  27.318  25.764  1.00  0.00     0.040 A 
ATOM     81  F   UNL A   1      42.274  29.278  26.962  1.00  0.00    -0.206 F 
ATOM     82  C   UNL A   1      41.178  26.070  25.681  1.00  0.00     0.006 A 
ENDBRANCH  54  75
BRANCH  66  83
ATOM     83  C   UNL A   1      44.253  27.698  34.100  1.00  0.00     0.057 A 
ATOM     84  C   UNL A   1      43.990  26.479  34.739  1.00  0.00     0.134 A 
ATOM     85  C   UNL A   1      45.594  28.081  33.965  1.00  0.00     0.134 A 
ATOM     86  F   UNL A   1      42.727  26.059  34.910  1.00  0.00    -0.206 F 
ATOM     87  C   UNL A   1      45.020  25.689  35.252  1.00  0.00     0.040 A 
ATOM     88  C   UNL A   1      46.633  27.285  34.445  1.00  0.00     0.040 A 
ATOM     89  F   UNL A   1      45.915  29.231  33.353  1.00  0.00    -0.206 F 
ATOM     90  C   UNL A   1      46.347  26.089  35.099  1.00  0.00     0.006 A 
ENDBRANCH  66  83
ENDBRANCH  40  41
ENDBRANCH  32  35
ENDBRANCH  30  31
ENDBRANCH  29  30
ENDBRANCH  28  29
ENDBRANCH   3  28
TORSDOF 16
ENDMDL
MODEL 2
REMARK VINA RESULT:     -12.0      4.143      9.124
REMARK SMILES CC(C)COc1cccc(C(=O)Nc2ccc(O)c(C(=O)NCCCNC(=O)c3ccc(-c4c5nc(c(-c6c(F)cccc6F)c6ccc([nH]6)c(-c6c(F)cccc6F)c6nc(c(-c7c(F)cccc7F)c7ccc4[nH]7)C=C6)C=C5)cc3)c2)c1
REMARK SMILES IDX 20 1 21 2 22 3 19 5 14 6 15 7 83 8 16 9 17 10 13 11 11 12
REMARK SMILES IDX 12 13 10 15 6 16 7 17 84 18 8 19 9 20 5 21 4 22 2 23 1 24
REMARK SMILES IDX 3 25 18 26 23 28 24 29 25 30 26 31 27 32 28 34 29 35 30 36
REMARK SMILES IDX 82 37 31 38 81 39 32 40 33 41 34 42 75 43 35 44 80 45 74 46
REMARK SMILES IDX 76 47 36 48 79 49 73 50 72 51 37 53 63 54 46 55 62 56 47 57
REMARK SMILES IDX 50 58 61 59 77 60 48 61 49 62 60 64 78 65 51 66 38 67 39 68
REMARK SMILES IDX 44 69 40 70 41 71 43 72 45 73 42 74 64 75 65 76 70 77 66 78
REMARK SMILES IDX 67 79 69 80 71 81 68 82 52 83 53 84 58 85 54 86 55 87 57 88
REMARK SMILES IDX 59 89 56 90
REMARK H PARENT 22 4 13 14 18 27 26 33 76 52 50 63
REMARK Flexibility Score: inf
ROOT
ATOM      1  C   UNL A   1      33.501  20.175  24.824  1.00  0.00     0.255 C 
ATOM      2  O   UNL A   1      32.723  19.225  24.955  1.00  0.00    -0.269 OA
ATOM      3  N   UNL A   1      34.828  19.901  25.016  1.00  0.00    -0.352 N 
ATOM      4  H   UNL A   1      35.017  18.952  25.202  1.00  0.00     0.163 HD
ENDROOT
BRANCH   1   5
ATOM      5  C   UNL A   1      32.943  21.496  24.386  1.00  0.00     0.083 A 
ATOM      6  C   UNL A   1      32.700  23.348  22.806  1.00  0.00     0.042 A 
ATOM      7  C   UNL A   1      31.623  23.845  23.539  1.00  0.00     0.030 A 
ATOM      8  C   UNL A   1      33.411  22.248  23.296  1.00  0.00     0.043 A 
ATOM      9  C   UNL A   1      31.174  23.158  24.666  1.00  0.00     0.049 A 
ATOM     10  C   UNL A   1      31.806  21.980  25.062  1.00  0.00     0.128 A 
BRANCH   6  11
ATOM     11  N   UNL A   1      33.003  23.974  21.581  1.00  0.00    -0.322 N 
ATOM     12  C   UNL A   1      32.863  25.274  21.125  1.00  0.00     0.255 C 
ATOM     13  O   UNL A   1      32.919  25.465  19.908  1.00  0.00    -0.269 OA
ATOM     14  H   UNL A   1      33.392  23.363  20.915  1.00  0.00     0.170 HD
BRANCH  12  15
ATOM     15  C   UNL A   1      32.759  26.472  22.018  1.00  0.00     0.043 A 
ATOM     16  C   UNL A   1      31.595  28.453  22.833  1.00  0.00     0.120 A 
ATOM     17  C   UNL A   1      32.701  28.776  23.620  1.00  0.00     0.046 A 
ATOM     18  C   UNL A   1      31.609  27.268  22.097  1.00  0.00     0.060 A 
ATOM     19  C   UNL A   1      33.811  27.928  23.653  1.00  0.00     0.005 A 
ATOM     20  C   UNL A   1      33.849  26.793  22.839  1.00  0.00     0.014 A 
BRANCH  16  21
ATOM     21  O   UNL A   1      30.719  29.474  22.574  1.00  0.00    -0.493 OA
BRANCH  21  22
ATOM     22  C   UNL A   1      29.631  29.731  23.473  1.00  0.00     0.232 C 
BRANCH  22  23
ATOM     23  C   UNL A   1      28.269  29.958  22.778  1.00  0.00     0.020 C 
ATOM     24  C   UNL A   1      27.256  28.855  23.116  1.00  0.00     0.011 C 
ATOM     25  C   UNL A   1      27.634  31.294  23.179  1.00  0.00     0.011 C 
ENDBRANCH  22  23
ENDBRANCH  21  22
ENDBRANCH  16  21
ENDBRANCH  12  15
ENDBRANCH   6  11
BRANCH  10  26
ATOM     26  O   UNL A   1      31.209  21.326  26.110  1.00  0.00    -0.507 OA
ATOM     27  H   UNL A   1      31.602  21.347  26.961  1.00  0.00     0.293 HD
ENDBRANCH  10  26
ENDBRANCH   1   5
BRANCH   3  28
ATOM     28  C   UNL A   1      36.005  20.737  24.998  1.00  0.00     0.118 C 
BRANCH  28  29
ATOM     29  C   UNL A   1      37.252  19.910  24.746  1.00  0.00     0.042 C 
BRANCH  29  30
ATOM     30  C   UNL A   1      38.428  20.475  25.512  1.00  0.00     0.118 C 
BRANCH  30  31
ATOM     31  N   UNL A   1      39.474  19.475  25.677  1.00  0.00    -0.352 N 
ATOM     32  C   UNL A   1      40.779  19.664  26.042  1.00  0.00     0.251 C 
ATOM     33  H   UNL A   1      39.207  18.543  25.505  1.00  0.00     0.163 HD
ATOM     34  O   UNL A   1      41.600  18.757  25.902  1.00  0.00    -0.269 OA
BRANCH  32  35
ATOM     35  C   UNL A   1      41.194  20.970  26.586  1.00  0.00     0.039 A 
ATOM     36  C   UNL A   1      41.108  21.194  27.961  1.00  0.00     0.014 A 
ATOM     37  C   UNL A   1      41.679  21.969  25.736  1.00  0.00     0.014 A 
ATOM     38  C   UNL A   1      41.535  22.413  28.485  1.00  0.00     0.010 A 
ATOM     39  C   UNL A   1      42.206  23.135  26.270  1.00  0.00     0.010 A 
ATOM     40  C   UNL A   1      42.105  23.384  27.645  1.00  0.00    -0.014 A 
BRANCH  40  41
ATOM     41  C   UNL A   1      42.537  24.698  28.172  1.00  0.00     0.031 A 
ATOM     42  C   UNL A   1      41.516  25.784  28.384  1.00  0.00     0.074 A 
ATOM     43  C   UNL A   1      43.840  24.929  28.415  1.00  0.00     0.049 A 
ATOM     44  N   UNL A   1      41.688  27.017  28.786  1.00  0.00    -0.248 NA
ATOM     45  C   UNL A   1      40.116  25.449  28.071  1.00  0.00     0.031 C 
ATOM     46  C   UNL A   1      44.927  23.971  28.199  1.00  0.00     0.029 A 
ATOM     47  N   UNL A   1      44.473  26.048  28.893  1.00  0.00    -0.354 N 
ATOM     48  C   UNL A   1      40.429  27.603  28.754  1.00  0.00     0.074 A 
ATOM     49  C   UNL A   1      39.514  26.617  28.228  1.00  0.00     0.031 C 
ATOM     50  C   UNL A   1      46.087  24.532  28.577  1.00  0.00     0.029 A 
ATOM     51  C   UNL A   1      45.832  25.897  29.022  1.00  0.00     0.049 A 
ATOM     52  H   UNL A   1      43.998  26.878  29.122  1.00  0.00     0.167 HD
ATOM     53  C   UNL A   1      40.062  28.843  29.157  1.00  0.00     0.037 A 
ATOM     54  C   UNL A   1      46.764  26.768  29.452  1.00  0.00     0.037 A 
ATOM     55  C   UNL A   1      40.974  29.808  29.707  1.00  0.00     0.049 A 
ATOM     56  C   UNL A   1      46.330  28.137  29.900  1.00  0.00     0.074 A 
ATOM     57  C   UNL A   1      40.702  31.074  30.191  1.00  0.00     0.029 A 
ATOM     58  N   UNL A   1      42.340  29.610  29.846  1.00  0.00    -0.354 N 
ATOM     59  N   UNL A   1      45.127  28.659  29.923  1.00  0.00    -0.248 NA
ATOM     60  C   UNL A   1      47.383  29.034  30.394  1.00  0.00     0.031 C 
ATOM     61  C   UNL A   1      41.910  31.659  30.583  1.00  0.00     0.029 A 
ATOM     62  C   UNL A   1      42.926  30.736  30.397  1.00  0.00     0.049 A 
ATOM     63  H   UNL A   1      42.821  28.788  29.591  1.00  0.00     0.167 HD
ATOM     64  C   UNL A   1      45.272  29.926  30.472  1.00  0.00     0.074 A 
ATOM     65  C   UNL A   1      46.679  30.089  30.775  1.00  0.00     0.031 C 
ATOM     66  C   UNL A   1      44.327  30.870  30.708  1.00  0.00     0.037 A 
BRANCH  53  67
ATOM     67  C   UNL A   1      38.613  29.212  29.019  1.00  0.00     0.057 A 
ATOM     68  C   UNL A   1      37.724  29.147  30.102  1.00  0.00     0.134 A 
ATOM     69  C   UNL A   1      38.101  29.657  27.793  1.00  0.00     0.134 A 
ATOM     70  F   UNL A   1      38.143  28.714  31.301  1.00  0.00    -0.206 F 
ATOM     71  C   UNL A   1      36.375  29.478  29.963  1.00  0.00     0.040 A 
ATOM     72  C   UNL A   1      36.761  30.022  27.651  1.00  0.00     0.040 A 
ATOM     73  F   UNL A   1      38.895  29.748  26.716  1.00  0.00    -0.206 F 
ATOM     74  C   UNL A   1      35.892  29.925  28.735  1.00  0.00     0.006 A 
ENDBRANCH  53  67
BRANCH  54  75
ATOM     75  C   UNL A   1      48.191  26.362  29.516  1.00  0.00     0.057 A 
ATOM     76  C   UNL A   1      49.045  26.549  28.422  1.00  0.00     0.134 A 
ATOM     77  C   UNL A   1      48.734  25.769  30.662  1.00  0.00     0.134 A 
ATOM     78  F   UNL A   1      48.581  27.099  27.291  1.00  0.00    -0.206 F 
ATOM     79  C   UNL A   1      50.377  26.138  28.455  1.00  0.00     0.040 A 
ATOM     80  C   UNL A   1      50.072  25.377  30.719  1.00  0.00     0.040 A 
ATOM     81  F   UNL A   1      47.972  25.573  31.749  1.00  0.00    -0.206 F 
ATOM     82  C   UNL A   1      50.896  25.553  29.608  1.00  0.00     0.006 A 
ENDBRANCH  54  75
BRANCH  66  83
ATOM     83  C   UNL A   1      44.774  32.135  31.382  1.00  0.00     0.057 A 
ATOM     84  C   UNL A   1      45.195  33.258  30.658  1.00  0.00     0.134 A 
ATOM     85  C   UNL A   1      44.753  32.236  32.780  1.00  0.00     0.134 A 
ATOM     86  F   UNL A   1      45.248  33.223  29.318  1.00  0.00    -0.206 F 
ATOM     87  C   UNL A   1      45.610  34.425  31.302  1.00  0.00     0.040 A 
ATOM     88  C   UNL A   1      45.134  33.408  33.432  1.00  0.00     0.040 A 
ATOM     89  F   UNL A   1      44.349  31.202  33.532  1.00  0.00    -0.206 F 
ATOM     90  C   UNL A   1      45.573  34.504  32.693  1.00  0.00     0.006 A 
ENDBRANCH  66  83
ENDBRANCH  40  41
ENDBRANCH  32  35
ENDBRANCH  30  31
ENDBRANCH  29  30
ENDBRANCH  28  29
ENDBRANCH   3  28
TORSDOF 16
ENDMDL
MODEL 3
REMARK VINA RESULT:     -12.0      4.400      9.579
REMARK SMILES CC(C)COc1cccc(C(=O)Nc2ccc(O)c(C(=O)NCCCNC(=O)c3ccc(-c4c5nc(c(-c6c(F)cccc6F)c6ccc([nH]6)c(-c6c(F)cccc6F)c6nc(c(-c7c(F)cccc7F)c7ccc4[nH]7)C=C6)C=C5)cc3)c2)c1
REMARK SMILES IDX 20 1 21 2 22 3 19 5 14 6 15 7 83 8 16 9 17 10 13 11 11 12
REMARK SMILES IDX 12 13 10 15 6 16 7 17 84 18 8 19 9 20 5 21 4 22 2 23 1 24
REMARK SMILES IDX 3 25 18 26 23 28 24 29 25 30 26 31 27 32 28 34 29 35 30 36
REMARK SMILES IDX 82 37 31 38 81 39 32 40 33 41 34 42 75 43 35 44 80 45 74 46
REMARK SMILES IDX 76 47 36 48 79 49 73 50 72 51 37 53 63 54 46 55 62 56 47 57
REMARK SMILES IDX 50 58 61 59 77 60 48 61 49 62 60 64 78 65 51 66 38 67 39 68
REMARK SMILES IDX 44 69 40 70 41 71 43 72 45 73 42 74 64 75 65 76 70 77 66 78
REMARK SMILES IDX 67 79 69 80 71 81 68 82 52 83 53 84 58 85 54 86 55 87 57 88
REMARK SMILES IDX 59 89 56 90
REMARK H PARENT 22 4 13 14 18 27 26 33 76 52 50 63
REMARK Flexibility Score: inf
ROOT
ATOM      1  C   UNL A   1      34.756  20.827  25.232  1.00  0.00     0.255 C 
ATOM      2  O   UNL A   1      33.728  20.239  25.582  1.00  0.00    -0.269 OA
ATOM      3  N   UNL A   1      35.854  20.043  25.006  1.00  0.00    -0.352 N 
ATOM      4  H   UNL A   1      35.685  19.078  25.113  1.00  0.00     0.163 HD
ENDROOT
BRANCH   1   5
ATOM      5  C   UNL A   1      34.685  22.308  25.003  1.00  0.00     0.083 A 
ATOM      6  C   UNL A   1      34.368  24.288  23.601  1.00  0.00     0.042 A 
ATOM      7  C   UNL A   1      34.298  25.093  24.738  1.00  0.00     0.030 A 
ATOM      8  C   UNL A   1      34.667  22.929  23.743  1.00  0.00     0.043 A 
ATOM      9  C   UNL A   1      34.378  24.515  26.004  1.00  0.00     0.049 A 
ATOM     10  C   UNL A   1      34.535  23.135  26.132  1.00  0.00     0.128 A 
BRANCH   6  11
ATOM     11  N   UNL A   1      34.103  24.889  22.356  1.00  0.00    -0.322 N 
ATOM     12  C   UNL A   1      32.974  25.477  21.811  1.00  0.00     0.255 C 
ATOM     13  O   UNL A   1      32.941  25.636  20.589  1.00  0.00    -0.269 OA
ATOM     14  H   UNL A   1      34.879  24.891  21.750  1.00  0.00     0.170 HD
BRANCH  12  15
ATOM     15  C   UNL A   1      31.841  26.030  22.620  1.00  0.00     0.043 A 
ATOM     16  C   UNL A   1      30.750  27.838  23.839  1.00  0.00     0.120 A 
ATOM     17  C   UNL A   1      29.753  26.954  24.251  1.00  0.00     0.046 A 
ATOM     18  C   UNL A   1      31.743  27.383  22.971  1.00  0.00     0.060 A 
ATOM     19  C   UNL A   1      29.762  25.629  23.811  1.00  0.00     0.005 A 
ATOM     20  C   UNL A   1      30.814  25.163  23.017  1.00  0.00     0.014 A 
BRANCH  16  21
ATOM     21  O   UNL A   1      30.880  28.988  24.572  1.00  0.00    -0.493 OA
BRANCH  21  22
ATOM     22  C   UNL A   1      32.108  29.265  25.261  1.00  0.00     0.232 C 
BRANCH  22  23
ATOM     23  C   UNL A   1      32.500  28.208  26.319  1.00  0.00     0.020 C 
ATOM     24  C   UNL A   1      33.913  28.436  26.872  1.00  0.00     0.011 C 
ATOM     25  C   UNL A   1      31.540  28.208  27.513  1.00  0.00     0.011 C 
ENDBRANCH  22  23
ENDBRANCH  21  22
ENDBRANCH  16  21
ENDBRANCH  12  15
ENDBRANCH   6  11
BRANCH  10  26
ATOM     26  O   UNL A   1      34.483  22.664  27.420  1.00  0.00    -0.507 OA
ATOM     27  H   UNL A   1      34.252  21.770  27.583  1.00  0.00     0.293 HD
ENDBRANCH  10  26
ENDBRANCH   1   5
BRANCH   3  28
ATOM     28  C   UNL A   1      37.215  20.359  24.641  1.00  0.00     0.118 C 
BRANCH  28  29
ATOM     29  C   UNL A   1      38.167  19.280  25.121  1.00  0.00     0.042 C 
BRANCH  29  30
ATOM     30  C   UNL A   1      39.279  19.884  25.952  1.00  0.00     0.118 C 
BRANCH  30  31
ATOM     31  N   UNL A   1      40.459  19.031  25.946  1.00  0.00    -0.352 N 
ATOM     32  C   UNL A   1      41.770  19.398  26.077  1.00  0.00     0.251 C 
ATOM     33  H   UNL A   1      40.291  18.068  25.833  1.00  0.00     0.163 HD
ATOM     34  O   UNL A   1      42.668  18.598  25.808  1.00  0.00    -0.269 OA
BRANCH  32  35
ATOM     35  C   UNL A   1      42.097  20.763  26.526  1.00  0.00     0.039 A 
ATOM     36  C   UNL A   1      42.302  21.763  25.575  1.00  0.00     0.014 A 
ATOM     37  C   UNL A   1      42.192  21.056  27.891  1.00  0.00     0.014 A 
ATOM     38  C   UNL A   1      42.574  23.064  25.995  1.00  0.00     0.010 A 
ATOM     39  C   UNL A   1      42.351  22.368  28.307  1.00  0.00     0.010 A 
ATOM     40  C   UNL A   1      42.581  23.379  27.364  1.00  0.00    -0.014 A 
BRANCH  40  41
ATOM     41  C   UNL A   1      42.898  24.746  27.837  1.00  0.00     0.031 A 
ATOM     42  C   UNL A   1      44.337  25.158  28.001  1.00  0.00     0.074 A 
ATOM     43  C   UNL A   1      41.904  25.593  28.159  1.00  0.00     0.049 A 
ATOM     44  N   UNL A   1      44.830  26.284  28.448  1.00  0.00    -0.248 NA
ATOM     45  C   UNL A   1      45.359  24.158  27.645  1.00  0.00     0.031 C 
ATOM     46  C   UNL A   1      40.473  25.288  28.090  1.00  0.00     0.029 A 
ATOM     47  N   UNL A   1      41.947  26.885  28.615  1.00  0.00    -0.354 N 
ATOM     48  C   UNL A   1      46.209  26.118  28.444  1.00  0.00     0.074 A 
ATOM     49  C   UNL A   1      46.474  24.764  28.019  1.00  0.00     0.031 C 
ATOM     50  C   UNL A   1      39.775  26.375  28.456  1.00  0.00     0.029 A 
ATOM     51  C   UNL A   1      40.706  27.436  28.823  1.00  0.00     0.049 A 
ATOM     52  H   UNL A   1      42.786  27.371  28.778  1.00  0.00     0.167 HD
ATOM     53  C   UNL A   1      47.172  27.025  28.738  1.00  0.00     0.037 A 
ATOM     54  C   UNL A   1      40.363  28.662  29.260  1.00  0.00     0.037 A 
ATOM     55  C   UNL A   1      46.900  28.380  29.132  1.00  0.00     0.049 A 
ATOM     56  C   UNL A   1      41.451  29.653  29.575  1.00  0.00     0.074 A 
ATOM     57  C   UNL A   1      47.798  29.395  29.407  1.00  0.00     0.029 A 
ATOM     58  N   UNL A   1      45.630  28.910  29.306  1.00  0.00    -0.354 N 
ATOM     59  N   UNL A   1      42.752  29.504  29.508  1.00  0.00    -0.248 NA
ATOM     60  C   UNL A   1      41.020  30.987  30.013  1.00  0.00     0.031 C 
ATOM     61  C   UNL A   1      47.072  30.527  29.790  1.00  0.00     0.029 A 
ATOM     62  C   UNL A   1      45.721  30.234  29.698  1.00  0.00     0.049 A 
ATOM     63  H   UNL A   1      44.788  28.416  29.171  1.00  0.00     0.167 HD
ATOM     64  C   UNL A   1      43.294  30.735  29.854  1.00  0.00     0.074 A 
ATOM     65  C   UNL A   1      42.179  31.620  30.122  1.00  0.00     0.031 C 
ATOM     66  C   UNL A   1      44.597  31.103  29.941  1.00  0.00     0.037 A 
BRANCH  53  67
ATOM     67  C   UNL A   1      48.600  26.572  28.637  1.00  0.00     0.057 A 
ATOM     68  C   UNL A   1      49.259  25.949  29.706  1.00  0.00     0.134 A 
ATOM     69  C   UNL A   1      49.322  26.744  27.449  1.00  0.00     0.134 A 
ATOM     70  F   UNL A   1      48.633  25.768  30.879  1.00  0.00    -0.206 F 
ATOM     71  C   UNL A   1      50.592  25.544  29.609  1.00  0.00     0.040 A 
ATOM     72  C   UNL A   1      50.645  26.314  27.329  1.00  0.00     0.040 A 
ATOM     73  F   UNL A   1      48.754  27.328  26.384  1.00  0.00    -0.206 F 
ATOM     74  C   UNL A   1      51.286  25.721  28.414  1.00  0.00     0.006 A 
ENDBRANCH  53  67
BRANCH  54  75
ATOM     75  C   UNL A   1      38.932  29.035  29.391  1.00  0.00     0.057 A 
ATOM     76  C   UNL A   1      38.214  29.538  28.299  1.00  0.00     0.134 A 
ATOM     77  C   UNL A   1      38.250  28.909  30.607  1.00  0.00     0.134 A 
ATOM     78  F   UNL A   1      38.815  29.695  27.111  1.00  0.00    -0.206 F 
ATOM     79  C   UNL A   1      36.880  29.928  28.418  1.00  0.00     0.040 A 
ATOM     80  C   UNL A   1      36.907  29.269  30.733  1.00  0.00     0.040 A 
ATOM     81  F   UNL A   1      38.877  28.422  31.688  1.00  0.00    -0.206 F 
ATOM     82  C   UNL A   1      36.220  29.790  29.638  1.00  0.00     0.006 A 
ENDBRANCH  54  75
BRANCH  66  83
ATOM     83  C   UNL A   1      44.884  32.538  30.277  1.00  0.00     0.057 A 
ATOM     84  C   UNL A   1      45.087  32.970  31.594  1.00  0.00     0.134 A 
ATOM     85  C   UNL A   1      44.987  33.495  29.258  1.00  0.00     0.134 A 
ATOM     86  F   UNL A   1      44.992  32.106  32.616  1.00  0.00    -0.206 F 
ATOM     87  C   UNL A   1      45.350  34.308  31.888  1.00  0.00     0.040 A 
ATOM     88  C   UNL A   1      45.282  34.828  29.537  1.00  0.00     0.040 A 
ATOM     89  F   UNL A   1      44.816  33.145  27.975  1.00  0.00    -0.206 F 
ATOM     90  C   UNL A   1      45.455  35.241  30.857  1.00  0.00     0.006 A 
ENDBRANCH  66  83
ENDBRANCH  40  41
ENDBRANCH  32  35
ENDBRANCH  30  31
ENDBRANCH  29  30
ENDBRANCH  28  29
ENDBRANCH   3  28
TORSDOF 16
ENDMDL
