MODEL 1
REMARK VINA RESULT:     -12.4      0.000      0.000
REMARK SMILES C[C@H](Oc1ccc(/C=C2\SC(=S)N(N)C2=O)cc1)C(=O)NCCCNC(=O)c1ccc(-c2c3nc(c(-c4c(F)cccc4F)c4ccc([nH]4)c(-c4c(F)cccc4F)c4nc(c(-c5c(F)cccc5F)c5ccc2[nH]5)C=C4)C=C3)cc1
REMARK SMILES IDX 22 1 21 2 19 3 20 4 2 6 1 7 3 8 4 9 5 10 18 11 6 12 17 13
REMARK SMILES IDX 7 14 8 15 9 16 10 17 15 18 11 19 13 20 16 21 12 22 14 23
REMARK SMILES IDX 23 26 24 27 25 28 26 29 27 31 28 32 29 33 81 34 30 35 80 36
REMARK SMILES IDX 31 37 32 38 33 39 74 40 34 41 79 42 73 43 75 44 35 45 78 46
REMARK SMILES IDX 72 47 71 48 36 50 62 51 45 52 61 53 46 54 49 55 60 56 76 57
REMARK SMILES IDX 47 58 48 59 59 61 77 62 50 63 37 64 38 65 43 66 39 67 40 68
REMARK SMILES IDX 42 69 44 70 41 71 63 72 64 73 69 74 65 75 66 76 68 77 70 78
REMARK SMILES IDX 67 79 51 80 52 81 57 82 53 83 54 84 56 85 58 86 55 87
REMARK H PARENT 21 5 14 24 14 25 25 30 75 49 49 60
REMARK Flexibility Score: inf
ROOT
ATOM      1  C   UNL A   1      31.630  30.744  26.172  1.00  0.00     0.118 C 
ENDROOT
BRANCH   1   2
ATOM      2  N   UNL A   1      31.076  30.487  24.853  1.00  0.00    -0.353 N 
ATOM      3  C   UNL A   1      31.017  29.308  24.157  1.00  0.00     0.260 C 
ATOM      4  O   UNL A   1      30.532  29.326  23.023  1.00  0.00    -0.271 OA
ATOM      5  H   UNL A   1      30.689  31.269  24.396  1.00  0.00     0.163 HD
BRANCH   3   6
ATOM      6  C   UNL A   1      31.467  28.001  24.823  1.00  0.00     0.258 C 
ATOM      7  C   UNL A   1      32.760  27.559  24.117  1.00  0.00     0.064 C 
BRANCH   6   8
ATOM      8  O   UNL A   1      30.328  27.132  24.763  1.00  0.00    -0.481 OA
BRANCH   8   9
ATOM      9  C   UNL A   1      30.466  25.787  24.906  1.00  0.00     0.120 A 
ATOM     10  C   UNL A   1      30.636  25.114  26.106  1.00  0.00     0.047 A 
ATOM     11  C   UNL A   1      30.461  25.056  23.714  1.00  0.00     0.047 A 
ATOM     12  C   UNL A   1      30.974  23.760  26.104  1.00  0.00     0.012 A 
ATOM     13  C   UNL A   1      30.783  23.694  23.710  1.00  0.00     0.012 A 
ATOM     14  C   UNL A   1      31.123  23.054  24.905  1.00  0.00    -0.024 A 
BRANCH  14  15
ATOM     15  C   UNL A   1      31.598  21.661  24.895  1.00  0.00     0.029 C 
ATOM     16  C   UNL A   1      32.881  21.262  24.874  1.00  0.00     0.082 C 
ATOM     17  S   UNL A   1      34.301  22.246  24.800  1.00  0.00    -0.053 SA
ATOM     18  C   UNL A   1      33.259  19.820  24.912  1.00  0.00     0.280 C 
ATOM     19  C   UNL A   1      35.394  20.872  24.843  1.00  0.00     0.162 C 
ATOM     20  N   UNL A   1      34.647  19.708  24.880  1.00  0.00    -0.226 N 
ATOM     21  O   UNL A   1      32.463  18.898  25.007  1.00  0.00    -0.267 OA
ATOM     22  S   UNL A   1      37.056  21.022  24.872  1.00  0.00    -0.050 S 
BRANCH  20  23
ATOM     23  N   UNL A   1      35.246  18.418  24.882  1.00  0.00    -0.239 NA
ATOM     24  H   UNL A   1      36.098  18.439  25.443  1.00  0.00     0.144 HD
ATOM     25  H   UNL A   1      35.476  18.148  23.925  1.00  0.00     0.144 HD
ENDBRANCH  20  23
ENDBRANCH  14  15
ENDBRANCH   8   9
ENDBRANCH   6   8
ENDBRANCH   3   6
ENDBRANCH   1   2
BRANCH   1  26
ATOM     26  C   UNL A   1      31.390  32.175  26.624  1.00  0.00     0.042 C 
BRANCH  26  27
ATOM     27  C   UNL A   1      32.621  32.828  27.230  1.00  0.00     0.118 C 
BRANCH  27  28
ATOM     28  N   UNL A   1      32.396  34.223  27.590  1.00  0.00    -0.352 N 
ATOM     29  C   UNL A   1      32.991  34.992  28.557  1.00  0.00     0.251 C 
ATOM     30  H   UNL A   1      31.710  34.685  27.056  1.00  0.00     0.163 HD
ATOM     31  O   UNL A   1      32.530  36.097  28.829  1.00  0.00    -0.269 OA
BRANCH  29  32
ATOM     32  C   UNL A   1      34.172  34.485  29.287  1.00  0.00     0.039 A 
ATOM     33  C   UNL A   1      33.987  33.874  30.529  1.00  0.00     0.014 A 
ATOM     34  C   UNL A   1      35.457  34.612  28.753  1.00  0.00     0.014 A 
ATOM     35  C   UNL A   1      35.083  33.332  31.200  1.00  0.00     0.010 A 
ATOM     36  C   UNL A   1      36.529  33.979  29.371  1.00  0.00     0.010 A 
ATOM     37  C   UNL A   1      36.356  33.343  30.607  1.00  0.00    -0.014 A 
BRANCH  37  38
ATOM     38  C   UNL A   1      37.519  32.704  31.272  1.00  0.00     0.031 A 
ATOM     39  C   UNL A   1      38.196  31.519  30.640  1.00  0.00     0.074 A 
ATOM     40  C   UNL A   1      37.931  33.157  32.473  1.00  0.00     0.049 A 
ATOM     41  N   UNL A   1      39.197  30.803  31.087  1.00  0.00    -0.248 NA
ATOM     42  C   UNL A   1      37.662  31.059  29.348  1.00  0.00     0.031 C 
ATOM     43  C   UNL A   1      37.322  34.263  33.215  1.00  0.00     0.029 A 
ATOM     44  N   UNL A   1      38.956  32.740  33.283  1.00  0.00    -0.354 N 
ATOM     45  C   UNL A   1      39.401  29.807  30.140  1.00  0.00     0.074 A 
ATOM     46  C   UNL A   1      38.382  29.969  29.128  1.00  0.00     0.031 C 
ATOM     47  C   UNL A   1      38.007  34.459  34.352  1.00  0.00     0.029 A 
ATOM     48  C   UNL A   1      39.074  33.467  34.442  1.00  0.00     0.049 A 
ATOM     49  H   UNL A   1      39.553  31.991  33.054  1.00  0.00     0.167 HD
ATOM     50  C   UNL A   1      40.368  28.860  30.102  1.00  0.00     0.037 A 
ATOM     51  C   UNL A   1      39.939  33.344  35.465  1.00  0.00     0.037 A 
ATOM     52  C   UNL A   1      41.392  28.713  31.102  1.00  0.00     0.049 A 
ATOM     53  C   UNL A   1      40.995  32.275  35.406  1.00  0.00     0.074 A 
ATOM     54  C   UNL A   1      42.451  27.823  31.128  1.00  0.00     0.029 A 
ATOM     55  N   UNL A   1      41.482  29.474  32.258  1.00  0.00    -0.354 N 
ATOM     56  N   UNL A   1      41.224  31.388  34.467  1.00  0.00    -0.248 NA
ATOM     57  C   UNL A   1      41.920  32.196  36.546  1.00  0.00     0.031 C 
ATOM     58  C   UNL A   1      43.149  28.008  32.325  1.00  0.00     0.029 A 
ATOM     59  C   UNL A   1      42.563  29.055  33.017  1.00  0.00     0.049 A 
ATOM     60  H   UNL A   1      40.868  30.204  32.503  1.00  0.00     0.167 HD
ATOM     61  C   UNL A   1      42.335  30.668  34.887  1.00  0.00     0.074 A 
ATOM     62  C   UNL A   1      42.743  31.232  36.157  1.00  0.00     0.031 C 
ATOM     63  C   UNL A   1      42.960  29.631  34.277  1.00  0.00     0.037 A 
BRANCH  50  64
ATOM     64  C   UNL A   1      40.363  27.910  28.938  1.00  0.00     0.057 A 
ATOM     65  C   UNL A   1      41.098  28.163  27.772  1.00  0.00     0.134 A 
ATOM     66  C   UNL A   1      39.643  26.711  28.995  1.00  0.00     0.134 A 
ATOM     67  F   UNL A   1      41.802  29.299  27.644  1.00  0.00    -0.206 F 
ATOM     68  C   UNL A   1      41.093  27.275  26.695  1.00  0.00     0.040 A 
ATOM     69  C   UNL A   1      39.654  25.799  27.939  1.00  0.00     0.040 A 
ATOM     70  F   UNL A   1      38.922  26.400  30.084  1.00  0.00    -0.206 F 
ATOM     71  C   UNL A   1      40.375  26.084  26.781  1.00  0.00     0.006 A 
ENDBRANCH  50  64
BRANCH  51  72
ATOM     72  C   UNL A   1      39.861  34.271  36.625  1.00  0.00     0.057 A 
ATOM     73  C   UNL A   1      39.147  33.927  37.778  1.00  0.00     0.134 A 
ATOM     74  C   UNL A   1      40.487  35.523  36.604  1.00  0.00     0.134 A 
ATOM     75  F   UNL A   1      38.512  32.748  37.852  1.00  0.00    -0.206 F 
ATOM     76  C   UNL A   1      39.034  34.804  38.858  1.00  0.00     0.040 A 
ATOM     77  C   UNL A   1      40.407  36.398  37.689  1.00  0.00     0.040 A 
ATOM     78  F   UNL A   1      41.196  35.909  35.534  1.00  0.00    -0.206 F 
ATOM     79  C   UNL A   1      39.671  36.043  38.817  1.00  0.00     0.006 A 
ENDBRANCH  51  72
BRANCH  63  80
ATOM     80  C   UNL A   1      44.177  29.069  34.953  1.00  0.00     0.057 A 
ATOM     81  C   UNL A   1      45.463  29.568  34.706  1.00  0.00     0.134 A 
ATOM     82  C   UNL A   1      44.055  28.033  35.889  1.00  0.00     0.134 A 
ATOM     83  F   UNL A   1      45.652  30.550  33.812  1.00  0.00    -0.206 F 
ATOM     84  C   UNL A   1      46.586  29.038  35.345  1.00  0.00     0.040 A 
ATOM     85  C   UNL A   1      45.167  27.518  36.557  1.00  0.00     0.040 A 
ATOM     86  F   UNL A   1      42.853  27.516  36.181  1.00  0.00    -0.206 F 
ATOM     87  C   UNL A   1      46.438  28.014  36.279  1.00  0.00     0.006 A 
ENDBRANCH  63  80
ENDBRANCH  37  38
ENDBRANCH  29  32
ENDBRANCH  27  28
ENDBRANCH  26  27
ENDBRANCH   1  26
TORSDOF 14
ENDMDL
MODEL 2
REMARK VINA RESULT:     -12.4      0.627      6.197
REMARK SMILES C[C@H](Oc1ccc(/C=C2\SC(=S)N(N)C2=O)cc1)C(=O)NCCCNC(=O)c1ccc(-c2c3nc(c(-c4c(F)cccc4F)c4ccc([nH]4)c(-c4c(F)cccc4F)c4nc(c(-c5c(F)cccc5F)c5ccc2[nH]5)C=C4)C=C3)cc1
REMARK SMILES IDX 22 1 21 2 19 3 20 4 2 6 1 7 3 8 4 9 5 10 18 11 6 12 17 13
REMARK SMILES IDX 7 14 8 15 9 16 10 17 15 18 11 19 13 20 16 21 12 22 14 23
REMARK SMILES IDX 23 26 24 27 25 28 26 29 27 31 28 32 29 33 81 34 30 35 80 36
REMARK SMILES IDX 31 37 32 38 33 39 74 40 34 41 79 42 73 43 75 44 35 45 78 46
REMARK SMILES IDX 72 47 71 48 36 50 62 51 45 52 61 53 46 54 49 55 60 56 76 57
REMARK SMILES IDX 47 58 48 59 59 61 77 62 50 63 37 64 38 65 43 66 39 67 40 68
REMARK SMILES IDX 42 69 44 70 41 71 63 72 64 73 69 74 65 75 66 76 68 77 70 78
REMARK SMILES IDX 67 79 51 80 52 81 57 82 53 83 54 84 56 85 58 86 55 87
REMARK H PARENT 21 5 14 24 14 25 25 30 75 49 49 60
REMARK Flexibility Score: inf
ROOT
ATOM      1  C   UNL A   1      31.496  30.764  26.158  1.00  0.00     0.118 C 
ENDROOT
BRANCH   1   2
ATOM      2  N   UNL A   1      31.016  30.466  24.818  1.00  0.00    -0.353 N 
ATOM      3  C   UNL A   1      30.983  29.264  24.161  1.00  0.00     0.260 C 
ATOM      4  O   UNL A   1      30.564  29.246  23.001  1.00  0.00    -0.271 OA
ATOM      5  H   UNL A   1      30.665  31.235  24.313  1.00  0.00     0.163 HD
BRANCH   3   6
ATOM      6  C   UNL A   1      31.380  27.977  24.896  1.00  0.00     0.258 C 
ATOM      7  C   UNL A   1      32.807  27.623  24.446  1.00  0.00     0.064 C 
BRANCH   6   8
ATOM      8  O   UNL A   1      30.328  27.042  24.620  1.00  0.00    -0.481 OA
BRANCH   8   9
ATOM      9  C   UNL A   1      30.520  25.706  24.781  1.00  0.00     0.120 A 
ATOM     10  C   UNL A   1      30.709  25.054  25.991  1.00  0.00     0.047 A 
ATOM     11  C   UNL A   1      30.553  24.960  23.598  1.00  0.00     0.047 A 
ATOM     12  C   UNL A   1      31.101  23.716  26.007  1.00  0.00     0.012 A 
ATOM     13  C   UNL A   1      30.931  23.612  23.613  1.00  0.00     0.012 A 
ATOM     14  C   UNL A   1      31.288  23.002  24.818  1.00  0.00    -0.024 A 
BRANCH  14  15
ATOM     15  C   UNL A   1      31.819  21.630  24.829  1.00  0.00     0.029 C 
ATOM     16  C   UNL A   1      33.117  21.284  24.825  1.00  0.00     0.082 C 
ATOM     17  S   UNL A   1      34.497  22.323  24.755  1.00  0.00    -0.053 SA
ATOM     18  C   UNL A   1      33.553  19.858  24.884  1.00  0.00     0.280 C 
ATOM     19  C   UNL A   1      35.645  20.996  24.825  1.00  0.00     0.162 C 
ATOM     20  N   UNL A   1      34.945  19.803  24.867  1.00  0.00    -0.226 N 
ATOM     21  O   UNL A   1      32.794  18.905  24.981  1.00  0.00    -0.267 OA
ATOM     22  S   UNL A   1      37.298  21.214  24.868  1.00  0.00    -0.050 S 
BRANCH  20  23
ATOM     23  N   UNL A   1      35.596  18.538  24.890  1.00  0.00    -0.239 NA
ATOM     24  H   UNL A   1      35.854  18.271  23.940  1.00  0.00     0.144 HD
ATOM     25  H   UNL A   1      34.964  17.838  25.280  1.00  0.00     0.144 HD
ENDBRANCH  20  23
ENDBRANCH  14  15
ENDBRANCH   8   9
ENDBRANCH   6   8
ENDBRANCH   3   6
ENDBRANCH   1   2
BRANCH   1  26
ATOM     26  C   UNL A   1      31.349  32.235  26.503  1.00  0.00     0.042 C 
BRANCH  26  27
ATOM     27  C   UNL A   1      32.592  32.830  27.144  1.00  0.00     0.118 C 
BRANCH  27  28
ATOM     28  N   UNL A   1      32.380  34.192  27.622  1.00  0.00    -0.352 N 
ATOM     29  C   UNL A   1      33.019  34.887  28.617  1.00  0.00     0.251 C 
ATOM     30  H   UNL A   1      31.670  34.689  27.158  1.00  0.00     0.163 HD
ATOM     31  O   UNL A   1      32.568  35.963  28.997  1.00  0.00    -0.269 OA
BRANCH  29  32
ATOM     32  C   UNL A   1      34.234  34.331  29.249  1.00  0.00     0.039 A 
ATOM     33  C   UNL A   1      34.103  33.575  30.415  1.00  0.00     0.014 A 
ATOM     34  C   UNL A   1      35.498  34.556  28.698  1.00  0.00     0.014 A 
ATOM     35  C   UNL A   1      35.232  32.989  30.987  1.00  0.00     0.010 A 
ATOM     36  C   UNL A   1      36.605  33.886  29.207  1.00  0.00     0.010 A 
ATOM     37  C   UNL A   1      36.486  33.105  30.365  1.00  0.00    -0.014 A 
BRANCH  37  38
ATOM     38  C   UNL A   1      37.685  32.426  30.917  1.00  0.00     0.031 A 
ATOM     39  C   UNL A   1      38.336  32.942  32.171  1.00  0.00     0.074 A 
ATOM     40  C   UNL A   1      38.219  31.379  30.258  1.00  0.00     0.049 A 
ATOM     41  N   UNL A   1      39.411  32.510  32.781  1.00  0.00    -0.248 NA
ATOM     42  C   UNL A   1      37.717  34.114  32.809  1.00  0.00     0.031 C 
ATOM     43  C   UNL A   1      37.713  30.820  29.003  1.00  0.00     0.029 A 
ATOM     44  N   UNL A   1      39.309  30.600  30.551  1.00  0.00    -0.354 N 
ATOM     45  C   UNL A   1      39.599  33.363  33.863  1.00  0.00     0.074 A 
ATOM     46  C   UNL A   1      38.570  34.374  33.788  1.00  0.00     0.031 C 
ATOM     47  C   UNL A   1      38.469  29.767  28.654  1.00  0.00     0.029 A 
ATOM     48  C   UNL A   1      39.538  29.604  29.633  1.00  0.00     0.049 A 
ATOM     49  H   UNL A   1      39.874  30.741  31.345  1.00  0.00     0.167 HD
ATOM     50  C   UNL A   1      40.529  33.292  34.845  1.00  0.00     0.037 A 
ATOM     51  C   UNL A   1      40.504  28.669  29.583  1.00  0.00     0.037 A 
ATOM     52  C   UNL A   1      41.541  32.272  34.925  1.00  0.00     0.049 A 
ATOM     53  C   UNL A   1      41.534  28.620  30.678  1.00  0.00     0.074 A 
ATOM     54  C   UNL A   1      42.494  32.079  35.910  1.00  0.00     0.029 A 
ATOM     55  N   UNL A   1      41.735  31.276  33.980  1.00  0.00    -0.354 N 
ATOM     56  N   UNL A   1      41.654  29.387  31.736  1.00  0.00    -0.248 NA
ATOM     57  C   UNL A   1      42.557  27.571  30.577  1.00  0.00     0.031 C 
ATOM     58  C   UNL A   1      43.299  31.000  35.533  1.00  0.00     0.029 A 
ATOM     59  C   UNL A   1      42.810  30.482  34.345  1.00  0.00     0.049 A 
ATOM     60  H   UNL A   1      41.190  31.152  33.169  1.00  0.00     0.167 HD
ATOM     61  C   UNL A   1      42.745  28.893  32.441  1.00  0.00     0.074 A 
ATOM     62  C   UNL A   1      43.240  27.753  31.699  1.00  0.00     0.031 C 
ATOM     63  C   UNL A   1      43.287  29.345  33.599  1.00  0.00     0.037 A 
BRANCH  50  64
ATOM     64  C   UNL A   1      40.491  34.348  35.913  1.00  0.00     0.057 A 
ATOM     65  C   UNL A   1      41.229  35.535  35.808  1.00  0.00     0.134 A 
ATOM     66  C   UNL A   1      39.681  34.193  37.044  1.00  0.00     0.134 A 
ATOM     67  F   UNL A   1      42.036  35.743  34.756  1.00  0.00    -0.206 F 
ATOM     68  C   UNL A   1      41.186  36.514  36.802  1.00  0.00     0.040 A 
ATOM     69  C   UNL A   1      39.604  35.178  38.030  1.00  0.00     0.040 A 
ATOM     70  F   UNL A   1      38.941  33.085  37.206  1.00  0.00    -0.206 F 
ATOM     71  C   UNL A   1      40.364  36.340  37.914  1.00  0.00     0.006 A 
ENDBRANCH  50  64
BRANCH  51  72
ATOM     72  C   UNL A   1      40.535  27.686  28.470  1.00  0.00     0.057 A 
ATOM     73  C   UNL A   1      41.297  27.919  27.319  1.00  0.00     0.134 A 
ATOM     74  C   UNL A   1      39.795  26.497  28.522  1.00  0.00     0.134 A 
ATOM     75  F   UNL A   1      42.014  29.046  27.202  1.00  0.00    -0.206 F 
ATOM     76  C   UNL A   1      41.304  27.021  26.250  1.00  0.00     0.040 A 
ATOM     77  C   UNL A   1      39.815  25.577  27.473  1.00  0.00     0.040 A 
ATOM     78  F   UNL A   1      39.052  26.208  29.599  1.00  0.00    -0.206 F 
ATOM     79  C   UNL A   1      40.564  25.842  26.328  1.00  0.00     0.006 A 
ENDBRANCH  51  72
BRANCH  63  80
ATOM     80  C   UNL A   1      44.452  28.579  34.156  1.00  0.00     0.057 A 
ATOM     81  C   UNL A   1      45.778  28.925  33.865  1.00  0.00     0.134 A 
ATOM     82  C   UNL A   1      44.243  27.498  35.023  1.00  0.00     0.134 A 
ATOM     83  F   UNL A   1      46.049  29.940  33.031  1.00  0.00    -0.206 F 
ATOM     84  C   UNL A   1      46.852  28.206  34.393  1.00  0.00     0.040 A 
ATOM     85  C   UNL A   1      45.309  26.793  35.583  1.00  0.00     0.040 A 
ATOM     86  F   UNL A   1      42.999  27.120  35.354  1.00  0.00    -0.206 F 
ATOM     87  C   UNL A   1      46.618  27.141  35.260  1.00  0.00     0.006 A 
ENDBRANCH  63  80
ENDBRANCH  37  38
ENDBRANCH  29  32
ENDBRANCH  27  28
ENDBRANCH  26  27
ENDBRANCH   1  26
TORSDOF 14
ENDMDL
MODEL 3
REMARK VINA RESULT:     -12.3      4.343      9.644
REMARK SMILES C[C@H](Oc1ccc(/C=C2\SC(=S)N(N)C2=O)cc1)C(=O)NCCCNC(=O)c1ccc(-c2c3nc(c(-c4c(F)cccc4F)c4ccc([nH]4)c(-c4c(F)cccc4F)c4nc(c(-c5c(F)cccc5F)c5ccc2[nH]5)C=C4)C=C3)cc1
REMARK SMILES IDX 22 1 21 2 19 3 20 4 2 6 1 7 3 8 4 9 5 10 18 11 6 12 17 13
REMARK SMILES IDX 7 14 8 15 9 16 10 17 15 18 11 19 13 20 16 21 12 22 14 23
REMARK SMILES IDX 23 26 24 27 25 28 26 29 27 31 28 32 29 33 81 34 30 35 80 36
REMARK SMILES IDX 31 37 32 38 33 39 74 40 34 41 79 42 73 43 75 44 35 45 78 46
REMARK SMILES IDX 72 47 71 48 36 50 62 51 45 52 61 53 46 54 49 55 60 56 76 57
REMARK SMILES IDX 47 58 48 59 59 61 77 62 50 63 37 64 38 65 43 66 39 67 40 68
REMARK SMILES IDX 42 69 44 70 41 71 63 72 64 73 69 74 65 75 66 76 68 77 70 78
REMARK SMILES IDX 67 79 51 80 52 81 57 82 53 83 54 84 56 85 58 86 55 87
REMARK H PARENT 21 5 14 24 14 25 25 30 75 49 49 60
REMARK Flexibility Score: inf
ROOT
ATOM      1  C   UNL A   1      36.647  20.509  25.001  1.00  0.00     0.118 C 
ENDROOT
BRANCH   1   2
ATOM      2  N   UNL A   1      35.408  19.748  24.972  1.00  0.00    -0.353 N 
ATOM      3  C   UNL A   1      34.118  20.204  24.905  1.00  0.00     0.260 C 
ATOM      4  O   UNL A   1      33.206  19.375  24.931  1.00  0.00    -0.271 OA
ATOM      5  H   UNL A   1      35.511  18.770  25.005  1.00  0.00     0.163 HD
BRANCH   3   6
ATOM      6  C   UNL A   1      33.842  21.702  24.716  1.00  0.00     0.258 C 
ATOM      7  C   UNL A   1      33.240  22.218  26.034  1.00  0.00     0.064 C 
BRANCH   6   8
ATOM      8  O   UNL A   1      33.050  21.795  23.524  1.00  0.00    -0.481 OA
BRANCH   8   9
ATOM      9  C   UNL A   1      32.519  22.982  23.128  1.00  0.00     0.120 A 
ATOM     10  C   UNL A   1      33.201  23.995  22.470  1.00  0.00     0.047 A 
ATOM     11  C   UNL A   1      31.174  23.174  23.457  1.00  0.00     0.047 A 
ATOM     12  C   UNL A   1      32.603  25.244  22.303  1.00  0.00     0.012 A 
ATOM     13  C   UNL A   1      30.565  24.421  23.275  1.00  0.00     0.012 A 
ATOM     14  C   UNL A   1      31.306  25.492  22.769  1.00  0.00    -0.024 A 
BRANCH  14  15
ATOM     15  C   UNL A   1      30.719  26.840  22.705  1.00  0.00     0.029 C 
ATOM     16  C   UNL A   1      30.910  27.830  23.594  1.00  0.00     0.082 C 
ATOM     17  S   UNL A   1      31.832  27.786  25.055  1.00  0.00    -0.053 SA
ATOM     18  C   UNL A   1      30.303  29.180  23.412  1.00  0.00     0.280 C 
ATOM     19  C   UNL A   1      31.497  29.464  25.452  1.00  0.00     0.162 C 
ATOM     20  N   UNL A   1      30.670  29.996  24.480  1.00  0.00    -0.226 N 
ATOM     21  O   UNL A   1      29.633  29.514  22.446  1.00  0.00    -0.267 OA
ATOM     22  S   UNL A   1      32.140  30.237  26.784  1.00  0.00    -0.050 S 
BRANCH  20  23
ATOM     23  N   UNL A   1      30.187  31.333  24.538  1.00  0.00    -0.239 NA
ATOM     24  H   UNL A   1      30.970  31.972  24.673  1.00  0.00     0.144 HD
ATOM     25  H   UNL A   1      29.535  31.424  25.319  1.00  0.00     0.144 HD
ENDBRANCH  20  23
ENDBRANCH  14  15
ENDBRANCH   8   9
ENDBRANCH   6   8
ENDBRANCH   3   6
ENDBRANCH   1   2
BRANCH   1  26
ATOM     26  C   UNL A   1      37.871  19.609  24.975  1.00  0.00     0.042 C 
BRANCH  26  27
ATOM     27  C   UNL A   1      39.052  20.178  25.742  1.00  0.00     0.118 C 
BRANCH  27  28
ATOM     28  N   UNL A   1      40.171  19.246  25.820  1.00  0.00    -0.352 N 
ATOM     29  C   UNL A   1      41.489  19.473  26.129  1.00  0.00     0.251 C 
ATOM     30  H   UNL A   1      39.947  18.309  25.621  1.00  0.00     0.163 HD
ATOM     31  O   UNL A   1      42.318  18.585  25.958  1.00  0.00    -0.269 OA
BRANCH  29  32
ATOM     32  C   UNL A   1      41.915  20.791  26.645  1.00  0.00     0.039 A 
ATOM     33  C   UNL A   1      42.361  21.757  25.741  1.00  0.00     0.014 A 
ATOM     34  C   UNL A   1      41.877  21.075  28.012  1.00  0.00     0.014 A 
ATOM     35  C   UNL A   1      42.704  23.027  26.204  1.00  0.00     0.010 A 
ATOM     36  C   UNL A   1      42.117  22.369  28.458  1.00  0.00     0.010 A 
ATOM     37  C   UNL A   1      42.545  23.357  27.561  1.00  0.00    -0.014 A 
BRANCH  37  38
ATOM     38  C   UNL A   1      42.833  24.724  28.059  1.00  0.00     0.031 A 
ATOM     39  C   UNL A   1      44.239  25.117  28.423  1.00  0.00     0.074 A 
ATOM     40  C   UNL A   1      41.820  25.595  28.235  1.00  0.00     0.049 A 
ATOM     41  N   UNL A   1      44.680  26.249  28.912  1.00  0.00    -0.248 NA
ATOM     42  C   UNL A   1      45.284  24.097  28.240  1.00  0.00     0.031 C 
ATOM     43  C   UNL A   1      40.407  25.316  27.971  1.00  0.00     0.029 A 
ATOM     44  N   UNL A   1      41.823  26.892  28.683  1.00  0.00    -0.354 N 
ATOM     45  C   UNL A   1      46.045  26.069  29.105  1.00  0.00     0.074 A 
ATOM     46  C   UNL A   1      46.348  24.704  28.742  1.00  0.00     0.031 C 
ATOM     47  C   UNL A   1      39.686  26.418  28.227  1.00  0.00     0.029 A 
ATOM     48  C   UNL A   1      40.575  27.467  28.715  1.00  0.00     0.049 A 
ATOM     49  H   UNL A   1      42.642  27.366  28.954  1.00  0.00     0.167 HD
ATOM     50  C   UNL A   1      46.967  26.971  29.519  1.00  0.00     0.037 A 
ATOM     51  C   UNL A   1      40.192  28.697  29.101  1.00  0.00     0.037 A 
ATOM     52  C   UNL A   1      46.664  28.336  29.861  1.00  0.00     0.049 A 
ATOM     53  C   UNL A   1      41.233  29.675  29.570  1.00  0.00     0.074 A 
ATOM     54  C   UNL A   1      47.534  29.343  30.237  1.00  0.00     0.029 A 
ATOM     55  N   UNL A   1      45.389  28.882  29.874  1.00  0.00    -0.354 N 
ATOM     56  N   UNL A   1      42.531  29.516  29.675  1.00  0.00    -0.248 NA
ATOM     57  C   UNL A   1      40.757  31.008  29.968  1.00  0.00     0.031 C 
ATOM     58  C   UNL A   1      46.780  30.484  30.530  1.00  0.00     0.029 A 
ATOM     59  C   UNL A   1      45.447  30.206  30.278  1.00  0.00     0.049 A 
ATOM     60  H   UNL A   1      44.565  28.400  29.632  1.00  0.00     0.167 HD
ATOM     61  C   UNL A   1      43.029  30.735  30.119  1.00  0.00     0.074 A 
ATOM     62  C   UNL A   1      41.895  31.627  30.248  1.00  0.00     0.031 C 
ATOM     63  C   UNL A   1      44.310  31.083  30.395  1.00  0.00     0.037 A 
BRANCH  50  64
ATOM     64  C   UNL A   1      48.392  26.507  29.622  1.00  0.00     0.057 A 
ATOM     65  C   UNL A   1      49.301  26.663  28.565  1.00  0.00     0.134 A 
ATOM     66  C   UNL A   1      48.873  25.928  30.802  1.00  0.00     0.134 A 
ATOM     67  F   UNL A   1      48.904  27.200  27.401  1.00  0.00    -0.206 F 
ATOM     68  C   UNL A   1      50.625  26.233  28.669  1.00  0.00     0.040 A 
ATOM     69  C   UNL A   1      50.203  25.523  30.930  1.00  0.00     0.040 A 
ATOM     70  F   UNL A   1      48.061  25.754  31.856  1.00  0.00    -0.206 F 
ATOM     71  C   UNL A   1      51.081  25.669  29.858  1.00  0.00     0.006 A 
ENDBRANCH  50  64
BRANCH  51  72
ATOM     72  C   UNL A   1      38.759  29.086  29.040  1.00  0.00     0.057 A 
ATOM     73  C   UNL A   1      38.193  29.576  27.858  1.00  0.00     0.134 A 
ATOM     74  C   UNL A   1      37.926  28.989  30.161  1.00  0.00     0.134 A 
ATOM     75  F   UNL A   1      38.943  29.709  26.754  1.00  0.00    -0.206 F 
ATOM     76  C   UNL A   1      36.858  29.981  27.797  1.00  0.00     0.040 A 
ATOM     77  C   UNL A   1      36.582  29.362  30.107  1.00  0.00     0.040 A 
ATOM     78  F   UNL A   1      38.403  28.517  31.321  1.00  0.00    -0.206 F 
ATOM     79  C   UNL A   1      36.046  29.869  28.926  1.00  0.00     0.006 A 
ENDBRANCH  51  72
BRANCH  63  80
ATOM     80  C   UNL A   1      44.559  32.501  30.823  1.00  0.00     0.057 A 
ATOM     81  C   UNL A   1      44.804  33.525  29.899  1.00  0.00     0.134 A 
ATOM     82  C   UNL A   1      44.521  32.851  32.180  1.00  0.00     0.134 A 
ATOM     83  F   UNL A   1      44.867  33.256  28.586  1.00  0.00    -0.206 F 
ATOM     84  C   UNL A   1      45.030  34.840  30.311  1.00  0.00     0.040 A 
ATOM     85  C   UNL A   1      44.713  34.167  32.600  1.00  0.00     0.040 A 
ATOM     86  F   UNL A   1      44.280  31.922  33.117  1.00  0.00    -0.206 F 
ATOM     87  C   UNL A   1      44.978  35.165  31.665  1.00  0.00     0.006 A 
ENDBRANCH  63  80
ENDBRANCH  37  38
ENDBRANCH  29  32
ENDBRANCH  27  28
ENDBRANCH  26  27
ENDBRANCH   1  26
TORSDOF 14
ENDMDL
