MODEL 1
REMARK VINA RESULT:     -11.2      0.000      0.000
REMARK SMILES Cc1n[nH]c(C(=O)N[C@@H](CC(C)C)C(=O)NCCCNC(=O)c2ccc(-c3c4nc(c(-c5c(F)cccc5F)c5ccc([nH]5)c(-c5c(F)cccc5F)c5nc(c(-c6c(F)cccc6F)c6ccc3[nH]6)C=C5)C=C4)cc2)n1
REMARK SMILES IDX 18 1 17 2 16 3 14 4 15 5 9 7 8 8 6 9 7 10 5 12 1 13 2 14
REMARK SMILES IDX 3 15 77 16 4 17 10 19 11 20 12 21 13 22 19 23 20 24 21 25
REMARK SMILES IDX 22 27 23 28 24 29 76 30 25 31 75 32 26 33 27 34 28 35 69 36
REMARK SMILES IDX 29 37 74 38 68 39 70 40 30 41 73 42 67 43 66 44 31 46 57 47
REMARK SMILES IDX 40 48 56 49 41 50 44 51 55 52 71 53 42 54 43 55 54 57 72 58
REMARK SMILES IDX 45 59 32 60 33 61 38 62 34 63 35 64 37 65 39 66 36 67 58 68
REMARK SMILES IDX 59 69 64 70 60 71 61 72 63 73 65 74 62 75 46 76 47 77 52 78
REMARK SMILES IDX 48 79 49 80 51 81 53 82 50 83
REMARK H PARENT 16 6 8 11 4 18 20 26 70 45 44 56
REMARK Flexibility Score: inf
ROOT
ATOM      1  C   UNL A   1      33.518  29.876  27.050  1.00  0.00     0.042 C 
ENDROOT
BRANCH   1   2
ATOM      2  C   UNL A   1      33.159  28.958  25.888  1.00  0.00     0.117 C 
BRANCH   2   3
ATOM      3  N   UNL A   1      33.958  29.121  24.686  1.00  0.00    -0.354 N 
ATOM      4  C   UNL A   1      34.055  28.317  23.584  1.00  0.00     0.242 C 
ATOM      5  O   UNL A   1      34.469  28.837  22.542  1.00  0.00    -0.273 OA
ATOM      6  H   UNL A   1      34.515  29.933  24.660  1.00  0.00     0.163 HD
BRANCH   4   7
ATOM      7  C   UNL A   1      33.624  26.829  23.567  1.00  0.00     0.172 C 
BRANCH   7   8
ATOM      8  N   UNL A   1      33.663  26.290  22.207  1.00  0.00    -0.338 N 
ATOM      9  C   UNL A   1      33.058  25.218  21.594  1.00  0.00     0.289 C 
ATOM     10  O   UNL A   1      33.018  25.328  20.362  1.00  0.00    -0.266 OA
ATOM     11  H   UNL A   1      34.247  26.805  21.604  1.00  0.00     0.164 HD
BRANCH   9  12
ATOM     12  C   UNL A   1      32.572  24.036  22.284  1.00  0.00     0.214 A 
ATOM     13  C   UNL A   1      33.140  21.020  24.074  1.00  0.00     0.092 C 
ATOM     14  C   UNL A   1      32.600  22.213  23.390  1.00  0.00     0.148 A 
ATOM     15  N   UNL A   1      31.319  22.581  23.461  1.00  0.00    -0.159 NA
ATOM     16  N   UNL A   1      33.388  23.060  22.664  1.00  0.00    -0.207 NA
ATOM     17  N   UNL A   1      31.329  23.724  22.757  1.00  0.00    -0.255 N 
ATOM     18  H   UNL A   1      30.529  24.277  22.599  1.00  0.00     0.192 HD
ENDBRANCH   9  12
ENDBRANCH   7   8
BRANCH   7  19
ATOM     19  C   UNL A   1      34.226  25.853  24.608  1.00  0.00     0.038 C 
BRANCH  19  20
ATOM     20  C   UNL A   1      33.423  25.471  25.865  1.00  0.00    -0.015 C 
ATOM     21  C   UNL A   1      31.911  25.572  25.640  1.00  0.00     0.007 C 
ATOM     22  C   UNL A   1      33.749  24.045  26.324  1.00  0.00     0.007 C 
ENDBRANCH  19  20
ENDBRANCH   7  19
ENDBRANCH   4   7
ENDBRANCH   2   3
ENDBRANCH   1   2
BRANCH   1  23
ATOM     23  C   UNL A   1      34.879  29.560  27.644  1.00  0.00     0.118 C 
BRANCH  23  24
ATOM     24  N   UNL A   1      35.231  30.383  28.808  1.00  0.00    -0.352 N 
ATOM     25  C   UNL A   1      36.364  30.270  29.604  1.00  0.00     0.251 C 
ATOM     26  H   UNL A   1      34.593  31.093  29.050  1.00  0.00     0.163 HD
ATOM     27  O   UNL A   1      36.466  30.824  30.676  1.00  0.00    -0.269 OA
BRANCH  25  28
ATOM     28  C   UNL A   1      37.446  29.420  29.075  1.00  0.00     0.039 A 
ATOM     29  C   UNL A   1      38.131  29.781  27.913  1.00  0.00     0.014 A 
ATOM     30  C   UNL A   1      37.924  28.437  29.930  1.00  0.00     0.014 A 
ATOM     31  C   UNL A   1      39.392  29.232  27.686  1.00  0.00     0.010 A 
ATOM     32  C   UNL A   1      39.232  28.041  29.788  1.00  0.00     0.010 A 
ATOM     33  C   UNL A   1      39.971  28.400  28.656  1.00  0.00    -0.014 A 
BRANCH  33  34
ATOM     34  C   UNL A   1      41.376  27.986  28.552  1.00  0.00     0.031 A 
ATOM     35  C   UNL A   1      41.684  26.734  27.787  1.00  0.00     0.074 A 
ATOM     36  C   UNL A   1      42.400  28.794  28.906  1.00  0.00     0.049 A 
ATOM     37  N   UNL A   1      42.271  25.661  28.212  1.00  0.00    -0.248 NA
ATOM     38  C   UNL A   1      41.262  26.651  26.379  1.00  0.00     0.031 C 
ATOM     39  C   UNL A   1      42.356  30.180  29.391  1.00  0.00     0.029 A 
ATOM     40  N   UNL A   1      43.737  28.561  28.790  1.00  0.00    -0.354 N 
ATOM     41  C   UNL A   1      42.443  24.828  27.104  1.00  0.00     0.074 A 
ATOM     42  C   UNL A   1      41.707  25.440  26.028  1.00  0.00     0.031 C 
ATOM     43  C   UNL A   1      43.578  30.738  29.282  1.00  0.00     0.029 A 
ATOM     44  C   UNL A   1      44.519  29.693  28.937  1.00  0.00     0.049 A 
ATOM     45  H   UNL A   1      44.113  27.668  28.617  1.00  0.00     0.167 HD
ATOM     46  C   UNL A   1      43.322  23.782  27.109  1.00  0.00     0.037 A 
ATOM     47  C   UNL A   1      45.859  29.788  28.803  1.00  0.00     0.037 A 
ATOM     48  C   UNL A   1      43.735  23.446  28.446  1.00  0.00     0.049 A 
ATOM     49  C   UNL A   1      46.421  28.433  28.986  1.00  0.00     0.074 A 
ATOM     50  C   UNL A   1      43.101  23.005  29.589  1.00  0.00     0.029 A 
ATOM     51  N   UNL A   1      44.978  23.858  28.854  1.00  0.00    -0.354 N 
ATOM     52  N   UNL A   1      46.381  27.774  30.111  1.00  0.00    -0.248 NA
ATOM     53  C   UNL A   1      46.672  27.628  27.802  1.00  0.00     0.031 C 
ATOM     54  C   UNL A   1      43.792  23.643  30.662  1.00  0.00     0.029 A 
ATOM     55  C   UNL A   1      44.826  24.398  30.104  1.00  0.00     0.049 A 
ATOM     56  H   UNL A   1      45.819  23.779  28.348  1.00  0.00     0.167 HD
ATOM     57  C   UNL A   1      46.181  26.452  29.743  1.00  0.00     0.074 A 
ATOM     58  C   UNL A   1      46.494  26.409  28.317  1.00  0.00     0.031 C 
ATOM     59  C   UNL A   1      45.521  25.580  30.561  1.00  0.00     0.037 A 
BRANCH  46  60
ATOM     60  C   UNL A   1      44.065  23.245  25.906  1.00  0.00     0.057 A 
ATOM     61  C   UNL A   1      44.008  21.867  25.607  1.00  0.00     0.134 A 
ATOM     62  C   UNL A   1      45.059  23.961  25.212  1.00  0.00     0.134 A 
ATOM     63  F   UNL A   1      43.115  21.067  26.209  1.00  0.00    -0.206 F 
ATOM     64  C   UNL A   1      44.917  21.242  24.743  1.00  0.00     0.040 A 
ATOM     65  C   UNL A   1      45.940  23.354  24.308  1.00  0.00     0.040 A 
ATOM     66  F   UNL A   1      45.295  25.257  25.445  1.00  0.00    -0.206 F 
ATOM     67  C   UNL A   1      45.893  21.985  24.095  1.00  0.00     0.006 A 
ENDBRANCH  46  60
BRANCH  47  68
ATOM     68  C   UNL A   1      46.622  30.943  28.299  1.00  0.00     0.057 A 
ATOM     69  C   UNL A   1      46.562  31.337  26.960  1.00  0.00     0.134 A 
ATOM     70  C   UNL A   1      47.252  31.835  29.188  1.00  0.00     0.134 A 
ATOM     71  F   UNL A   1      45.948  30.566  26.052  1.00  0.00    -0.206 F 
ATOM     72  C   UNL A   1      47.090  32.560  26.527  1.00  0.00     0.040 A 
ATOM     73  C   UNL A   1      47.787  33.055  28.769  1.00  0.00     0.040 A 
ATOM     74  F   UNL A   1      47.295  31.582  30.505  1.00  0.00    -0.206 F 
ATOM     75  C   UNL A   1      47.695  33.427  27.434  1.00  0.00     0.006 A 
ENDBRANCH  47  68
BRANCH  59  76
ATOM     76  C   UNL A   1      45.251  26.008  31.979  1.00  0.00     0.057 A 
ATOM     77  C   UNL A   1      44.066  26.636  32.392  1.00  0.00     0.134 A 
ATOM     78  C   UNL A   1      46.139  25.620  32.986  1.00  0.00     0.134 A 
ATOM     79  F   UNL A   1      43.107  26.948  31.516  1.00  0.00    -0.206 F 
ATOM     80  C   UNL A   1      43.799  26.904  33.737  1.00  0.00     0.040 A 
ATOM     81  C   UNL A   1      45.871  25.854  34.338  1.00  0.00     0.040 A 
ATOM     82  F   UNL A   1      47.264  24.956  32.676  1.00  0.00    -0.206 F 
ATOM     83  C   UNL A   1      44.700  26.507  34.717  1.00  0.00     0.006 A 
ENDBRANCH  59  76
ENDBRANCH  33  34
ENDBRANCH  25  28
ENDBRANCH  23  24
ENDBRANCH   1  23
TORSDOF 14
ENDMDL
MODEL 2
REMARK VINA RESULT:     -11.0      1.759      2.754
REMARK SMILES Cc1n[nH]c(C(=O)N[C@@H](CC(C)C)C(=O)NCCCNC(=O)c2ccc(-c3c4nc(c(-c5c(F)cccc5F)c5ccc([nH]5)c(-c5c(F)cccc5F)c5nc(c(-c6c(F)cccc6F)c6ccc3[nH]6)C=C5)C=C4)cc2)n1
REMARK SMILES IDX 18 1 17 2 16 3 14 4 15 5 9 7 8 8 6 9 7 10 5 12 1 13 2 14
REMARK SMILES IDX 3 15 77 16 4 17 10 19 11 20 12 21 13 22 19 23 20 24 21 25
REMARK SMILES IDX 22 27 23 28 24 29 76 30 25 31 75 32 26 33 27 34 28 35 69 36
REMARK SMILES IDX 29 37 74 38 68 39 70 40 30 41 73 42 67 43 66 44 31 46 57 47
REMARK SMILES IDX 40 48 56 49 41 50 44 51 55 52 71 53 42 54 43 55 54 57 72 58
REMARK SMILES IDX 45 59 32 60 33 61 38 62 34 63 35 64 37 65 39 66 36 67 58 68
REMARK SMILES IDX 59 69 64 70 60 71 61 72 63 73 65 74 62 75 46 76 47 77 52 78
REMARK SMILES IDX 48 79 49 80 51 81 53 82 50 83
REMARK H PARENT 16 6 8 11 4 18 20 26 70 45 44 56
REMARK Flexibility Score: inf
ROOT
ATOM      1  C   UNL A   1      33.321  28.925  27.302  1.00  0.00     0.042 C 
ENDROOT
BRANCH   1   2
ATOM      2  C   UNL A   1      33.057  27.485  26.881  1.00  0.00     0.117 C 
BRANCH   2   3
ATOM      3  N   UNL A   1      31.659  27.095  26.807  1.00  0.00    -0.354 N 
ATOM      4  C   UNL A   1      30.998  26.387  25.843  1.00  0.00     0.242 C 
ATOM      5  O   UNL A   1      29.939  25.841  26.171  1.00  0.00    -0.273 OA
ATOM      6  H   UNL A   1      31.104  27.385  27.567  1.00  0.00     0.163 HD
BRANCH   4   7
ATOM      7  C   UNL A   1      31.532  26.196  24.401  1.00  0.00     0.172 C 
BRANCH   7   8
ATOM      8  N   UNL A   1      32.428  27.292  24.028  1.00  0.00    -0.338 N 
ATOM      9  C   UNL A   1      32.221  28.575  23.578  1.00  0.00     0.289 C 
ATOM     10  O   UNL A   1      33.197  29.313  23.761  1.00  0.00    -0.266 OA
ATOM     11  H   UNL A   1      33.380  27.061  24.119  1.00  0.00     0.164 HD
BRANCH   9  12
ATOM     12  C   UNL A   1      31.023  29.029  22.893  1.00  0.00     0.214 A 
ATOM     13  C   UNL A   1      27.557  29.809  22.865  1.00  0.00     0.092 C 
ATOM     14  C   UNL A   1      28.991  29.593  22.580  1.00  0.00     0.148 A 
ATOM     15  N   UNL A   1      29.593  30.040  21.476  1.00  0.00    -0.159 NA
ATOM     16  N   UNL A   1      29.822  28.952  23.454  1.00  0.00    -0.207 NA
ATOM     17  N   UNL A   1      30.865  29.670  21.697  1.00  0.00    -0.255 N 
ATOM     18  H   UNL A   1      31.603  29.842  21.067  1.00  0.00     0.192 HD
ENDBRANCH   9  12
ENDBRANCH   7   8
BRANCH   7  19
ATOM     19  C   UNL A   1      32.078  24.813  23.970  1.00  0.00     0.038 C 
BRANCH  19  20
ATOM     20  C   UNL A   1      33.154  24.109  24.817  1.00  0.00    -0.015 C 
ATOM     21  C   UNL A   1      33.443  22.687  24.323  1.00  0.00     0.007 C 
ATOM     22  C   UNL A   1      34.469  24.897  24.816  1.00  0.00     0.007 C 
ENDBRANCH  19  20
ENDBRANCH   7  19
ENDBRANCH   4   7
ENDBRANCH   2   3
ENDBRANCH   1   2
BRANCH   1  23
ATOM     23  C   UNL A   1      34.803  29.234  27.425  1.00  0.00     0.118 C 
BRANCH  23  24
ATOM     24  N   UNL A   1      35.128  30.193  28.488  1.00  0.00    -0.352 N 
ATOM     25  C   UNL A   1      36.284  30.230  29.260  1.00  0.00     0.251 C 
ATOM     26  H   UNL A   1      34.453  30.885  28.675  1.00  0.00     0.163 HD
ATOM     27  O   UNL A   1      36.376  30.898  30.266  1.00  0.00    -0.269 OA
BRANCH  25  28
ATOM     28  C   UNL A   1      37.405  29.396  28.790  1.00  0.00     0.039 A 
ATOM     29  C   UNL A   1      38.140  29.762  27.661  1.00  0.00     0.014 A 
ATOM     30  C   UNL A   1      37.855  28.424  29.673  1.00  0.00     0.014 A 
ATOM     31  C   UNL A   1      39.421  29.233  27.500  1.00  0.00     0.010 A 
ATOM     32  C   UNL A   1      39.174  28.049  29.598  1.00  0.00     0.010 A 
ATOM     33  C   UNL A   1      39.964  28.416  28.503  1.00  0.00    -0.014 A 
BRANCH  33  34
ATOM     34  C   UNL A   1      41.378  28.023  28.471  1.00  0.00     0.031 A 
ATOM     35  C   UNL A   1      41.747  26.785  27.711  1.00  0.00     0.074 A 
ATOM     36  C   UNL A   1      42.369  28.843  28.889  1.00  0.00     0.049 A 
ATOM     37  N   UNL A   1      42.327  25.716  28.157  1.00  0.00    -0.248 NA
ATOM     38  C   UNL A   1      41.404  26.712  26.281  1.00  0.00     0.031 C 
ATOM     39  C   UNL A   1      42.277  30.222  29.386  1.00  0.00     0.029 A 
ATOM     40  N   UNL A   1      43.713  28.632  28.843  1.00  0.00    -0.354 N 
ATOM     41  C   UNL A   1      42.572  24.898  27.051  1.00  0.00     0.074 A 
ATOM     42  C   UNL A   1      41.886  25.512  25.943  1.00  0.00     0.031 C 
ATOM     43  C   UNL A   1      43.494  30.800  29.349  1.00  0.00     0.029 A 
ATOM     44  C   UNL A   1      44.469  29.773  29.045  1.00  0.00     0.049 A 
ATOM     45  H   UNL A   1      44.112  27.747  28.682  1.00  0.00     0.167 HD
ATOM     46  C   UNL A   1      43.465  23.866  27.093  1.00  0.00     0.037 A 
ATOM     47  C   UNL A   1      45.812  29.890  28.985  1.00  0.00     0.037 A 
ATOM     48  C   UNL A   1      43.810  23.522  28.447  1.00  0.00     0.049 A 
ATOM     49  C   UNL A   1      46.384  28.542  29.184  1.00  0.00     0.074 A 
ATOM     50  C   UNL A   1      43.122  23.058  29.549  1.00  0.00     0.029 A 
ATOM     51  N   UNL A   1      45.023  23.947  28.926  1.00  0.00    -0.354 N 
ATOM     52  N   UNL A   1      46.294  27.870  30.299  1.00  0.00    -0.248 NA
ATOM     53  C   UNL A   1      46.712  27.754  28.007  1.00  0.00     0.031 C 
ATOM     54  C   UNL A   1      43.744  23.694  30.664  1.00  0.00     0.029 A 
ATOM     55  C   UNL A   1      44.795  24.471  30.171  1.00  0.00     0.049 A 
ATOM     56  H   UNL A   1      45.892  23.887  28.465  1.00  0.00     0.167 HD
ATOM     57  C   UNL A   1      46.136  26.549  29.906  1.00  0.00     0.074 A 
ATOM     58  C   UNL A   1      46.525  26.527  28.499  1.00  0.00     0.031 C 
ATOM     59  C   UNL A   1      45.445  25.658  30.678  1.00  0.00     0.037 A 
BRANCH  46  60
ATOM     60  C   UNL A   1      44.281  23.354  25.926  1.00  0.00     0.057 A 
ATOM     61  C   UNL A   1      44.273  21.977  25.619  1.00  0.00     0.134 A 
ATOM     62  C   UNL A   1      45.291  24.098  25.286  1.00  0.00     0.134 A 
ATOM     63  F   UNL A   1      43.371  21.152  26.171  1.00  0.00    -0.206 F 
ATOM     64  C   UNL A   1      45.240  21.379  24.799  1.00  0.00     0.040 A 
ATOM     65  C   UNL A   1      46.231  23.518  24.425  1.00  0.00     0.040 A 
ATOM     66  F   UNL A   1      45.483  25.399  25.536  1.00  0.00    -0.206 F 
ATOM     67  C   UNL A   1      46.229  22.150  24.205  1.00  0.00     0.006 A 
ENDBRANCH  46  60
BRANCH  47  68
ATOM     68  C   UNL A   1      46.584  31.062  28.536  1.00  0.00     0.057 A 
ATOM     69  C   UNL A   1      47.543  31.667  29.350  1.00  0.00     0.134 A 
ATOM     70  C   UNL A   1      46.556  31.471  27.188  1.00  0.00     0.134 A 
ATOM     71  F   UNL A   1      47.664  31.311  30.637  1.00  0.00    -0.206 F 
ATOM     72  C   UNL A   1      48.438  32.622  28.852  1.00  0.00     0.040 A 
ATOM     73  C   UNL A   1      47.439  32.426  26.679  1.00  0.00     0.040 A 
ATOM     74  F   UNL A   1      45.722  30.897  26.309  1.00  0.00    -0.206 F 
ATOM     75  C   UNL A   1      48.395  32.996  27.510  1.00  0.00     0.006 A 
ENDBRANCH  47  68
BRANCH  59  76
ATOM     76  C   UNL A   1      45.092  26.066  32.083  1.00  0.00     0.057 A 
ATOM     77  C   UNL A   1      43.901  26.721  32.429  1.00  0.00     0.134 A 
ATOM     78  C   UNL A   1      45.898  25.632  33.139  1.00  0.00     0.134 A 
ATOM     79  F   UNL A   1      43.012  27.079  31.497  1.00  0.00    -0.206 F 
ATOM     80  C   UNL A   1      43.550  26.970  33.759  1.00  0.00     0.040 A 
ATOM     81  C   UNL A   1      45.546  25.847  34.475  1.00  0.00     0.040 A 
ATOM     82  F   UNL A   1      47.022  24.940  32.891  1.00  0.00    -0.206 F 
ATOM     83  C   UNL A   1      44.371  26.527  34.789  1.00  0.00     0.006 A 
ENDBRANCH  59  76
ENDBRANCH  33  34
ENDBRANCH  25  28
ENDBRANCH  23  24
ENDBRANCH   1  23
TORSDOF 14
ENDMDL
MODEL 3
REMARK VINA RESULT:     -11.0      1.761      2.269
REMARK SMILES Cc1n[nH]c(C(=O)N[C@@H](CC(C)C)C(=O)NCCCNC(=O)c2ccc(-c3c4nc(c(-c5c(F)cccc5F)c5ccc([nH]5)c(-c5c(F)cccc5F)c5nc(c(-c6c(F)cccc6F)c6ccc3[nH]6)C=C5)C=C4)cc2)n1
REMARK SMILES IDX 18 1 17 2 16 3 14 4 15 5 9 7 8 8 6 9 7 10 5 12 1 13 2 14
REMARK SMILES IDX 3 15 77 16 4 17 10 19 11 20 12 21 13 22 19 23 20 24 21 25
REMARK SMILES IDX 22 27 23 28 24 29 76 30 25 31 75 32 26 33 27 34 28 35 69 36
REMARK SMILES IDX 29 37 74 38 68 39 70 40 30 41 73 42 67 43 66 44 31 46 57 47
REMARK SMILES IDX 40 48 56 49 41 50 44 51 55 52 71 53 42 54 43 55 54 57 72 58
REMARK SMILES IDX 45 59 32 60 33 61 38 62 34 63 35 64 37 65 39 66 36 67 58 68
REMARK SMILES IDX 59 69 64 70 60 71 61 72 63 73 65 74 62 75 46 76 47 77 52 78
REMARK SMILES IDX 48 79 49 80 51 81 53 82 50 83
REMARK H PARENT 16 6 8 11 4 18 20 26 70 45 44 56
REMARK Flexibility Score: inf
ROOT
ATOM      1  C   UNL A   1      33.456  28.845  27.090  1.00  0.00     0.042 C 
ENDROOT
BRANCH   1   2
ATOM      2  C   UNL A   1      33.262  27.508  26.385  1.00  0.00     0.117 C 
BRANCH   2   3
ATOM      3  N   UNL A   1      31.886  27.067  26.238  1.00  0.00    -0.354 N 
ATOM      4  C   UNL A   1      31.377  25.800  26.157  1.00  0.00     0.242 C 
ATOM      5  O   UNL A   1      30.182  25.654  26.436  1.00  0.00    -0.273 OA
ATOM      6  H   UNL A   1      31.218  27.789  26.190  1.00  0.00     0.163 HD
BRANCH   4   7
ATOM      7  C   UNL A   1      32.227  24.557  25.792  1.00  0.00     0.172 C 
BRANCH   7   8
ATOM      8  N   UNL A   1      32.204  23.574  26.876  1.00  0.00    -0.338 N 
ATOM      9  C   UNL A   1      33.031  22.535  27.233  1.00  0.00     0.289 C 
ATOM     10  O   UNL A   1      32.904  22.203  28.418  1.00  0.00    -0.266 OA
ATOM     11  H   UNL A   1      31.431  23.679  27.478  1.00  0.00     0.164 HD
BRANCH   9  12
ATOM     12  C   UNL A   1      33.921  21.836  26.321  1.00  0.00     0.214 A 
ATOM     13  C   UNL A   1      37.131  21.304  24.897  1.00  0.00     0.092 C 
ATOM     14  C   UNL A   1      35.715  21.276  25.314  1.00  0.00     0.148 A 
ATOM     15  N   UNL A   1      34.879  20.284  24.999  1.00  0.00    -0.159 NA
ATOM     16  N   UNL A   1      35.162  22.249  26.097  1.00  0.00    -0.207 NA
ATOM     17  N   UNL A   1      33.761  20.662  25.641  1.00  0.00    -0.255 N 
ATOM     18  H   UNL A   1      32.920  20.150  25.624  1.00  0.00     0.192 HD
ENDBRANCH   9  12
ENDBRANCH   7   8
BRANCH   7  19
ATOM     19  C   UNL A   1      32.059  23.904  24.398  1.00  0.00     0.038 C 
BRANCH  19  20
ATOM     20  C   UNL A   1      32.914  24.384  23.212  1.00  0.00    -0.015 C 
ATOM     21  C   UNL A   1      34.212  25.060  23.667  1.00  0.00     0.007 C 
ATOM     22  C   UNL A   1      33.277  23.223  22.279  1.00  0.00     0.007 C 
ENDBRANCH  19  20
ENDBRANCH   7  19
ENDBRANCH   4   7
ENDBRANCH   2   3
ENDBRANCH   1   2
BRANCH   1  23
ATOM     23  C   UNL A   1      34.919  29.239  27.201  1.00  0.00     0.118 C 
BRANCH  23  24
ATOM     24  N   UNL A   1      35.219  30.115  28.340  1.00  0.00    -0.352 N 
ATOM     25  C   UNL A   1      36.349  30.084  29.148  1.00  0.00     0.251 C 
ATOM     26  H   UNL A   1      34.544  30.800  28.554  1.00  0.00     0.163 HD
ATOM     27  O   UNL A   1      36.414  30.677  30.202  1.00  0.00    -0.269 OA
BRANCH  25  28
ATOM     28  C   UNL A   1      37.476  29.273  28.655  1.00  0.00     0.039 A 
ATOM     29  C   UNL A   1      38.237  29.700  27.565  1.00  0.00     0.014 A 
ATOM     30  C   UNL A   1      37.904  28.250  29.490  1.00  0.00     0.014 A 
ATOM     31  C   UNL A   1      39.519  29.175  27.401  1.00  0.00     0.010 A 
ATOM     32  C   UNL A   1      39.224  27.874  29.422  1.00  0.00     0.010 A 
ATOM     33  C   UNL A   1      40.038  28.299  28.366  1.00  0.00    -0.014 A 
BRANCH  33  34
ATOM     34  C   UNL A   1      41.451  27.902  28.342  1.00  0.00     0.031 A 
ATOM     35  C   UNL A   1      41.817  26.649  27.604  1.00  0.00     0.074 A 
ATOM     36  C   UNL A   1      42.444  28.726  28.745  1.00  0.00     0.049 A 
ATOM     37  N   UNL A   1      42.394  25.587  28.069  1.00  0.00    -0.248 NA
ATOM     38  C   UNL A   1      41.474  26.551  26.176  1.00  0.00     0.031 C 
ATOM     39  C   UNL A   1      42.356  30.115  29.217  1.00  0.00     0.029 A 
ATOM     40  N   UNL A   1      43.788  28.511  28.704  1.00  0.00    -0.354 N 
ATOM     41  C   UNL A   1      42.637  24.749  26.979  1.00  0.00     0.074 A 
ATOM     42  C   UNL A   1      41.953  25.344  25.859  1.00  0.00     0.031 C 
ATOM     43  C   UNL A   1      43.574  30.688  29.170  1.00  0.00     0.029 A 
ATOM     44  C   UNL A   1      44.546  29.654  28.885  1.00  0.00     0.049 A 
ATOM     45  H   UNL A   1      44.184  27.622  28.559  1.00  0.00     0.167 HD
ATOM     46  C   UNL A   1      43.528  23.715  27.039  1.00  0.00     0.037 A 
ATOM     47  C   UNL A   1      45.890  29.766  28.823  1.00  0.00     0.037 A 
ATOM     48  C   UNL A   1      43.872  23.395  28.399  1.00  0.00     0.049 A 
ATOM     49  C   UNL A   1      46.458  28.420  29.047  1.00  0.00     0.074 A 
ATOM     50  C   UNL A   1      43.182  22.952  29.509  1.00  0.00     0.029 A 
ATOM     51  N   UNL A   1      45.085  23.826  28.871  1.00  0.00    -0.354 N 
ATOM     52  N   UNL A   1      46.366  27.769  30.174  1.00  0.00    -0.248 NA
ATOM     53  C   UNL A   1      46.785  27.611  27.885  1.00  0.00     0.031 C 
ATOM     54  C   UNL A   1      43.805  23.607  30.613  1.00  0.00     0.029 A 
ATOM     55  C   UNL A   1      44.858  24.372  30.107  1.00  0.00     0.049 A 
ATOM     56  H   UNL A   1      45.954  23.755  28.412  1.00  0.00     0.167 HD
ATOM     57  C   UNL A   1      46.204  26.442  29.805  1.00  0.00     0.074 A 
ATOM     58  C   UNL A   1      46.594  26.394  28.398  1.00  0.00     0.031 C 
ATOM     59  C   UNL A   1      45.511  25.567  30.593  1.00  0.00     0.037 A 
BRANCH  46  60
ATOM     60  C   UNL A   1      44.343  23.180  25.882  1.00  0.00     0.057 A 
ATOM     61  C   UNL A   1      44.315  21.801  25.588  1.00  0.00     0.134 A 
ATOM     62  C   UNL A   1      45.368  23.903  25.242  1.00  0.00     0.134 A 
ATOM     63  F   UNL A   1      43.397  20.994  26.142  1.00  0.00    -0.206 F 
ATOM     64  C   UNL A   1      45.278  21.180  24.779  1.00  0.00     0.040 A 
ATOM     65  C   UNL A   1      46.304  23.300  24.392  1.00  0.00     0.040 A 
ATOM     66  F   UNL A   1      45.578  25.202  25.481  1.00  0.00    -0.206 F 
ATOM     67  C   UNL A   1      46.282  21.930  24.184  1.00  0.00     0.006 A 
ENDBRANCH  46  60
BRANCH  47  68
ATOM     68  C   UNL A   1      46.664  30.928  28.353  1.00  0.00     0.057 A 
ATOM     69  C   UNL A   1      46.704  31.289  27.005  1.00  0.00     0.134 A 
ATOM     70  C   UNL A   1      47.199  31.856  29.268  1.00  0.00     0.134 A 
ATOM     71  F   UNL A   1      46.183  30.482  26.070  1.00  0.00    -0.206 F 
ATOM     72  C   UNL A   1      47.236  32.514  26.584  1.00  0.00     0.040 A 
ATOM     73  C   UNL A   1      47.738  33.079  28.862  1.00  0.00     0.040 A 
ATOM     74  F   UNL A   1      47.142  31.636  30.590  1.00  0.00    -0.206 F 
ATOM     75  C   UNL A   1      47.746  33.417  27.515  1.00  0.00     0.006 A 
ENDBRANCH  47  68
BRANCH  59  76
ATOM     76  C   UNL A   1      45.159  26.000  31.990  1.00  0.00     0.057 A 
ATOM     77  C   UNL A   1      43.971  26.669  32.323  1.00  0.00     0.134 A 
ATOM     78  C   UNL A   1      45.961  25.579  33.055  1.00  0.00     0.134 A 
ATOM     79  F   UNL A   1      43.087  27.017  31.384  1.00  0.00    -0.206 F 
ATOM     80  C   UNL A   1      43.620  26.943  33.648  1.00  0.00     0.040 A 
ATOM     81  C   UNL A   1      45.607  25.819  34.385  1.00  0.00     0.040 A 
ATOM     82  F   UNL A   1      47.080  24.875  32.820  1.00  0.00    -0.206 F 
ATOM     83  C   UNL A   1      44.437  26.512  34.686  1.00  0.00     0.006 A 
ENDBRANCH  59  76
ENDBRANCH  33  34
ENDBRANCH  25  28
ENDBRANCH  23  24
ENDBRANCH   1  23
TORSDOF 14
ENDMDL
