MODEL 1
REMARK VINA RESULT:     -13.2      0.000      0.000
REMARK SMILES O=C(NCCCNC(=O)c1ccc([C@H]2CCCN(C(=O)c3ccc4[nH]ccc4c3)C2)cc1)c1ccc(-c2c3nc(c(-c4c(F)cccc4F)c4ccc([nH]4)c(-c4c(F)cccc4F)c4nc(c(-c5c(F)cccc5F)c5ccc2[nH]5)C=C4)C=C3)cc1
REMARK SMILES IDX 5 1 4 2 3 3 1 4 2 5 33 7 34 8 86 9 35 10 85 11 36 12 37 13
REMARK SMILES IDX 38 14 79 15 39 16 84 17 78 18 80 19 40 20 83 21 77 22 76 23
REMARK SMILES IDX 41 25 67 26 50 27 66 28 51 29 54 30 65 31 81 32 52 33 53 34
REMARK SMILES IDX 64 36 82 37 55 38 42 39 43 40 48 41 44 42 45 43 47 44 49 45
REMARK SMILES IDX 46 46 68 47 69 48 74 49 70 50 71 51 73 52 75 53 72 54 56 55
REMARK SMILES IDX 57 56 62 57 58 58 59 59 61 60 63 61 60 62 6 63 7 64 8 65
REMARK SMILES IDX 9 67 10 68 11 69 32 70 12 71 31 72 13 73 14 74 15 75 30 76
REMARK SMILES IDX 16 77 18 78 17 79 19 80 20 81 21 82 22 83 29 84 23 85 28 86
REMARK SMILES IDX 24 87 27 88 25 89 26 90
REMARK H PARENT 3 6 80 24 54 35 7 66 25 91
REMARK Flexibility Score: inf
ROOT
ATOM      1  C   UNL A   1      40.419  22.299  27.591  1.00  0.00     0.042 C 
ENDROOT
BRANCH   1   2
ATOM      2  C   UNL A   1      41.725  23.040  27.370  1.00  0.00     0.118 C 
BRANCH   2   3
ATOM      3  N   UNL A   1      41.703  23.909  26.200  1.00  0.00    -0.352 N 
ATOM      4  O   UNL A   1      41.386  25.797  25.008  1.00  0.00    -0.269 OA
ATOM      5  C   UNL A   1      41.516  25.268  26.108  1.00  0.00     0.251 C 
ATOM      6  H   UNL A   1      41.845  23.450  25.340  1.00  0.00     0.163 HD
BRANCH   5   7
ATOM      7  C   UNL A   1      41.427  26.086  27.336  1.00  0.00     0.039 A 
ATOM      8  C   UNL A   1      40.339  25.962  28.198  1.00  0.00     0.014 A 
ATOM      9  C   UNL A   1      42.436  27.011  27.617  1.00  0.00     0.014 A 
ATOM     10  C   UNL A   1      40.144  26.902  29.199  1.00  0.00     0.010 A 
ATOM     11  C   UNL A   1      42.302  27.874  28.710  1.00  0.00     0.010 A 
ATOM     12  C   UNL A   1      41.126  27.864  29.476  1.00  0.00    -0.014 A 
BRANCH  12  13
ATOM     13  C   UNL A   1      40.906  28.822  30.591  1.00  0.00     0.031 A 
ATOM     14  C   UNL A   1      39.788  29.829  30.547  1.00  0.00     0.074 A 
ATOM     15  C   UNL A   1      41.702  28.747  31.677  1.00  0.00     0.049 A 
ATOM     16  N   UNL A   1      39.436  30.710  31.450  1.00  0.00    -0.248 NA
ATOM     17  C   UNL A   1      38.962  29.861  29.330  1.00  0.00     0.031 C 
ATOM     18  C   UNL A   1      42.821  27.814  31.838  1.00  0.00     0.029 A 
ATOM     19  N   UNL A   1      41.680  29.443  32.856  1.00  0.00    -0.354 N 
ATOM     20  C   UNL A   1      38.373  31.418  30.901  1.00  0.00     0.074 A 
ATOM     21  C   UNL A   1      38.155  30.883  29.575  1.00  0.00     0.031 C 
ATOM     22  C   UNL A   1      43.336  27.953  33.067  1.00  0.00     0.029 A 
ATOM     23  C   UNL A   1      42.637  29.033  33.751  1.00  0.00     0.049 A 
ATOM     24  H   UNL A   1      41.040  30.168  33.044  1.00  0.00     0.167 HD
ATOM     25  C   UNL A   1      37.644  32.417  31.456  1.00  0.00     0.037 A 
ATOM     26  C   UNL A   1      42.934  29.485  34.984  1.00  0.00     0.037 A 
ATOM     27  C   UNL A   1      37.858  32.936  32.784  1.00  0.00     0.049 A 
ATOM     28  C   UNL A   1      42.130  30.613  35.559  1.00  0.00     0.074 A 
ATOM     29  C   UNL A   1      37.145  33.918  33.452  1.00  0.00     0.029 A 
ATOM     30  N   UNL A   1      38.864  32.521  33.645  1.00  0.00    -0.354 N 
ATOM     31  N   UNL A   1      41.105  31.246  35.043  1.00  0.00    -0.248 NA
ATOM     32  C   UNL A   1      42.527  31.091  36.889  1.00  0.00     0.031 C 
ATOM     33  C   UNL A   1      37.759  34.140  34.690  1.00  0.00     0.029 A 
ATOM     34  C   UNL A   1      38.810  33.247  34.824  1.00  0.00     0.049 A 
ATOM     35  H   UNL A   1      39.521  31.814  33.446  1.00  0.00     0.167 HD
ATOM     36  C   UNL A   1      40.710  32.171  36.000  1.00  0.00     0.074 A 
ATOM     37  C   UNL A   1      41.602  32.008  37.130  1.00  0.00     0.031 C 
ATOM     38  C   UNL A   1      39.697  33.071  35.947  1.00  0.00     0.037 A 
BRANCH  25  39
ATOM     39  C   UNL A   1      36.566  33.044  30.614  1.00  0.00     0.057 A 
ATOM     40  C   UNL A   1      35.205  32.783  30.821  1.00  0.00     0.134 A 
ATOM     41  C   UNL A   1      36.898  33.946  29.594  1.00  0.00     0.134 A 
ATOM     42  F   UNL A   1      34.814  31.922  31.774  1.00  0.00    -0.206 F 
ATOM     43  C   UNL A   1      34.217  33.371  30.027  1.00  0.00     0.040 A 
ATOM     44  C   UNL A   1      35.918  34.563  28.812  1.00  0.00     0.040 A 
ATOM     45  F   UNL A   1      38.179  34.251  29.343  1.00  0.00    -0.206 F 
ATOM     46  C   UNL A   1      34.573  34.268  29.023  1.00  0.00     0.006 A 
ENDBRANCH  25  39
BRANCH  26  47
ATOM     47  C   UNL A   1      44.037  28.859  35.756  1.00  0.00     0.057 A 
ATOM     48  C   UNL A   1      43.791  27.800  36.636  1.00  0.00     0.134 A 
ATOM     49  C   UNL A   1      45.359  29.301  35.631  1.00  0.00     0.134 A 
ATOM     50  F   UNL A   1      42.542  27.341  36.809  1.00  0.00    -0.206 F 
ATOM     51  C   UNL A   1      44.818  27.214  37.379  1.00  0.00     0.040 A 
ATOM     52  C   UNL A   1      46.400  28.704  36.343  1.00  0.00     0.040 A 
ATOM     53  F   UNL A   1      45.662  30.305  34.794  1.00  0.00    -0.206 F 
ATOM     54  C   UNL A   1      46.127  27.663  37.228  1.00  0.00     0.006 A 
ENDBRANCH  26  47
BRANCH  38  55
ATOM     55  C   UNL A   1      39.461  33.906  37.174  1.00  0.00     0.057 A 
ATOM     56  C   UNL A   1      39.957  35.209  37.299  1.00  0.00     0.134 A 
ATOM     57  C   UNL A   1      38.710  33.396  38.242  1.00  0.00     0.134 A 
ATOM     58  F   UNL A   1      40.697  35.754  36.321  1.00  0.00    -0.206 F 
ATOM     59  C   UNL A   1      39.746  35.963  38.456  1.00  0.00     0.040 A 
ATOM     60  C   UNL A   1      38.464  34.151  39.389  1.00  0.00     0.040 A 
ATOM     61  F   UNL A   1      38.198  32.158  38.185  1.00  0.00    -0.206 F 
ATOM     62  C   UNL A   1      38.991  35.436  39.502  1.00  0.00     0.006 A 
ENDBRANCH  38  55
ENDBRANCH  12  13
ENDBRANCH   5   7
ENDBRANCH   2   3
ENDBRANCH   1   2
BRANCH   1  63
ATOM     63  C   UNL A   1      39.419  22.471  26.462  1.00  0.00     0.118 C 
BRANCH  63  64
ATOM     64  N   UNL A   1      39.121  21.211  25.791  1.00  0.00    -0.352 N 
ATOM     65  C   UNL A   1      37.963  20.800  25.174  1.00  0.00     0.251 C 
ATOM     66  H   UNL A   1      39.858  20.559  25.776  1.00  0.00     0.163 HD
ATOM     67  O   UNL A   1      37.816  19.628  24.852  1.00  0.00    -0.269 OA
BRANCH  65  68
ATOM     68  C   UNL A   1      36.900  21.786  24.905  1.00  0.00     0.039 A 
ATOM     69  C   UNL A   1      35.929  22.052  25.870  1.00  0.00     0.014 A 
ATOM     70  C   UNL A   1      36.860  22.442  23.679  1.00  0.00     0.014 A 
ATOM     71  C   UNL A   1      34.984  23.060  25.642  1.00  0.00     0.005 A 
ATOM     72  C   UNL A   1      35.948  23.468  23.475  1.00  0.00     0.005 A 
ATOM     73  C   UNL A   1      35.013  23.827  24.464  1.00  0.00    -0.043 A 
BRANCH  73  74
ATOM     74  C   UNL A   1      34.021  24.967  24.236  1.00  0.00     0.039 C 
ATOM     75  C   UNL A   1      33.680  25.193  22.743  1.00  0.00     0.012 C 
ATOM     76  C   UNL A   1      32.703  24.766  25.016  1.00  0.00     0.128 C 
ATOM     77  C   UNL A   1      32.628  26.294  22.551  1.00  0.00     0.022 C 
ATOM     78  N   UNL A   1      31.757  25.841  24.790  1.00  0.00    -0.338 N 
ATOM     79  C   UNL A   1      31.381  26.054  23.397  1.00  0.00     0.120 C 
BRANCH  78  80
ATOM     80  C   UNL A   1      31.329  26.571  25.890  1.00  0.00     0.253 C 
ATOM     81  O   UNL A   1      30.420  26.228  26.641  1.00  0.00    -0.269 OA
BRANCH  80  82
ATOM     82  C   UNL A   1      32.004  27.834  26.197  1.00  0.00     0.040 A 
ATOM     83  C   UNL A   1      31.476  29.012  25.671  1.00  0.00     0.016 A 
ATOM     84  C   UNL A   1      33.195  27.807  26.932  1.00  0.00     0.024 A 
ATOM     85  C   UNL A   1      32.106  30.231  25.916  1.00  0.00     0.027 A 
ATOM     86  C   UNL A   1      33.863  29.024  27.146  1.00  0.00     0.000 A 
ATOM     87  C   UNL A   1      33.295  30.203  26.657  1.00  0.00     0.045 A 
ATOM     88  C   UNL A   1      35.097  29.375  27.760  1.00  0.00     0.028 A 
ATOM     89  N   UNL A   1      34.127  31.234  27.034  1.00  0.00    -0.361 N 
ATOM     90  C   UNL A   1      35.241  30.739  27.658  1.00  0.00     0.083 A 
ATOM     91  H   UNL A   1      33.946  32.189  26.876  1.00  0.00     0.166 HD
ENDBRANCH  80  82
ENDBRANCH  78  80
ENDBRANCH  73  74
ENDBRANCH  65  68
ENDBRANCH  63  64
ENDBRANCH   1  63
TORSDOF 13
ENDMDL
MODEL 2
REMARK VINA RESULT:     -13.1      2.176      8.524
REMARK SMILES O=C(NCCCNC(=O)c1ccc([C@H]2CCCN(C(=O)c3ccc4[nH]ccc4c3)C2)cc1)c1ccc(-c2c3nc(c(-c4c(F)cccc4F)c4ccc([nH]4)c(-c4c(F)cccc4F)c4nc(c(-c5c(F)cccc5F)c5ccc2[nH]5)C=C4)C=C3)cc1
REMARK SMILES IDX 5 1 4 2 3 3 1 4 2 5 33 7 34 8 86 9 35 10 85 11 36 12 37 13
REMARK SMILES IDX 38 14 79 15 39 16 84 17 78 18 80 19 40 20 83 21 77 22 76 23
REMARK SMILES IDX 41 25 67 26 50 27 66 28 51 29 54 30 65 31 81 32 52 33 53 34
REMARK SMILES IDX 64 36 82 37 55 38 42 39 43 40 48 41 44 42 45 43 47 44 49 45
REMARK SMILES IDX 46 46 68 47 69 48 74 49 70 50 71 51 73 52 75 53 72 54 56 55
REMARK SMILES IDX 57 56 62 57 58 58 59 59 61 60 63 61 60 62 6 63 7 64 8 65
REMARK SMILES IDX 9 67 10 68 11 69 32 70 12 71 31 72 13 73 14 74 15 75 30 76
REMARK SMILES IDX 16 77 18 78 17 79 19 80 20 81 21 82 22 83 29 84 23 85 28 86
REMARK SMILES IDX 24 87 27 88 25 89 26 90
REMARK H PARENT 3 6 80 24 54 35 7 66 25 91
REMARK Flexibility Score: inf
ROOT
ATOM      1  C   UNL A   1      31.596  31.940  26.553  1.00  0.00     0.042 C 
ENDROOT
BRANCH   1   2
ATOM      2  C   UNL A   1      32.771  32.663  27.186  1.00  0.00     0.118 C 
BRANCH   2   3
ATOM      3  N   UNL A   1      32.453  34.022  27.608  1.00  0.00    -0.352 N 
ATOM      4  O   UNL A   1      32.523  35.882  28.880  1.00  0.00    -0.269 OA
ATOM      5  C   UNL A   1      33.034  34.810  28.573  1.00  0.00     0.251 C 
ATOM      6  H   UNL A   1      31.703  34.441  27.126  1.00  0.00     0.163 HD
BRANCH   5   7
ATOM      7  C   UNL A   1      34.252  34.345  29.271  1.00  0.00     0.039 A 
ATOM      8  C   UNL A   1      35.518  34.653  28.775  1.00  0.00     0.014 A 
ATOM      9  C   UNL A   1      34.126  33.567  30.425  1.00  0.00     0.014 A 
ATOM     10  C   UNL A   1      36.633  34.006  29.287  1.00  0.00     0.010 A 
ATOM     11  C   UNL A   1      35.268  33.022  31.021  1.00  0.00     0.010 A 
ATOM     12  C   UNL A   1      36.526  33.190  30.424  1.00  0.00    -0.014 A 
BRANCH  12  13
ATOM     13  C   UNL A   1      37.751  32.556  30.976  1.00  0.00     0.031 A 
ATOM     14  C   UNL A   1      38.375  33.044  32.256  1.00  0.00     0.074 A 
ATOM     15  C   UNL A   1      38.278  31.495  30.333  1.00  0.00     0.049 A 
ATOM     16  N   UNL A   1      39.421  32.580  32.893  1.00  0.00    -0.248 NA
ATOM     17  C   UNL A   1      37.753  34.210  32.903  1.00  0.00     0.031 C 
ATOM     18  C   UNL A   1      37.765  30.928  29.082  1.00  0.00     0.029 A 
ATOM     19  N   UNL A   1      39.339  30.689  30.649  1.00  0.00    -0.354 N 
ATOM     20  C   UNL A   1      39.600  33.411  33.993  1.00  0.00     0.074 A 
ATOM     21  C   UNL A   1      38.572  34.425  33.922  1.00  0.00     0.031 C 
ATOM     22  C   UNL A   1      38.471  29.833  28.773  1.00  0.00     0.029 A 
ATOM     23  C   UNL A   1      39.532  29.663  29.757  1.00  0.00     0.049 A 
ATOM     24  H   UNL A   1      39.909  30.832  31.439  1.00  0.00     0.167 HD
ATOM     25  C   UNL A   1      40.533  33.329  34.973  1.00  0.00     0.037 A 
ATOM     26  C   UNL A   1      40.469  28.698  29.722  1.00  0.00     0.037 A 
ATOM     27  C   UNL A   1      41.547  32.306  35.045  1.00  0.00     0.049 A 
ATOM     28  C   UNL A   1      41.507  28.653  30.804  1.00  0.00     0.074 A 
ATOM     29  C   UNL A   1      42.510  32.114  36.021  1.00  0.00     0.029 A 
ATOM     30  N   UNL A   1      41.734  31.308  34.100  1.00  0.00    -0.354 N 
ATOM     31  N   UNL A   1      41.641  29.422  31.856  1.00  0.00    -0.248 NA
ATOM     32  C   UNL A   1      42.528  27.603  30.689  1.00  0.00     0.031 C 
ATOM     33  C   UNL A   1      43.318  31.039  35.633  1.00  0.00     0.029 A 
ATOM     34  C   UNL A   1      42.814  30.516  34.454  1.00  0.00     0.049 A 
ATOM     35  H   UNL A   1      41.180  31.181  33.295  1.00  0.00     0.167 HD
ATOM     36  C   UNL A   1      42.737  28.927  32.551  1.00  0.00     0.074 A 
ATOM     37  C   UNL A   1      43.224  27.786  31.802  1.00  0.00     0.031 C 
ATOM     38  C   UNL A   1      43.286  29.376  33.706  1.00  0.00     0.037 A 
BRANCH  25  39
ATOM     39  C   UNL A   1      40.526  34.398  36.033  1.00  0.00     0.057 A 
ATOM     40  C   UNL A   1      41.327  35.544  35.947  1.00  0.00     0.134 A 
ATOM     41  C   UNL A   1      39.679  34.289  37.144  1.00  0.00     0.134 A 
ATOM     42  F   UNL A   1      42.169  35.711  34.916  1.00  0.00    -0.206 F 
ATOM     43  C   UNL A   1      41.310  36.525  36.943  1.00  0.00     0.040 A 
ATOM     44  C   UNL A   1      39.631  35.276  38.130  1.00  0.00     0.040 A 
ATOM     45  F   UNL A   1      38.876  33.224  37.288  1.00  0.00    -0.206 F 
ATOM     46  C   UNL A   1      40.456  36.395  38.035  1.00  0.00     0.006 A 
ENDBRANCH  25  39
BRANCH  26  47
ATOM     47  C   UNL A   1      40.457  27.693  28.630  1.00  0.00     0.057 A 
ATOM     48  C   UNL A   1      39.698  26.522  28.735  1.00  0.00     0.134 A 
ATOM     49  C   UNL A   1      41.197  27.880  27.457  1.00  0.00     0.134 A 
ATOM     50  F   UNL A   1      38.978  26.280  29.840  1.00  0.00    -0.206 F 
ATOM     51  C   UNL A   1      39.691  25.563  27.720  1.00  0.00     0.040 A 
ATOM     52  C   UNL A   1      41.175  26.945  26.421  1.00  0.00     0.040 A 
ATOM     53  F   UNL A   1      41.936  28.987  27.290  1.00  0.00    -0.206 F 
ATOM     54  C   UNL A   1      40.427  25.777  26.557  1.00  0.00     0.006 A 
ENDBRANCH  26  47
BRANCH  38  55
ATOM     55  C   UNL A   1      44.440  28.592  34.264  1.00  0.00     0.057 A 
ATOM     56  C   UNL A   1      45.771  28.904  33.966  1.00  0.00     0.134 A 
ATOM     57  C   UNL A   1      44.208  27.512  35.127  1.00  0.00     0.134 A 
ATOM     58  F   UNL A   1      46.064  29.917  33.135  1.00  0.00    -0.206 F 
ATOM     59  C   UNL A   1      46.830  28.150  34.477  1.00  0.00     0.040 A 
ATOM     60  C   UNL A   1      45.258  26.771  35.671  1.00  0.00     0.040 A 
ATOM     61  F   UNL A   1      42.957  27.162  35.461  1.00  0.00    -0.206 F 
ATOM     62  C   UNL A   1      46.574  27.085  35.337  1.00  0.00     0.006 A 
ENDBRANCH  38  55
ENDBRANCH  12  13
ENDBRANCH   5   7
ENDBRANCH   2   3
ENDBRANCH   1   2
BRANCH   1  63
ATOM     63  C   UNL A   1      31.931  30.547  26.055  1.00  0.00     0.118 C 
BRANCH  63  64
ATOM     64  N   UNL A   1      31.017  30.098  25.011  1.00  0.00    -0.352 N 
ATOM     65  C   UNL A   1      31.011  28.922  24.297  1.00  0.00     0.251 C 
ATOM     66  H   UNL A   1      30.297  30.731  24.783  1.00  0.00     0.163 HD
ATOM     67  O   UNL A   1      30.300  28.803  23.308  1.00  0.00    -0.269 OA
BRANCH  65  68
ATOM     68  C   UNL A   1      31.870  27.807  24.738  1.00  0.00     0.039 A 
ATOM     69  C   UNL A   1      31.360  26.822  25.583  1.00  0.00     0.014 A 
ATOM     70  C   UNL A   1      33.194  27.747  24.320  1.00  0.00     0.014 A 
ATOM     71  C   UNL A   1      32.153  25.717  25.915  1.00  0.00     0.005 A 
ATOM     72  C   UNL A   1      33.963  26.631  24.618  1.00  0.00     0.005 A 
ATOM     73  C   UNL A   1      33.450  25.573  25.390  1.00  0.00    -0.043 A 
BRANCH  73  74
ATOM     74  C   UNL A   1      34.298  24.340  25.704  1.00  0.00     0.039 C 
ATOM     75  C   UNL A   1      33.684  23.437  26.801  1.00  0.00     0.012 C 
ATOM     76  C   UNL A   1      34.568  23.476  24.452  1.00  0.00     0.128 C 
ATOM     77  C   UNL A   1      34.519  22.173  27.044  1.00  0.00     0.022 C 
ATOM     78  N   UNL A   1      35.362  22.301  24.753  1.00  0.00    -0.338 N 
ATOM     79  C   UNL A   1      34.792  21.406  25.753  1.00  0.00     0.120 C 
BRANCH  78  80
ATOM     80  C   UNL A   1      36.577  22.154  24.098  1.00  0.00     0.253 C 
ATOM     81  O   UNL A   1      36.806  22.553  22.959  1.00  0.00    -0.269 OA
BRANCH  80  82
ATOM     82  C   UNL A   1      37.676  21.490  24.802  1.00  0.00     0.040 A 
ATOM     83  C   UNL A   1      37.786  20.104  24.702  1.00  0.00     0.016 A 
ATOM     84  C   UNL A   1      38.523  22.254  25.616  1.00  0.00     0.024 A 
ATOM     85  C   UNL A   1      38.801  19.433  25.382  1.00  0.00     0.027 A 
ATOM     86  C   UNL A   1      39.520  21.581  26.341  1.00  0.00     0.000 A 
ATOM     87  C   UNL A   1      39.651  20.199  26.190  1.00  0.00     0.045 A 
ATOM     88  C   UNL A   1      40.488  21.993  27.297  1.00  0.00     0.028 A 
ATOM     89  N   UNL A   1      40.713  19.809  26.976  1.00  0.00    -0.361 N 
ATOM     90  C   UNL A   1      41.194  20.878  27.684  1.00  0.00     0.083 A 
ATOM     91  H   UNL A   1      41.074  18.894  27.021  1.00  0.00     0.166 HD
ENDBRANCH  80  82
ENDBRANCH  78  80
ENDBRANCH  73  74
ENDBRANCH  65  68
ENDBRANCH  63  64
ENDBRANCH   1  63
TORSDOF 13
ENDMDL
MODEL 3
REMARK VINA RESULT:     -13.1      1.924      6.688
REMARK SMILES O=C(NCCCNC(=O)c1ccc([C@H]2CCCN(C(=O)c3ccc4[nH]ccc4c3)C2)cc1)c1ccc(-c2c3nc(c(-c4c(F)cccc4F)c4ccc([nH]4)c(-c4c(F)cccc4F)c4nc(c(-c5c(F)cccc5F)c5ccc2[nH]5)C=C4)C=C3)cc1
REMARK SMILES IDX 5 1 4 2 3 3 1 4 2 5 33 7 34 8 86 9 35 10 85 11 36 12 37 13
REMARK SMILES IDX 38 14 79 15 39 16 84 17 78 18 80 19 40 20 83 21 77 22 76 23
REMARK SMILES IDX 41 25 67 26 50 27 66 28 51 29 54 30 65 31 81 32 52 33 53 34
REMARK SMILES IDX 64 36 82 37 55 38 42 39 43 40 48 41 44 42 45 43 47 44 49 45
REMARK SMILES IDX 46 46 68 47 69 48 74 49 70 50 71 51 73 52 75 53 72 54 56 55
REMARK SMILES IDX 57 56 62 57 58 58 59 59 61 60 63 61 60 62 6 63 7 64 8 65
REMARK SMILES IDX 9 67 10 68 11 69 32 70 12 71 31 72 13 73 14 74 15 75 30 76
REMARK SMILES IDX 16 77 18 78 17 79 19 80 20 81 21 82 22 83 29 84 23 85 28 86
REMARK SMILES IDX 24 87 27 88 25 89 26 90
REMARK H PARENT 3 6 80 24 54 35 7 66 25 91
REMARK Flexibility Score: inf
ROOT
ATOM      1  C   UNL A   1      43.806  21.732  25.376  1.00  0.00     0.042 C 
ENDROOT
BRANCH   1   2
ATOM      2  C   UNL A   1      43.477  23.153  24.956  1.00  0.00     0.118 C 
BRANCH   2   3
ATOM      3  N   UNL A   1      44.658  23.953  24.657  1.00  0.00    -0.352 N 
ATOM      4  O   UNL A   1      45.996  25.768  24.625  1.00  0.00    -0.269 OA
ATOM      5  C   UNL A   1      45.026  25.198  25.113  1.00  0.00     0.251 C 
ATOM      6  H   UNL A   1      45.293  23.537  24.029  1.00  0.00     0.163 HD
BRANCH   5   7
ATOM      7  C   UNL A   1      44.226  25.866  26.162  1.00  0.00     0.039 A 
ATOM      8  C   UNL A   1      44.200  27.256  26.261  1.00  0.00     0.014 A 
ATOM      9  C   UNL A   1      43.511  25.089  27.077  1.00  0.00     0.014 A 
ATOM     10  C   UNL A   1      43.659  27.855  27.389  1.00  0.00     0.010 A 
ATOM     11  C   UNL A   1      42.851  25.706  28.145  1.00  0.00     0.010 A 
ATOM     12  C   UNL A   1      42.968  27.090  28.341  1.00  0.00    -0.014 A 
BRANCH  12  13
ATOM     13  C   UNL A   1      42.355  27.773  29.510  1.00  0.00     0.031 A 
ATOM     14  C   UNL A   1      43.029  27.775  30.856  1.00  0.00     0.074 A 
ATOM     15  C   UNL A   1      41.196  28.439  29.338  1.00  0.00     0.049 A 
ATOM     16  N   UNL A   1      42.649  28.353  31.968  1.00  0.00    -0.248 NA
ATOM     17  C   UNL A   1      44.289  27.024  30.976  1.00  0.00     0.031 C 
ATOM     18  C   UNL A   1      40.444  28.510  28.081  1.00  0.00     0.029 A 
ATOM     19  N   UNL A   1      40.460  29.201  30.206  1.00  0.00    -0.354 N 
ATOM     20  C   UNL A   1      43.600  28.013  32.923  1.00  0.00     0.074 A 
ATOM     21  C   UNL A   1      44.562  27.154  32.266  1.00  0.00     0.031 C 
ATOM     22  C   UNL A   1      39.392  29.322  28.243  1.00  0.00     0.029 A 
ATOM     23  C   UNL A   1      39.349  29.767  29.630  1.00  0.00     0.049 A 
ATOM     24  H   UNL A   1      40.702  29.330  31.151  1.00  0.00     0.167 HD
ATOM     25  C   UNL A   1      43.667  28.388  34.224  1.00  0.00     0.037 A 
ATOM     26  C   UNL A   1      38.390  30.547  30.160  1.00  0.00     0.037 A 
ATOM     27  C   UNL A   1      42.712  29.256  34.868  1.00  0.00     0.049 A 
ATOM     28  C   UNL A   1      38.474  30.920  31.611  1.00  0.00     0.074 A 
ATOM     29  C   UNL A   1      42.717  29.728  36.169  1.00  0.00     0.029 A 
ATOM     30  N   UNL A   1      41.579  29.776  34.260  1.00  0.00    -0.354 N 
ATOM     31  N   UNL A   1      39.399  30.621  32.490  1.00  0.00    -0.248 NA
ATOM     32  C   UNL A   1      37.376  31.737  32.143  1.00  0.00     0.031 C 
ATOM     33  C   UNL A   1      41.554  30.481  36.367  1.00  0.00     0.029 A 
ATOM     34  C   UNL A   1      40.862  30.539  35.168  1.00  0.00     0.049 A 
ATOM     35  H   UNL A   1      41.321  29.626  33.321  1.00  0.00     0.167 HD
ATOM     36  C   UNL A   1      39.016  31.245  33.670  1.00  0.00     0.074 A 
ATOM     37  C   UNL A   1      37.779  31.945  33.388  1.00  0.00     0.031 C 
ATOM     38  C   UNL A   1      39.636  31.240  34.875  1.00  0.00     0.037 A 
BRANCH  25  39
ATOM     39  C   UNL A   1      44.793  27.831  35.052  1.00  0.00     0.057 A 
ATOM     40  C   UNL A   1      44.679  26.629  35.763  1.00  0.00     0.134 A 
ATOM     41  C   UNL A   1      46.024  28.499  35.116  1.00  0.00     0.134 A 
ATOM     42  F   UNL A   1      43.527  25.941  35.755  1.00  0.00    -0.206 F 
ATOM     43  C   UNL A   1      45.734  26.129  36.530  1.00  0.00     0.040 A 
ATOM     44  C   UNL A   1      47.096  27.994  35.855  1.00  0.00     0.040 A 
ATOM     45  F   UNL A   1      46.210  29.650  34.453  1.00  0.00    -0.206 F 
ATOM     46  C   UNL A   1      46.948  26.809  36.573  1.00  0.00     0.006 A 
ENDBRANCH  25  39
BRANCH  26  47
ATOM     47  C   UNL A   1      37.276  31.035  29.308  1.00  0.00     0.057 A 
ATOM     48  C   UNL A   1      37.279  32.334  28.790  1.00  0.00     0.134 A 
ATOM     49  C   UNL A   1      36.187  30.214  28.989  1.00  0.00     0.134 A 
ATOM     50  F   UNL A   1      38.288  33.172  29.072  1.00  0.00    -0.206 F 
ATOM     51  C   UNL A   1      36.229  32.807  28.000  1.00  0.00     0.040 A 
ATOM     52  C   UNL A   1      35.147  30.664  28.175  1.00  0.00     0.040 A 
ATOM     53  F   UNL A   1      36.131  28.954  29.445  1.00  0.00    -0.206 F 
ATOM     54  C   UNL A   1      35.162  31.969  27.687  1.00  0.00     0.006 A 
ENDBRANCH  26  47
BRANCH  38  55
ATOM     55  C   UNL A   1      39.017  32.070  35.965  1.00  0.00     0.057 A 
ATOM     56  C   UNL A   1      38.131  31.530  36.905  1.00  0.00     0.134 A 
ATOM     57  C   UNL A   1      39.328  33.432  36.079  1.00  0.00     0.134 A 
ATOM     58  F   UNL A   1      37.779  30.237  36.845  1.00  0.00    -0.206 F 
ATOM     59  C   UNL A   1      37.549  32.322  37.898  1.00  0.00     0.040 A 
ATOM     60  C   UNL A   1      38.780  34.225  37.086  1.00  0.00     0.040 A 
ATOM     61  F   UNL A   1      40.177  34.012  35.217  1.00  0.00    -0.206 F 
ATOM     62  C   UNL A   1      37.879  33.672  37.994  1.00  0.00     0.006 A 
ENDBRANCH  38  55
ENDBRANCH  12  13
ENDBRANCH   5   7
ENDBRANCH   2   3
ENDBRANCH   1   2
BRANCH   1  63
ATOM     63  C   UNL A   1      42.648  21.005  26.033  1.00  0.00     0.118 C 
BRANCH  63  64
ATOM     64  N   UNL A   1      42.463  21.403  27.423  1.00  0.00    -0.352 N 
ATOM     65  C   UNL A   1      41.489  22.193  27.987  1.00  0.00     0.251 C 
ATOM     66  H   UNL A   1      43.134  21.052  28.053  1.00  0.00     0.163 HD
ATOM     67  O   UNL A   1      41.610  22.600  29.135  1.00  0.00    -0.269 OA
BRANCH  65  68
ATOM     68  C   UNL A   1      40.297  22.546  27.193  1.00  0.00     0.039 A 
ATOM     69  C   UNL A   1      39.666  21.580  26.409  1.00  0.00     0.014 A 
ATOM     70  C   UNL A   1      39.810  23.848  27.217  1.00  0.00     0.014 A 
ATOM     71  C   UNL A   1      38.480  21.900  25.738  1.00  0.00     0.005 A 
ATOM     72  C   UNL A   1      38.613  24.149  26.584  1.00  0.00     0.005 A 
ATOM     73  C   UNL A   1      37.900  23.175  25.861  1.00  0.00    -0.043 A 
BRANCH  73  74
ATOM     74  C   UNL A   1      36.575  23.511  25.177  1.00  0.00     0.039 C 
ATOM     75  C   UNL A   1      36.446  22.901  23.760  1.00  0.00     0.012 C 
ATOM     76  C   UNL A   1      35.352  23.075  26.013  1.00  0.00     0.128 C 
ATOM     77  C   UNL A   1      35.079  23.194  23.127  1.00  0.00     0.022 C 
ATOM     78  N   UNL A   1      34.096  23.382  25.357  1.00  0.00    -0.338 N 
ATOM     79  C   UNL A   1      33.923  22.788  24.037  1.00  0.00     0.120 C 
BRANCH  78  80
ATOM     80  C   UNL A   1      33.208  24.219  26.018  1.00  0.00     0.253 C 
ATOM     81  O   UNL A   1      32.450  23.859  26.916  1.00  0.00    -0.269 OA
BRANCH  80  82
ATOM     82  C   UNL A   1      33.164  25.633  25.640  1.00  0.00     0.040 A 
ATOM     83  C   UNL A   1      33.929  26.052  24.552  1.00  0.00     0.016 A 
ATOM     84  C   UNL A   1      32.429  26.526  26.430  1.00  0.00     0.024 A 
ATOM     85  C   UNL A   1      33.937  27.396  24.180  1.00  0.00     0.027 A 
ATOM     86  C   UNL A   1      32.468  27.888  26.091  1.00  0.00     0.000 A 
ATOM     87  C   UNL A   1      33.196  28.286  24.968  1.00  0.00     0.045 A 
ATOM     88  C   UNL A   1      31.929  29.065  26.681  1.00  0.00     0.028 A 
ATOM     89  N   UNL A   1      33.035  29.649  24.848  1.00  0.00    -0.361 N 
ATOM     90  C   UNL A   1      32.311  30.134  25.905  1.00  0.00     0.083 A 
ATOM     91  H   UNL A   1      33.390  30.195  24.109  1.00  0.00     0.166 HD
ENDBRANCH  80  82
ENDBRANCH  78  80
ENDBRANCH  73  74
ENDBRANCH  65  68
ENDBRANCH  63  64
ENDBRANCH   1  63
TORSDOF 13
ENDMDL
