MODEL 1
REMARK VINA RESULT:     -11.7      0.000      0.000
REMARK SMILES Cc1noc(C)c1CSCC(=O)N1CC[C@H](C(=O)NCCCNC(=O)c2ccc(-c3c4nc(c(-c5c(F)cccc5F)c5ccc([nH]5)c(-c5c(F)cccc5F)c5nc(c(-c6c(F)cccc6F)c6ccc3[nH]6)C=C5)C=C4)cc2)[C@@H]1C
REMARK SMILES IDX 17 1 18 2 19 3 16 5 13 6 14 7 80 8 15 9 81 10 11 11 12 12
REMARK SMILES IDX 10 13 9 14 8 15 7 16 1 17 2 18 3 19 4 20 5 21 6 22 20 23
REMARK SMILES IDX 21 24 22 25 23 26 24 27 25 29 26 30 27 31 79 32 28 33 78 34
REMARK SMILES IDX 29 35 30 36 31 37 72 38 32 39 77 40 71 41 73 42 33 43 76 44
REMARK SMILES IDX 70 45 69 46 34 48 60 49 43 50 59 51 44 52 47 53 58 54 74 55
REMARK SMILES IDX 45 56 46 57 57 59 75 60 48 61 35 62 36 63 41 64 37 65 38 66
REMARK SMILES IDX 40 67 42 68 39 69 61 70 62 71 67 72 63 73 64 74 66 75 68 76
REMARK SMILES IDX 65 77 49 78 50 79 55 80 51 81 52 82 54 83 56 84 53 85
REMARK H PARENT 19 4 23 28 73 47 47 58
REMARK Flexibility Score: inf
ROOT
ATOM      1  C   UNL A   1      34.142  20.165  25.062  1.00  0.00     0.225 C 
ATOM      2  O   UNL A   1      33.362  19.259  25.349  1.00  0.00    -0.275 OA
ATOM      3  N   UNL A   1      35.440  19.780  25.005  1.00  0.00    -0.356 N 
ATOM      4  H   UNL A   1      35.570  18.805  24.957  1.00  0.00     0.163 HD
ENDROOT
BRANCH   1   5
ATOM      5  C   UNL A   1      33.753  21.635  24.854  1.00  0.00     0.102 C 
ATOM      6  N   UNL A   1      31.953  22.648  26.111  1.00  0.00    -0.338 N 
ATOM      7  C   UNL A   1      31.373  21.817  25.082  1.00  0.00     0.120 C 
ATOM      8  C   UNL A   1      33.424  22.491  26.129  1.00  0.00     0.094 C 
ATOM      9  C   UNL A   1      32.460  21.756  24.033  1.00  0.00     0.037 C 
ATOM     10  C   UNL A   1      33.920  21.867  27.433  1.00  0.00     0.032 C 
BRANCH   6  11
ATOM     11  C   UNL A   1      31.103  23.457  26.836  1.00  0.00     0.232 C 
ATOM     12  O   UNL A   1      30.299  22.948  27.627  1.00  0.00    -0.274 OA
BRANCH  11  13
ATOM     13  C   UNL A   1      30.976  24.936  26.524  1.00  0.00     0.170 C 
BRANCH  13  14
ATOM     14  S   UNL A   1      31.096  25.460  24.805  1.00  0.00    -0.147 SA
BRANCH  14  15
ATOM     15  C   UNL A   1      32.852  25.927  24.700  1.00  0.00     0.111 C 
BRANCH  15  16
ATOM     16  C   UNL A   1      33.266  26.440  23.379  1.00  0.00     0.027 A 
ATOM     17  C   UNL A   1      33.778  28.962  23.856  1.00  0.00     0.071 C 
ATOM     18  C   UNL A   1      33.653  27.756  23.002  1.00  0.00     0.085 A 
ATOM     19  N   UNL A   1      33.901  27.836  21.689  1.00  0.00    -0.085 NA
ATOM     20  O   UNL A   1      33.656  26.575  21.181  1.00  0.00    -0.361 OA
ATOM     21  C   UNL A   1      33.266  25.749  22.185  1.00  0.00     0.137 A 
ATOM     22  C   UNL A   1      32.904  24.369  21.803  1.00  0.00     0.091 C 
ENDBRANCH  15  16
ENDBRANCH  14  15
ENDBRANCH  13  14
ENDBRANCH  11  13
ENDBRANCH   6  11
ENDBRANCH   1   5
BRANCH   3  23
ATOM     23  C   UNL A   1      36.670  20.542  25.002  1.00  0.00     0.117 C 
BRANCH  23  24
ATOM     24  C   UNL A   1      37.883  19.636  24.895  1.00  0.00     0.042 C 
BRANCH  24  25
ATOM     25  C   UNL A   1      39.069  20.071  25.746  1.00  0.00     0.118 C 
BRANCH  25  26
ATOM     26  N   UNL A   1      40.105  19.052  25.850  1.00  0.00    -0.352 N 
ATOM     27  C   UNL A   1      41.454  19.190  26.069  1.00  0.00     0.251 C 
ATOM     28  H   UNL A   1      39.792  18.124  25.749  1.00  0.00     0.163 HD
ATOM     29  O   UNL A   1      42.201  18.222  25.954  1.00  0.00    -0.269 OA
BRANCH  27  30
ATOM     30  C   UNL A   1      42.006  20.517  26.406  1.00  0.00     0.039 A 
ATOM     31  C   UNL A   1      42.432  21.358  25.376  1.00  0.00     0.014 A 
ATOM     32  C   UNL A   1      42.070  20.941  27.735  1.00  0.00     0.014 A 
ATOM     33  C   UNL A   1      42.845  22.656  25.677  1.00  0.00     0.010 A 
ATOM     34  C   UNL A   1      42.373  22.266  28.019  1.00  0.00     0.010 A 
ATOM     35  C   UNL A   1      42.776  23.135  26.996  1.00  0.00    -0.014 A 
BRANCH  35  36
ATOM     36  C   UNL A   1      43.138  24.534  27.334  1.00  0.00     0.031 A 
ATOM     37  C   UNL A   1      44.579  24.965  27.290  1.00  0.00     0.074 A 
ATOM     38  C   UNL A   1      42.186  25.393  27.745  1.00  0.00     0.049 A 
ATOM     39  N   UNL A   1      45.110  26.114  27.625  1.00  0.00    -0.248 NA
ATOM     40  C   UNL A   1      45.559  23.961  26.844  1.00  0.00     0.031 C 
ATOM     41  C   UNL A   1      40.761  25.082  27.883  1.00  0.00     0.029 A 
ATOM     42  N   UNL A   1      42.275  26.706  28.135  1.00  0.00    -0.354 N 
ATOM     43  C   UNL A   1      46.479  25.962  27.448  1.00  0.00     0.074 A 
ATOM     44  C   UNL A   1      46.705  24.593  27.041  1.00  0.00     0.031 C 
ATOM     45  C   UNL A   1      40.107  26.180  28.294  1.00  0.00     0.029 A 
ATOM     46  C   UNL A   1      41.069  27.259  28.492  1.00  0.00     0.049 A 
ATOM     47  H   UNL A   1      43.124  27.206  28.155  1.00  0.00     0.167 HD
ATOM     48  C   UNL A   1      47.458  26.886  27.581  1.00  0.00     0.037 A 
ATOM     49  C   UNL A   1      40.774  28.495  28.937  1.00  0.00     0.037 A 
ATOM     50  C   UNL A   1      47.226  28.255  27.957  1.00  0.00     0.049 A 
ATOM     51  C   UNL A   1      41.881  29.504  29.083  1.00  0.00     0.074 A 
ATOM     52  C   UNL A   1      48.141  29.287  28.062  1.00  0.00     0.029 A 
ATOM     53  N   UNL A   1      45.987  28.782  28.292  1.00  0.00    -0.354 N 
ATOM     54  N   UNL A   1      43.163  29.367  28.843  1.00  0.00    -0.248 NA
ATOM     55  C   UNL A   1      41.498  30.843  29.554  1.00  0.00     0.031 C 
ATOM     56  C   UNL A   1      47.464  30.426  28.509  1.00  0.00     0.029 A 
ATOM     57  C   UNL A   1      46.118  30.119  28.625  1.00  0.00     0.049 A 
ATOM     58  H   UNL A   1      45.141  28.280  28.292  1.00  0.00     0.167 HD
ATOM     59  C   UNL A   1      43.733  30.606  29.102  1.00  0.00     0.074 A 
ATOM     60  C   UNL A   1      42.655  31.487  29.504  1.00  0.00     0.031 C 
ATOM     61  C   UNL A   1      45.032  30.984  29.013  1.00  0.00     0.037 A 
BRANCH  48  62
ATOM     62  C   UNL A   1      48.868  26.446  27.313  1.00  0.00     0.057 A 
ATOM     63  C   UNL A   1      49.432  26.504  26.029  1.00  0.00     0.134 A 
ATOM     64  C   UNL A   1      49.683  25.980  28.352  1.00  0.00     0.134 A 
ATOM     65  F   UNL A   1      48.702  26.927  24.986  1.00  0.00    -0.206 F 
ATOM     66  C   UNL A   1      50.741  26.088  25.786  1.00  0.00     0.040 A 
ATOM     67  C   UNL A   1      51.005  25.591  28.126  1.00  0.00     0.040 A 
ATOM     68  F   UNL A   1      49.211  25.902  29.605  1.00  0.00    -0.206 F 
ATOM     69  C   UNL A   1      51.535  25.637  26.839  1.00  0.00     0.006 A 
ENDBRANCH  48  62
BRANCH  49  70
ATOM     70  C   UNL A   1      39.369  28.859  29.255  1.00  0.00     0.057 A 
ATOM     71  C   UNL A   1      38.535  29.432  28.287  1.00  0.00     0.134 A 
ATOM     72  C   UNL A   1      38.829  28.656  30.530  1.00  0.00     0.134 A 
ATOM     73  F   UNL A   1      38.999  29.667  27.051  1.00  0.00    -0.206 F 
ATOM     74  C   UNL A   1      37.225  29.812  28.581  1.00  0.00     0.040 A 
ATOM     75  C   UNL A   1      37.512  29.006  30.831  1.00  0.00     0.040 A 
ATOM     76  F   UNL A   1      39.572  28.101  31.500  1.00  0.00    -0.206 F 
ATOM     77  C   UNL A   1      36.708  29.595  29.857  1.00  0.00     0.006 A 
ENDBRANCH  49  70
BRANCH  61  78
ATOM     78  C   UNL A   1      45.356  32.419  29.313  1.00  0.00     0.057 A 
ATOM     79  C   UNL A   1      45.752  32.840  30.588  1.00  0.00     0.134 A 
ATOM     80  C   UNL A   1      45.308  33.384  28.298  1.00  0.00     0.134 A 
ATOM     81  F   UNL A   1      45.805  31.968  31.608  1.00  0.00    -0.206 F 
ATOM     82  C   UNL A   1      46.066  34.175  30.849  1.00  0.00     0.040 A 
ATOM     83  C   UNL A   1      45.650  34.714  28.539  1.00  0.00     0.040 A 
ATOM     84  F   UNL A   1      44.946  33.044  27.051  1.00  0.00    -0.206 F 
ATOM     85  C   UNL A   1      46.024  35.114  29.820  1.00  0.00     0.006 A 
ENDBRANCH  61  78
ENDBRANCH  35  36
ENDBRANCH  27  30
ENDBRANCH  25  26
ENDBRANCH  24  25
ENDBRANCH  23  24
ENDBRANCH   3  23
TORSDOF 15
ENDMDL
MODEL 2
REMARK VINA RESULT:     -11.7      4.798     10.151
REMARK SMILES Cc1noc(C)c1CSCC(=O)N1CC[C@H](C(=O)NCCCNC(=O)c2ccc(-c3c4nc(c(-c5c(F)cccc5F)c5ccc([nH]5)c(-c5c(F)cccc5F)c5nc(c(-c6c(F)cccc6F)c6ccc3[nH]6)C=C5)C=C4)cc2)[C@@H]1C
REMARK SMILES IDX 17 1 18 2 19 3 16 5 13 6 14 7 80 8 15 9 81 10 11 11 12 12
REMARK SMILES IDX 10 13 9 14 8 15 7 16 1 17 2 18 3 19 4 20 5 21 6 22 20 23
REMARK SMILES IDX 21 24 22 25 23 26 24 27 25 29 26 30 27 31 79 32 28 33 78 34
REMARK SMILES IDX 29 35 30 36 31 37 72 38 32 39 77 40 71 41 73 42 33 43 76 44
REMARK SMILES IDX 70 45 69 46 34 48 60 49 43 50 59 51 44 52 47 53 58 54 74 55
REMARK SMILES IDX 45 56 46 57 57 59 75 60 48 61 35 62 36 63 41 64 37 65 38 66
REMARK SMILES IDX 40 67 42 68 39 69 61 70 62 71 67 72 63 73 64 74 66 75 68 76
REMARK SMILES IDX 65 77 49 78 50 79 55 80 51 81 52 82 54 83 56 84 53 85
REMARK H PARENT 19 4 23 28 73 47 47 58
REMARK Flexibility Score: inf
ROOT
ATOM      1  C   UNL A   1      30.756  29.352  24.033  1.00  0.00     0.225 C 
ATOM      2  O   UNL A   1      30.287  29.561  22.916  1.00  0.00    -0.275 OA
ATOM      3  N   UNL A   1      30.833  30.455  24.817  1.00  0.00    -0.356 N 
ATOM      4  H   UNL A   1      30.294  31.214  24.498  1.00  0.00     0.163 HD
ENDROOT
BRANCH   1   5
ATOM      5  C   UNL A   1      31.298  28.003  24.527  1.00  0.00     0.102 C 
ATOM      6  N   UNL A   1      32.532  26.532  23.059  1.00  0.00    -0.338 N 
ATOM      7  C   UNL A   1      31.130  26.427  22.728  1.00  0.00     0.120 C 
ATOM      8  C   UNL A   1      32.742  27.587  24.075  1.00  0.00     0.094 C 
ATOM      9  C   UNL A   1      30.440  26.838  24.009  1.00  0.00     0.037 C 
ATOM     10  C   UNL A   1      33.577  28.747  23.534  1.00  0.00     0.032 C 
BRANCH   6  11
ATOM     11  C   UNL A   1      33.400  25.644  22.457  1.00  0.00     0.232 C 
ATOM     12  O   UNL A   1      33.648  25.753  21.250  1.00  0.00    -0.274 OA
BRANCH  11  13
ATOM     13  C   UNL A   1      33.883  24.405  23.187  1.00  0.00     0.170 C 
BRANCH  13  14
ATOM     14  S   UNL A   1      32.653  23.242  23.800  1.00  0.00    -0.147 SA
BRANCH  14  15
ATOM     15  C   UNL A   1      33.357  22.802  25.420  1.00  0.00     0.111 C 
BRANCH  15  16
ATOM     16  C   UNL A   1      34.555  21.941  25.349  1.00  0.00     0.027 A 
ATOM     17  C   UNL A   1      36.516  23.618  25.790  1.00  0.00     0.071 C 
ATOM     18  C   UNL A   1      35.927  22.290  25.491  1.00  0.00     0.085 A 
ATOM     19  N   UNL A   1      36.722  21.231  25.300  1.00  0.00    -0.085 NA
ATOM     20  O   UNL A   1      35.882  20.175  25.003  1.00  0.00    -0.361 OA
ATOM     21  C   UNL A   1      34.593  20.602  25.020  1.00  0.00     0.137 A 
ATOM     22  C   UNL A   1      33.563  19.608  24.663  1.00  0.00     0.091 C 
ENDBRANCH  15  16
ENDBRANCH  14  15
ENDBRANCH  13  14
ENDBRANCH  11  13
ENDBRANCH   6  11
ENDBRANCH   1   5
BRANCH   3  23
ATOM     23  C   UNL A   1      31.566  30.719  26.037  1.00  0.00     0.117 C 
BRANCH  23  24
ATOM     24  C   UNL A   1      31.346  32.142  26.518  1.00  0.00     0.042 C 
BRANCH  24  25
ATOM     25  C   UNL A   1      32.542  32.754  27.235  1.00  0.00     0.118 C 
BRANCH  25  26
ATOM     26  N   UNL A   1      32.325  34.140  27.631  1.00  0.00    -0.352 N 
ATOM     27  C   UNL A   1      32.964  34.889  28.588  1.00  0.00     0.251 C 
ATOM     28  H   UNL A   1      31.614  34.610  27.139  1.00  0.00     0.163 HD
ATOM     29  O   UNL A   1      32.528  35.994  28.900  1.00  0.00    -0.269 OA
BRANCH  27  30
ATOM     30  C   UNL A   1      34.157  34.344  29.265  1.00  0.00     0.039 A 
ATOM     31  C   UNL A   1      33.995  33.613  30.443  1.00  0.00     0.014 A 
ATOM     32  C   UNL A   1      35.428  34.527  28.718  1.00  0.00     0.014 A 
ATOM     33  C   UNL A   1      35.102  32.996  31.026  1.00  0.00     0.010 A 
ATOM     34  C   UNL A   1      36.507  33.821  29.234  1.00  0.00     0.010 A 
ATOM     35  C   UNL A   1      36.359  33.057  30.401  1.00  0.00    -0.014 A 
BRANCH  35  36
ATOM     36  C   UNL A   1      37.539  32.350  30.957  1.00  0.00     0.031 A 
ATOM     37  C   UNL A   1      38.204  32.870  32.203  1.00  0.00     0.074 A 
ATOM     38  C   UNL A   1      38.052  31.286  30.308  1.00  0.00     0.049 A 
ATOM     39  N   UNL A   1      39.289  32.445  32.800  1.00  0.00    -0.248 NA
ATOM     40  C   UNL A   1      37.590  34.045  32.842  1.00  0.00     0.031 C 
ATOM     41  C   UNL A   1      37.531  30.718  29.063  1.00  0.00     0.029 A 
ATOM     42  N   UNL A   1      39.135  30.497  30.603  1.00  0.00    -0.354 N 
ATOM     43  C   UNL A   1      39.493  33.309  33.868  1.00  0.00     0.074 A 
ATOM     44  C   UNL A   1      38.462  34.320  33.799  1.00  0.00     0.031 C 
ATOM     45  C   UNL A   1      38.275  29.655  28.718  1.00  0.00     0.029 A 
ATOM     46  C   UNL A   1      39.351  29.492  29.691  1.00  0.00     0.049 A 
ATOM     47  H   UNL A   1      39.705  30.637  31.394  1.00  0.00     0.167 HD
ATOM     48  C   UNL A   1      40.435  33.250  34.838  1.00  0.00     0.037 A 
ATOM     49  C   UNL A   1      40.311  28.551  29.641  1.00  0.00     0.037 A 
ATOM     50  C   UNL A   1      41.441  32.224  34.921  1.00  0.00     0.049 A 
ATOM     51  C   UNL A   1      41.351  28.508  30.727  1.00  0.00     0.074 A 
ATOM     52  C   UNL A   1      42.404  32.039  35.896  1.00  0.00     0.029 A 
ATOM     53  N   UNL A   1      41.613  31.212  33.988  1.00  0.00    -0.354 N 
ATOM     54  N   UNL A   1      41.490  29.290  31.772  1.00  0.00    -0.248 NA
ATOM     55  C   UNL A   1      42.364  27.447  30.633  1.00  0.00     0.031 C 
ATOM     56  C   UNL A   1      43.192  30.943  35.528  1.00  0.00     0.029 A 
ATOM     57  C   UNL A   1      42.682  30.411  34.354  1.00  0.00     0.049 A 
ATOM     58  H   UNL A   1      41.058  31.082  33.186  1.00  0.00     0.167 HD
ATOM     59  C   UNL A   1      42.582  28.797  32.474  1.00  0.00     0.074 A 
ATOM     60  C   UNL A   1      43.061  27.641  31.744  1.00  0.00     0.031 C 
ATOM     61  C   UNL A   1      43.138  29.257  33.621  1.00  0.00     0.037 A 
BRANCH  48  62
ATOM     62  C   UNL A   1      40.416  34.321  35.890  1.00  0.00     0.057 A 
ATOM     63  C   UNL A   1      39.620  34.216  37.041  1.00  0.00     0.134 A 
ATOM     64  C   UNL A   1      41.219  35.461  35.765  1.00  0.00     0.134 A 
ATOM     65  F   UNL A   1      38.816  33.156  37.217  1.00  0.00    -0.206 F 
ATOM     66  C   UNL A   1      39.603  35.218  38.011  1.00  0.00     0.040 A 
ATOM     67  C   UNL A   1      41.234  36.455  36.745  1.00  0.00     0.040 A 
ATOM     68  F   UNL A   1      42.008  35.625  34.693  1.00  0.00    -0.206 F 
ATOM     69  C   UNL A   1      40.419  36.339  37.868  1.00  0.00     0.006 A 
ENDBRANCH  48  62
BRANCH  49  70
ATOM     70  C   UNL A   1      40.324  27.555  28.539  1.00  0.00     0.057 A 
ATOM     71  C   UNL A   1      39.613  26.353  28.642  1.00  0.00     0.134 A 
ATOM     72  C   UNL A   1      41.054  27.770  27.364  1.00  0.00     0.134 A 
ATOM     73  F   UNL A   1      38.907  26.080  29.750  1.00  0.00    -0.206 F 
ATOM     74  C   UNL A   1      39.646  25.393  27.631  1.00  0.00     0.040 A 
ATOM     75  C   UNL A   1      41.074  26.831  26.332  1.00  0.00     0.040 A 
ATOM     76  F   UNL A   1      41.750  28.905  27.197  1.00  0.00    -0.206 F 
ATOM     77  C   UNL A   1      40.375  25.633  26.468  1.00  0.00     0.006 A 
ENDBRANCH  49  70
BRANCH  61  78
ATOM     78  C   UNL A   1      44.298  28.488  34.183  1.00  0.00     0.057 A 
ATOM     79  C   UNL A   1      45.626  28.851  33.926  1.00  0.00     0.134 A 
ATOM     80  C   UNL A   1      44.079  27.391  35.027  1.00  0.00     0.134 A 
ATOM     81  F   UNL A   1      45.904  29.884  33.115  1.00  0.00    -0.206 F 
ATOM     82  C   UNL A   1      46.695  28.136  34.469  1.00  0.00     0.040 A 
ATOM     83  C   UNL A   1      45.138  26.688  35.600  1.00  0.00     0.040 A 
ATOM     84  F   UNL A   1      42.831  26.996  35.322  1.00  0.00    -0.206 F 
ATOM     85  C   UNL A   1      46.452  27.056  35.316  1.00  0.00     0.006 A 
ENDBRANCH  61  78
ENDBRANCH  35  36
ENDBRANCH  27  30
ENDBRANCH  25  26
ENDBRANCH  24  25
ENDBRANCH  23  24
ENDBRANCH   3  23
TORSDOF 15
ENDMDL
MODEL 3
REMARK VINA RESULT:     -11.6      1.543      6.701
REMARK SMILES Cc1noc(C)c1CSCC(=O)N1CC[C@H](C(=O)NCCCNC(=O)c2ccc(-c3c4nc(c(-c5c(F)cccc5F)c5ccc([nH]5)c(-c5c(F)cccc5F)c5nc(c(-c6c(F)cccc6F)c6ccc3[nH]6)C=C5)C=C4)cc2)[C@@H]1C
REMARK SMILES IDX 17 1 18 2 19 3 16 5 13 6 14 7 80 8 15 9 81 10 11 11 12 12
REMARK SMILES IDX 10 13 9 14 8 15 7 16 1 17 2 18 3 19 4 20 5 21 6 22 20 23
REMARK SMILES IDX 21 24 22 25 23 26 24 27 25 29 26 30 27 31 79 32 28 33 78 34
REMARK SMILES IDX 29 35 30 36 31 37 72 38 32 39 77 40 71 41 73 42 33 43 76 44
REMARK SMILES IDX 70 45 69 46 34 48 60 49 43 50 59 51 44 52 47 53 58 54 74 55
REMARK SMILES IDX 45 56 46 57 57 59 75 60 48 61 35 62 36 63 41 64 37 65 38 66
REMARK SMILES IDX 40 67 42 68 39 69 61 70 62 71 67 72 63 73 64 74 66 75 68 76
REMARK SMILES IDX 65 77 49 78 50 79 55 80 51 81 52 82 54 83 56 84 53 85
REMARK H PARENT 19 4 23 28 73 47 47 58
REMARK Flexibility Score: inf
ROOT
ATOM      1  C   UNL A   1      36.248  23.129  25.859  1.00  0.00     0.225 C 
ATOM      2  O   UNL A   1      36.929  24.101  26.180  1.00  0.00    -0.275 OA
ATOM      3  N   UNL A   1      36.906  21.946  25.923  1.00  0.00    -0.356 N 
ATOM      4  H   UNL A   1      37.744  21.978  26.438  1.00  0.00     0.163 HD
ENDROOT
BRANCH   1   5
ATOM      5  C   UNL A   1      34.803  23.193  25.345  1.00  0.00     0.102 C 
ATOM      6  N   UNL A   1      34.103  24.887  23.769  1.00  0.00    -0.338 N 
ATOM      7  C   UNL A   1      34.208  25.499  25.074  1.00  0.00     0.120 C 
ATOM      8  C   UNL A   1      34.582  23.488  23.819  1.00  0.00     0.094 C 
ATOM      9  C   UNL A   1      34.024  24.334  26.019  1.00  0.00     0.037 C 
ATOM     10  C   UNL A   1      35.831  23.278  22.964  1.00  0.00     0.032 C 
BRANCH   6  11
ATOM     11  C   UNL A   1      33.549  25.637  22.753  1.00  0.00     0.232 C 
ATOM     12  O   UNL A   1      33.285  25.100  21.670  1.00  0.00    -0.274 OA
BRANCH  11  13
ATOM     13  C   UNL A   1      33.461  27.148  22.854  1.00  0.00     0.170 C 
BRANCH  13  14
ATOM     14  S   UNL A   1      31.882  27.937  22.497  1.00  0.00    -0.147 SA
BRANCH  14  15
ATOM     15  C   UNL A   1      31.518  28.736  24.092  1.00  0.00     0.111 C 
BRANCH  15  16
ATOM     16  C   UNL A   1      31.347  27.796  25.218  1.00  0.00     0.027 A 
ATOM     17  C   UNL A   1      29.829  25.922  24.199  1.00  0.00     0.071 C 
ATOM     18  C   UNL A   1      30.603  26.584  25.277  1.00  0.00     0.085 A 
ATOM     19  N   UNL A   1      30.646  26.045  26.501  1.00  0.00    -0.085 NA
ATOM     20  O   UNL A   1      31.397  26.911  27.271  1.00  0.00    -0.361 OA
ATOM     21  C   UNL A   1      31.803  27.960  26.509  1.00  0.00     0.137 A 
ATOM     22  C   UNL A   1      32.573  29.016  27.195  1.00  0.00     0.091 C 
ENDBRANCH  15  16
ENDBRANCH  14  15
ENDBRANCH  13  14
ENDBRANCH  11  13
ENDBRANCH   6  11
ENDBRANCH   1   5
BRANCH   3  23
ATOM     23  C   UNL A   1      36.601  20.644  25.369  1.00  0.00     0.117 C 
BRANCH  23  24
ATOM     24  C   UNL A   1      37.861  19.916  24.937  1.00  0.00     0.042 C 
BRANCH  24  25
ATOM     25  C   UNL A   1      39.098  20.265  25.754  1.00  0.00     0.118 C 
BRANCH  25  26
ATOM     26  N   UNL A   1      40.057  19.171  25.838  1.00  0.00    -0.352 N 
ATOM     27  C   UNL A   1      41.414  19.207  26.050  1.00  0.00     0.251 C 
ATOM     28  H   UNL A   1      39.675  18.270  25.728  1.00  0.00     0.163 HD
ATOM     29  O   UNL A   1      42.086  18.189  25.919  1.00  0.00    -0.269 OA
BRANCH  27  30
ATOM     30  C   UNL A   1      42.063  20.486  26.400  1.00  0.00     0.039 A 
ATOM     31  C   UNL A   1      42.521  21.318  25.377  1.00  0.00     0.014 A 
ATOM     32  C   UNL A   1      42.189  20.875  27.735  1.00  0.00     0.014 A 
ATOM     33  C   UNL A   1      43.030  22.578  25.693  1.00  0.00     0.010 A 
ATOM     34  C   UNL A   1      42.589  22.169  28.038  1.00  0.00     0.010 A 
ATOM     35  C   UNL A   1      43.026  23.032  27.022  1.00  0.00    -0.014 A 
BRANCH  35  36
ATOM     36  C   UNL A   1      43.492  24.394  27.379  1.00  0.00     0.031 A 
ATOM     37  C   UNL A   1      42.496  25.437  27.809  1.00  0.00     0.074 A 
ATOM     38  C   UNL A   1      44.795  24.713  27.252  1.00  0.00     0.049 A 
ATOM     39  N   UNL A   1      42.689  26.702  28.084  1.00  0.00    -0.248 NA
ATOM     40  C   UNL A   1      41.090  25.011  27.908  1.00  0.00     0.031 C 
ATOM     41  C   UNL A   1      45.851  23.808  26.794  1.00  0.00     0.029 A 
ATOM     42  N   UNL A   1      45.453  25.894  27.488  1.00  0.00    -0.354 N 
ATOM     43  C   UNL A   1      41.433  27.221  28.369  1.00  0.00     0.074 A 
ATOM     44  C   UNL A   1      40.477  26.155  28.169  1.00  0.00     0.031 C 
ATOM     45  C   UNL A   1      47.026  24.456  26.812  1.00  0.00     0.029 A 
ATOM     46  C   UNL A   1      46.803  25.834  27.240  1.00  0.00     0.049 A 
ATOM     47  H   UNL A   1      45.000  26.709  27.806  1.00  0.00     0.167 HD
ATOM     48  C   UNL A   1      41.105  28.465  28.789  1.00  0.00     0.037 A 
ATOM     49  C   UNL A   1      47.751  26.783  27.339  1.00  0.00     0.037 A 
ATOM     50  C   UNL A   1      42.062  29.515  29.017  1.00  0.00     0.049 A 
ATOM     51  C   UNL A   1      47.362  28.161  27.803  1.00  0.00     0.074 A 
ATOM     52  C   UNL A   1      41.841  30.792  29.500  1.00  0.00     0.029 A 
ATOM     53  N   UNL A   1      43.423  29.408  28.773  1.00  0.00    -0.354 N 
ATOM     54  N   UNL A   1      46.179  28.618  28.137  1.00  0.00    -0.248 NA
ATOM     55  C   UNL A   1      48.442  29.152  27.911  1.00  0.00     0.031 C 
ATOM     56  C   UNL A   1      43.062  31.475  29.501  1.00  0.00     0.029 A 
ATOM     57  C   UNL A   1      44.052  30.604  29.075  1.00  0.00     0.049 A 
ATOM     58  H   UNL A   1      43.875  28.601  28.435  1.00  0.00     0.167 HD
ATOM     59  C   UNL A   1      46.377  29.937  28.525  1.00  0.00     0.074 A 
ATOM     60  C   UNL A   1      47.795  30.202  28.397  1.00  0.00     0.031 C 
ATOM     61  C   UNL A   1      45.467  30.847  28.951  1.00  0.00     0.037 A 
BRANCH  48  62
ATOM     62  C   UNL A   1      39.652  28.754  29.037  1.00  0.00     0.057 A 
ATOM     63  C   UNL A   1      39.068  28.591  30.301  1.00  0.00     0.134 A 
ATOM     64  C   UNL A   1      38.830  29.223  28.005  1.00  0.00     0.134 A 
ATOM     65  F   UNL A   1      39.796  28.132  31.331  1.00  0.00    -0.206 F 
ATOM     66  C   UNL A   1      37.717  28.856  30.522  1.00  0.00     0.040 A 
ATOM     67  C   UNL A   1      37.484  29.521  28.221  1.00  0.00     0.040 A 
ATOM     68  F   UNL A   1      39.323  29.406  26.771  1.00  0.00    -0.206 F 
ATOM     69  C   UNL A   1      36.922  29.331  29.481  1.00  0.00     0.006 A 
ENDBRANCH  48  62
BRANCH  49  70
ATOM     70  C   UNL A   1      49.165  26.463  27.016  1.00  0.00     0.057 A 
ATOM     71  C   UNL A   1      49.643  26.547  25.702  1.00  0.00     0.134 A 
ATOM     72  C   UNL A   1      50.069  26.054  28.003  1.00  0.00     0.134 A 
ATOM     73  F   UNL A   1      48.822  26.917  24.708  1.00  0.00    -0.206 F 
ATOM     74  C   UNL A   1      50.959  26.214  25.378  1.00  0.00     0.040 A 
ATOM     75  C   UNL A   1      51.396  25.744  27.698  1.00  0.00     0.040 A 
ATOM     76  F   UNL A   1      49.678  25.962  29.283  1.00  0.00    -0.206 F 
ATOM     77  C   UNL A   1      51.841  25.815  26.380  1.00  0.00     0.006 A 
ENDBRANCH  49  70
BRANCH  61  78
ATOM     78  C   UNL A   1      45.980  32.200  29.353  1.00  0.00     0.057 A 
ATOM     79  C   UNL A   1      46.052  33.266  28.448  1.00  0.00     0.134 A 
ATOM     80  C   UNL A   1      46.369  32.446  30.676  1.00  0.00     0.134 A 
ATOM     81  F   UNL A   1      45.707  33.092  27.162  1.00  0.00    -0.206 F 
ATOM     82  C   UNL A   1      46.516  34.523  28.839  1.00  0.00     0.040 A 
ATOM     83  C   UNL A   1      46.804  33.706  31.086  1.00  0.00     0.040 A 
ATOM     84  F   UNL A   1      46.315  31.471  31.596  1.00  0.00    -0.206 F 
ATOM     85  C   UNL A   1      46.885  34.748  30.164  1.00  0.00     0.006 A 
ENDBRANCH  61  78
ENDBRANCH  35  36
ENDBRANCH  27  30
ENDBRANCH  25  26
ENDBRANCH  24  25
ENDBRANCH  23  24
ENDBRANCH   3  23
TORSDOF 15
ENDMDL
