MODEL 1
REMARK VINA RESULT:     -10.8      0.000      0.000
REMARK SMILES C[C@@H]([NH+]1CCC(CCC(=O)NCCCNC(=O)c2ccc(-c3c4nc(c(-c5c(F)cccc5F)c5ccc([nH]5)c(-c5c(F)cccc5F)c5nc(c(-c6c(F)cccc6F)c6ccc3[nH]6)C=C5)C=C4)cc2)CC1)C1(C)CC1
REMARK SMILES IDX 12 1 11 2 9 3 10 4 8 6 7 7 6 8 3 9 4 10 73 11 5 13 72 14
REMARK SMILES IDX 2 15 1 16 74 17 75 18 76 19 77 20 13 21 14 22 15 23 16 24
REMARK SMILES IDX 17 26 18 27 19 28 71 29 20 30 70 31 21 32 22 33 23 34 64 35
REMARK SMILES IDX 24 36 69 37 63 38 65 39 25 40 68 41 62 42 61 43 26 45 52 46
REMARK SMILES IDX 35 47 51 48 36 49 39 50 50 51 66 52 37 53 38 54 49 56 67 57
REMARK SMILES IDX 40 58 27 59 28 60 33 61 29 62 30 63 32 64 34 65 31 66 53 67
REMARK SMILES IDX 54 68 59 69 55 70 56 71 58 72 60 73 57 74 41 75 42 76 47 77
REMARK SMILES IDX 43 78 44 79 46 80 48 81 45 82
REMARK H PARENT 11 5 3 12 15 25 65 44 39 55
REMARK Flexibility Score: inf
ROOT
ATOM      1  C   UNL A   1      32.720  29.404  24.987  1.00  0.00     0.117 C 
ENDROOT
BRANCH   1   2
ATOM      2  N   UNL A   1      31.421  30.035  24.796  1.00  0.00    -0.356 N 
ATOM      3  C   UNL A   1      30.423  29.789  23.901  1.00  0.00     0.220 C 
ATOM      4  O   UNL A   1      29.469  30.572  23.880  1.00  0.00    -0.275 OA
ATOM      5  H   UNL A   1      31.231  30.769  25.424  1.00  0.00     0.163 HD
BRANCH   3   6
ATOM      6  C   UNL A   1      30.453  28.585  22.972  1.00  0.00     0.100 C 
BRANCH   6   7
ATOM      7  C   UNL A   1      29.728  27.345  23.524  1.00  0.00     0.014 C 
BRANCH   7   8
ATOM      8  C   UNL A   1      30.530  26.061  23.318  1.00  0.00     0.000 C 
ATOM      9  N   UNL A   1      32.613  24.041  23.333  1.00  0.00    -0.332 N 
ATOM     10  C   UNL A   1      32.436  24.912  22.174  1.00  0.00     0.262 C 
ATOM     11  C   UNL A   1      31.443  23.914  24.206  1.00  0.00     0.262 C 
ATOM     12  H   UNL A   1      33.258  24.526  23.957  1.00  0.00     0.348 HD
ATOM     13  C   UNL A   1      31.839  26.267  22.551  1.00  0.00     0.065 C 
ATOM     14  C   UNL A   1      30.850  25.280  24.594  1.00  0.00     0.065 C 
BRANCH   9  15
ATOM     15  C   UNL A   1      33.293  22.783  22.972  1.00  0.00     0.186 C 
ATOM     16  C   UNL A   1      32.374  21.551  22.931  1.00  0.00     0.076 C 
BRANCH  15  17
ATOM     17  C   UNL A   1      34.552  22.619  23.853  1.00  0.00     0.019 C 
ATOM     18  C   UNL A   1      34.501  21.492  24.869  1.00  0.00     0.018 C 
ATOM     19  C   UNL A   1      35.932  23.050  23.379  1.00  0.00     0.013 C 
ATOM     20  C   UNL A   1      35.184  23.910  24.351  1.00  0.00     0.013 C 
ENDBRANCH  15  17
ENDBRANCH   9  15
ENDBRANCH   7   8
ENDBRANCH   6   7
ENDBRANCH   3   6
ENDBRANCH   1   2
BRANCH   1  21
ATOM     21  C   UNL A   1      32.647  28.313  26.064  1.00  0.00     0.042 C 
BRANCH  21  22
ATOM     22  C   UNL A   1      33.544  28.552  27.268  1.00  0.00     0.118 C 
BRANCH  22  23
ATOM     23  N   UNL A   1      33.624  29.963  27.617  1.00  0.00    -0.352 N 
ATOM     24  C   UNL A   1      34.606  30.698  28.241  1.00  0.00     0.251 C 
ATOM     25  H   UNL A   1      32.831  30.487  27.361  1.00  0.00     0.163 HD
ATOM     26  O   UNL A   1      34.329  31.832  28.624  1.00  0.00    -0.269 OA
BRANCH  24  27
ATOM     27  C   UNL A   1      35.973  30.167  28.486  1.00  0.00     0.039 A 
ATOM     28  C   UNL A   1      36.891  30.182  27.425  1.00  0.00     0.014 A 
ATOM     29  C   UNL A   1      36.353  29.586  29.696  1.00  0.00     0.014 A 
ATOM     30  C   UNL A   1      38.190  29.691  27.604  1.00  0.00     0.010 A 
ATOM     31  C   UNL A   1      37.673  29.178  29.902  1.00  0.00     0.010 A 
ATOM     32  C   UNL A   1      38.609  29.225  28.859  1.00  0.00    -0.014 A 
BRANCH  32  33
ATOM     33  C   UNL A   1      40.017  28.808  29.107  1.00  0.00     0.031 A 
ATOM     34  C   UNL A   1      41.013  29.768  29.699  1.00  0.00     0.074 A 
ATOM     35  C   UNL A   1      40.423  27.580  28.723  1.00  0.00     0.049 A 
ATOM     36  N   UNL A   1      42.303  29.618  29.877  1.00  0.00    -0.248 NA
ATOM     37  C   UNL A   1      40.499  31.080  30.122  1.00  0.00     0.031 C 
ATOM     38  C   UNL A   1      39.573  26.565  28.099  1.00  0.00     0.029 A 
ATOM     39  N   UNL A   1      41.660  26.985  28.781  1.00  0.00    -0.354 N 
ATOM     40  C   UNL A   1      42.755  30.819  30.411  1.00  0.00     0.074 A 
ATOM     41  C   UNL A   1      41.612  31.702  30.492  1.00  0.00     0.031 C 
ATOM     42  C   UNL A   1      40.307  25.471  27.843  1.00  0.00     0.029 A 
ATOM     43  C   UNL A   1      41.688  25.722  28.243  1.00  0.00     0.049 A 
ATOM     44  H   UNL A   1      42.451  27.423  29.171  1.00  0.00     0.167 HD
ATOM     45  C   UNL A   1      44.006  31.151  30.813  1.00  0.00     0.037 A 
ATOM     46  C   UNL A   1      42.712  24.864  28.070  1.00  0.00     0.037 A 
ATOM     47  C   UNL A   1      45.139  30.263  30.767  1.00  0.00     0.049 A 
ATOM     48  C   UNL A   1      44.091  25.260  28.515  1.00  0.00     0.074 A 
ATOM     49  C   UNL A   1      46.426  30.482  31.229  1.00  0.00     0.029 A 
ATOM     50  N   UNL A   1      45.123  28.987  30.224  1.00  0.00    -0.354 N 
ATOM     51  N   UNL A   1      44.490  26.375  29.077  1.00  0.00    -0.248 NA
ATOM     52  C   UNL A   1      45.165  24.279  28.300  1.00  0.00     0.031 C 
ATOM     53  C   UNL A   1      47.199  29.357  30.928  1.00  0.00     0.029 A 
ATOM     54  C   UNL A   1      46.384  28.420  30.313  1.00  0.00     0.049 A 
ATOM     55  H   UNL A   1      44.333  28.550  29.833  1.00  0.00     0.167 HD
ATOM     56  C   UNL A   1      45.853  26.226  29.295  1.00  0.00     0.074 A 
ATOM     57  C   UNL A   1      46.211  24.904  28.823  1.00  0.00     0.031 C 
ATOM     58  C   UNL A   1      46.729  27.106  29.835  1.00  0.00     0.037 A 
BRANCH  45  59
ATOM     59  C   UNL A   1      44.222  32.537  31.348  1.00  0.00     0.057 A 
ATOM     60  C   UNL A   1      44.183  32.813  32.720  1.00  0.00     0.134 A 
ATOM     61  C   UNL A   1      44.522  33.597  30.483  1.00  0.00     0.134 A 
ATOM     62  F   UNL A   1      43.893  31.843  33.600  1.00  0.00    -0.206 F 
ATOM     63  C   UNL A   1      44.414  34.100  33.213  1.00  0.00     0.040 A 
ATOM     64  C   UNL A   1      44.778  34.883  30.966  1.00  0.00     0.040 A 
ATOM     65  F   UNL A   1      44.583  33.401  29.158  1.00  0.00    -0.206 F 
ATOM     66  C   UNL A   1      44.719  35.137  32.335  1.00  0.00     0.006 A 
ENDBRANCH  45  59
BRANCH  46  67
ATOM     67  C   UNL A   1      42.471  23.541  27.444  1.00  0.00     0.057 A 
ATOM     68  C   UNL A   1      42.574  23.368  26.059  1.00  0.00     0.134 A 
ATOM     69  C   UNL A   1      42.131  22.420  28.210  1.00  0.00     0.134 A 
ATOM     70  F   UNL A   1      42.875  24.411  25.271  1.00  0.00    -0.206 F 
ATOM     71  C   UNL A   1      42.333  22.133  25.455  1.00  0.00     0.040 A 
ATOM     72  C   UNL A   1      41.912  21.172  27.624  1.00  0.00     0.040 A 
ATOM     73  F   UNL A   1      42.022  22.518  29.544  1.00  0.00    -0.206 F 
ATOM     74  C   UNL A   1      42.007  21.029  26.240  1.00  0.00     0.006 A 
ENDBRANCH  46  67
BRANCH  58  75
ATOM     75  C   UNL A   1      48.157  26.666  29.953  1.00  0.00     0.057 A 
ATOM     76  C   UNL A   1      49.108  26.986  28.974  1.00  0.00     0.134 A 
ATOM     77  C   UNL A   1      48.595  25.943  31.069  1.00  0.00     0.134 A 
ATOM     78  F   UNL A   1      48.748  27.663  27.874  1.00  0.00    -0.206 F 
ATOM     79  C   UNL A   1      50.439  26.587  29.095  1.00  0.00     0.040 A 
ATOM     80  C   UNL A   1      49.929  25.558  31.212  1.00  0.00     0.040 A 
ATOM     81  F   UNL A   1      47.736  25.610  32.045  1.00  0.00    -0.206 F 
ATOM     82  C   UNL A   1      50.855  25.876  30.220  1.00  0.00     0.006 A 
ENDBRANCH  58  75
ENDBRANCH  32  33
ENDBRANCH  24  27
ENDBRANCH  22  23
ENDBRANCH  21  22
ENDBRANCH   1  21
TORSDOF 14
ENDMDL
MODEL 2
REMARK VINA RESULT:     -10.7      3.751      7.553
REMARK SMILES C[C@@H]([NH+]1CCC(CCC(=O)NCCCNC(=O)c2ccc(-c3c4nc(c(-c5c(F)cccc5F)c5ccc([nH]5)c(-c5c(F)cccc5F)c5nc(c(-c6c(F)cccc6F)c6ccc3[nH]6)C=C5)C=C4)cc2)CC1)C1(C)CC1
REMARK SMILES IDX 12 1 11 2 9 3 10 4 8 6 7 7 6 8 3 9 4 10 73 11 5 13 72 14
REMARK SMILES IDX 2 15 1 16 74 17 75 18 76 19 77 20 13 21 14 22 15 23 16 24
REMARK SMILES IDX 17 26 18 27 19 28 71 29 20 30 70 31 21 32 22 33 23 34 64 35
REMARK SMILES IDX 24 36 69 37 63 38 65 39 25 40 68 41 62 42 61 43 26 45 52 46
REMARK SMILES IDX 35 47 51 48 36 49 39 50 50 51 66 52 37 53 38 54 49 56 67 57
REMARK SMILES IDX 40 58 27 59 28 60 33 61 29 62 30 63 32 64 34 65 31 66 53 67
REMARK SMILES IDX 54 68 59 69 55 70 56 71 58 72 60 73 57 74 41 75 42 76 47 77
REMARK SMILES IDX 43 78 44 79 46 80 48 81 45 82
REMARK H PARENT 11 5 3 12 15 25 65 44 39 55
REMARK Flexibility Score: inf
ROOT
ATOM      1  C   UNL A   1      31.323  30.428  25.584  1.00  0.00     0.117 C 
ENDROOT
BRANCH   1   2
ATOM      2  N   UNL A   1      30.623  30.399  24.307  1.00  0.00    -0.356 N 
ATOM      3  C   UNL A   1      30.319  29.366  23.471  1.00  0.00     0.220 C 
ATOM      4  O   UNL A   1      29.824  29.645  22.375  1.00  0.00    -0.275 OA
ATOM      5  H   UNL A   1      30.316  31.279  23.992  1.00  0.00     0.163 HD
BRANCH   3   6
ATOM      6  C   UNL A   1      30.549  27.915  23.865  1.00  0.00     0.100 C 
BRANCH   6   7
ATOM      7  C   UNL A   1      31.493  27.146  22.923  1.00  0.00     0.014 C 
BRANCH   7   8
ATOM      8  C   UNL A   1      32.261  26.039  23.644  1.00  0.00     0.000 C 
ATOM      9  N   UNL A   1      34.316  24.193  24.531  1.00  0.00    -0.332 N 
ATOM     10  C   UNL A   1      33.337  23.784  23.527  1.00  0.00     0.262 C 
ATOM     11  C   UNL A   1      33.916  25.325  25.371  1.00  0.00     0.262 C 
ATOM     12  H   UNL A   1      35.093  24.608  24.018  1.00  0.00     0.348 HD
ATOM     13  C   UNL A   1      32.817  24.964  22.708  1.00  0.00     0.065 C 
ATOM     14  C   UNL A   1      33.402  26.517  24.543  1.00  0.00     0.065 C 
BRANCH   9  15
ATOM     15  C   UNL A   1      34.893  23.033  25.237  1.00  0.00     0.186 C 
ATOM     16  C   UNL A   1      34.570  22.977  26.739  1.00  0.00     0.076 C 
BRANCH  15  17
ATOM     17  C   UNL A   1      36.396  22.931  24.895  1.00  0.00     0.019 C 
ATOM     18  C   UNL A   1      37.316  23.826  25.706  1.00  0.00     0.018 C 
ATOM     19  C   UNL A   1      37.009  21.664  24.317  1.00  0.00     0.013 C 
ATOM     20  C   UNL A   1      36.733  22.828  23.416  1.00  0.00     0.013 C 
ENDBRANCH  15  17
ENDBRANCH   9  15
ENDBRANCH   7   8
ENDBRANCH   6   7
ENDBRANCH   3   6
ENDBRANCH   1   2
BRANCH   1  21
ATOM     21  C   UNL A   1      31.239  31.821  26.223  1.00  0.00     0.042 C 
BRANCH  21  22
ATOM     22  C   UNL A   1      32.506  32.268  26.936  1.00  0.00     0.118 C 
BRANCH  22  23
ATOM     23  N   UNL A   1      32.420  33.650  27.384  1.00  0.00    -0.352 N 
ATOM     24  C   UNL A   1      33.107  34.343  28.354  1.00  0.00     0.251 C 
ATOM     25  H   UNL A   1      31.748  34.187  26.906  1.00  0.00     0.163 HD
ATOM     26  O   UNL A   1      32.682  35.445  28.693  1.00  0.00    -0.269 OA
BRANCH  24  27
ATOM     27  C   UNL A   1      34.323  33.802  29.018  1.00  0.00     0.039 A 
ATOM     28  C   UNL A   1      34.159  32.810  29.996  1.00  0.00     0.014 A 
ATOM     29  C   UNL A   1      35.604  34.292  28.765  1.00  0.00     0.014 A 
ATOM     30  C   UNL A   1      35.272  32.270  30.653  1.00  0.00     0.010 A 
ATOM     31  C   UNL A   1      36.720  33.693  29.354  1.00  0.00     0.010 A 
ATOM     32  C   UNL A   1      36.569  32.674  30.305  1.00  0.00    -0.014 A 
BRANCH  32  33
ATOM     33  C   UNL A   1      37.774  32.034  30.903  1.00  0.00     0.031 A 
ATOM     34  C   UNL A   1      38.522  30.958  30.162  1.00  0.00     0.074 A 
ATOM     35  C   UNL A   1      38.149  32.363  32.156  1.00  0.00     0.049 A 
ATOM     36  N   UNL A   1      39.518  30.211  30.571  1.00  0.00    -0.248 NA
ATOM     37  C   UNL A   1      38.079  30.666  28.790  1.00  0.00     0.031 C 
ATOM     38  C   UNL A   1      37.488  33.358  33.002  1.00  0.00     0.029 A 
ATOM     39  N   UNL A   1      39.166  31.882  32.944  1.00  0.00    -0.354 N 
ATOM     40  C   UNL A   1      39.804  29.349  29.519  1.00  0.00     0.074 A 
ATOM     41  C   UNL A   1      38.853  29.638  28.467  1.00  0.00     0.031 C 
ATOM     42  C   UNL A   1      38.121  33.422  34.183  1.00  0.00     0.029 A 
ATOM     43  C   UNL A   1      39.204  32.445  34.196  1.00  0.00     0.049 A 
ATOM     44  H   UNL A   1      39.807  31.200  32.639  1.00  0.00     0.167 HD
ATOM     45  C   UNL A   1      40.781  28.414  29.430  1.00  0.00     0.037 A 
ATOM     46  C   UNL A   1      40.006  32.191  35.248  1.00  0.00     0.037 A 
ATOM     47  C   UNL A   1      41.751  28.148  30.461  1.00  0.00     0.049 A 
ATOM     48  C   UNL A   1      41.074  31.141  35.127  1.00  0.00     0.074 A 
ATOM     49  C   UNL A   1      42.827  27.277  30.428  1.00  0.00     0.029 A 
ATOM     50  N   UNL A   1      41.760  28.746  31.711  1.00  0.00    -0.354 N 
ATOM     51  N   UNL A   1      41.372  30.380  34.103  1.00  0.00    -0.248 NA
ATOM     52  C   UNL A   1      41.917  30.913  36.310  1.00  0.00     0.031 C 
ATOM     53  C   UNL A   1      43.463  27.318  31.672  1.00  0.00     0.029 A 
ATOM     54  C   UNL A   1      42.806  28.243  32.467  1.00  0.00     0.049 A 
ATOM     55  H   UNL A   1      41.119  29.428  32.016  1.00  0.00     0.167 HD
ATOM     56  C   UNL A   1      42.442  29.595  34.510  1.00  0.00     0.074 A 
ATOM     57  C   UNL A   1      42.755  29.985  35.869  1.00  0.00     0.031 C 
ATOM     58  C   UNL A   1      43.104  28.634  33.821  1.00  0.00     0.037 A 
BRANCH  45  59
ATOM     59  C   UNL A   1      40.857  27.604  28.167  1.00  0.00     0.057 A 
ATOM     60  C   UNL A   1      41.612  28.025  27.066  1.00  0.00     0.134 A 
ATOM     61  C   UNL A   1      40.210  26.365  28.073  1.00  0.00     0.134 A 
ATOM     62  F   UNL A   1      42.248  29.205  27.089  1.00  0.00    -0.206 F 
ATOM     63  C   UNL A   1      41.703  27.253  25.905  1.00  0.00     0.040 A 
ATOM     64  C   UNL A   1      40.313  25.573  26.927  1.00  0.00     0.040 A 
ATOM     65  F   UNL A   1      39.478  25.899  29.095  1.00  0.00    -0.206 F 
ATOM     66  C   UNL A   1      41.058  26.020  25.837  1.00  0.00     0.006 A 
ENDBRANCH  45  59
BRANCH  46  67
ATOM     67  C   UNL A   1      39.829  32.946  36.513  1.00  0.00     0.057 A 
ATOM     68  C   UNL A   1      38.904  32.531  37.478  1.00  0.00     0.134 A 
ATOM     69  C   UNL A   1      40.575  34.099  36.787  1.00  0.00     0.134 A 
ATOM     70  F   UNL A   1      38.145  31.447  37.261  1.00  0.00    -0.206 F 
ATOM     71  C   UNL A   1      38.716  33.242  38.664  1.00  0.00     0.040 A 
ATOM     72  C   UNL A   1      40.415  34.806  37.980  1.00  0.00     0.040 A 
ATOM     73  F   UNL A   1      41.482  34.545  35.905  1.00  0.00    -0.206 F 
ATOM     74  C   UNL A   1      39.478  34.380  38.919  1.00  0.00     0.006 A 
ENDBRANCH  46  67
BRANCH  58  75
ATOM     75  C   UNL A   1      44.237  27.947  34.521  1.00  0.00     0.057 A 
ATOM     76  C   UNL A   1      45.538  28.464  34.495  1.00  0.00     0.134 A 
ATOM     77  C   UNL A   1      44.020  26.775  35.255  1.00  0.00     0.134 A 
ATOM     78  F   UNL A   1      45.814  29.575  33.796  1.00  0.00    -0.206 F 
ATOM     79  C   UNL A   1      46.588  27.829  35.161  1.00  0.00     0.040 A 
ATOM     80  C   UNL A   1      45.056  26.143  35.945  1.00  0.00     0.040 A 
ATOM     81  F   UNL A   1      42.795  26.231  35.326  1.00  0.00    -0.206 F 
ATOM     82  C   UNL A   1      46.346  26.668  35.894  1.00  0.00     0.006 A 
ENDBRANCH  58  75
ENDBRANCH  32  33
ENDBRANCH  24  27
ENDBRANCH  22  23
ENDBRANCH  21  22
ENDBRANCH   1  21
TORSDOF 14
ENDMDL
MODEL 3
REMARK VINA RESULT:     -10.7      3.300      7.531
REMARK SMILES C[C@@H]([NH+]1CCC(CCC(=O)NCCCNC(=O)c2ccc(-c3c4nc(c(-c5c(F)cccc5F)c5ccc([nH]5)c(-c5c(F)cccc5F)c5nc(c(-c6c(F)cccc6F)c6ccc3[nH]6)C=C5)C=C4)cc2)CC1)C1(C)CC1
REMARK SMILES IDX 12 1 11 2 9 3 10 4 8 6 7 7 6 8 3 9 4 10 73 11 5 13 72 14
REMARK SMILES IDX 2 15 1 16 74 17 75 18 76 19 77 20 13 21 14 22 15 23 16 24
REMARK SMILES IDX 17 26 18 27 19 28 71 29 20 30 70 31 21 32 22 33 23 34 64 35
REMARK SMILES IDX 24 36 69 37 63 38 65 39 25 40 68 41 62 42 61 43 26 45 52 46
REMARK SMILES IDX 35 47 51 48 36 49 39 50 50 51 66 52 37 53 38 54 49 56 67 57
REMARK SMILES IDX 40 58 27 59 28 60 33 61 29 62 30 63 32 64 34 65 31 66 53 67
REMARK SMILES IDX 54 68 59 69 55 70 56 71 58 72 60 73 57 74 41 75 42 76 47 77
REMARK SMILES IDX 43 78 44 79 46 80 48 81 45 82
REMARK H PARENT 11 5 3 12 15 25 65 44 39 55
REMARK Flexibility Score: inf
ROOT
ATOM      1  C   UNL A   1      36.152  20.391  25.001  1.00  0.00     0.117 C 
ENDROOT
BRANCH   1   2
ATOM      2  N   UNL A   1      34.952  19.567  25.030  1.00  0.00    -0.356 N 
ATOM      3  C   UNL A   1      33.649  19.863  24.760  1.00  0.00     0.220 C 
ATOM      4  O   UNL A   1      32.806  18.992  24.992  1.00  0.00    -0.275 OA
ATOM      5  H   UNL A   1      35.109  18.631  25.292  1.00  0.00     0.163 HD
BRANCH   3   6
ATOM      6  C   UNL A   1      33.233  21.201  24.169  1.00  0.00     0.100 C 
BRANCH   6   7
ATOM      7  C   UNL A   1      32.149  21.938  24.977  1.00  0.00     0.014 C 
BRANCH   7   8
ATOM      8  C   UNL A   1      32.265  23.457  24.858  1.00  0.00     0.000 C 
ATOM      9  N   UNL A   1      32.485  26.291  25.437  1.00  0.00    -0.332 N 
ATOM     10  C   UNL A   1      31.184  25.695  25.144  1.00  0.00     0.262 C 
ATOM     11  C   UNL A   1      33.644  25.536  24.955  1.00  0.00     0.262 C 
ATOM     12  H   UNL A   1      32.616  26.207  26.445  1.00  0.00     0.348 HD
ATOM     13  C   UNL A   1      31.121  24.219  25.531  1.00  0.00     0.065 C 
ATOM     14  C   UNL A   1      33.584  24.051  25.355  1.00  0.00     0.065 C 
BRANCH   9  15
ATOM     15  C   UNL A   1      32.496  27.741  25.164  1.00  0.00     0.186 C 
ATOM     16  C   UNL A   1      33.404  28.162  23.997  1.00  0.00     0.076 C 
BRANCH  15  17
ATOM     17  C   UNL A   1      32.748  28.502  26.485  1.00  0.00     0.019 C 
ATOM     18  C   UNL A   1      34.203  28.639  26.896  1.00  0.00     0.018 C 
ATOM     19  C   UNL A   1      31.788  29.562  27.003  1.00  0.00     0.013 C 
ATOM     20  C   UNL A   1      31.782  28.197  27.620  1.00  0.00     0.013 C 
ENDBRANCH  15  17
ENDBRANCH   9  15
ENDBRANCH   7   8
ENDBRANCH   6   7
ENDBRANCH   3   6
ENDBRANCH   1   2
BRANCH   1  21
ATOM     21  C   UNL A   1      37.413  19.522  24.912  1.00  0.00     0.042 C 
BRANCH  21  22
ATOM     22  C   UNL A   1      38.661  20.154  25.510  1.00  0.00     0.118 C 
BRANCH  22  23
ATOM     23  N   UNL A   1      39.707  19.171  25.751  1.00  0.00    -0.352 N 
ATOM     24  C   UNL A   1      41.039  19.310  26.069  1.00  0.00     0.251 C 
ATOM     25  H   UNL A   1      39.408  18.236  25.671  1.00  0.00     0.163 HD
ATOM     26  O   UNL A   1      41.761  18.319  25.992  1.00  0.00    -0.269 OA
BRANCH  24  27
ATOM     27  C   UNL A   1      41.635  20.609  26.477  1.00  0.00     0.039 A 
ATOM     28  C   UNL A   1      42.010  21.513  25.472  1.00  0.00     0.014 A 
ATOM     29  C   UNL A   1      41.907  20.932  27.807  1.00  0.00     0.014 A 
ATOM     30  C   UNL A   1      42.578  22.749  25.804  1.00  0.00     0.010 A 
ATOM     31  C   UNL A   1      42.391  22.198  28.143  1.00  0.00     0.010 A 
ATOM     32  C   UNL A   1      42.733  23.123  27.146  1.00  0.00    -0.014 A 
BRANCH  32  33
ATOM     33  C   UNL A   1      43.225  24.476  27.529  1.00  0.00     0.031 A 
ATOM     34  C   UNL A   1      42.264  25.554  27.957  1.00  0.00     0.074 A 
ATOM     35  C   UNL A   1      44.537  24.764  27.412  1.00  0.00     0.049 A 
ATOM     36  N   UNL A   1      42.498  26.817  28.212  1.00  0.00    -0.248 NA
ATOM     37  C   UNL A   1      40.851  25.167  28.091  1.00  0.00     0.031 C 
ATOM     38  C   UNL A   1      45.571  23.827  26.970  1.00  0.00     0.029 A 
ATOM     39  N   UNL A   1      45.224  25.932  27.636  1.00  0.00    -0.354 N 
ATOM     40  C   UNL A   1      41.263  27.379  28.515  1.00  0.00     0.074 A 
ATOM     41  C   UNL A   1      40.277  26.329  28.374  1.00  0.00     0.031 C 
ATOM     42  C   UNL A   1      46.759  24.451  26.965  1.00  0.00     0.029 A 
ATOM     43  C   UNL A   1      46.567  25.842  27.361  1.00  0.00     0.049 A 
ATOM     44  H   UNL A   1      44.794  26.755  27.963  1.00  0.00     0.167 HD
ATOM     45  C   UNL A   1      40.978  28.649  28.893  1.00  0.00     0.037 A 
ATOM     46  C   UNL A   1      47.536  26.777  27.403  1.00  0.00     0.037 A 
ATOM     47  C   UNL A   1      41.962  29.687  29.069  1.00  0.00     0.049 A 
ATOM     48  C   UNL A   1      47.191  28.180  27.815  1.00  0.00     0.074 A 
ATOM     49  C   UNL A   1      41.777  30.980  29.528  1.00  0.00     0.029 A 
ATOM     50  N   UNL A   1      43.313  29.552  28.789  1.00  0.00    -0.354 N 
ATOM     51  N   UNL A   1      46.030  28.679  28.159  1.00  0.00    -0.248 NA
ATOM     52  C   UNL A   1      48.294  29.153  27.841  1.00  0.00     0.031 C 
ATOM     53  C   UNL A   1      43.009  31.640  29.487  1.00  0.00     0.029 A 
ATOM     54  C   UNL A   1      43.968  30.746  29.039  1.00  0.00     0.049 A 
ATOM     55  H   UNL A   1      43.743  28.729  28.462  1.00  0.00     0.167 HD
ATOM     56  C   UNL A   1      46.261  30.015  28.457  1.00  0.00     0.074 A 
ATOM     57  C   UNL A   1      47.679  30.246  28.271  1.00  0.00     0.031 C 
ATOM     58  C   UNL A   1      45.378  30.966  28.845  1.00  0.00     0.037 A 
BRANCH  45  59
ATOM     59  C   UNL A   1      39.540  28.993  29.149  1.00  0.00     0.057 A 
ATOM     60  C   UNL A   1      38.972  28.889  30.425  1.00  0.00     0.134 A 
ATOM     61  C   UNL A   1      38.728  29.484  28.119  1.00  0.00     0.134 A 
ATOM     62  F   UNL A   1      39.694  28.419  31.453  1.00  0.00    -0.206 F 
ATOM     63  C   UNL A   1      37.641  29.240  30.663  1.00  0.00     0.040 A 
ATOM     64  C   UNL A   1      37.402  29.860  28.349  1.00  0.00     0.040 A 
ATOM     65  F   UNL A   1      39.210  29.617  26.875  1.00  0.00    -0.206 F 
ATOM     66  C   UNL A   1      36.855  29.733  29.625  1.00  0.00     0.006 A 
ENDBRANCH  45  59
BRANCH  46  67
ATOM     67  C   UNL A   1      48.929  26.415  27.043  1.00  0.00     0.057 A 
ATOM     68  C   UNL A   1      49.394  26.554  25.730  1.00  0.00     0.134 A 
ATOM     69  C   UNL A   1      49.826  25.921  27.997  1.00  0.00     0.134 A 
ATOM     70  F   UNL A   1      48.574  27.001  24.768  1.00  0.00    -0.206 F 
ATOM     71  C   UNL A   1      50.697  26.201  25.375  1.00  0.00     0.040 A 
ATOM     72  C   UNL A   1      51.139  25.588  27.662  1.00  0.00     0.040 A 
ATOM     73  F   UNL A   1      49.443  25.770  29.274  1.00  0.00    -0.206 F 
ATOM     74  C   UNL A   1      51.575  25.722  26.345  1.00  0.00     0.006 A 
ENDBRANCH  46  67
BRANCH  58  75
ATOM     75  C   UNL A   1      45.921  32.339  29.105  1.00  0.00     0.057 A 
ATOM     76  C   UNL A   1      45.944  33.320  28.105  1.00  0.00     0.134 A 
ATOM     77  C   UNL A   1      46.394  32.695  30.373  1.00  0.00     0.134 A 
ATOM     78  F   UNL A   1      45.518  33.037  26.865  1.00  0.00    -0.206 F 
ATOM     79  C   UNL A   1      46.435  34.602  28.355  1.00  0.00     0.040 A 
ATOM     80  C   UNL A   1      46.867  33.981  30.642  1.00  0.00     0.040 A 
ATOM     81  F   UNL A   1      46.394  31.803  31.376  1.00  0.00    -0.206 F 
ATOM     82  C   UNL A   1      46.893  34.937  29.628  1.00  0.00     0.006 A 
ENDBRANCH  58  75
ENDBRANCH  32  33
ENDBRANCH  24  27
ENDBRANCH  22  23
ENDBRANCH  21  22
ENDBRANCH   1  21
TORSDOF 14
ENDMDL
