MODEL 1
REMARK VINA RESULT:     -11.4      0.000      0.000
REMARK SMILES CN(C)S(=O)(=O)c1ccc(-n2c(CCC(=O)NCCCNC(=O)c3ccc(-c4c5nc(c(-c6c(F)cccc6F)c6ccc([nH]6)c(-c6c(F)cccc6F)c6nc(c(-c7c(F)cccc7F)c7ccc4[nH]7)C=C6)C=C5)cc3)ccc2-c2ccc(F)cc2)cc1
REMARK SMILES IDX 15 1 16 2 17 3 14 5 13 6 12 7 11 8 80 9 78 10 79 11 10 12
REMARK SMILES IDX 7 13 8 14 89 15 9 16 88 17 4 18 5 19 6 20 2 21 1 22 3 23
REMARK SMILES IDX 81 24 82 25 87 26 83 27 86 28 84 29 85 30 18 31 19 32 20 33
REMARK SMILES IDX 21 34 22 35 23 37 24 38 25 39 77 40 26 41 76 42 27 43 28 44
REMARK SMILES IDX 29 45 70 46 30 47 75 48 69 49 71 50 31 51 74 52 68 53 67 54
REMARK SMILES IDX 32 56 58 57 41 58 57 59 42 60 45 61 56 62 72 63 43 64 44 65
REMARK SMILES IDX 55 67 73 68 46 69 33 70 34 71 39 72 35 73 36 74 38 75 40 76
REMARK SMILES IDX 37 77 59 78 60 79 65 80 61 81 62 82 64 83 66 84 63 85 47 86
REMARK SMILES IDX 48 87 53 88 49 89 50 90 52 91 54 92 51 93
REMARK H PARENT 17 4 21 36 71 55 45 66
REMARK Flexibility Score: inf
ROOT
ATOM      1  C   UNL A   1      39.760  21.965  26.566  1.00  0.00     0.220 C 
ATOM      2  O   UNL A   1      39.628  23.171  26.798  1.00  0.00    -0.275 OA
ATOM      3  N   UNL A   1      40.876  21.349  27.060  1.00  0.00    -0.356 N 
ATOM      4  H   UNL A   1      41.542  21.959  27.453  1.00  0.00     0.163 HD
ENDROOT
BRANCH   1   5
ATOM      5  C   UNL A   1      38.755  21.254  25.669  1.00  0.00     0.106 C 
BRANCH   5   6
ATOM      6  C   UNL A   1      37.731  22.171  24.967  1.00  0.00     0.064 C 
BRANCH   6   7
ATOM      7  C   UNL A   1      36.337  21.590  24.944  1.00  0.00     0.024 A 
ATOM      8  N   UNL A   1      35.097  22.268  24.914  1.00  0.00    -0.314 N 
ATOM      9  C   UNL A   1      34.108  21.240  24.876  1.00  0.00     0.053 A 
ATOM     10  C   UNL A   1      36.097  20.227  25.015  1.00  0.00     0.024 A 
ATOM     11  C   UNL A   1      34.720  20.009  24.965  1.00  0.00     0.029 A 
BRANCH   8  12
ATOM     12  C   UNL A   1      34.871  23.715  24.785  1.00  0.00     0.046 A 
ATOM     13  C   UNL A   1      34.036  26.423  24.425  1.00  0.00     0.082 A 
ATOM     14  C   UNL A   1      34.339  25.948  25.696  1.00  0.00     0.024 A 
ATOM     15  C   UNL A   1      34.216  25.595  23.336  1.00  0.00     0.024 A 
ATOM     16  C   UNL A   1      34.771  24.608  25.861  1.00  0.00     0.028 A 
ATOM     17  C   UNL A   1      34.653  24.287  23.535  1.00  0.00     0.028 A 
BRANCH  13  18
ATOM     18  S   UNL A   1      33.473  28.074  24.105  1.00  0.00     0.242 S 
ATOM     19  O   UNL A   1      34.009  28.502  22.823  1.00  0.00    -0.207 OA
ATOM     20  O   UNL A   1      33.703  28.826  25.312  1.00  0.00    -0.207 OA
BRANCH  18  21
ATOM     21  N   UNL A   1      31.782  27.854  23.910  1.00  0.00    -0.204 NA
ATOM     22  C   UNL A   1      31.362  27.559  22.523  1.00  0.00     0.124 C 
ATOM     23  C   UNL A   1      31.143  26.950  24.890  1.00  0.00     0.124 C 
ENDBRANCH  18  21
ENDBRANCH  13  18
ENDBRANCH   8  12
BRANCH   9  24
ATOM     24  C   UNL A   1      32.720  21.444  24.483  1.00  0.00    -0.001 A 
ATOM     25  C   UNL A   1      31.783  21.971  25.372  1.00  0.00     0.013 A 
ATOM     26  C   UNL A   1      32.445  21.379  23.119  1.00  0.00     0.013 A 
ATOM     27  C   UNL A   1      30.780  22.778  24.854  1.00  0.00     0.040 A 
ATOM     28  C   UNL A   1      31.494  22.226  22.605  1.00  0.00     0.040 A 
ATOM     29  C   UNL A   1      30.772  23.008  23.486  1.00  0.00     0.123 A 
ATOM     30  F   UNL A   1      30.249  24.148  23.042  1.00  0.00    -0.207 F 
ENDBRANCH   9  24
ENDBRANCH   6   7
ENDBRANCH   5   6
ENDBRANCH   1   5
BRANCH   3  31
ATOM     31  C   UNL A   1      41.245  19.944  27.102  1.00  0.00     0.117 C 
BRANCH  31  32
ATOM     32  C   UNL A   1      41.912  19.394  25.833  1.00  0.00     0.042 C 
BRANCH  32  33
ATOM     33  C   UNL A   1      43.031  18.343  25.974  1.00  0.00     0.118 C 
BRANCH  33  34
ATOM     34  N   UNL A   1      44.081  18.560  24.968  1.00  0.00    -0.352 N 
ATOM     35  C   UNL A   1      44.859  19.568  24.457  1.00  0.00     0.251 C 
ATOM     36  H   UNL A   1      44.293  17.711  24.516  1.00  0.00     0.163 HD
ATOM     37  O   UNL A   1      45.636  19.199  23.567  1.00  0.00    -0.269 OA
BRANCH  35  38
ATOM     38  C   UNL A   1      44.854  21.029  24.801  1.00  0.00     0.039 A 
ATOM     39  C   UNL A   1      44.816  21.342  26.182  1.00  0.00     0.014 A 
ATOM     40  C   UNL A   1      44.942  22.097  23.908  1.00  0.00     0.014 A 
ATOM     41  C   UNL A   1      44.905  22.660  26.654  1.00  0.00     0.010 A 
ATOM     42  C   UNL A   1      45.051  23.422  24.377  1.00  0.00     0.010 A 
ATOM     43  C   UNL A   1      45.044  23.714  25.751  1.00  0.00    -0.014 A 
BRANCH  43  44
ATOM     44  C   UNL A   1      45.134  25.127  26.242  1.00  0.00     0.031 A 
ATOM     45  C   UNL A   1      43.808  25.877  26.433  1.00  0.00     0.074 A 
ATOM     46  C   UNL A   1      46.392  25.577  26.516  1.00  0.00     0.049 A 
ATOM     47  N   UNL A   1      43.556  27.100  26.794  1.00  0.00    -0.248 NA
ATOM     48  C   UNL A   1      42.554  25.142  26.199  1.00  0.00     0.031 C 
ATOM     49  C   UNL A   1      47.606  24.777  26.286  1.00  0.00     0.029 A 
ATOM     50  N   UNL A   1      46.915  26.753  27.018  1.00  0.00    -0.354 N 
ATOM     51  C   UNL A   1      42.169  27.192  27.066  1.00  0.00     0.074 A 
ATOM     52  C   UNL A   1      41.601  25.933  26.694  1.00  0.00     0.031 C 
ATOM     53  C   UNL A   1      48.705  25.497  26.564  1.00  0.00     0.029 A 
ATOM     54  C   UNL A   1      48.330  26.816  27.031  1.00  0.00     0.049 A 
ATOM     55  H   UNL A   1      46.348  27.490  27.342  1.00  0.00     0.167 HD
ATOM     56  C   UNL A   1      41.570  28.284  27.625  1.00  0.00     0.037 A 
ATOM     57  C   UNL A   1      49.156  27.857  27.353  1.00  0.00     0.037 A 
ATOM     58  C   UNL A   1      42.482  29.370  27.702  1.00  0.00     0.049 A 
ATOM     59  C   UNL A   1      48.294  28.925  27.885  1.00  0.00     0.074 A 
ATOM     60  C   UNL A   1      43.003  30.211  26.756  1.00  0.00     0.029 A 
ATOM     61  N   UNL A   1      43.170  29.536  28.873  1.00  0.00    -0.354 N 
ATOM     62  N   UNL A   1      47.754  28.927  29.067  1.00  0.00    -0.248 NA
ATOM     63  C   UNL A   1      47.951  30.056  27.014  1.00  0.00     0.031 C 
ATOM     64  C   UNL A   1      44.264  30.574  27.271  1.00  0.00     0.029 A 
ATOM     65  C   UNL A   1      44.417  30.005  28.540  1.00  0.00     0.049 A 
ATOM     66  H   UNL A   1      42.835  29.354  29.781  1.00  0.00     0.167 HD
ATOM     67  C   UNL A   1      46.771  29.881  28.946  1.00  0.00     0.074 A 
ATOM     68  C   UNL A   1      47.140  30.719  27.830  1.00  0.00     0.031 C 
ATOM     69  C   UNL A   1      45.518  29.620  29.393  1.00  0.00     0.037 A 
BRANCH  56  70
ATOM     70  C   UNL A   1      40.225  28.490  28.267  1.00  0.00     0.057 A 
ATOM     71  C   UNL A   1      39.264  29.281  27.595  1.00  0.00     0.134 A 
ATOM     72  C   UNL A   1      39.994  28.282  29.631  1.00  0.00     0.134 A 
ATOM     73  F   UNL A   1      39.361  29.511  26.275  1.00  0.00    -0.206 F 
ATOM     74  C   UNL A   1      38.218  29.930  28.259  1.00  0.00     0.040 A 
ATOM     75  C   UNL A   1      38.924  28.899  30.302  1.00  0.00     0.040 A 
ATOM     76  F   UNL A   1      40.842  27.556  30.372  1.00  0.00    -0.206 F 
ATOM     77  C   UNL A   1      38.058  29.757  29.625  1.00  0.00     0.006 A 
ENDBRANCH  56  70
BRANCH  57  78
ATOM     78  C   UNL A   1      50.630  28.171  27.202  1.00  0.00     0.057 A 
ATOM     79  C   UNL A   1      51.557  28.327  28.238  1.00  0.00     0.134 A 
ATOM     80  C   UNL A   1      51.216  28.250  25.909  1.00  0.00     0.134 A 
ATOM     81  F   UNL A   1      51.181  28.457  29.512  1.00  0.00    -0.206 F 
ATOM     82  C   UNL A   1      52.946  28.399  28.018  1.00  0.00     0.040 A 
ATOM     83  C   UNL A   1      52.595  28.299  25.674  1.00  0.00     0.040 A 
ATOM     84  F   UNL A   1      50.474  28.280  24.793  1.00  0.00    -0.206 F 
ATOM     85  C   UNL A   1      53.473  28.344  26.737  1.00  0.00     0.006 A 
ENDBRANCH  57  78
BRANCH  69  86
ATOM     86  C   UNL A   1      45.462  28.574  30.483  1.00  0.00     0.057 A 
ATOM     87  C   UNL A   1      45.805  28.914  31.796  1.00  0.00     0.134 A 
ATOM     88  C   UNL A   1      45.190  27.217  30.251  1.00  0.00     0.134 A 
ATOM     89  F   UNL A   1      46.078  30.188  32.112  1.00  0.00    -0.206 F 
ATOM     90  C   UNL A   1      45.882  27.955  32.814  1.00  0.00     0.040 A 
ATOM     91  C   UNL A   1      45.244  26.249  31.259  1.00  0.00     0.040 A 
ATOM     92  F   UNL A   1      44.876  26.781  29.032  1.00  0.00    -0.206 F 
ATOM     93  C   UNL A   1      45.603  26.617  32.548  1.00  0.00     0.006 A 
ENDBRANCH  69  86
ENDBRANCH  43  44
ENDBRANCH  35  38
ENDBRANCH  33  34
ENDBRANCH  32  33
ENDBRANCH  31  32
ENDBRANCH   3  31
TORSDOF 16
ENDMDL
MODEL 2
REMARK VINA RESULT:     -11.2      3.629      7.711
REMARK SMILES CN(C)S(=O)(=O)c1ccc(-n2c(CCC(=O)NCCCNC(=O)c3ccc(-c4c5nc(c(-c6c(F)cccc6F)c6ccc([nH]6)c(-c6c(F)cccc6F)c6nc(c(-c7c(F)cccc7F)c7ccc4[nH]7)C=C6)C=C5)cc3)ccc2-c2ccc(F)cc2)cc1
REMARK SMILES IDX 15 1 16 2 17 3 14 5 13 6 12 7 11 8 80 9 78 10 79 11 10 12
REMARK SMILES IDX 7 13 8 14 89 15 9 16 88 17 4 18 5 19 6 20 2 21 1 22 3 23
REMARK SMILES IDX 81 24 82 25 87 26 83 27 86 28 84 29 85 30 18 31 19 32 20 33
REMARK SMILES IDX 21 34 22 35 23 37 24 38 25 39 77 40 26 41 76 42 27 43 28 44
REMARK SMILES IDX 29 45 70 46 30 47 75 48 69 49 71 50 31 51 74 52 68 53 67 54
REMARK SMILES IDX 32 56 58 57 41 58 57 59 42 60 45 61 56 62 72 63 43 64 44 65
REMARK SMILES IDX 55 67 73 68 46 69 33 70 34 71 39 72 35 73 36 74 38 75 40 76
REMARK SMILES IDX 37 77 59 78 60 79 65 80 61 81 62 82 64 83 66 84 63 85 47 86
REMARK SMILES IDX 48 87 53 88 49 89 50 90 52 91 54 92 51 93
REMARK H PARENT 17 4 21 36 71 55 45 66
REMARK Flexibility Score: inf
ROOT
ATOM      1  C   UNL A   1      39.621  24.368  26.452  1.00  0.00     0.220 C 
ATOM      2  O   UNL A   1      39.723  25.597  26.511  1.00  0.00    -0.275 OA
ATOM      3  N   UNL A   1      40.761  23.653  26.212  1.00  0.00    -0.356 N 
ATOM      4  H   UNL A   1      41.547  24.199  25.981  1.00  0.00     0.163 HD
ENDROOT
BRANCH   1   5
ATOM      5  C   UNL A   1      38.245  23.718  26.537  1.00  0.00     0.106 C 
BRANCH   5   6
ATOM      6  C   UNL A   1      37.517  23.533  25.188  1.00  0.00     0.064 C 
BRANCH   6   7
ATOM      7  C   UNL A   1      36.741  22.240  25.109  1.00  0.00     0.024 A 
ATOM      8  N   UNL A   1      35.341  22.048  25.126  1.00  0.00    -0.314 N 
ATOM      9  C   UNL A   1      35.154  20.639  24.999  1.00  0.00     0.053 A 
ATOM     10  C   UNL A   1      37.360  21.000  25.068  1.00  0.00     0.024 A 
ATOM     11  C   UNL A   1      36.381  20.010  24.992  1.00  0.00     0.029 A 
BRANCH   8  12
ATOM     12  C   UNL A   1      34.295  23.081  25.114  1.00  0.00     0.046 A 
ATOM     13  C   UNL A   1      32.515  25.302  25.355  1.00  0.00     0.082 A 
ATOM     14  C   UNL A   1      33.164  25.054  24.150  1.00  0.00     0.024 A 
ATOM     15  C   UNL A   1      32.683  24.422  26.405  1.00  0.00     0.024 A 
ATOM     16  C   UNL A   1      34.030  23.938  24.036  1.00  0.00     0.028 A 
ATOM     17  C   UNL A   1      33.534  23.329  26.253  1.00  0.00     0.028 A 
BRANCH  13  18
ATOM     18  S   UNL A   1      31.424  26.675  25.615  1.00  0.00     0.242 S 
ATOM     19  O   UNL A   1      30.466  26.312  26.647  1.00  0.00    -0.207 OA
ATOM     20  O   UNL A   1      31.001  27.114  24.309  1.00  0.00    -0.207 OA
BRANCH  18  21
ATOM     21  N   UNL A   1      32.474  27.859  26.278  1.00  0.00    -0.204 NA
ATOM     22  C   UNL A   1      33.310  28.560  25.279  1.00  0.00     0.124 C 
ATOM     23  C   UNL A   1      31.851  28.794  27.239  1.00  0.00     0.124 C 
ENDBRANCH  18  21
ENDBRANCH  13  18
ENDBRANCH   8  12
BRANCH   9  24
ATOM     24  C   UNL A   1      33.901  20.003  24.616  1.00  0.00    -0.001 A 
ATOM     25  C   UNL A   1      32.920  20.697  23.906  1.00  0.00     0.013 A 
ATOM     26  C   UNL A   1      33.852  18.614  24.718  1.00  0.00     0.013 A 
ATOM     27  C   UNL A   1      32.157  19.987  22.991  1.00  0.00     0.040 A 
ATOM     28  C   UNL A   1      33.145  17.915  23.770  1.00  0.00     0.040 A 
ATOM     29  C   UNL A   1      32.415  18.631  22.841  1.00  0.00     0.123 A 
ATOM     30  F   UNL A   1      32.158  18.068  21.664  1.00  0.00    -0.207 F 
ENDBRANCH   9  24
ENDBRANCH   6   7
ENDBRANCH   5   6
ENDBRANCH   1   5
BRANCH   3  31
ATOM     31  C   UNL A   1      41.009  22.221  26.241  1.00  0.00     0.117 C 
BRANCH  31  32
ATOM     32  C   UNL A   1      42.402  21.779  25.771  1.00  0.00     0.042 C 
BRANCH  32  33
ATOM     33  C   UNL A   1      43.243  22.748  24.915  1.00  0.00     0.118 C 
BRANCH  33  34
ATOM     34  N   UNL A   1      44.539  23.019  25.553  1.00  0.00    -0.352 N 
ATOM     35  C   UNL A   1      45.092  23.821  26.518  1.00  0.00     0.251 C 
ATOM     36  H   UNL A   1      45.232  22.439  25.162  1.00  0.00     0.163 HD
ATOM     37  O   UNL A   1      46.305  23.645  26.683  1.00  0.00    -0.269 OA
BRANCH  35  38
ATOM     38  C   UNL A   1      44.435  24.888  27.345  1.00  0.00     0.039 A 
ATOM     39  C   UNL A   1      43.389  24.459  28.198  1.00  0.00     0.014 A 
ATOM     40  C   UNL A   1      44.789  26.237  27.400  1.00  0.00     0.014 A 
ATOM     41  C   UNL A   1      42.752  25.326  29.098  1.00  0.00     0.010 A 
ATOM     42  C   UNL A   1      44.165  27.109  28.316  1.00  0.00     0.010 A 
ATOM     43  C   UNL A   1      43.151  26.660  29.178  1.00  0.00    -0.014 A 
BRANCH  43  44
ATOM     44  C   UNL A   1      42.474  27.598  30.131  1.00  0.00     0.031 A 
ATOM     45  C   UNL A   1      43.034  27.655  31.559  1.00  0.00     0.074 A 
ATOM     46  C   UNL A   1      41.459  28.341  29.605  1.00  0.00     0.049 A 
ATOM     47  N   UNL A   1      42.648  28.317  32.609  1.00  0.00    -0.248 NA
ATOM     48  C   UNL A   1      44.230  26.854  31.868  1.00  0.00     0.031 C 
ATOM     49  C   UNL A   1      40.988  28.202  28.218  1.00  0.00     0.029 A 
ATOM     50  N   UNL A   1      40.625  29.329  30.092  1.00  0.00    -0.354 N 
ATOM     51  C   UNL A   1      43.671  28.211  33.584  1.00  0.00     0.074 A 
ATOM     52  C   UNL A   1      44.639  27.301  33.057  1.00  0.00     0.031 C 
ATOM     53  C   UNL A   1      39.926  28.995  27.997  1.00  0.00     0.029 A 
ATOM     54  C   UNL A   1      39.616  29.752  29.193  1.00  0.00     0.049 A 
ATOM     55  H   UNL A   1      40.725  29.710  30.995  1.00  0.00     0.167 HD
ATOM     56  C   UNL A   1      43.685  28.914  34.755  1.00  0.00     0.037 A 
ATOM     57  C   UNL A   1      38.574  30.616  29.390  1.00  0.00     0.037 A 
ATOM     58  C   UNL A   1      42.455  29.596  34.945  1.00  0.00     0.049 A 
ATOM     59  C   UNL A   1      38.774  31.213  30.721  1.00  0.00     0.074 A 
ATOM     60  C   UNL A   1      41.201  29.165  35.286  1.00  0.00     0.029 A 
ATOM     61  N   UNL A   1      42.381  30.896  34.528  1.00  0.00    -0.354 N 
ATOM     62  N   UNL A   1      39.650  32.132  31.001  1.00  0.00    -0.248 NA
ATOM     63  C   UNL A   1      37.980  30.710  31.848  1.00  0.00     0.031 C 
ATOM     64  C   UNL A   1      40.337  30.098  34.677  1.00  0.00     0.029 A 
ATOM     65  C   UNL A   1      41.104  31.096  34.065  1.00  0.00     0.049 A 
ATOM     66  H   UNL A   1      43.106  31.562  34.554  1.00  0.00     0.167 HD
ATOM     67  C   UNL A   1      39.722  32.069  32.373  1.00  0.00     0.074 A 
ATOM     68  C   UNL A   1      38.502  31.443  32.825  1.00  0.00     0.031 C 
ATOM     69  C   UNL A   1      40.931  32.040  32.986  1.00  0.00     0.037 A 
BRANCH  56  70
ATOM     70  C   UNL A   1      44.770  29.191  35.761  1.00  0.00     0.057 A 
ATOM     71  C   UNL A   1      44.635  28.665  37.068  1.00  0.00     0.134 A 
ATOM     72  C   UNL A   1      45.692  30.232  35.617  1.00  0.00     0.134 A 
ATOM     73  F   UNL A   1      43.810  27.635  37.316  1.00  0.00    -0.206 F 
ATOM     74  C   UNL A   1      45.275  29.224  38.179  1.00  0.00     0.040 A 
ATOM     75  C   UNL A   1      46.370  30.776  36.722  1.00  0.00     0.040 A 
ATOM     76  F   UNL A   1      45.897  30.813  34.427  1.00  0.00    -0.206 F 
ATOM     77  C   UNL A   1      46.132  30.300  38.010  1.00  0.00     0.006 A 
ENDBRANCH  56  70
BRANCH  57  78
ATOM     78  C   UNL A   1      37.307  30.990  28.649  1.00  0.00     0.057 A 
ATOM     79  C   UNL A   1      36.343  30.105  28.154  1.00  0.00     0.134 A 
ATOM     80  C   UNL A   1      36.956  32.356  28.475  1.00  0.00     0.134 A 
ATOM     81  F   UNL A   1      36.564  28.792  28.067  1.00  0.00    -0.206 F 
ATOM     82  C   UNL A   1      35.089  30.529  27.674  1.00  0.00     0.040 A 
ATOM     83  C   UNL A   1      35.707  32.794  28.020  1.00  0.00     0.040 A 
ATOM     84  F   UNL A   1      37.815  33.350  28.741  1.00  0.00    -0.206 F 
ATOM     85  C   UNL A   1      34.751  31.874  27.643  1.00  0.00     0.006 A 
ENDBRANCH  57  78
BRANCH  69  86
ATOM     86  C   UNL A   1      42.044  32.660  32.173  1.00  0.00     0.057 A 
ATOM     87  C   UNL A   1      42.177  34.051  32.116  1.00  0.00     0.134 A 
ATOM     88  C   UNL A   1      42.916  31.926  31.353  1.00  0.00     0.134 A 
ATOM     89  F   UNL A   1      41.389  34.834  32.867  1.00  0.00    -0.206 F 
ATOM     90  C   UNL A   1      43.118  34.673  31.285  1.00  0.00     0.040 A 
ATOM     91  C   UNL A   1      43.873  32.529  30.531  1.00  0.00     0.040 A 
ATOM     92  F   UNL A   1      42.858  30.596  31.313  1.00  0.00    -0.206 F 
ATOM     93  C   UNL A   1      43.968  33.913  30.487  1.00  0.00     0.006 A 
ENDBRANCH  69  86
ENDBRANCH  43  44
ENDBRANCH  35  38
ENDBRANCH  33  34
ENDBRANCH  32  33
ENDBRANCH  31  32
ENDBRANCH   3  31
TORSDOF 16
ENDMDL
MODEL 3
REMARK VINA RESULT:     -11.1      4.069      9.877
REMARK SMILES CN(C)S(=O)(=O)c1ccc(-n2c(CCC(=O)NCCCNC(=O)c3ccc(-c4c5nc(c(-c6c(F)cccc6F)c6ccc([nH]6)c(-c6c(F)cccc6F)c6nc(c(-c7c(F)cccc7F)c7ccc4[nH]7)C=C6)C=C5)cc3)ccc2-c2ccc(F)cc2)cc1
REMARK SMILES IDX 15 1 16 2 17 3 14 5 13 6 12 7 11 8 80 9 78 10 79 11 10 12
REMARK SMILES IDX 7 13 8 14 89 15 9 16 88 17 4 18 5 19 6 20 2 21 1 22 3 23
REMARK SMILES IDX 81 24 82 25 87 26 83 27 86 28 84 29 85 30 18 31 19 32 20 33
REMARK SMILES IDX 21 34 22 35 23 37 24 38 25 39 77 40 26 41 76 42 27 43 28 44
REMARK SMILES IDX 29 45 70 46 30 47 75 48 69 49 71 50 31 51 74 52 68 53 67 54
REMARK SMILES IDX 32 56 58 57 41 58 57 59 42 60 45 61 56 62 72 63 43 64 44 65
REMARK SMILES IDX 55 67 73 68 46 69 33 70 34 71 39 72 35 73 36 74 38 75 40 76
REMARK SMILES IDX 37 77 59 78 60 79 65 80 61 81 62 82 64 83 66 84 63 85 47 86
REMARK SMILES IDX 48 87 53 88 49 89 50 90 52 91 54 92 51 93
REMARK H PARENT 17 4 21 36 71 55 45 66
REMARK Flexibility Score: inf
ROOT
ATOM      1  C   UNL A   1      32.487  26.002  22.580  1.00  0.00     0.220 C 
ATOM      2  O   UNL A   1      31.375  25.505  22.373  1.00  0.00    -0.275 OA
ATOM      3  N   UNL A   1      32.539  27.348  22.817  1.00  0.00    -0.356 N 
ATOM      4  H   UNL A   1      31.688  27.823  22.675  1.00  0.00     0.163 HD
ENDROOT
BRANCH   1   5
ATOM      5  C   UNL A   1      33.736  25.140  22.457  1.00  0.00     0.106 C 
BRANCH   5   6
ATOM      6  C   UNL A   1      34.197  24.455  23.762  1.00  0.00     0.064 C 
BRANCH   6   7
ATOM      7  C   UNL A   1      33.813  22.997  23.832  1.00  0.00     0.024 A 
ATOM      8  N   UNL A   1      34.557  21.909  24.343  1.00  0.00    -0.314 N 
ATOM      9  C   UNL A   1      33.714  20.770  24.185  1.00  0.00     0.053 A 
ATOM     10  C   UNL A   1      32.623  22.514  23.309  1.00  0.00     0.024 A 
ATOM     11  C   UNL A   1      32.556  21.140  23.534  1.00  0.00     0.029 A 
BRANCH   8  12
ATOM     12  C   UNL A   1      35.853  21.959  25.037  1.00  0.00     0.046 A 
ATOM     13  C   UNL A   1      38.539  22.089  25.999  1.00  0.00     0.082 A 
ATOM     14  C   UNL A   1      37.659  23.137  26.242  1.00  0.00     0.024 A 
ATOM     15  C   UNL A   1      38.079  20.958  25.355  1.00  0.00     0.024 A 
ATOM     16  C   UNL A   1      36.322  23.054  25.777  1.00  0.00     0.028 A 
ATOM     17  C   UNL A   1      36.756  20.907  24.921  1.00  0.00     0.028 A 
BRANCH  13  18
ATOM     18  S   UNL A   1      40.234  22.093  26.519  1.00  0.00     0.242 S 
ATOM     19  O   UNL A   1      41.047  21.557  25.440  1.00  0.00    -0.207 OA
ATOM     20  O   UNL A   1      40.257  21.521  27.842  1.00  0.00    -0.207 OA
BRANCH  18  21
ATOM     21  N   UNL A   1      40.577  23.770  26.641  1.00  0.00    -0.204 NA
ATOM     22  C   UNL A   1      40.523  24.304  28.019  1.00  0.00     0.124 C 
ATOM     23  C   UNL A   1      41.781  24.226  25.913  1.00  0.00     0.124 C 
ENDBRANCH  18  21
ENDBRANCH  13  18
ENDBRANCH   8  12
BRANCH   9  24
ATOM     24  C   UNL A   1      33.899  19.502  24.879  1.00  0.00    -0.001 A 
ATOM     25  C   UNL A   1      32.978  19.049  25.824  1.00  0.00     0.013 A 
ATOM     26  C   UNL A   1      34.854  18.637  24.347  1.00  0.00     0.013 A 
ATOM     27  C   UNL A   1      32.766  17.681  25.918  1.00  0.00     0.040 A 
ATOM     28  C   UNL A   1      34.605  17.287  24.389  1.00  0.00     0.040 A 
ATOM     29  C   UNL A   1      33.483  16.851  25.068  1.00  0.00     0.123 A 
ATOM     30  F   UNL A   1      32.941  15.688  24.719  1.00  0.00    -0.207 F 
ENDBRANCH   9  24
ENDBRANCH   6   7
ENDBRANCH   5   6
ENDBRANCH   1   5
BRANCH   3  31
ATOM     31  C   UNL A   1      33.640  28.195  23.243  1.00  0.00     0.117 C 
BRANCH  31  32
ATOM     32  C   UNL A   1      33.708  28.486  24.750  1.00  0.00     0.042 C 
BRANCH  32  33
ATOM     33  C   UNL A   1      32.394  28.697  25.529  1.00  0.00     0.118 C 
BRANCH  33  34
ATOM     34  N   UNL A   1      32.318  30.065  26.063  1.00  0.00    -0.352 N 
ATOM     35  C   UNL A   1      33.035  30.931  26.849  1.00  0.00     0.251 C 
ATOM     36  H   UNL A   1      31.486  30.496  25.761  1.00  0.00     0.163 HD
ATOM     37  O   UNL A   1      32.496  32.034  27.000  1.00  0.00    -0.269 OA
BRANCH  35  38
ATOM     38  C   UNL A   1      34.334  30.698  27.563  1.00  0.00     0.039 A 
ATOM     39  C   UNL A   1      35.154  31.838  27.750  1.00  0.00     0.014 A 
ATOM     40  C   UNL A   1      34.783  29.494  28.107  1.00  0.00     0.014 A 
ATOM     41  C   UNL A   1      36.348  31.790  28.485  1.00  0.00     0.010 A 
ATOM     42  C   UNL A   1      35.973  29.444  28.862  1.00  0.00     0.010 A 
ATOM     43  C   UNL A   1      36.759  30.590  29.067  1.00  0.00    -0.014 A 
BRANCH  43  44
ATOM     44  C   UNL A   1      38.035  30.524  29.849  1.00  0.00     0.031 A 
ATOM     45  C   UNL A   1      39.220  29.815  29.177  1.00  0.00     0.074 A 
ATOM     46  C   UNL A   1      38.018  31.151  31.060  1.00  0.00     0.049 A 
ATOM     47  N   UNL A   1      40.421  29.557  29.603  1.00  0.00    -0.248 NA
ATOM     48  C   UNL A   1      39.046  29.326  27.800  1.00  0.00     0.031 C 
ATOM     49  C   UNL A   1      36.819  31.795  31.621  1.00  0.00     0.029 A 
ATOM     50  N   UNL A   1      38.953  31.373  32.052  1.00  0.00    -0.354 N 
ATOM     51  C   UNL A   1      41.187  29.124  28.492  1.00  0.00     0.074 A 
ATOM     52  C   UNL A   1      40.279  29.018  27.393  1.00  0.00     0.031 C 
ATOM     53  C   UNL A   1      37.067  32.257  32.858  1.00  0.00     0.029 A 
ATOM     54  C   UNL A   1      38.446  31.996  33.218  1.00  0.00     0.049 A 
ATOM     55  H   UNL A   1      39.899  31.118  31.956  1.00  0.00     0.167 HD
ATOM     56  C   UNL A   1      42.536  28.919  28.528  1.00  0.00     0.037 A 
ATOM     57  C   UNL A   1      39.063  32.256  34.411  1.00  0.00     0.037 A 
ATOM     58  C   UNL A   1      43.020  29.001  29.861  1.00  0.00     0.049 A 
ATOM     59  C   UNL A   1      40.484  31.920  34.227  1.00  0.00     0.074 A 
ATOM     60  C   UNL A   1      42.921  28.159  30.935  1.00  0.00     0.029 A 
ATOM     61  N   UNL A   1      43.506  30.208  30.284  1.00  0.00    -0.354 N 
ATOM     62  N   UNL A   1      41.342  32.644  33.572  1.00  0.00    -0.248 NA
ATOM     63  C   UNL A   1      40.984  30.646  34.760  1.00  0.00     0.031 C 
ATOM     64  C   UNL A   1      42.970  29.016  32.053  1.00  0.00     0.029 A 
ATOM     65  C   UNL A   1      43.178  30.327  31.612  1.00  0.00     0.049 A 
ATOM     66  H   UNL A   1      43.997  30.865  29.740  1.00  0.00     0.167 HD
ATOM     67  C   UNL A   1      42.372  31.760  33.350  1.00  0.00     0.074 A 
ATOM     68  C   UNL A   1      42.240  30.711  34.333  1.00  0.00     0.031 C 
ATOM     69  C   UNL A   1      42.919  31.657  32.113  1.00  0.00     0.037 A 
BRANCH  56  70
ATOM     70  C   UNL A   1      43.571  28.767  27.446  1.00  0.00     0.057 A 
ATOM     71  C   UNL A   1      44.126  27.487  27.211  1.00  0.00     0.134 A 
ATOM     72  C   UNL A   1      44.294  29.847  26.928  1.00  0.00     0.134 A 
ATOM     73  F   UNL A   1      43.497  26.375  27.626  1.00  0.00    -0.206 F 
ATOM     74  C   UNL A   1      45.379  27.301  26.617  1.00  0.00     0.040 A 
ATOM     75  C   UNL A   1      45.536  29.669  26.295  1.00  0.00     0.040 A 
ATOM     76  F   UNL A   1      43.869  31.106  27.096  1.00  0.00    -0.206 F 
ATOM     77  C   UNL A   1      46.100  28.399  26.175  1.00  0.00     0.006 A 
ENDBRANCH  56  70
BRANCH  57  78
ATOM     78  C   UNL A   1      38.628  32.681  35.798  1.00  0.00     0.057 A 
ATOM     79  C   UNL A   1      38.124  31.846  36.802  1.00  0.00     0.134 A 
ATOM     80  C   UNL A   1      38.796  34.027  36.221  1.00  0.00     0.134 A 
ATOM     81  F   UNL A   1      37.736  30.594  36.554  1.00  0.00    -0.206 F 
ATOM     82  C   UNL A   1      37.950  32.270  38.133  1.00  0.00     0.040 A 
ATOM     83  C   UNL A   1      38.648  34.459  37.544  1.00  0.00     0.040 A 
ATOM     84  F   UNL A   1      39.118  35.006  35.363  1.00  0.00    -0.206 F 
ATOM     85  C   UNL A   1      38.249  33.567  38.518  1.00  0.00     0.006 A 
ENDBRANCH  57  78
BRANCH  69  86
ATOM     86  C   UNL A   1      42.760  32.900  31.268  1.00  0.00     0.057 A 
ATOM     87  C   UNL A   1      43.591  34.003  31.484  1.00  0.00     0.134 A 
ATOM     88  C   UNL A   1      41.735  33.078  30.326  1.00  0.00     0.134 A 
ATOM     89  F   UNL A   1      44.600  33.924  32.364  1.00  0.00    -0.206 F 
ATOM     90  C   UNL A   1      43.405  35.216  30.807  1.00  0.00     0.040 A 
ATOM     91  C   UNL A   1      41.544  34.275  29.628  1.00  0.00     0.040 A 
ATOM     92  F   UNL A   1      40.872  32.099  30.061  1.00  0.00    -0.206 F 
ATOM     93  C   UNL A   1      42.378  35.356  29.877  1.00  0.00     0.006 A 
ENDBRANCH  69  86
ENDBRANCH  43  44
ENDBRANCH  35  38
ENDBRANCH  33  34
ENDBRANCH  32  33
ENDBRANCH  31  32
ENDBRANCH   3  31
TORSDOF 16
ENDMDL
