MODEL 1
REMARK VINA RESULT:     -11.1      0.000      0.000
REMARK SMILES CC[NH2+][C@@]1(C(=O)NCCCNC(=O)c2ccc(-c3c4nc(c(-c5c(F)cccc5F)c5ccc([nH]5)c(-c5c(F)cccc5F)c5nc(c(-c6c(F)cccc6F)c6ccc3[nH]6)C=C5)C=C4)cc2)CCC[C@@H]([N@@H+](C)[C@@H](C)C2CC2)C1
REMARK SMILES IDX 8 1 7 2 5 3 6 4 4 6 68 7 79 8 69 9 71 10 70 11 3 12 2 15
REMARK SMILES IDX 1 16 72 17 73 18 74 20 75 21 76 22 77 23 78 24 9 25 10 26
REMARK SMILES IDX 11 27 12 28 13 30 14 31 15 32 67 33 16 34 66 35 17 36 18 37
REMARK SMILES IDX 19 38 60 39 20 40 65 41 59 42 61 43 21 44 64 45 58 46 57 47
REMARK SMILES IDX 22 49 48 50 31 51 47 52 32 53 35 54 46 55 62 56 33 57 34 58
REMARK SMILES IDX 45 60 63 61 36 62 23 63 24 64 29 65 25 66 26 67 28 68 30 69
REMARK SMILES IDX 27 70 49 71 50 72 55 73 51 74 52 75 54 76 56 77 53 78 37 79
REMARK SMILES IDX 38 80 43 81 39 82 40 83 42 84 44 85 41 86
REMARK H PARENT 7 5 3 13 3 14 72 19 11 29 61 48 35 59
REMARK Flexibility Score: inf
ROOT
ATOM      1  C   UNL A   1      37.137  20.520  24.988  1.00  0.00     0.118 C 
ENDROOT
BRANCH   1   2
ATOM      2  N   UNL A   1      37.235  21.640  24.096  1.00  0.00    -0.351 N 
ATOM      3  C   UNL A   1      36.442  22.713  23.871  1.00  0.00     0.281 C 
ATOM      4  O   UNL A   1      36.883  23.464  22.983  1.00  0.00    -0.268 OA
ATOM      5  H   UNL A   1      38.043  21.625  23.533  1.00  0.00     0.163 HD
BRANCH   3   6
ATOM      6  C   UNL A   1      35.019  23.020  24.556  1.00  0.00     0.181 C 
ATOM      7  C   UNL A   1      35.027  23.009  26.099  1.00  0.00     0.079 C 
ATOM      8  C   UNL A   1      33.942  22.115  23.914  1.00  0.00     0.144 C 
ATOM      9  C   UNL A   1      34.663  21.724  26.829  1.00  0.00     0.013 C 
ATOM     10  C   UNL A   1      33.556  20.816  24.645  1.00  0.00     0.190 C 
ATOM     11  C   UNL A   1      33.543  20.918  26.176  1.00  0.00     0.065 C 
BRANCH   6  12
ATOM     12  N   UNL A   1      34.807  24.467  24.157  1.00  0.00    -0.334 N 
ATOM     13  H   UNL A   1      35.127  25.035  24.942  1.00  0.00     0.347 HD
ATOM     14  H   UNL A   1      35.316  24.538  23.276  1.00  0.00     0.347 HD
BRANCH  12  15
ATOM     15  C   UNL A   1      33.481  24.954  23.806  1.00  0.00     0.257 C 
ATOM     16  C   UNL A   1      33.273  26.355  24.369  1.00  0.00     0.071 C 
ENDBRANCH  12  15
ENDBRANCH   6  12
BRANCH  10  17
ATOM     17  N   UNL A   1      32.422  20.089  23.989  1.00  0.00    -0.332 N 
ATOM     18  C   UNL A   1      32.026  20.801  22.754  1.00  0.00     0.333 C 
ATOM     19  H   UNL A   1      31.760  20.111  24.765  1.00  0.00     0.348 HD
BRANCH  17  20
ATOM     20  C   UNL A   1      32.429  18.625  23.718  1.00  0.00     0.184 C 
ATOM     21  C   UNL A   1      32.320  18.153  22.260  1.00  0.00     0.075 C 
BRANCH  20  22
ATOM     22  C   UNL A   1      33.396  17.725  24.458  1.00  0.00     0.047 C 
ATOM     23  C   UNL A   1      33.952  16.472  23.845  1.00  0.00     0.010 C 
ATOM     24  C   UNL A   1      34.873  17.619  24.199  1.00  0.00     0.010 C 
ENDBRANCH  20  22
ENDBRANCH  17  20
ENDBRANCH  10  17
ENDBRANCH   3   6
ENDBRANCH   1   2
BRANCH   1  25
ATOM     25  C   UNL A   1      38.344  19.600  24.934  1.00  0.00     0.042 C 
BRANCH  25  26
ATOM     26  C   UNL A   1      39.286  19.797  26.099  1.00  0.00     0.118 C 
BRANCH  26  27
ATOM     27  N   UNL A   1      40.549  19.089  25.902  1.00  0.00    -0.352 N 
ATOM     28  C   UNL A   1      41.847  19.538  25.927  1.00  0.00     0.251 C 
ATOM     29  H   UNL A   1      40.453  18.126  25.721  1.00  0.00     0.163 HD
ATOM     30  O   UNL A   1      42.743  18.818  25.504  1.00  0.00    -0.269 OA
BRANCH  28  31
ATOM     31  C   UNL A   1      42.163  20.887  26.445  1.00  0.00     0.039 A 
ATOM     32  C   UNL A   1      42.504  21.903  25.548  1.00  0.00     0.014 A 
ATOM     33  C   UNL A   1      42.141  21.150  27.814  1.00  0.00     0.014 A 
ATOM     34  C   UNL A   1      42.757  23.191  26.028  1.00  0.00     0.010 A 
ATOM     35  C   UNL A   1      42.241  22.453  28.271  1.00  0.00     0.010 A 
ATOM     36  C   UNL A   1      42.587  23.484  27.390  1.00  0.00    -0.014 A 
BRANCH  36  37
ATOM     37  C   UNL A   1      42.831  24.839  27.942  1.00  0.00     0.031 A 
ATOM     38  C   UNL A   1      44.224  25.222  28.374  1.00  0.00     0.074 A 
ATOM     39  C   UNL A   1      41.802  25.690  28.119  1.00  0.00     0.049 A 
ATOM     40  N   UNL A   1      44.632  26.300  28.993  1.00  0.00    -0.248 NA
ATOM     41  C   UNL A   1      45.297  24.244  28.115  1.00  0.00     0.031 C 
ATOM     42  C   UNL A   1      40.401  25.413  27.789  1.00  0.00     0.029 A 
ATOM     43  N   UNL A   1      41.773  26.962  28.633  1.00  0.00    -0.354 N 
ATOM     44  C   UNL A   1      45.993  26.117  29.210  1.00  0.00     0.074 A 
ATOM     45  C   UNL A   1      46.328  24.797  28.734  1.00  0.00     0.031 C 
ATOM     46  C   UNL A   1      39.657  26.492  28.080  1.00  0.00     0.029 A 
ATOM     47  C   UNL A   1      40.517  27.518  28.660  1.00  0.00     0.049 A 
ATOM     48  H   UNL A   1      42.577  27.431  28.951  1.00  0.00     0.167 HD
ATOM     49  C   UNL A   1      46.893  26.988  29.720  1.00  0.00     0.037 A 
ATOM     50  C   UNL A   1      40.108  28.717  29.114  1.00  0.00     0.037 A 
ATOM     51  C   UNL A   1      46.562  28.317  30.153  1.00  0.00     0.049 A 
ATOM     52  C   UNL A   1      41.130  29.663  29.686  1.00  0.00     0.074 A 
ATOM     53  C   UNL A   1      47.404  29.298  30.647  1.00  0.00     0.029 A 
ATOM     54  N   UNL A   1      45.284  28.855  30.132  1.00  0.00    -0.354 N 
ATOM     55  N   UNL A   1      42.424  29.497  29.830  1.00  0.00    -0.248 NA
ATOM     56  C   UNL A   1      40.638  30.967  30.152  1.00  0.00     0.031 C 
ATOM     57  C   UNL A   1      46.627  30.417  30.961  1.00  0.00     0.029 A 
ATOM     58  C   UNL A   1      45.312  30.151  30.613  1.00  0.00     0.049 A 
ATOM     59  H   UNL A   1      44.477  28.384  29.820  1.00  0.00     0.167 HD
ATOM     60  C   UNL A   1      42.903  30.686  30.365  1.00  0.00     0.074 A 
ATOM     61  C   UNL A   1      41.764  31.569  30.503  1.00  0.00     0.031 C 
ATOM     62  C   UNL A   1      44.169  31.020  30.714  1.00  0.00     0.037 A 
BRANCH  49  63
ATOM     63  C   UNL A   1      48.324  26.543  29.809  1.00  0.00     0.057 A 
ATOM     64  C   UNL A   1      48.809  25.844  30.923  1.00  0.00     0.134 A 
ATOM     65  C   UNL A   1      49.214  26.768  28.750  1.00  0.00     0.134 A 
ATOM     66  F   UNL A   1      48.014  25.609  31.978  1.00  0.00    -0.206 F 
ATOM     67  C   UNL A   1      50.131  25.402  30.989  1.00  0.00     0.040 A 
ATOM     68  C   UNL A   1      50.530  26.304  28.793  1.00  0.00     0.040 A 
ATOM     69  F   UNL A   1      48.816  27.428  27.654  1.00  0.00    -0.206 F 
ATOM     70  C   UNL A   1      50.992  25.622  29.917  1.00  0.00     0.006 A 
ENDBRANCH  49  63
BRANCH  50  71
ATOM     71  C   UNL A   1      38.674  29.106  29.043  1.00  0.00     0.057 A 
ATOM     72  C   UNL A   1      38.125  29.635  27.869  1.00  0.00     0.134 A 
ATOM     73  C   UNL A   1      37.833  29.006  30.157  1.00  0.00     0.134 A 
ATOM     74  F   UNL A   1      38.882  29.770  26.770  1.00  0.00    -0.206 F 
ATOM     75  C   UNL A   1      36.805  30.087  27.816  1.00  0.00     0.040 A 
ATOM     76  C   UNL A   1      36.501  29.424  30.110  1.00  0.00     0.040 A 
ATOM     77  F   UNL A   1      38.291  28.495  31.311  1.00  0.00    -0.206 F 
ATOM     78  C   UNL A   1      35.989  29.982  28.940  1.00  0.00     0.006 A 
ENDBRANCH  50  71
BRANCH  62  79
ATOM     79  C   UNL A   1      44.398  32.414  31.218  1.00  0.00     0.057 A 
ATOM     80  C   UNL A   1      44.661  33.483  30.353  1.00  0.00     0.134 A 
ATOM     81  C   UNL A   1      44.305  32.695  32.587  1.00  0.00     0.134 A 
ATOM     82  F   UNL A   1      44.773  33.277  29.032  1.00  0.00    -0.206 F 
ATOM     83  C   UNL A   1      44.850  34.778  30.835  1.00  0.00     0.040 A 
ATOM     84  C   UNL A   1      44.462  33.991  33.077  1.00  0.00     0.040 A 
ATOM     85  F   UNL A   1      44.043  31.717  33.468  1.00  0.00    -0.206 F 
ATOM     86  C   UNL A   1      44.742  35.036  32.200  1.00  0.00     0.006 A 
ENDBRANCH  62  79
ENDBRANCH  36  37
ENDBRANCH  28  31
ENDBRANCH  26  27
ENDBRANCH  25  26
ENDBRANCH   1  25
TORSDOF 15
ENDMDL
MODEL 2
REMARK VINA RESULT:     -11.0      5.091     10.074
REMARK SMILES CC[NH2+][C@@]1(C(=O)NCCCNC(=O)c2ccc(-c3c4nc(c(-c5c(F)cccc5F)c5ccc([nH]5)c(-c5c(F)cccc5F)c5nc(c(-c6c(F)cccc6F)c6ccc3[nH]6)C=C5)C=C4)cc2)CCC[C@@H]([N@@H+](C)[C@@H](C)C2CC2)C1
REMARK SMILES IDX 8 1 7 2 5 3 6 4 4 6 68 7 79 8 69 9 71 10 70 11 3 12 2 15
REMARK SMILES IDX 1 16 72 17 73 18 74 20 75 21 76 22 77 23 78 24 9 25 10 26
REMARK SMILES IDX 11 27 12 28 13 30 14 31 15 32 67 33 16 34 66 35 17 36 18 37
REMARK SMILES IDX 19 38 60 39 20 40 65 41 59 42 61 43 21 44 64 45 58 46 57 47
REMARK SMILES IDX 22 49 48 50 31 51 47 52 32 53 35 54 46 55 62 56 33 57 34 58
REMARK SMILES IDX 45 60 63 61 36 62 23 63 24 64 29 65 25 66 26 67 28 68 30 69
REMARK SMILES IDX 27 70 49 71 50 72 55 73 51 74 52 75 54 76 56 77 53 78 37 79
REMARK SMILES IDX 38 80 43 81 39 82 40 83 42 84 44 85 41 86
REMARK H PARENT 7 5 3 13 3 14 72 19 11 29 61 48 35 59
REMARK Flexibility Score: inf
ROOT
ATOM      1  C   UNL A   1      31.629  30.782  26.251  1.00  0.00     0.118 C 
ENDROOT
BRANCH   1   2
ATOM      2  N   UNL A   1      31.605  29.731  27.229  1.00  0.00    -0.351 N 
ATOM      3  C   UNL A   1      31.788  28.392  27.151  1.00  0.00     0.281 C 
ATOM      4  O   UNL A   1      31.665  27.823  28.250  1.00  0.00    -0.268 OA
ATOM      5  H   UNL A   1      31.416  30.049  28.142  1.00  0.00     0.163 HD
BRANCH   3   6
ATOM      6  C   UNL A   1      32.042  27.530  25.817  1.00  0.00     0.181 C 
ATOM      7  C   UNL A   1      33.451  27.682  25.207  1.00  0.00     0.079 C 
ATOM      8  C   UNL A   1      30.883  27.781  24.824  1.00  0.00     0.144 C 
ATOM      9  C   UNL A   1      33.675  28.717  24.113  1.00  0.00     0.013 C 
ATOM     10  C   UNL A   1      31.097  28.818  23.706  1.00  0.00     0.190 C 
ATOM     11  C   UNL A   1      32.518  28.859  23.128  1.00  0.00     0.065 C 
BRANCH   6  12
ATOM     12  N   UNL A   1      31.981  26.118  26.363  1.00  0.00    -0.334 N 
ATOM     13  H   UNL A   1      32.943  25.841  26.563  1.00  0.00     0.347 HD
ATOM     14  H   UNL A   1      31.336  26.205  27.148  1.00  0.00     0.347 HD
BRANCH  12  15
ATOM     15  C   UNL A   1      31.394  25.042  25.578  1.00  0.00     0.257 C 
ATOM     16  C   UNL A   1      30.765  24.006  26.500  1.00  0.00     0.071 C 
ENDBRANCH  12  15
ENDBRANCH   6  12
BRANCH  10  17
ATOM     17  N   UNL A   1      29.953  28.884  22.741  1.00  0.00    -0.332 N 
ATOM     18  C   UNL A   1      28.920  27.899  23.130  1.00  0.00     0.333 C 
ATOM     19  H   UNL A   1      30.469  28.692  21.882  1.00  0.00     0.348 HD
BRANCH  17  20
ATOM     20  C   UNL A   1      29.282  30.151  22.343  1.00  0.00     0.184 C 
ATOM     21  C   UNL A   1      28.118  30.078  21.343  1.00  0.00     0.075 C 
BRANCH  20  22
ATOM     22  C   UNL A   1      28.970  31.201  23.390  1.00  0.00     0.047 C 
ATOM     23  C   UNL A   1      28.402  32.544  23.032  1.00  0.00     0.010 C 
ATOM     24  C   UNL A   1      27.598  31.578  23.874  1.00  0.00     0.010 C 
ENDBRANCH  20  22
ENDBRANCH  17  20
ENDBRANCH  10  17
ENDBRANCH   3   6
ENDBRANCH   1   2
BRANCH   1  25
ATOM     25  C   UNL A   1      31.414  32.162  26.844  1.00  0.00     0.042 C 
BRANCH  25  26
ATOM     26  C   UNL A   1      32.640  33.040  26.752  1.00  0.00     0.118 C 
BRANCH  26  27
ATOM     27  N   UNL A   1      32.529  34.220  27.605  1.00  0.00    -0.352 N 
ATOM     28  C   UNL A   1      33.159  34.545  28.782  1.00  0.00     0.251 C 
ATOM     29  H   UNL A   1      31.894  34.900  27.281  1.00  0.00     0.163 HD
ATOM     30  O   UNL A   1      32.743  35.482  29.452  1.00  0.00    -0.269 OA
BRANCH  28  31
ATOM     31  C   UNL A   1      34.322  33.760  29.250  1.00  0.00     0.039 A 
ATOM     32  C   UNL A   1      35.613  34.252  29.035  1.00  0.00     0.014 A 
ATOM     33  C   UNL A   1      34.147  32.532  29.885  1.00  0.00     0.014 A 
ATOM     34  C   UNL A   1      36.713  33.538  29.517  1.00  0.00     0.010 A 
ATOM     35  C   UNL A   1      35.221  31.905  30.494  1.00  0.00     0.010 A 
ATOM     36  C   UNL A   1      36.522  32.379  30.285  1.00  0.00    -0.014 A 
BRANCH  36  37
ATOM     37  C   UNL A   1      37.658  31.596  30.830  1.00  0.00     0.031 A 
ATOM     38  C   UNL A   1      38.088  31.814  32.259  1.00  0.00     0.074 A 
ATOM     39  C   UNL A   1      38.340  30.753  30.031  1.00  0.00     0.049 A 
ATOM     40  N   UNL A   1      39.125  31.331  32.894  1.00  0.00    -0.248 NA
ATOM     41  C   UNL A   1      37.268  32.730  33.072  1.00  0.00     0.031 C 
ATOM     42  C   UNL A   1      38.052  30.499  28.617  1.00  0.00     0.029 A 
ATOM     43  N   UNL A   1      39.428  29.959  30.292  1.00  0.00    -0.354 N 
ATOM     44  C   UNL A   1      39.087  31.898  34.162  1.00  0.00     0.074 A 
ATOM     45  C   UNL A   1      37.978  32.821  34.185  1.00  0.00     0.031 C 
ATOM     46  C   UNL A   1      38.920  29.589  28.146  1.00  0.00     0.029 A 
ATOM     47  C   UNL A   1      39.854  29.231  29.208  1.00  0.00     0.049 A 
ATOM     48  H   UNL A   1      39.861  29.914  31.175  1.00  0.00     0.167 HD
ATOM     49  C   UNL A   1      39.879  31.642  35.229  1.00  0.00     0.037 A 
ATOM     50  C   UNL A   1      40.890  28.381  29.085  1.00  0.00     0.037 A 
ATOM     51  C   UNL A   1      40.955  30.690  35.213  1.00  0.00     0.049 A 
ATOM     52  C   UNL A   1      41.761  28.121  30.285  1.00  0.00     0.074 A 
ATOM     53  C   UNL A   1      41.794  30.321  36.250  1.00  0.00     0.029 A 
ATOM     54  N   UNL A   1      41.333  29.948  34.104  1.00  0.00    -0.354 N 
ATOM     55  N   UNL A   1      41.675  28.622  31.495  1.00  0.00    -0.248 NA
ATOM     56  C   UNL A   1      42.868  27.171  30.107  1.00  0.00     0.031 C 
ATOM     57  C   UNL A   1      42.704  29.383  35.756  1.00  0.00     0.029 A 
ATOM     58  C   UNL A   1      42.399  29.129  34.429  1.00  0.00     0.049 A 
ATOM     59  H   UNL A   1      40.905  29.997  33.219  1.00  0.00     0.167 HD
ATOM     60  C   UNL A   1      42.690  28.020  32.229  1.00  0.00     0.074 A 
ATOM     61  C   UNL A   1      43.365  27.105  31.333  1.00  0.00     0.031 C 
ATOM     62  C   UNL A   1      43.035  28.207  33.525  1.00  0.00     0.037 A 
BRANCH  49  63
ATOM     63  C   UNL A   1      39.591  32.376  36.506  1.00  0.00     0.057 A 
ATOM     64  C   UNL A   1      40.333  33.501  36.891  1.00  0.00     0.134 A 
ATOM     65  C   UNL A   1      38.530  31.988  37.334  1.00  0.00     0.134 A 
ATOM     66  F   UNL A   1      41.373  33.915  36.151  1.00  0.00    -0.206 F 
ATOM     67  C   UNL A   1      40.043  34.202  38.062  1.00  0.00     0.040 A 
ATOM     68  C   UNL A   1      38.212  32.700  38.492  1.00  0.00     0.040 A 
ATOM     69  F   UNL A   1      37.777  30.922  37.025  1.00  0.00    -0.206 F 
ATOM     70  C   UNL A   1      38.973  33.808  38.861  1.00  0.00     0.006 A 
ENDBRANCH  49  63
BRANCH  50  71
ATOM     71  C   UNL A   1      41.165  27.702  27.791  1.00  0.00     0.057 A 
ATOM     72  C   UNL A   1      40.657  26.426  27.521  1.00  0.00     0.134 A 
ATOM     73  C   UNL A   1      41.978  28.289  26.815  1.00  0.00     0.134 A 
ATOM     74  F   UNL A   1      39.882  25.803  28.421  1.00  0.00    -0.206 F 
ATOM     75  C   UNL A   1      40.981  25.740  26.348  1.00  0.00     0.040 A 
ATOM     76  C   UNL A   1      42.285  27.629  25.622  1.00  0.00     0.040 A 
ATOM     77  F   UNL A   1      42.487  29.516  27.002  1.00  0.00    -0.206 F 
ATOM     78  C   UNL A   1      41.798  26.343  25.394  1.00  0.00     0.006 A 
ENDBRANCH  50  71
BRANCH  62  79
ATOM     79  C   UNL A   1      44.152  27.364  34.068  1.00  0.00     0.057 A 
ATOM     80  C   UNL A   1      45.483  27.801  34.061  1.00  0.00     0.134 A 
ATOM     81  C   UNL A   1      43.880  26.119  34.650  1.00  0.00     0.134 A 
ATOM     82  F   UNL A   1      45.809  28.979  33.509  1.00  0.00    -0.206 F 
ATOM     83  C   UNL A   1      46.508  27.015  34.589  1.00  0.00     0.040 A 
ATOM     84  C   UNL A   1      44.892  25.340  35.208  1.00  0.00     0.040 A 
ATOM     85  F   UNL A   1      42.624  25.649  34.699  1.00  0.00    -0.206 F 
ATOM     86  C   UNL A   1      46.212  25.785  35.173  1.00  0.00     0.006 A 
ENDBRANCH  62  79
ENDBRANCH  36  37
ENDBRANCH  28  31
ENDBRANCH  26  27
ENDBRANCH  25  26
ENDBRANCH   1  25
TORSDOF 15
ENDMDL
MODEL 3
REMARK VINA RESULT:     -11.0      5.103      9.925
REMARK SMILES CC[NH2+][C@@]1(C(=O)NCCCNC(=O)c2ccc(-c3c4nc(c(-c5c(F)cccc5F)c5ccc([nH]5)c(-c5c(F)cccc5F)c5nc(c(-c6c(F)cccc6F)c6ccc3[nH]6)C=C5)C=C4)cc2)CCC[C@@H]([N@@H+](C)[C@@H](C)C2CC2)C1
REMARK SMILES IDX 8 1 7 2 5 3 6 4 4 6 68 7 79 8 69 9 71 10 70 11 3 12 2 15
REMARK SMILES IDX 1 16 72 17 73 18 74 20 75 21 76 22 77 23 78 24 9 25 10 26
REMARK SMILES IDX 11 27 12 28 13 30 14 31 15 32 67 33 16 34 66 35 17 36 18 37
REMARK SMILES IDX 19 38 60 39 20 40 65 41 59 42 61 43 21 44 64 45 58 46 57 47
REMARK SMILES IDX 22 49 48 50 31 51 47 52 32 53 35 54 46 55 62 56 33 57 34 58
REMARK SMILES IDX 45 60 63 61 36 62 23 63 24 64 29 65 25 66 26 67 28 68 30 69
REMARK SMILES IDX 27 70 49 71 50 72 55 73 51 74 52 75 54 76 56 77 53 78 37 79
REMARK SMILES IDX 38 80 43 81 39 82 40 83 42 84 44 85 41 86
REMARK H PARENT 7 5 3 13 3 14 72 19 11 29 61 48 35 59
REMARK Flexibility Score: inf
ROOT
ATOM      1  C   UNL A   1      31.654  30.777  26.150  1.00  0.00     0.118 C 
ENDROOT
BRANCH   1   2
ATOM      2  N   UNL A   1      31.680  29.735  27.137  1.00  0.00    -0.351 N 
ATOM      3  C   UNL A   1      31.914  28.403  27.069  1.00  0.00     0.281 C 
ATOM      4  O   UNL A   1      31.823  27.839  28.173  1.00  0.00    -0.268 OA
ATOM      5  H   UNL A   1      31.486  30.052  28.049  1.00  0.00     0.163 HD
BRANCH   3   6
ATOM      6  C   UNL A   1      32.191  27.541  25.739  1.00  0.00     0.181 C 
ATOM      7  C   UNL A   1      33.414  27.996  24.916  1.00  0.00     0.079 C 
ATOM      8  C   UNL A   1      30.880  27.424  24.930  1.00  0.00     0.144 C 
ATOM      9  C   UNL A   1      33.208  28.975  23.768  1.00  0.00     0.013 C 
ATOM     10  C   UNL A   1      30.660  28.401  23.759  1.00  0.00     0.190 C 
ATOM     11  C   UNL A   1      31.927  28.754  22.968  1.00  0.00     0.065 C 
BRANCH   6  12
ATOM     12  N   UNL A   1      32.573  26.200  26.334  1.00  0.00    -0.334 N 
ATOM     13  H   UNL A   1      33.391  26.364  26.921  1.00  0.00     0.347 HD
ATOM     14  H   UNL A   1      31.711  25.898  26.788  1.00  0.00     0.347 HD
BRANCH  12  15
ATOM     15  C   UNL A   1      32.899  25.072  25.474  1.00  0.00     0.257 C 
ATOM     16  C   UNL A   1      33.961  24.201  26.133  1.00  0.00     0.071 C 
ENDBRANCH  12  15
ENDBRANCH   6  12
BRANCH  10  17
ATOM     17  N   UNL A   1      29.414  28.111  22.979  1.00  0.00    -0.332 N 
ATOM     18  C   UNL A   1      28.774  26.885  23.506  1.00  0.00     0.333 C 
ATOM     19  H   UNL A   1      29.829  28.050  22.049  1.00  0.00     0.348 HD
BRANCH  17  20
ATOM     20  C   UNL A   1      28.358  29.124  22.708  1.00  0.00     0.184 C 
ATOM     21  C   UNL A   1      26.914  28.803  23.123  1.00  0.00     0.075 C 
BRANCH  20  22
ATOM     22  C   UNL A   1      28.633  30.591  22.970  1.00  0.00     0.047 C 
ATOM     23  C   UNL A   1      28.063  31.678  22.106  1.00  0.00     0.010 C 
ATOM     24  C   UNL A   1      27.662  31.575  23.561  1.00  0.00     0.010 C 
ENDBRANCH  20  22
ENDBRANCH  17  20
ENDBRANCH  10  17
ENDBRANCH   3   6
ENDBRANCH   1   2
BRANCH   1  25
ATOM     25  C   UNL A   1      31.438  32.159  26.739  1.00  0.00     0.042 C 
BRANCH  25  26
ATOM     26  C   UNL A   1      32.723  32.814  27.190  1.00  0.00     0.118 C 
BRANCH  26  27
ATOM     27  N   UNL A   1      32.507  34.190  27.629  1.00  0.00    -0.352 N 
ATOM     28  C   UNL A   1      33.042  34.897  28.678  1.00  0.00     0.251 C 
ATOM     29  H   UNL A   1      31.868  34.699  27.078  1.00  0.00     0.163 HD
ATOM     30  O   UNL A   1      32.545  35.968  29.002  1.00  0.00    -0.269 OA
BRANCH  28  31
ATOM     31  C   UNL A   1      34.203  34.364  29.425  1.00  0.00     0.039 A 
ATOM     32  C   UNL A   1      33.989  33.658  30.612  1.00  0.00     0.014 A 
ATOM     33  C   UNL A   1      35.503  34.571  28.968  1.00  0.00     0.014 A 
ATOM     34  C   UNL A   1      35.077  33.112  31.296  1.00  0.00     0.010 A 
ATOM     35  C   UNL A   1      36.562  33.903  29.560  1.00  0.00     0.010 A 
ATOM     36  C   UNL A   1      36.368  33.196  30.753  1.00  0.00    -0.014 A 
BRANCH  36  37
ATOM     37  C   UNL A   1      37.552  32.618  31.436  1.00  0.00     0.031 A 
ATOM     38  C   UNL A   1      38.254  31.433  30.822  1.00  0.00     0.074 A 
ATOM     39  C   UNL A   1      37.948  33.107  32.627  1.00  0.00     0.049 A 
ATOM     40  N   UNL A   1      39.223  30.702  31.309  1.00  0.00    -0.248 NA
ATOM     41  C   UNL A   1      37.776  30.982  29.502  1.00  0.00     0.031 C 
ATOM     42  C   UNL A   1      37.315  34.216  33.346  1.00  0.00     0.029 A 
ATOM     43  N   UNL A   1      38.975  32.725  33.452  1.00  0.00    -0.354 N 
ATOM     44  C   UNL A   1      39.451  29.704  30.369  1.00  0.00     0.074 A 
ATOM     45  C   UNL A   1      38.470  29.870  29.323  1.00  0.00     0.031 C 
ATOM     46  C   UNL A   1      37.986  34.443  34.486  1.00  0.00     0.029 A 
ATOM     47  C   UNL A   1      39.064  33.468  34.604  1.00  0.00     0.049 A 
ATOM     48  H   UNL A   1      39.591  31.988  33.237  1.00  0.00     0.167 HD
ATOM     49  C   UNL A   1      40.418  28.758  30.355  1.00  0.00     0.037 A 
ATOM     50  C   UNL A   1      39.915  33.363  35.641  1.00  0.00     0.037 A 
ATOM     51  C   UNL A   1      41.419  28.624  31.378  1.00  0.00     0.049 A 
ATOM     52  C   UNL A   1      40.976  32.296  35.604  1.00  0.00     0.074 A 
ATOM     53  C   UNL A   1      42.471  27.729  31.442  1.00  0.00     0.029 A 
ATOM     54  N   UNL A   1      41.495  29.419  32.512  1.00  0.00    -0.354 N 
ATOM     55  N   UNL A   1      41.214  31.396  34.679  1.00  0.00    -0.248 NA
ATOM     56  C   UNL A   1      41.892  32.232  36.751  1.00  0.00     0.031 C 
ATOM     57  C   UNL A   1      43.162  27.957  32.635  1.00  0.00     0.029 A 
ATOM     58  C   UNL A   1      42.572  29.029  33.286  1.00  0.00     0.049 A 
ATOM     59  H   UNL A   1      40.876  30.153  32.731  1.00  0.00     0.167 HD
ATOM     60  C   UNL A   1      42.329  30.689  35.113  1.00  0.00     0.074 A 
ATOM     61  C   UNL A   1      42.728  31.275  36.375  1.00  0.00     0.031 C 
ATOM     62  C   UNL A   1      42.964  29.647  34.525  1.00  0.00     0.037 A 
BRANCH  49  63
ATOM     63  C   UNL A   1      40.460  27.818  29.186  1.00  0.00     0.057 A 
ATOM     64  C   UNL A   1      39.656  26.671  29.135  1.00  0.00     0.134 A 
ATOM     65  C   UNL A   1      41.271  28.087  28.076  1.00  0.00     0.134 A 
ATOM     66  F   UNL A   1      38.868  26.347  30.172  1.00  0.00    -0.206 F 
ATOM     67  C   UNL A   1      39.672  25.816  28.033  1.00  0.00     0.040 A 
ATOM     68  C   UNL A   1      41.273  27.255  26.955  1.00  0.00     0.040 A 
ATOM     69  F   UNL A   1      42.064  29.168  28.057  1.00  0.00    -0.206 F 
ATOM     70  C   UNL A   1      40.474  26.112  26.934  1.00  0.00     0.006 A 
ENDBRANCH  49  63
BRANCH  50  71
ATOM     71  C   UNL A   1      39.817  34.291  36.800  1.00  0.00     0.057 A 
ATOM     72  C   UNL A   1      39.074  33.952  37.937  1.00  0.00     0.134 A 
ATOM     73  C   UNL A   1      40.421  35.553  36.780  1.00  0.00     0.134 A 
ATOM     74  F   UNL A   1      38.460  32.763  38.013  1.00  0.00    -0.206 F 
ATOM     75  C   UNL A   1      38.900  34.849  38.993  1.00  0.00     0.040 A 
ATOM     76  C   UNL A   1      40.283  36.449  37.842  1.00  0.00     0.040 A 
ATOM     77  F   UNL A   1      41.158  35.937  35.726  1.00  0.00    -0.206 F 
ATOM     78  C   UNL A   1      39.507  36.103  38.947  1.00  0.00     0.006 A 
ENDBRANCH  50  71
BRANCH  62  79
ATOM     79  C   UNL A   1      44.191  29.117  35.207  1.00  0.00     0.057 A 
ATOM     80  C   UNL A   1      45.469  29.621  34.936  1.00  0.00     0.134 A 
ATOM     81  C   UNL A   1      44.081  28.120  36.186  1.00  0.00     0.134 A 
ATOM     82  F   UNL A   1      45.641  30.569  34.003  1.00  0.00    -0.206 F 
ATOM     83  C   UNL A   1      46.597  29.133  35.595  1.00  0.00     0.040 A 
ATOM     84  C   UNL A   1      45.198  27.647  36.873  1.00  0.00     0.040 A 
ATOM     85  F   UNL A   1      42.883  27.604  36.502  1.00  0.00    -0.206 F 
ATOM     86  C   UNL A   1      46.462  28.150  36.573  1.00  0.00     0.006 A 
ENDBRANCH  62  79
ENDBRANCH  36  37
ENDBRANCH  28  31
ENDBRANCH  26  27
ENDBRANCH  25  26
ENDBRANCH   1  25
TORSDOF 15
ENDMDL
