MODEL 1
REMARK VINA RESULT:      -9.5      0.000      0.000
REMARK SMILES Cc1ccc(O)c(C[N@H+]2CC[C@](C)(C(=O)NCCCNC(=O)c3ccc(-c4c5nc(c(-c6c(F)cccc6F)c6ccc([nH]6)c(-c6c(F)cccc6F)c6nc(c(-c7c(F)cccc7F)c7ccc4[nH]7)C=C6)C=C5)cc3)C2)n1
REMARK SMILES IDX 17 1 16 2 14 3 15 4 12 6 9 7 10 8 77 9 11 11 13 12 8 13 7 14
REMARK SMILES IDX 1 15 2 16 3 17 78 18 4 19 5 20 6 21 18 23 19 24 20 25 21 26
REMARK SMILES IDX 22 28 23 29 24 30 76 31 25 32 75 33 26 34 27 35 28 36 69 37
REMARK SMILES IDX 29 38 74 39 68 40 70 41 30 42 73 43 67 44 66 45 31 47 57 48
REMARK SMILES IDX 40 49 56 50 41 51 44 52 55 53 71 54 42 55 43 56 54 58 72 59
REMARK SMILES IDX 45 60 32 61 33 62 38 63 34 64 35 65 37 66 39 67 36 68 58 69
REMARK SMILES IDX 59 70 64 71 60 72 61 73 63 74 65 75 62 76 46 77 47 78 52 79
REMARK SMILES IDX 48 80 49 81 51 82 53 83 50 84
REMARK H PARENT 16 5 9 10 6 22 20 27 70 46 44 57
REMARK Flexibility Score: inf
ROOT
ATOM      1  C   UNL A   1      35.504  33.825  31.220  1.00  0.00     0.117 C 
ENDROOT
BRANCH   1   2
ATOM      2  N   UNL A   1      36.707  34.217  30.504  1.00  0.00    -0.355 N 
ATOM      3  C   UNL A   1      38.019  34.243  30.880  1.00  0.00     0.231 C 
ATOM      4  O   UNL A   1      38.837  34.553  30.011  1.00  0.00    -0.274 OA
ATOM      5  H   UNL A   1      36.547  34.518  29.581  1.00  0.00     0.163 HD
BRANCH   3   6
ATOM      6  C   UNL A   1      38.452  33.867  32.298  1.00  0.00     0.100 C 
ATOM      7  N   UNL A   1      37.764  32.178  33.889  1.00  0.00    -0.329 N 
ATOM      8  C   UNL A   1      37.675  33.477  34.541  1.00  0.00     0.263 C 
ATOM      9  C   UNL A   1      38.290  32.357  32.533  1.00  0.00     0.279 C 
ATOM     10  H   UNL A   1      36.819  31.801  33.809  1.00  0.00     0.348 HD
ATOM     11  C   UNL A   1      37.493  34.431  33.367  1.00  0.00     0.084 C 
ATOM     12  C   UNL A   1      39.860  34.422  32.589  1.00  0.00     0.028 C 
BRANCH   7  13
ATOM     13  C   UNL A   1      38.393  31.110  34.682  1.00  0.00     0.323 C 
BRANCH  13  14
ATOM     14  C   UNL A   1      39.038  29.959  33.920  1.00  0.00     0.136 A 
ATOM     15  C   UNL A   1      42.512  28.905  33.284  1.00  0.00     0.067 C 
ATOM     16  C   UNL A   1      41.016  28.914  33.233  1.00  0.00     0.038 A 
ATOM     17  C   UNL A   1      40.307  27.916  32.579  1.00  0.00     0.027 A 
ATOM     18  N   UNL A   1      40.402  29.926  33.884  1.00  0.00    -0.248 NA
ATOM     19  C   UNL A   1      38.914  27.965  32.590  1.00  0.00     0.050 A 
ATOM     20  C   UNL A   1      38.271  28.996  33.268  1.00  0.00     0.142 A 
BRANCH  20  21
ATOM     21  O   UNL A   1      36.908  29.057  33.286  1.00  0.00    -0.506 OA
ATOM     22  H   UNL A   1      36.403  28.331  32.978  1.00  0.00     0.293 HD
ENDBRANCH  20  21
ENDBRANCH  13  14
ENDBRANCH   7  13
ENDBRANCH   3   6
ENDBRANCH   1   2
BRANCH   1  23
ATOM     23  C   UNL A   1      34.774  32.649  30.582  1.00  0.00     0.042 C 
BRANCH  23  24
ATOM     24  C   UNL A   1      34.663  32.713  29.064  1.00  0.00     0.118 C 
BRANCH  24  25
ATOM     25  N   UNL A   1      34.012  31.543  28.492  1.00  0.00    -0.352 N 
ATOM     26  C   UNL A   1      34.523  30.358  28.040  1.00  0.00     0.251 C 
ATOM     27  H   UNL A   1      33.032  31.619  28.417  1.00  0.00     0.163 HD
ATOM     28  O   UNL A   1      33.777  29.580  27.436  1.00  0.00    -0.269 OA
BRANCH  26  29
ATOM     29  C   UNL A   1      35.943  29.988  28.240  1.00  0.00     0.039 A 
ATOM     30  C   UNL A   1      36.326  29.462  29.481  1.00  0.00     0.014 A 
ATOM     31  C   UNL A   1      36.912  30.214  27.260  1.00  0.00     0.014 A 
ATOM     32  C   UNL A   1      37.659  29.122  29.717  1.00  0.00     0.010 A 
ATOM     33  C   UNL A   1      38.228  29.801  27.468  1.00  0.00     0.010 A 
ATOM     34  C   UNL A   1      38.620  29.266  28.703  1.00  0.00    -0.014 A 
BRANCH  34  35
ATOM     35  C   UNL A   1      40.039  28.894  28.934  1.00  0.00     0.031 A 
ATOM     36  C   UNL A   1      40.984  29.879  29.569  1.00  0.00     0.074 A 
ATOM     37  C   UNL A   1      40.489  27.687  28.541  1.00  0.00     0.049 A 
ATOM     38  N   UNL A   1      42.268  29.763  29.799  1.00  0.00    -0.248 NA
ATOM     39  C   UNL A   1      40.417  31.175  29.979  1.00  0.00     0.031 C 
ATOM     40  C   UNL A   1      39.688  26.659  27.875  1.00  0.00     0.029 A 
ATOM     41  N   UNL A   1      41.737  27.124  28.639  1.00  0.00    -0.354 N 
ATOM     42  C   UNL A   1      42.661  30.969  30.367  1.00  0.00     0.074 A 
ATOM     43  C   UNL A   1      41.493  31.822  30.399  1.00  0.00     0.031 C 
ATOM     44  C   UNL A   1      40.458  25.583  27.643  1.00  0.00     0.029 A 
ATOM     45  C   UNL A   1      41.811  25.856  28.116  1.00  0.00     0.049 A 
ATOM     46  H   UNL A   1      42.506  27.585  29.046  1.00  0.00     0.167 HD
ATOM     47  C   UNL A   1      43.877  31.325  30.844  1.00  0.00     0.037 A 
ATOM     48  C   UNL A   1      42.855  25.010  28.027  1.00  0.00     0.037 A 
ATOM     49  C   UNL A   1      45.034  30.470  30.841  1.00  0.00     0.049 A 
ATOM     50  C   UNL A   1      44.190  25.425  28.577  1.00  0.00     0.074 A 
ATOM     51  C   UNL A   1      46.303  30.734  31.326  1.00  0.00     0.029 A 
ATOM     52  N   UNL A   1      45.057  29.180  30.336  1.00  0.00    -0.354 N 
ATOM     53  N   UNL A   1      44.534  26.554  29.149  1.00  0.00    -0.248 NA
ATOM     54  C   UNL A   1      45.282  24.444  28.481  1.00  0.00     0.031 C 
ATOM     55  C   UNL A   1      47.101  29.607  31.098  1.00  0.00     0.029 A 
ATOM     56  C   UNL A   1      46.318  28.633  30.498  1.00  0.00     0.049 A 
ATOM     57  H   UNL A   1      44.290  28.721  29.924  1.00  0.00     0.167 HD
ATOM     58  C   UNL A   1      45.870  26.410  29.500  1.00  0.00     0.074 A 
ATOM     59  C   UNL A   1      46.271  25.080  29.092  1.00  0.00     0.031 C 
ATOM     60  C   UNL A   1      46.693  27.302  30.102  1.00  0.00     0.037 A 
BRANCH  47  61
ATOM     61  C   UNL A   1      44.011  32.699  31.432  1.00  0.00     0.057 A 
ATOM     62  C   UNL A   1      43.748  32.942  32.786  1.00  0.00     0.134 A 
ATOM     63  C   UNL A   1      44.443  33.778  30.652  1.00  0.00     0.134 A 
ATOM     64  F   UNL A   1      43.317  31.952  33.583  1.00  0.00    -0.206 F 
ATOM     65  C   UNL A   1      43.889  34.215  33.340  1.00  0.00     0.040 A 
ATOM     66  C   UNL A   1      44.612  35.051  31.199  1.00  0.00     0.040 A 
ATOM     67  F   UNL A   1      44.718  33.612  29.350  1.00  0.00    -0.206 F 
ATOM     68  C   UNL A   1      44.330  35.274  32.547  1.00  0.00     0.006 A 
ENDBRANCH  47  61
BRANCH  48  69
ATOM     69  C   UNL A   1      42.679  23.672  27.411  1.00  0.00     0.057 A 
ATOM     70  C   UNL A   1      42.819  23.488  26.031  1.00  0.00     0.134 A 
ATOM     71  C   UNL A   1      42.345  22.551  28.182  1.00  0.00     0.134 A 
ATOM     72  F   UNL A   1      43.120  24.528  25.239  1.00  0.00    -0.206 F 
ATOM     73  C   UNL A   1      42.610  22.244  25.434  1.00  0.00     0.040 A 
ATOM     74  C   UNL A   1      42.155  21.297  27.601  1.00  0.00     0.040 A 
ATOM     75  F   UNL A   1      42.204  22.662  29.511  1.00  0.00    -0.206 F 
ATOM     76  C   UNL A   1      42.279  21.143  26.221  1.00  0.00     0.006 A 
ENDBRANCH  48  69
BRANCH  60  77
ATOM     77  C   UNL A   1      48.094  26.854  30.388  1.00  0.00     0.057 A 
ATOM     78  C   UNL A   1      48.422  26.177  31.569  1.00  0.00     0.134 A 
ATOM     79  C   UNL A   1      49.116  27.070  29.457  1.00  0.00     0.134 A 
ATOM     80  F   UNL A   1      47.488  25.951  32.505  1.00  0.00    -0.206 F 
ATOM     81  C   UNL A   1      49.725  25.746  31.822  1.00  0.00     0.040 A 
ATOM     82  C   UNL A   1      50.418  26.627  29.689  1.00  0.00     0.040 A 
ATOM     83  F   UNL A   1      48.864  27.707  28.304  1.00  0.00    -0.206 F 
ATOM     84  C   UNL A   1      50.727  25.967  30.877  1.00  0.00     0.006 A 
ENDBRANCH  60  77
ENDBRANCH  34  35
ENDBRANCH  26  29
ENDBRANCH  24  25
ENDBRANCH  23  24
ENDBRANCH   1  23
TORSDOF 13
ENDMDL
MODEL 2
REMARK VINA RESULT:      -9.5      4.104      9.656
REMARK SMILES Cc1ccc(O)c(C[N@H+]2CC[C@](C)(C(=O)NCCCNC(=O)c3ccc(-c4c5nc(c(-c6c(F)cccc6F)c6ccc([nH]6)c(-c6c(F)cccc6F)c6nc(c(-c7c(F)cccc7F)c7ccc4[nH]7)C=C6)C=C5)cc3)C2)n1
REMARK SMILES IDX 17 1 16 2 14 3 15 4 12 6 9 7 10 8 77 9 11 11 13 12 8 13 7 14
REMARK SMILES IDX 1 15 2 16 3 17 78 18 4 19 5 20 6 21 18 23 19 24 20 25 21 26
REMARK SMILES IDX 22 28 23 29 24 30 76 31 25 32 75 33 26 34 27 35 28 36 69 37
REMARK SMILES IDX 29 38 74 39 68 40 70 41 30 42 73 43 67 44 66 45 31 47 57 48
REMARK SMILES IDX 40 49 56 50 41 51 44 52 55 53 71 54 42 55 43 56 54 58 72 59
REMARK SMILES IDX 45 60 32 61 33 62 38 63 34 64 35 65 37 66 39 67 36 68 58 69
REMARK SMILES IDX 59 70 64 71 60 72 61 73 63 74 65 75 62 76 46 77 47 78 52 79
REMARK SMILES IDX 48 80 49 81 51 82 53 83 50 84
REMARK H PARENT 16 5 9 10 6 22 20 27 70 46 44 57
REMARK Flexibility Score: inf
ROOT
ATOM      1  C   UNL A   1      36.213  20.135  24.887  1.00  0.00     0.117 C 
ENDROOT
BRANCH   1   2
ATOM      2  N   UNL A   1      36.097  21.220  25.848  1.00  0.00    -0.355 N 
ATOM      3  C   UNL A   1      35.708  22.521  25.705  1.00  0.00     0.231 C 
ATOM      4  O   UNL A   1      35.633  23.192  26.738  1.00  0.00    -0.274 OA
ATOM      5  H   UNL A   1      36.343  20.972  26.768  1.00  0.00     0.163 HD
BRANCH   3   6
ATOM      6  C   UNL A   1      35.346  23.102  24.338  1.00  0.00     0.100 C 
ATOM      7  N   UNL A   1      33.665  24.652  23.546  1.00  0.00    -0.329 N 
ATOM      8  C   UNL A   1      33.558  23.429  22.763  1.00  0.00     0.263 C 
ATOM      9  C   UNL A   1      34.783  24.524  24.483  1.00  0.00     0.279 C 
ATOM     10  H   UNL A   1      32.809  24.751  24.091  1.00  0.00     0.348 HD
ATOM     11  C   UNL A   1      34.143  22.378  23.698  1.00  0.00     0.084 C 
ATOM     12  C   UNL A   1      36.541  22.973  23.372  1.00  0.00     0.028 C 
BRANCH   7  13
ATOM     13  C   UNL A   1      33.617  25.905  22.776  1.00  0.00     0.323 C 
BRANCH  13  14
ATOM     14  C   UNL A   1      32.489  26.879  23.093  1.00  0.00     0.136 A 
ATOM     15  C   UNL A   1      31.704  29.089  25.936  1.00  0.00     0.067 C 
ATOM     16  C   UNL A   1      31.562  28.392  24.618  1.00  0.00     0.038 A 
ATOM     17  C   UNL A   1      30.506  28.667  23.762  1.00  0.00     0.027 A 
ATOM     18  N   UNL A   1      32.534  27.507  24.303  1.00  0.00    -0.248 NA
ATOM     19  C   UNL A   1      30.443  28.005  22.538  1.00  0.00     0.050 A 
ATOM     20  C   UNL A   1      31.445  27.101  22.198  1.00  0.00     0.142 A 
BRANCH  20  21
ATOM     21  O   UNL A   1      31.396  26.444  21.002  1.00  0.00    -0.506 OA
ATOM     22  H   UNL A   1      32.036  26.625  20.342  1.00  0.00     0.293 HD
ENDBRANCH  20  21
ENDBRANCH  13  14
ENDBRANCH   7  13
ENDBRANCH   3   6
ENDBRANCH   1   2
BRANCH   1  23
ATOM     23  C   UNL A   1      37.649  19.683  24.653  1.00  0.00     0.042 C 
BRANCH  23  24
ATOM     24  C   UNL A   1      38.641  20.131  25.719  1.00  0.00     0.118 C 
BRANCH  24  25
ATOM     25  N   UNL A   1      39.837  19.301  25.767  1.00  0.00    -0.352 N 
ATOM     26  C   UNL A   1      41.131  19.604  26.087  1.00  0.00     0.251 C 
ATOM     27  H   UNL A   1      39.688  18.357  25.527  1.00  0.00     0.163 HD
ATOM     28  O   UNL A   1      42.008  18.756  25.889  1.00  0.00    -0.269 OA
BRANCH  26  29
ATOM     29  C   UNL A   1      41.514  20.919  26.649  1.00  0.00     0.039 A 
ATOM     30  C   UNL A   1      41.969  21.912  25.773  1.00  0.00     0.014 A 
ATOM     31  C   UNL A   1      41.500  21.169  28.024  1.00  0.00     0.014 A 
ATOM     32  C   UNL A   1      42.361  23.158  26.267  1.00  0.00     0.010 A 
ATOM     33  C   UNL A   1      41.816  22.439  28.509  1.00  0.00     0.010 A 
ATOM     34  C   UNL A   1      42.265  23.442  27.638  1.00  0.00    -0.014 A 
BRANCH  34  35
ATOM     35  C   UNL A   1      42.663  24.767  28.176  1.00  0.00     0.031 A 
ATOM     36  C   UNL A   1      41.630  25.843  28.378  1.00  0.00     0.074 A 
ATOM     37  C   UNL A   1      43.958  25.018  28.450  1.00  0.00     0.049 A 
ATOM     38  N   UNL A   1      41.790  27.078  28.781  1.00  0.00    -0.248 NA
ATOM     39  C   UNL A   1      40.235  25.491  28.065  1.00  0.00     0.031 C 
ATOM     40  C   UNL A   1      45.063  24.078  28.257  1.00  0.00     0.029 A 
ATOM     41  N   UNL A   1      44.564  26.147  28.943  1.00  0.00    -0.354 N 
ATOM     42  C   UNL A   1      40.524  27.651  28.758  1.00  0.00     0.074 A 
ATOM     43  C   UNL A   1      39.614  26.645  28.253  1.00  0.00     0.031 C 
ATOM     44  C   UNL A   1      46.209  24.661  28.647  1.00  0.00     0.029 A 
ATOM     45  C   UNL A   1      45.925  26.022  29.087  1.00  0.00     0.049 A 
ATOM     46  H   UNL A   1      44.071  26.968  29.170  1.00  0.00     0.167 HD
ATOM     47  C   UNL A   1      40.147  28.892  29.147  1.00  0.00     0.037 A 
ATOM     48  C   UNL A   1      46.839  26.908  29.525  1.00  0.00     0.037 A 
ATOM     49  C   UNL A   1      41.042  29.884  29.678  1.00  0.00     0.049 A 
ATOM     50  C   UNL A   1      46.392  28.273  29.965  1.00  0.00     0.074 A 
ATOM     51  C   UNL A   1      40.750  31.161  30.124  1.00  0.00     0.029 A 
ATOM     52  N   UNL A   1      42.407  29.704  29.844  1.00  0.00    -0.354 N 
ATOM     53  N   UNL A   1      45.184  28.784  29.976  1.00  0.00    -0.248 NA
ATOM     54  C   UNL A   1      47.433  29.184  30.466  1.00  0.00     0.031 C 
ATOM     55  C   UNL A   1      41.942  31.762  30.544  1.00  0.00     0.029 A 
ATOM     56  C   UNL A   1      42.970  30.847  30.386  1.00  0.00     0.049 A 
ATOM     57  H   UNL A   1      42.901  28.886  29.611  1.00  0.00     0.167 HD
ATOM     58  C   UNL A   1      45.317  30.062  30.503  1.00  0.00     0.074 A 
ATOM     59  C   UNL A   1      46.719  30.244  30.816  1.00  0.00     0.031 C 
ATOM     60  C   UNL A   1      44.364  31.003  30.706  1.00  0.00     0.037 A 
BRANCH  47  61
ATOM     61  C   UNL A   1      38.692  29.237  29.033  1.00  0.00     0.057 A 
ATOM     62  C   UNL A   1      38.128  29.630  27.813  1.00  0.00     0.134 A 
ATOM     63  C   UNL A   1      37.838  29.137  30.138  1.00  0.00     0.134 A 
ATOM     64  F   UNL A   1      38.895  29.757  26.719  1.00  0.00    -0.206 F 
ATOM     65  C   UNL A   1      36.770  29.934  27.699  1.00  0.00     0.040 A 
ATOM     66  C   UNL A   1      36.474  29.415  30.033  1.00  0.00     0.040 A 
ATOM     67  F   UNL A   1      38.313  28.760  31.335  1.00  0.00    -0.206 F 
ATOM     68  C   UNL A   1      35.937  29.819  28.811  1.00  0.00     0.006 A 
ENDBRANCH  47  61
BRANCH  48  69
ATOM     69  C   UNL A   1      48.271  26.528  29.594  1.00  0.00     0.057 A 
ATOM     70  C   UNL A   1      49.144  26.808  28.536  1.00  0.00     0.134 A 
ATOM     71  C   UNL A   1      48.797  25.858  30.705  1.00  0.00     0.134 A 
ATOM     72  F   UNL A   1      48.693  27.431  27.437  1.00  0.00    -0.206 F 
ATOM     73  C   UNL A   1      50.482  26.415  28.568  1.00  0.00     0.040 A 
ATOM     74  C   UNL A   1      50.139  25.479  30.761  1.00  0.00     0.040 A 
ATOM     75  F   UNL A   1      48.013  25.568  31.754  1.00  0.00    -0.206 F 
ATOM     76  C   UNL A   1      50.984  25.749  29.685  1.00  0.00     0.006 A 
ENDBRANCH  48  69
BRANCH  60  77
ATOM     77  C   UNL A   1      44.800  32.295  31.327  1.00  0.00     0.057 A 
ATOM     78  C   UNL A   1      45.207  33.384  30.548  1.00  0.00     0.134 A 
ATOM     79  C   UNL A   1      44.779  32.460  32.716  1.00  0.00     0.134 A 
ATOM     80  F   UNL A   1      45.260  33.283  29.211  1.00  0.00    -0.206 F 
ATOM     81  C   UNL A   1      45.596  34.591  31.132  1.00  0.00     0.040 A 
ATOM     82  C   UNL A   1      45.146  33.667  33.312  1.00  0.00     0.040 A 
ATOM     83  F   UNL A   1      44.393  31.456  33.517  1.00  0.00    -0.206 F 
ATOM     84  C   UNL A   1      45.561  34.736  32.518  1.00  0.00     0.006 A 
ENDBRANCH  60  77
ENDBRANCH  34  35
ENDBRANCH  26  29
ENDBRANCH  24  25
ENDBRANCH  23  24
ENDBRANCH   1  23
TORSDOF 13
ENDMDL
MODEL 3
REMARK VINA RESULT:      -9.4      4.267      9.940
REMARK SMILES Cc1ccc(O)c(C[N@H+]2CC[C@](C)(C(=O)NCCCNC(=O)c3ccc(-c4c5nc(c(-c6c(F)cccc6F)c6ccc([nH]6)c(-c6c(F)cccc6F)c6nc(c(-c7c(F)cccc7F)c7ccc4[nH]7)C=C6)C=C5)cc3)C2)n1
REMARK SMILES IDX 17 1 16 2 14 3 15 4 12 6 9 7 10 8 77 9 11 11 13 12 8 13 7 14
REMARK SMILES IDX 1 15 2 16 3 17 78 18 4 19 5 20 6 21 18 23 19 24 20 25 21 26
REMARK SMILES IDX 22 28 23 29 24 30 76 31 25 32 75 33 26 34 27 35 28 36 69 37
REMARK SMILES IDX 29 38 74 39 68 40 70 41 30 42 73 43 67 44 66 45 31 47 57 48
REMARK SMILES IDX 40 49 56 50 41 51 44 52 55 53 71 54 42 55 43 56 54 58 72 59
REMARK SMILES IDX 45 60 32 61 33 62 38 63 34 64 35 65 37 66 39 67 36 68 58 69
REMARK SMILES IDX 59 70 64 71 60 72 61 73 63 74 65 75 62 76 46 77 47 78 52 79
REMARK SMILES IDX 48 80 49 81 51 82 53 83 50 84
REMARK H PARENT 16 5 9 10 6 22 20 27 70 46 44 57
REMARK Flexibility Score: inf
ROOT
ATOM      1  C   UNL A   1      37.253  20.526  24.965  1.00  0.00     0.117 C 
ENDROOT
BRANCH   1   2
ATOM      2  N   UNL A   1      35.908  19.981  25.052  1.00  0.00    -0.355 N 
ATOM      3  C   UNL A   1      34.681  20.569  24.926  1.00  0.00     0.231 C 
ATOM      4  O   UNL A   1      33.703  19.819  24.972  1.00  0.00    -0.274 OA
ATOM      5  H   UNL A   1      35.874  19.016  25.236  1.00  0.00     0.163 HD
BRANCH   3   6
ATOM      6  C   UNL A   1      34.535  22.074  24.700  1.00  0.00     0.100 C 
ATOM      7  N   UNL A   1      33.539  23.439  22.967  1.00  0.00    -0.329 N 
ATOM      8  C   UNL A   1      34.921  23.863  23.140  1.00  0.00     0.263 C 
ATOM      9  C   UNL A   1      33.237  22.386  23.940  1.00  0.00     0.279 C 
ATOM     10  H   UNL A   1      33.448  23.037  22.034  1.00  0.00     0.348 HD
ATOM     11  C   UNL A   1      35.587  22.618  23.711  1.00  0.00     0.084 C 
ATOM     12  C   UNL A   1      34.705  22.831  26.032  1.00  0.00     0.028 C 
BRANCH   7  13
ATOM     13  C   UNL A   1      32.548  24.523  22.871  1.00  0.00     0.323 C 
BRANCH  13  14
ATOM     14  C   UNL A   1      33.042  25.945  23.101  1.00  0.00     0.136 A 
ATOM     15  C   UNL A   1      33.718  27.999  26.086  1.00  0.00     0.067 C 
ATOM     16  C   UNL A   1      33.584  27.619  24.644  1.00  0.00     0.038 A 
ATOM     17  C   UNL A   1      33.933  28.497  23.628  1.00  0.00     0.027 A 
ATOM     18  N   UNL A   1      33.134  26.369  24.394  1.00  0.00    -0.248 NA
ATOM     19  C   UNL A   1      33.811  28.076  22.305  1.00  0.00     0.050 A 
ATOM     20  C   UNL A   1      33.361  26.786  22.037  1.00  0.00     0.142 A 
BRANCH  20  21
ATOM     21  O   UNL A   1      33.236  26.360  20.746  1.00  0.00    -0.506 OA
ATOM     22  H   UNL A   1      32.563  25.751  20.518  1.00  0.00     0.293 HD
ENDBRANCH  20  21
ENDBRANCH  13  14
ENDBRANCH   7  13
ENDBRANCH   3   6
ENDBRANCH   1   2
BRANCH   1  23
ATOM     23  C   UNL A   1      38.340  19.458  24.963  1.00  0.00     0.042 C 
BRANCH  23  24
ATOM     24  C   UNL A   1      39.308  19.530  26.138  1.00  0.00     0.118 C 
BRANCH  24  25
ATOM     25  N   UNL A   1      40.621  18.981  25.827  1.00  0.00    -0.352 N 
ATOM     26  C   UNL A   1      41.866  19.546  25.869  1.00  0.00     0.251 C 
ATOM     27  H   UNL A   1      40.610  18.040  25.535  1.00  0.00     0.163 HD
ATOM     28  O   UNL A   1      42.819  18.921  25.391  1.00  0.00    -0.269 OA
BRANCH  26  29
ATOM     29  C   UNL A   1      42.102  20.884  26.456  1.00  0.00     0.039 A 
ATOM     30  C   UNL A   1      42.385  21.950  25.592  1.00  0.00     0.014 A 
ATOM     31  C   UNL A   1      42.120  21.095  27.837  1.00  0.00     0.014 A 
ATOM     32  C   UNL A   1      42.635  23.223  26.108  1.00  0.00     0.010 A 
ATOM     33  C   UNL A   1      42.291  22.382  28.347  1.00  0.00     0.010 A 
ATOM     34  C   UNL A   1      42.567  23.457  27.490  1.00  0.00    -0.014 A 
BRANCH  34  35
ATOM     35  C   UNL A   1      42.816  24.808  28.053  1.00  0.00     0.031 A 
ATOM     36  C   UNL A   1      44.204  25.203  28.484  1.00  0.00     0.074 A 
ATOM     37  C   UNL A   1      41.792  25.669  28.210  1.00  0.00     0.049 A 
ATOM     38  N   UNL A   1      44.609  26.312  29.050  1.00  0.00    -0.248 NA
ATOM     39  C   UNL A   1      45.272  24.212  28.273  1.00  0.00     0.031 C 
ATOM     40  C   UNL A   1      40.395  25.394  27.874  1.00  0.00     0.029 A 
ATOM     41  N   UNL A   1      41.770  26.950  28.703  1.00  0.00    -0.354 N 
ATOM     42  C   UNL A   1      45.971  26.147  29.271  1.00  0.00     0.074 A 
ATOM     43  C   UNL A   1      46.314  24.813  28.827  1.00  0.00     0.031 C 
ATOM     44  C   UNL A   1      39.654  26.480  28.150  1.00  0.00     0.029 A 
ATOM     45  C   UNL A   1      40.518  27.515  28.710  1.00  0.00     0.049 A 
ATOM     46  H   UNL A   1      42.575  27.419  29.022  1.00  0.00     0.167 HD
ATOM     47  C   UNL A   1      46.863  27.034  29.773  1.00  0.00     0.037 A 
ATOM     48  C   UNL A   1      40.113  28.730  29.122  1.00  0.00     0.037 A 
ATOM     49  C   UNL A   1      46.533  28.372  30.188  1.00  0.00     0.049 A 
ATOM     50  C   UNL A   1      41.125  29.702  29.662  1.00  0.00     0.074 A 
ATOM     51  C   UNL A   1      47.372  29.353  30.685  1.00  0.00     0.029 A 
ATOM     52  N   UNL A   1      45.260  28.917  30.143  1.00  0.00    -0.354 N 
ATOM     53  N   UNL A   1      42.417  29.544  29.825  1.00  0.00    -0.248 NA
ATOM     54  C   UNL A   1      40.626  31.026  30.064  1.00  0.00     0.031 C 
ATOM     55  C   UNL A   1      46.603  30.490  30.958  1.00  0.00     0.029 A 
ATOM     56  C   UNL A   1      45.291  30.223  30.602  1.00  0.00     0.049 A 
ATOM     57  H   UNL A   1      44.455  28.446  29.830  1.00  0.00     0.167 HD
ATOM     58  C   UNL A   1      42.886  30.752  30.326  1.00  0.00     0.074 A 
ATOM     59  C   UNL A   1      41.745  31.638  30.424  1.00  0.00     0.031 C 
ATOM     60  C   UNL A   1      44.149  31.094  30.677  1.00  0.00     0.037 A 
BRANCH  47  61
ATOM     61  C   UNL A   1      48.292  26.590  29.879  1.00  0.00     0.057 A 
ATOM     62  C   UNL A   1      49.219  26.866  28.867  1.00  0.00     0.134 A 
ATOM     63  C   UNL A   1      48.755  25.917  31.015  1.00  0.00     0.134 A 
ATOM     64  F   UNL A   1      48.835  27.497  27.746  1.00  0.00    -0.206 F 
ATOM     65  C   UNL A   1      50.554  26.471  28.971  1.00  0.00     0.040 A 
ATOM     66  C   UNL A   1      50.092  25.537  31.143  1.00  0.00     0.040 A 
ATOM     67  F   UNL A   1      47.920  25.627  32.024  1.00  0.00    -0.206 F 
ATOM     68  C   UNL A   1      50.995  25.810  30.116  1.00  0.00     0.006 A 
ENDBRANCH  47  61
BRANCH  48  69
ATOM     69  C   UNL A   1      38.683  29.114  29.023  1.00  0.00     0.057 A 
ATOM     70  C   UNL A   1      38.145  29.590  27.821  1.00  0.00     0.134 A 
ATOM     71  C   UNL A   1      37.827  29.036  30.128  1.00  0.00     0.134 A 
ATOM     72  F   UNL A   1      38.922  29.703  26.733  1.00  0.00    -0.206 F 
ATOM     73  C   UNL A   1      36.815  29.998  27.727  1.00  0.00     0.040 A 
ATOM     74  C   UNL A   1      36.488  29.420  30.042  1.00  0.00     0.040 A 
ATOM     75  F   UNL A   1      38.282  28.582  31.305  1.00  0.00    -0.206 F 
ATOM     76  C   UNL A   1      35.981  29.911  28.840  1.00  0.00     0.006 A 
ENDBRANCH  48  69
BRANCH  60  77
ATOM     77  C   UNL A   1      44.366  32.495  31.162  1.00  0.00     0.057 A 
ATOM     78  C   UNL A   1      44.317  32.817  32.524  1.00  0.00     0.134 A 
ATOM     79  C   UNL A   1      44.663  33.523  30.261  1.00  0.00     0.134 A 
ATOM     80  F   UNL A   1      44.025  31.877  33.435  1.00  0.00    -0.206 F 
ATOM     81  C   UNL A   1      44.537  34.121  32.971  1.00  0.00     0.040 A 
ATOM     82  C   UNL A   1      44.905  34.827  30.696  1.00  0.00     0.040 A 
ATOM     83  F   UNL A   1      44.731  33.278  28.944  1.00  0.00    -0.206 F 
ATOM     84  C   UNL A   1      44.837  35.129  32.056  1.00  0.00     0.006 A 
ENDBRANCH  60  77
ENDBRANCH  34  35
ENDBRANCH  26  29
ENDBRANCH  24  25
ENDBRANCH  23  24
ENDBRANCH   1  23
TORSDOF 13
ENDMDL
