MODEL 1
REMARK VINA RESULT:     -12.3      0.000      0.000
REMARK SMILES Cc1cc(N2N=C(C(=O)NCCCNC(=O)c3ccc(-c4c5nc(c(-c6c(F)cccc6F)c6ccc([nH]6)c(-c6c(F)cccc6F)c6nc(c(-c7c(F)cccc7F)c7ccc4[nH]7)C=C6)C=C5)cc3)C[C@H]2c2ccccc2)c([N+](=O)[O-])cc1C
REMARK SMILES IDX 12 1 11 2 10 3 8 4 9 5 7 7 5 8 6 9 72 10 71 11 4 12 1 13
REMARK SMILES IDX 2 14 3 15 84 16 83 17 85 18 79 19 80 20 81 21 82 22 73 23
REMARK SMILES IDX 74 24 78 25 75 26 77 27 76 28 13 29 14 30 15 31 16 33 17 34
REMARK SMILES IDX 18 35 70 36 19 37 69 38 20 39 21 40 22 41 63 42 23 43 68 44
REMARK SMILES IDX 62 45 64 46 24 47 67 48 61 49 60 50 25 52 51 53 34 54 50 55
REMARK SMILES IDX 35 56 38 57 49 58 65 59 36 60 37 61 48 63 66 64 39 65 26 66
REMARK SMILES IDX 27 67 32 68 28 69 29 70 31 71 33 72 30 73 52 74 53 75 58 76
REMARK SMILES IDX 54 77 55 78 57 79 59 80 56 81 40 82 41 83 46 84 42 85 43 86
REMARK SMILES IDX 45 87 47 88 44 89
REMARK H PARENT 10 6 14 32 64 51 38 62
REMARK Flexibility Score: inf
ROOT
ATOM      1  C   UNL A   1      35.298  22.992  25.919  1.00  0.00     0.042 C 
ENDROOT
BRANCH   1   2
ATOM      2  C   UNL A   1      34.405  23.506  24.798  1.00  0.00     0.118 C 
BRANCH   2   3
ATOM      3  N   UNL A   1      33.058  22.996  24.935  1.00  0.00    -0.351 N 
ATOM      4  C   UNL A   1      31.845  23.566  25.210  1.00  0.00     0.267 C 
ATOM      5  O   UNL A   1      30.882  22.811  25.326  1.00  0.00    -0.268 OA
ATOM      6  H   UNL A   1      33.002  22.022  24.800  1.00  0.00     0.163 HD
BRANCH   4   7
ATOM      7  C   UNL A   1      31.610  25.063  25.321  1.00  0.00     0.128 C 
ATOM      8  N   UNL A   1      31.340  27.069  24.646  1.00  0.00    -0.250 N 
ATOM      9  N   UNL A   1      31.521  25.788  24.244  1.00  0.00    -0.171 NA
ATOM     10  C   UNL A   1      31.294  27.236  26.103  1.00  0.00     0.144 C 
ATOM     11  C   UNL A   1      31.346  25.787  26.604  1.00  0.00     0.096 C 
BRANCH   8  12
ATOM     12  C   UNL A   1      30.682  27.974  23.815  1.00  0.00     0.138 A 
ATOM     13  C   UNL A   1      26.992  28.647  23.139  1.00  0.00     0.045 C 
ATOM     14  C   UNL A   1      28.486  28.784  23.032  1.00  0.00    -0.046 A 
ATOM     15  C   UNL A   1      29.282  28.019  23.902  1.00  0.00     0.039 A 
ATOM     16  C   UNL A   1      29.109  29.621  22.095  1.00  0.00    -0.041 A 
ATOM     17  C   UNL A   1      30.514  29.637  22.028  1.00  0.00     0.091 A 
ATOM     18  C   UNL A   1      28.343  30.515  21.161  1.00  0.00     0.045 C 
ATOM     19  C   UNL A   1      31.283  28.809  22.868  1.00  0.00     0.294 A 
BRANCH  19  20
ATOM     20  N   UNL A   1      32.725  28.792  22.646  1.00  0.00     0.065 N 
ATOM     21  O   UNL A   1      33.157  28.002  21.792  1.00  0.00    -0.258 OA
ATOM     22  O   UNL A   1      33.439  29.472  23.402  1.00  0.00    -0.258 OA
ENDBRANCH  19  20
ENDBRANCH   8  12
BRANCH  10  23
ATOM     23  C   UNL A   1      32.416  28.161  26.578  1.00  0.00    -0.023 A 
ATOM     24  C   UNL A   1      33.775  27.809  26.589  1.00  0.00     0.006 A 
ATOM     25  C   UNL A   1      32.077  29.465  26.989  1.00  0.00     0.006 A 
ATOM     26  C   UNL A   1      34.750  28.717  27.019  1.00  0.00     0.000 A 
ATOM     27  C   UNL A   1      33.054  30.385  27.372  1.00  0.00     0.000 A 
ATOM     28  C   UNL A   1      34.391  30.006  27.399  1.00  0.00     0.000 A 
ENDBRANCH  10  23
ENDBRANCH   4   7
ENDBRANCH   2   3
ENDBRANCH   1   2
BRANCH   1  29
ATOM     29  C   UNL A   1      36.713  23.551  25.820  1.00  0.00     0.118 C 
BRANCH  29  30
ATOM     30  N   UNL A   1      37.720  22.528  26.098  1.00  0.00    -0.352 N 
ATOM     31  C   UNL A   1      39.048  22.661  26.411  1.00  0.00     0.251 C 
ATOM     32  H   UNL A   1      37.393  21.600  26.054  1.00  0.00     0.163 HD
ATOM     33  O   UNL A   1      39.796  21.688  26.343  1.00  0.00    -0.269 OA
BRANCH  31  34
ATOM     34  C   UNL A   1      39.574  23.974  26.823  1.00  0.00     0.039 A 
ATOM     35  C   UNL A   1      40.116  24.832  25.864  1.00  0.00     0.014 A 
ATOM     36  C   UNL A   1      39.534  24.352  28.167  1.00  0.00     0.014 A 
ATOM     37  C   UNL A   1      40.553  26.101  26.246  1.00  0.00     0.010 A 
ATOM     38  C   UNL A   1      39.872  25.647  28.527  1.00  0.00     0.010 A 
ATOM     39  C   UNL A   1      40.397  26.531  27.573  1.00  0.00    -0.014 A 
BRANCH  39  40
ATOM     40  C   UNL A   1      40.799  27.888  28.014  1.00  0.00     0.031 A 
ATOM     41  C   UNL A   1      42.259  28.244  28.072  1.00  0.00     0.074 A 
ATOM     42  C   UNL A   1      39.868  28.755  28.454  1.00  0.00     0.049 A 
ATOM     43  N   UNL A   1      42.833  29.307  28.571  1.00  0.00    -0.248 NA
ATOM     44  C   UNL A   1      43.202  27.250  27.531  1.00  0.00     0.031 C 
ATOM     45  C   UNL A   1      38.424  28.509  28.483  1.00  0.00     0.029 A 
ATOM     46  N   UNL A   1      40.001  30.013  28.985  1.00  0.00    -0.354 N 
ATOM     47  C   UNL A   1      44.199  29.098  28.427  1.00  0.00     0.074 A 
ATOM     48  C   UNL A   1      44.371  27.784  27.850  1.00  0.00     0.031 C 
ATOM     49  C   UNL A   1      37.805  29.588  28.986  1.00  0.00     0.029 A 
ATOM     50  C   UNL A   1      38.807  30.579  29.365  1.00  0.00     0.049 A 
ATOM     51  H   UNL A   1      40.868  30.468  29.084  1.00  0.00     0.167 HD
ATOM     52  C   UNL A   1      45.218  29.939  28.727  1.00  0.00     0.037 A 
ATOM     53  C   UNL A   1      38.555  31.756  29.966  1.00  0.00     0.037 A 
ATOM     54  C   UNL A   1      45.036  31.255  29.274  1.00  0.00     0.049 A 
ATOM     55  C   UNL A   1      39.705  32.665  30.307  1.00  0.00     0.074 A 
ATOM     56  C   UNL A   1      45.996  32.208  29.562  1.00  0.00     0.029 A 
ATOM     57  N   UNL A   1      43.809  31.803  29.618  1.00  0.00    -0.354 N 
ATOM     58  N   UNL A   1      40.989  32.481  30.113  1.00  0.00    -0.248 NA
ATOM     59  C   UNL A   1      39.373  33.944  30.949  1.00  0.00     0.031 C 
ATOM     60  C   UNL A   1      45.356  33.313  30.130  1.00  0.00     0.029 A 
ATOM     61  C   UNL A   1      43.991  33.074  30.136  1.00  0.00     0.049 A 
ATOM     62  H   UNL A   1      42.939  31.355  29.511  1.00  0.00     0.167 HD
ATOM     63  C   UNL A   1      41.613  33.636  30.568  1.00  0.00     0.074 A 
ATOM     64  C   UNL A   1      40.565  34.515  31.047  1.00  0.00     0.031 C 
ATOM     65  C   UNL A   1      42.932  33.943  30.585  1.00  0.00     0.037 A 
BRANCH  52  66
ATOM     66  C   UNL A   1      46.615  29.454  28.467  1.00  0.00     0.057 A 
ATOM     67  C   UNL A   1      47.357  28.772  29.442  1.00  0.00     0.134 A 
ATOM     68  C   UNL A   1      47.218  29.647  27.217  1.00  0.00     0.134 A 
ATOM     69  F   UNL A   1      46.846  28.564  30.665  1.00  0.00    -0.206 F 
ATOM     70  C   UNL A   1      48.657  28.327  29.193  1.00  0.00     0.040 A 
ATOM     71  C   UNL A   1      48.504  29.179  26.947  1.00  0.00     0.040 A 
ATOM     72  F   UNL A   1      46.563  30.287  26.237  1.00  0.00    -0.206 F 
ATOM     73  C   UNL A   1      49.230  28.523  27.939  1.00  0.00     0.006 A 
ENDBRANCH  52  66
BRANCH  53  74
ATOM     74  C   UNL A   1      37.157  32.153  30.273  1.00  0.00     0.057 A 
ATOM     75  C   UNL A   1      36.367  32.804  29.318  1.00  0.00     0.134 A 
ATOM     76  C   UNL A   1      36.580  31.903  31.523  1.00  0.00     0.134 A 
ATOM     77  F   UNL A   1      36.868  33.084  28.106  1.00  0.00    -0.206 F 
ATOM     78  C   UNL A   1      35.063  33.213  29.601  1.00  0.00     0.040 A 
ATOM     79  C   UNL A   1      35.266  32.282  31.812  1.00  0.00     0.040 A 
ATOM     80  F   UNL A   1      37.278  31.273  32.479  1.00  0.00    -0.206 F 
ATOM     81  C   UNL A   1      34.508  32.948  30.852  1.00  0.00     0.006 A 
ENDBRANCH  53  74
BRANCH  65  82
ATOM     82  C   UNL A   1      43.322  35.307  31.077  1.00  0.00     0.057 A 
ATOM     83  C   UNL A   1      43.538  35.576  32.433  1.00  0.00     0.134 A 
ATOM     84  C   UNL A   1      43.549  36.347  30.166  1.00  0.00     0.134 A 
ATOM     85  F   UNL A   1      43.327  34.627  33.358  1.00  0.00    -0.206 F 
ATOM     86  C   UNL A   1      43.953  36.836  32.867  1.00  0.00     0.040 A 
ATOM     87  C   UNL A   1      43.992  37.601  30.584  1.00  0.00     0.040 A 
ATOM     88  F   UNL A   1      43.370  36.152  28.850  1.00  0.00    -0.206 F 
ATOM     89  C   UNL A   1      44.192  37.850  31.940  1.00  0.00     0.006 A 
ENDBRANCH  65  82
ENDBRANCH  39  40
ENDBRANCH  31  34
ENDBRANCH  29  30
ENDBRANCH   1  29
TORSDOF 13
ENDMDL
MODEL 2
REMARK VINA RESULT:     -12.3      2.927      8.246
REMARK SMILES Cc1cc(N2N=C(C(=O)NCCCNC(=O)c3ccc(-c4c5nc(c(-c6c(F)cccc6F)c6ccc([nH]6)c(-c6c(F)cccc6F)c6nc(c(-c7c(F)cccc7F)c7ccc4[nH]7)C=C6)C=C5)cc3)C[C@H]2c2ccccc2)c([N+](=O)[O-])cc1C
REMARK SMILES IDX 12 1 11 2 10 3 8 4 9 5 7 7 5 8 6 9 72 10 71 11 4 12 1 13
REMARK SMILES IDX 2 14 3 15 84 16 83 17 85 18 79 19 80 20 81 21 82 22 73 23
REMARK SMILES IDX 74 24 78 25 75 26 77 27 76 28 13 29 14 30 15 31 16 33 17 34
REMARK SMILES IDX 18 35 70 36 19 37 69 38 20 39 21 40 22 41 63 42 23 43 68 44
REMARK SMILES IDX 62 45 64 46 24 47 67 48 61 49 60 50 25 52 51 53 34 54 50 55
REMARK SMILES IDX 35 56 38 57 49 58 65 59 36 60 37 61 48 63 66 64 39 65 26 66
REMARK SMILES IDX 27 67 32 68 28 69 29 70 31 71 33 72 30 73 52 74 53 75 58 76
REMARK SMILES IDX 54 77 55 78 57 79 59 80 56 81 40 82 41 83 46 84 42 85 43 86
REMARK SMILES IDX 45 87 47 88 44 89
REMARK H PARENT 10 6 14 32 64 51 38 62
REMARK Flexibility Score: inf
ROOT
ATOM      1  C   UNL A   1      32.797  28.269  26.064  1.00  0.00     0.042 C 
ENDROOT
BRANCH   1   2
ATOM      2  C   UNL A   1      33.429  27.310  25.063  1.00  0.00     0.118 C 
BRANCH   2   3
ATOM      3  N   UNL A   1      32.437  26.790  24.148  1.00  0.00    -0.351 N 
ATOM      4  C   UNL A   1      32.279  25.602  23.486  1.00  0.00     0.267 C 
ATOM      5  O   UNL A   1      31.331  25.514  22.708  1.00  0.00    -0.268 OA
ATOM      6  H   UNL A   1      31.715  27.432  23.959  1.00  0.00     0.163 HD
BRANCH   4   7
ATOM      7  C   UNL A   1      33.160  24.382  23.698  1.00  0.00     0.128 C 
ATOM      8  N   UNL A   1      33.744  22.490  24.491  1.00  0.00    -0.250 N 
ATOM      9  N   UNL A   1      32.757  23.417  24.471  1.00  0.00    -0.171 NA
ATOM     10  C   UNL A   1      34.906  22.839  23.665  1.00  0.00     0.144 C 
ATOM     11  C   UNL A   1      34.447  24.130  22.976  1.00  0.00     0.096 C 
BRANCH   8  12
ATOM     12  C   UNL A   1      33.441  21.154  24.746  1.00  0.00     0.138 A 
ATOM     13  C   UNL A   1      32.250  18.304  22.514  1.00  0.00     0.045 C 
ATOM     14  C   UNL A   1      32.677  19.022  23.764  1.00  0.00    -0.046 A 
ATOM     15  C   UNL A   1      33.130  20.347  23.641  1.00  0.00     0.039 A 
ATOM     16  C   UNL A   1      32.622  18.436  25.037  1.00  0.00    -0.041 A 
ATOM     17  C   UNL A   1      32.985  19.206  26.155  1.00  0.00     0.091 A 
ATOM     18  C   UNL A   1      32.203  17.009  25.261  1.00  0.00     0.045 C 
ATOM     19  C   UNL A   1      33.372  20.552  26.007  1.00  0.00     0.294 A 
BRANCH  19  20
ATOM     20  N   UNL A   1      33.608  21.315  27.227  1.00  0.00     0.065 N 
ATOM     21  O   UNL A   1      32.621  21.836  27.770  1.00  0.00    -0.258 OA
ATOM     22  O   UNL A   1      34.785  21.500  27.581  1.00  0.00    -0.258 OA
ENDBRANCH  19  20
ENDBRANCH   8  12
BRANCH  10  23
ATOM     23  C   UNL A   1      36.170  22.938  24.522  1.00  0.00    -0.023 A 
ATOM     24  C   UNL A   1      36.465  24.018  25.369  1.00  0.00     0.006 A 
ATOM     25  C   UNL A   1      37.077  21.860  24.501  1.00  0.00     0.006 A 
ATOM     26  C   UNL A   1      37.633  24.031  26.140  1.00  0.00     0.000 A 
ATOM     27  C   UNL A   1      38.216  21.851  25.306  1.00  0.00     0.000 A 
ATOM     28  C   UNL A   1      38.502  22.944  26.118  1.00  0.00     0.000 A 
ENDBRANCH  10  23
ENDBRANCH   4   7
ENDBRANCH   2   3
ENDBRANCH   1   2
BRANCH   1  29
ATOM     29  C   UNL A   1      33.720  28.547  27.245  1.00  0.00     0.118 C 
BRANCH  29  30
ATOM     30  N   UNL A   1      33.725  29.964  27.605  1.00  0.00    -0.352 N 
ATOM     31  C   UNL A   1      34.669  30.699  28.275  1.00  0.00     0.251 C 
ATOM     32  H   UNL A   1      32.927  30.468  27.323  1.00  0.00     0.163 HD
ATOM     33  O   UNL A   1      34.379  31.807  28.723  1.00  0.00    -0.269 OA
BRANCH  31  34
ATOM     34  C   UNL A   1      36.025  30.154  28.459  1.00  0.00     0.039 A 
ATOM     35  C   UNL A   1      36.948  30.232  27.414  1.00  0.00     0.014 A 
ATOM     36  C   UNL A   1      36.378  29.557  29.670  1.00  0.00     0.014 A 
ATOM     37  C   UNL A   1      38.251  29.775  27.613  1.00  0.00     0.010 A 
ATOM     38  C   UNL A   1      37.697  29.199  29.901  1.00  0.00     0.010 A 
ATOM     39  C   UNL A   1      38.645  29.293  28.871  1.00  0.00    -0.014 A 
BRANCH  39  40
ATOM     40  C   UNL A   1      40.032  28.844  29.144  1.00  0.00     0.031 A 
ATOM     41  C   UNL A   1      41.011  29.804  29.760  1.00  0.00     0.074 A 
ATOM     42  C   UNL A   1      40.431  27.621  28.750  1.00  0.00     0.049 A 
ATOM     43  N   UNL A   1      42.299  29.672  29.939  1.00  0.00    -0.248 NA
ATOM     44  C   UNL A   1      40.474  31.104  30.199  1.00  0.00     0.031 C 
ATOM     45  C   UNL A   1      39.582  26.615  28.106  1.00  0.00     0.029 A 
ATOM     46  N   UNL A   1      41.665  27.023  28.812  1.00  0.00    -0.354 N 
ATOM     47  C   UNL A   1      42.728  30.876  30.483  1.00  0.00     0.074 A 
ATOM     48  C   UNL A   1      41.576  31.747  30.551  1.00  0.00     0.031 C 
ATOM     49  C   UNL A   1      40.315  25.520  27.850  1.00  0.00     0.029 A 
ATOM     50  C   UNL A   1      41.694  25.764  28.261  1.00  0.00     0.049 A 
ATOM     51  H   UNL A   1      42.453  27.454  29.213  1.00  0.00     0.167 HD
ATOM     52  C   UNL A   1      43.966  31.216  30.911  1.00  0.00     0.037 A 
ATOM     53  C   UNL A   1      42.723  24.913  28.091  1.00  0.00     0.037 A 
ATOM     54  C   UNL A   1      45.100  30.333  30.866  1.00  0.00     0.049 A 
ATOM     55  C   UNL A   1      44.094  25.320  28.558  1.00  0.00     0.074 A 
ATOM     56  C   UNL A   1      46.385  30.558  31.324  1.00  0.00     0.029 A 
ATOM     57  N   UNL A   1      45.082  29.055  30.327  1.00  0.00    -0.354 N 
ATOM     58  N   UNL A   1      44.476  26.439  29.125  1.00  0.00    -0.248 NA
ATOM     59  C   UNL A   1      45.178  24.347  28.363  1.00  0.00     0.031 C 
ATOM     60  C   UNL A   1      47.160  29.436  31.015  1.00  0.00     0.029 A 
ATOM     61  C   UNL A   1      46.342  28.488  30.422  1.00  0.00     0.049 A 
ATOM     62  H   UNL A   1      44.293  28.617  29.934  1.00  0.00     0.167 HD
ATOM     63  C   UNL A   1      45.830  26.289  29.392  1.00  0.00     0.074 A 
ATOM     64  C   UNL A   1      46.204  24.969  28.927  1.00  0.00     0.031 C 
ATOM     65  C   UNL A   1      46.687  27.162  29.975  1.00  0.00     0.037 A 
BRANCH  52  66
ATOM     66  C   UNL A   1      44.154  32.599  31.464  1.00  0.00     0.057 A 
ATOM     67  C   UNL A   1      43.988  32.882  32.828  1.00  0.00     0.134 A 
ATOM     68  C   UNL A   1      44.533  33.658  30.629  1.00  0.00     0.134 A 
ATOM     69  F   UNL A   1      43.613  31.919  33.682  1.00  0.00    -0.206 F 
ATOM     70  C   UNL A   1      44.162  34.172  33.333  1.00  0.00     0.040 A 
ATOM     71  C   UNL A   1      44.740  34.944  31.128  1.00  0.00     0.040 A 
ATOM     72  F   UNL A   1      44.714  33.457  29.315  1.00  0.00    -0.206 F 
ATOM     73  C   UNL A   1      44.547  35.206  32.483  1.00  0.00     0.006 A 
ENDBRANCH  52  66
BRANCH  53  74
ATOM     74  C   UNL A   1      42.496  23.585  27.466  1.00  0.00     0.057 A 
ATOM     75  C   UNL A   1      42.230  22.455  28.249  1.00  0.00     0.134 A 
ATOM     76  C   UNL A   1      42.550  23.407  26.078  1.00  0.00     0.134 A 
ATOM     77  F   UNL A   1      42.180  22.558  29.585  1.00  0.00    -0.206 F 
ATOM     78  C   UNL A   1      42.048  21.194  27.679  1.00  0.00     0.040 A 
ATOM     79  C   UNL A   1      42.343  22.156  25.492  1.00  0.00     0.040 A 
ATOM     80  F   UNL A   1      42.789  24.450  25.270  1.00  0.00    -0.206 F 
ATOM     81  C   UNL A   1      42.101  21.044  26.295  1.00  0.00     0.006 A 
ENDBRANCH  53  74
BRANCH  65  82
ATOM     82  C   UNL A   1      48.098  26.704  30.202  1.00  0.00     0.057 A 
ATOM     83  C   UNL A   1      48.474  25.983  31.342  1.00  0.00     0.134 A 
ATOM     84  C   UNL A   1      49.079  26.931  29.227  1.00  0.00     0.134 A 
ATOM     85  F   UNL A   1      47.586  25.743  32.319  1.00  0.00    -0.206 F 
ATOM     86  C   UNL A   1      49.779  25.518  31.510  1.00  0.00     0.040 A 
ATOM     87  C   UNL A   1      50.379  26.445  29.370  1.00  0.00     0.040 A 
ATOM     88  F   UNL A   1      48.782  27.605  28.105  1.00  0.00    -0.206 F 
ATOM     89  C   UNL A   1      50.733  25.739  30.518  1.00  0.00     0.006 A 
ENDBRANCH  65  82
ENDBRANCH  39  40
ENDBRANCH  31  34
ENDBRANCH  29  30
ENDBRANCH   1  29
TORSDOF 13
ENDMDL
MODEL 3
REMARK VINA RESULT:     -12.3      1.653      2.213
REMARK SMILES Cc1cc(N2N=C(C(=O)NCCCNC(=O)c3ccc(-c4c5nc(c(-c6c(F)cccc6F)c6ccc([nH]6)c(-c6c(F)cccc6F)c6nc(c(-c7c(F)cccc7F)c7ccc4[nH]7)C=C6)C=C5)cc3)C[C@H]2c2ccccc2)c([N+](=O)[O-])cc1C
REMARK SMILES IDX 12 1 11 2 10 3 8 4 9 5 7 7 5 8 6 9 72 10 71 11 4 12 1 13
REMARK SMILES IDX 2 14 3 15 84 16 83 17 85 18 79 19 80 20 81 21 82 22 73 23
REMARK SMILES IDX 74 24 78 25 75 26 77 27 76 28 13 29 14 30 15 31 16 33 17 34
REMARK SMILES IDX 18 35 70 36 19 37 69 38 20 39 21 40 22 41 63 42 23 43 68 44
REMARK SMILES IDX 62 45 64 46 24 47 67 48 61 49 60 50 25 52 51 53 34 54 50 55
REMARK SMILES IDX 35 56 38 57 49 58 65 59 36 60 37 61 48 63 66 64 39 65 26 66
REMARK SMILES IDX 27 67 32 68 28 69 29 70 31 71 33 72 30 73 52 74 53 75 58 76
REMARK SMILES IDX 54 77 55 78 57 79 59 80 56 81 40 82 41 83 46 84 42 85 43 86
REMARK SMILES IDX 45 87 47 88 44 89
REMARK H PARENT 10 6 14 32 64 51 38 62
REMARK Flexibility Score: inf
ROOT
ATOM      1  C   UNL A   1      35.781  22.945  25.215  1.00  0.00     0.042 C 
ENDROOT
BRANCH   1   2
ATOM      2  C   UNL A   1      34.685  23.777  24.562  1.00  0.00     0.118 C 
BRANCH   2   3
ATOM      3  N   UNL A   1      33.387  23.166  24.755  1.00  0.00    -0.351 N 
ATOM      4  C   UNL A   1      32.150  23.642  25.096  1.00  0.00     0.267 C 
ATOM      5  O   UNL A   1      31.252  22.816  25.247  1.00  0.00    -0.268 OA
ATOM      6  H   UNL A   1      33.397  22.193  24.610  1.00  0.00     0.163 HD
BRANCH   4   7
ATOM      7  C   UNL A   1      31.812  25.117  25.239  1.00  0.00     0.128 C 
ATOM      8  N   UNL A   1      31.407  27.113  24.607  1.00  0.00    -0.250 N 
ATOM      9  N   UNL A   1      31.679  25.858  24.178  1.00  0.00    -0.171 NA
ATOM     10  C   UNL A   1      31.340  27.243  26.067  1.00  0.00     0.144 C 
ATOM     11  C   UNL A   1      31.490  25.791  26.536  1.00  0.00     0.096 C 
BRANCH   8  12
ATOM     12  C   UNL A   1      30.693  27.990  23.791  1.00  0.00     0.138 A 
ATOM     13  C   UNL A   1      26.965  28.486  23.175  1.00  0.00     0.045 C 
ATOM     14  C   UNL A   1      28.448  28.696  23.046  1.00  0.00    -0.046 A 
ATOM     15  C   UNL A   1      29.294  27.966  23.899  1.00  0.00     0.039 A 
ATOM     16  C   UNL A   1      29.016  29.567  22.104  1.00  0.00    -0.041 A 
ATOM     17  C   UNL A   1      30.416  29.651  22.016  1.00  0.00     0.091 A 
ATOM     18  C   UNL A   1      28.192  30.428  21.187  1.00  0.00     0.045 C 
ATOM     19  C   UNL A   1      31.238  28.858  22.839  1.00  0.00     0.294 A 
BRANCH  19  20
ATOM     20  N   UNL A   1      32.675  28.912  22.596  1.00  0.00     0.065 N 
ATOM     21  O   UNL A   1      33.137  28.125  21.755  1.00  0.00    -0.258 OA
ATOM     22  O   UNL A   1      33.363  29.648  23.323  1.00  0.00    -0.258 OA
ENDBRANCH  19  20
ENDBRANCH   8  12
BRANCH  10  23
ATOM     23  C   UNL A   1      32.392  28.233  26.571  1.00  0.00    -0.023 A 
ATOM     24  C   UNL A   1      33.766  27.953  26.644  1.00  0.00     0.006 A 
ATOM     25  C   UNL A   1      31.970  29.524  26.945  1.00  0.00     0.006 A 
ATOM     26  C   UNL A   1      34.674  28.916  27.098  1.00  0.00     0.000 A 
ATOM     27  C   UNL A   1      32.882  30.500  27.351  1.00  0.00     0.000 A 
ATOM     28  C   UNL A   1      34.234  30.191  27.440  1.00  0.00     0.000 A 
ENDBRANCH  10  23
ENDBRANCH   4   7
ENDBRANCH   2   3
ENDBRANCH   1   2
BRANCH   1  29
ATOM     29  C   UNL A   1      37.144  23.619  25.110  1.00  0.00     0.118 C 
BRANCH  29  30
ATOM     30  N   UNL A   1      38.229  22.703  25.461  1.00  0.00    -0.352 N 
ATOM     31  C   UNL A   1      39.426  22.951  26.080  1.00  0.00     0.251 C 
ATOM     32  H   UNL A   1      38.074  21.762  25.213  1.00  0.00     0.163 HD
ATOM     33  O   UNL A   1      40.322  22.110  26.044  1.00  0.00    -0.269 OA
BRANCH  31  34
ATOM     34  C   UNL A   1      39.635  24.229  26.782  1.00  0.00     0.039 A 
ATOM     35  C   UNL A   1      39.109  24.408  28.063  1.00  0.00     0.014 A 
ATOM     36  C   UNL A   1      40.349  25.256  26.162  1.00  0.00     0.014 A 
ATOM     37  C   UNL A   1      39.364  25.594  28.751  1.00  0.00     0.010 A 
ATOM     38  C   UNL A   1      40.689  26.390  26.885  1.00  0.00     0.010 A 
ATOM     39  C   UNL A   1      40.189  26.576  28.182  1.00  0.00    -0.014 A 
BRANCH  39  40
ATOM     40  C   UNL A   1      40.530  27.831  28.896  1.00  0.00     0.031 A 
ATOM     41  C   UNL A   1      41.859  27.947  29.591  1.00  0.00     0.074 A 
ATOM     42  C   UNL A   1      39.615  28.812  29.003  1.00  0.00     0.049 A 
ATOM     43  N   UNL A   1      42.293  28.882  30.395  1.00  0.00    -0.248 NA
ATOM     44  C   UNL A   1      42.812  26.843  29.383  1.00  0.00     0.031 C 
ATOM     45  C   UNL A   1      38.278  28.796  28.405  1.00  0.00     0.029 A 
ATOM     46  N   UNL A   1      39.664  30.007  29.676  1.00  0.00    -0.354 N 
ATOM     47  C   UNL A   1      43.552  28.466  30.807  1.00  0.00     0.074 A 
ATOM     48  C   UNL A   1      43.789  27.170  30.213  1.00  0.00     0.031 C 
ATOM     49  C   UNL A   1      37.642  29.935  28.723  1.00  0.00     0.029 A 
ATOM     50  C   UNL A   1      38.503  30.736  29.588  1.00  0.00     0.049 A 
ATOM     51  H   UNL A   1      40.457  30.313  30.174  1.00  0.00     0.167 HD
ATOM     52  C   UNL A   1      44.443  29.119  31.591  1.00  0.00     0.037 A 
ATOM     53  C   UNL A   1      38.166  31.908  30.156  1.00  0.00     0.037 A 
ATOM     54  C   UNL A   1      44.210  30.421  32.155  1.00  0.00     0.049 A 
ATOM     55  C   UNL A   1      39.165  32.607  31.039  1.00  0.00     0.074 A 
ATOM     56  C   UNL A   1      45.066  31.195  32.917  1.00  0.00     0.029 A 
ATOM     57  N   UNL A   1      43.031  31.140  32.019  1.00  0.00    -0.354 N 
ATOM     58  N   UNL A   1      40.376  32.232  31.374  1.00  0.00    -0.248 NA
ATOM     59  C   UNL A   1      38.753  33.891  31.622  1.00  0.00     0.031 C 
ATOM     60  C   UNL A   1      44.387  32.359  33.286  1.00  0.00     0.029 A 
ATOM     61  C   UNL A   1      43.131  32.340  32.702  1.00  0.00     0.049 A 
ATOM     62  H   UNL A   1      42.241  30.841  31.513  1.00  0.00     0.167 HD
ATOM     63  C   UNL A   1      40.885  33.250  32.170  1.00  0.00     0.074 A 
ATOM     64  C   UNL A   1      39.851  34.260  32.266  1.00  0.00     0.031 C 
ATOM     65  C   UNL A   1      42.099  33.344  32.764  1.00  0.00     0.037 A 
BRANCH  52  66
ATOM     66  C   UNL A   1      45.746  28.433  31.881  1.00  0.00     0.057 A 
ATOM     67  C   UNL A   1      45.911  27.591  32.991  1.00  0.00     0.134 A 
ATOM     68  C   UNL A   1      46.844  28.590  31.025  1.00  0.00     0.134 A 
ATOM     69  F   UNL A   1      44.905  27.406  33.860  1.00  0.00    -0.206 F 
ATOM     70  C   UNL A   1      47.127  26.959  33.255  1.00  0.00     0.040 A 
ATOM     71  C   UNL A   1      48.054  27.938  31.261  1.00  0.00     0.040 A 
ATOM     72  F   UNL A   1      46.754  29.376  29.941  1.00  0.00    -0.206 F 
ATOM     73  C   UNL A   1      48.200  27.125  32.384  1.00  0.00     0.006 A 
ENDBRANCH  52  66
BRANCH  53  74
ATOM     74  C   UNL A   1      36.832  32.507  29.899  1.00  0.00     0.057 A 
ATOM     75  C   UNL A   1      36.641  33.423  28.857  1.00  0.00     0.134 A 
ATOM     76  C   UNL A   1      35.719  32.190  30.687  1.00  0.00     0.134 A 
ATOM     77  F   UNL A   1      37.672  33.778  28.075  1.00  0.00    -0.206 F 
ATOM     78  C   UNL A   1      35.402  34.020  28.622  1.00  0.00     0.040 A 
ATOM     79  C   UNL A   1      34.466  32.758  30.447  1.00  0.00     0.040 A 
ATOM     80  F   UNL A   1      35.831  31.310  31.694  1.00  0.00    -0.206 F 
ATOM     81  C   UNL A   1      34.308  33.683  29.418  1.00  0.00     0.006 A 
ENDBRANCH  53  74
BRANCH  65  82
ATOM     82  C   UNL A   1      42.407  34.603  33.520  1.00  0.00     0.057 A 
ATOM     83  C   UNL A   1      42.980  35.722  32.903  1.00  0.00     0.134 A 
ATOM     84  C   UNL A   1      42.059  34.717  34.873  1.00  0.00     0.134 A 
ATOM     85  F   UNL A   1      43.347  35.674  31.613  1.00  0.00    -0.206 F 
ATOM     86  C   UNL A   1      43.209  36.903  33.609  1.00  0.00     0.040 A 
ATOM     87  C   UNL A   1      42.256  35.902  35.581  1.00  0.00     0.040 A 
ATOM     88  F   UNL A   1      41.497  33.685  35.521  1.00  0.00    -0.206 F 
ATOM     89  C   UNL A   1      42.837  37.000  34.949  1.00  0.00     0.006 A 
ENDBRANCH  65  82
ENDBRANCH  39  40
ENDBRANCH  31  34
ENDBRANCH  29  30
ENDBRANCH   1  29
TORSDOF 13
ENDMDL
