MODEL 1
REMARK VINA RESULT:     -11.4      0.000      0.000
REMARK SMILES CCC(CC)(CC(=O)Nc1cccc(OC)c1)C(=O)NCCCNC(=O)c1ccc(-c2c3nc(c(-c4c(F)cccc4F)c4ccc([nH]4)c(-c4c(F)cccc4F)c4nc(c(-c5c(F)cccc5F)c5ccc2[nH]5)C=C4)C=C3)cc1
REMARK SMILES IDX 21 1 20 2 18 3 19 4 3 6 2 7 1 8 4 9 5 10 6 11 7 12 8 13 9 14
REMARK SMILES IDX 10 16 11 17 17 18 12 19 14 20 13 21 15 22 16 23 22 24 23 25
REMARK SMILES IDX 24 26 25 27 26 29 27 30 28 31 80 32 29 33 79 34 30 35 31 36
REMARK SMILES IDX 32 37 73 38 33 39 78 40 72 41 74 42 34 43 77 44 71 45 70 46
REMARK SMILES IDX 35 48 61 49 44 50 60 51 45 52 48 53 59 54 75 55 46 56 47 57
REMARK SMILES IDX 58 59 76 60 49 61 36 62 37 63 42 64 38 65 39 66 41 67 43 68
REMARK SMILES IDX 40 69 62 70 63 71 68 72 64 73 65 74 67 75 69 76 66 77 50 78
REMARK SMILES IDX 51 79 56 80 52 81 53 82 55 83 57 84 54 85
REMARK H PARENT 20 5 9 15 24 28 74 47 48 58
REMARK Flexibility Score: inf
ROOT
ATOM      1  C   UNL A   1      31.464  30.845  26.020  1.00  0.00     0.117 C 
ENDROOT
BRANCH   1   2
ATOM      2  N   UNL A   1      31.736  29.853  27.041  1.00  0.00    -0.356 N 
ATOM      3  C   UNL A   1      31.780  28.512  26.851  1.00  0.00     0.226 C 
ATOM      4  O   UNL A   1      31.095  27.824  27.609  1.00  0.00    -0.274 OA
ATOM      5  H   UNL A   1      31.905  30.184  27.954  1.00  0.00     0.163 HD
BRANCH   3   6
ATOM      6  C   UNL A   1      32.740  27.908  25.818  1.00  0.00     0.057 C 
BRANCH   6   7
ATOM      7  C   UNL A   1      33.093  26.527  26.399  1.00  0.00     0.014 C 
ATOM      8  C   UNL A   1      33.891  25.512  25.594  1.00  0.00     0.005 C 
ENDBRANCH   6   7
BRANCH   6   9
ATOM      9  C   UNL A   1      34.091  28.718  25.684  1.00  0.00     0.014 C 
ATOM     10  C   UNL A   1      34.885  28.957  26.966  1.00  0.00     0.005 C 
ENDBRANCH   6   9
BRANCH   6  11
ATOM     11  C   UNL A   1      32.041  27.719  24.435  1.00  0.00     0.117 C 
BRANCH  11  12
ATOM     12  C   UNL A   1      32.380  28.646  23.261  1.00  0.00     0.225 C 
ATOM     13  O   UNL A   1      33.540  28.697  22.840  1.00  0.00    -0.275 OA
ATOM     14  N   UNL A   1      31.392  29.244  22.506  1.00  0.00    -0.326 N 
ATOM     15  H   UNL A   1      31.699  29.540  21.619  1.00  0.00     0.169 HD
BRANCH  14  16
ATOM     16  C   UNL A   1      30.028  29.516  22.751  1.00  0.00     0.044 A 
ATOM     17  C   UNL A   1      29.116  28.463  22.751  1.00  0.00     0.026 A 
ATOM     18  C   UNL A   1      29.507  30.806  22.830  1.00  0.00     0.072 A 
ATOM     19  C   UNL A   1      27.752  28.702  22.983  1.00  0.00     0.006 A 
ATOM     20  C   UNL A   1      28.175  31.057  23.164  1.00  0.00     0.120 A 
ATOM     21  C   UNL A   1      27.290  29.995  23.226  1.00  0.00     0.046 A 
BRANCH  20  22
ATOM     22  O   UNL A   1      27.654  32.312  23.320  1.00  0.00    -0.497 OA
ATOM     23  C   UNL A   1      28.449  33.354  22.751  1.00  0.00     0.278 C 
ENDBRANCH  20  22
ENDBRANCH  14  16
ENDBRANCH  11  12
ENDBRANCH   6  11
ENDBRANCH   3   6
ENDBRANCH   1   2
BRANCH   1  24
ATOM     24  C   UNL A   1      31.271  32.212  26.654  1.00  0.00     0.042 C 
BRANCH  24  25
ATOM     25  C   UNL A   1      32.565  32.819  27.179  1.00  0.00     0.118 C 
BRANCH  25  26
ATOM     26  N   UNL A   1      32.391  34.201  27.622  1.00  0.00    -0.352 N 
ATOM     27  C   UNL A   1      33.011  34.871  28.645  1.00  0.00     0.251 C 
ATOM     28  H   UNL A   1      31.735  34.727  27.111  1.00  0.00     0.163 HD
ATOM     29  O   UNL A   1      32.579  35.944  29.040  1.00  0.00    -0.269 OA
BRANCH  27  30
ATOM     30  C   UNL A   1      34.196  34.261  29.272  1.00  0.00     0.039 A 
ATOM     31  C   UNL A   1      34.027  33.388  30.346  1.00  0.00     0.014 A 
ATOM     32  C   UNL A   1      35.467  34.534  28.763  1.00  0.00     0.014 A 
ATOM     33  C   UNL A   1      35.143  32.745  30.877  1.00  0.00     0.010 A 
ATOM     34  C   UNL A   1      36.552  33.799  29.207  1.00  0.00     0.010 A 
ATOM     35  C   UNL A   1      36.408  32.922  30.291  1.00  0.00    -0.014 A 
BRANCH  35  36
ATOM     36  C   UNL A   1      37.610  32.248  30.830  1.00  0.00     0.031 A 
ATOM     37  C   UNL A   1      38.240  32.765  32.094  1.00  0.00     0.074 A 
ATOM     38  C   UNL A   1      38.157  31.217  30.160  1.00  0.00     0.049 A 
ATOM     39  N   UNL A   1      39.325  32.359  32.702  1.00  0.00    -0.248 NA
ATOM     40  C   UNL A   1      37.588  33.917  32.740  1.00  0.00     0.031 C 
ATOM     41  C   UNL A   1      37.663  30.668  28.895  1.00  0.00     0.029 A 
ATOM     42  N   UNL A   1      39.255  30.449  30.450  1.00  0.00    -0.354 N 
ATOM     43  C   UNL A   1      39.488  33.216  33.785  1.00  0.00     0.074 A 
ATOM     44  C   UNL A   1      38.441  34.207  33.709  1.00  0.00     0.031 C 
ATOM     45  C   UNL A   1      38.435  29.628  28.538  1.00  0.00     0.029 A 
ATOM     46  C   UNL A   1      39.499  29.466  29.524  1.00  0.00     0.049 A 
ATOM     47  H   UNL A   1      39.816  30.591  31.247  1.00  0.00     0.167 HD
ATOM     48  C   UNL A   1      40.410  33.159  34.775  1.00  0.00     0.037 A 
ATOM     49  C   UNL A   1      40.475  28.541  29.478  1.00  0.00     0.037 A 
ATOM     50  C   UNL A   1      41.430  32.151  34.857  1.00  0.00     0.049 A 
ATOM     51  C   UNL A   1      41.491  28.501  30.587  1.00  0.00     0.074 A 
ATOM     52  C   UNL A   1      42.379  31.964  35.846  1.00  0.00     0.029 A 
ATOM     53  N   UNL A   1      41.634  31.159  33.909  1.00  0.00    -0.354 N 
ATOM     54  N   UNL A   1      41.590  29.268  31.646  1.00  0.00    -0.248 NA
ATOM     55  C   UNL A   1      42.524  27.461  30.500  1.00  0.00     0.031 C 
ATOM     56  C   UNL A   1      43.191  30.890  35.469  1.00  0.00     0.029 A 
ATOM     57  C   UNL A   1      42.711  30.370  34.277  1.00  0.00     0.049 A 
ATOM     58  H   UNL A   1      41.095  31.036  33.095  1.00  0.00     0.167 HD
ATOM     59  C   UNL A   1      42.674  28.783  32.367  1.00  0.00     0.074 A 
ATOM     60  C   UNL A   1      43.188  27.647  31.631  1.00  0.00     0.031 C 
ATOM     61  C   UNL A   1      43.197  29.235  33.534  1.00  0.00     0.037 A 
BRANCH  48  62
ATOM     62  C   UNL A   1      40.343  34.213  35.842  1.00  0.00     0.057 A 
ATOM     63  C   UNL A   1      39.635  34.016  37.036  1.00  0.00     0.134 A 
ATOM     64  C   UNL A   1      41.009  35.434  35.683  1.00  0.00     0.134 A 
ATOM     65  F   UNL A   1      38.961  32.875  37.248  1.00  0.00    -0.206 F 
ATOM     66  C   UNL A   1      39.565  35.006  38.017  1.00  0.00     0.040 A 
ATOM     67  C   UNL A   1      40.973  36.419  36.671  1.00  0.00     0.040 A 
ATOM     68  F   UNL A   1      41.708  35.690  34.567  1.00  0.00    -0.206 F 
ATOM     69  C   UNL A   1      40.243  36.210  37.839  1.00  0.00     0.006 A 
ENDBRANCH  48  62
BRANCH  49  70
ATOM     70  C   UNL A   1      40.524  27.562  28.362  1.00  0.00     0.057 A 
ATOM     71  C   UNL A   1      41.278  27.815  27.210  1.00  0.00     0.134 A 
ATOM     72  C   UNL A   1      39.812  26.357  28.412  1.00  0.00     0.134 A 
ATOM     73  F   UNL A   1      41.971  28.958  27.095  1.00  0.00    -0.206 F 
ATOM     74  C   UNL A   1      41.302  26.921  26.138  1.00  0.00     0.040 A 
ATOM     75  C   UNL A   1      39.850  25.440  27.360  1.00  0.00     0.040 A 
ATOM     76  F   UNL A   1      39.079  26.047  29.492  1.00  0.00    -0.206 F 
ATOM     77  C   UNL A   1      40.589  25.726  26.214  1.00  0.00     0.006 A 
ENDBRANCH  49  70
BRANCH  61  78
ATOM     78  C   UNL A   1      44.355  28.473  34.108  1.00  0.00     0.057 A 
ATOM     79  C   UNL A   1      44.175  27.365  34.946  1.00  0.00     0.134 A 
ATOM     80  C   UNL A   1      45.670  28.831  33.781  1.00  0.00     0.134 A 
ATOM     81  F   UNL A   1      42.942  26.978  35.306  1.00  0.00    -0.206 F 
ATOM     82  C   UNL A   1      45.263  26.657  35.460  1.00  0.00     0.040 A 
ATOM     83  C   UNL A   1      46.763  28.112  34.263  1.00  0.00     0.040 A 
ATOM     84  F   UNL A   1      45.912  29.876  32.974  1.00  0.00    -0.206 F 
ATOM     85  C   UNL A   1      46.561  27.025  35.112  1.00  0.00     0.006 A 
ENDBRANCH  61  78
ENDBRANCH  35  36
ENDBRANCH  27  30
ENDBRANCH  25  26
ENDBRANCH  24  25
ENDBRANCH   1  24
TORSDOF 16
ENDMDL
MODEL 2
REMARK VINA RESULT:     -11.3      6.095     10.475
REMARK SMILES CCC(CC)(CC(=O)Nc1cccc(OC)c1)C(=O)NCCCNC(=O)c1ccc(-c2c3nc(c(-c4c(F)cccc4F)c4ccc([nH]4)c(-c4c(F)cccc4F)c4nc(c(-c5c(F)cccc5F)c5ccc2[nH]5)C=C4)C=C3)cc1
REMARK SMILES IDX 21 1 20 2 18 3 19 4 3 6 2 7 1 8 4 9 5 10 6 11 7 12 8 13 9 14
REMARK SMILES IDX 10 16 11 17 17 18 12 19 14 20 13 21 15 22 16 23 22 24 23 25
REMARK SMILES IDX 24 26 25 27 26 29 27 30 28 31 80 32 29 33 79 34 30 35 31 36
REMARK SMILES IDX 32 37 73 38 33 39 78 40 72 41 74 42 34 43 77 44 71 45 70 46
REMARK SMILES IDX 35 48 61 49 44 50 60 51 45 52 48 53 59 54 75 55 46 56 47 57
REMARK SMILES IDX 58 59 76 60 49 61 36 62 37 63 42 64 38 65 39 66 41 67 43 68
REMARK SMILES IDX 40 69 62 70 63 71 68 72 64 73 65 74 67 75 69 76 66 77 50 78
REMARK SMILES IDX 51 79 56 80 52 81 53 82 55 83 57 84 54 85
REMARK H PARENT 20 5 9 15 24 28 74 47 48 58
REMARK Flexibility Score: inf
ROOT
ATOM      1  C   UNL A   1      37.063  20.426  24.994  1.00  0.00     0.117 C 
ENDROOT
BRANCH   1   2
ATOM      2  N   UNL A   1      37.237  21.772  24.488  1.00  0.00    -0.356 N 
ATOM      3  C   UNL A   1      36.277  22.528  23.903  1.00  0.00     0.226 C 
ATOM      4  O   UNL A   1      36.554  23.026  22.810  1.00  0.00    -0.274 OA
ATOM      5  H   UNL A   1      38.133  22.173  24.578  1.00  0.00     0.163 HD
BRANCH   3   6
ATOM      6  C   UNL A   1      34.971  22.834  24.648  1.00  0.00     0.057 C 
BRANCH   6   7
ATOM      7  C   UNL A   1      35.006  24.358  24.854  1.00  0.00     0.014 C 
ATOM      8  C   UNL A   1      34.096  25.283  24.058  1.00  0.00     0.005 C 
ENDBRANCH   6   7
BRANCH   6   9
ATOM      9  C   UNL A   1      34.910  22.170  26.081  1.00  0.00     0.014 C 
ATOM     10  C   UNL A   1      34.424  23.048  27.232  1.00  0.00     0.005 C 
ENDBRANCH   6   9
BRANCH   6  11
ATOM     11  C   UNL A   1      33.725  22.460  23.785  1.00  0.00     0.117 C 
BRANCH  11  12
ATOM     12  C   UNL A   1      32.444  21.943  24.454  1.00  0.00     0.225 C 
ATOM     13  O   UNL A   1      31.652  22.746  24.956  1.00  0.00    -0.275 OA
ATOM     14  N   UNL A   1      32.031  20.635  24.304  1.00  0.00    -0.326 N 
ATOM     15  H   UNL A   1      31.074  20.500  24.492  1.00  0.00     0.169 HD
BRANCH  14  16
ATOM     16  C   UNL A   1      32.705  19.450  23.935  1.00  0.00     0.044 A 
ATOM     17  C   UNL A   1      32.243  18.719  22.842  1.00  0.00     0.026 A 
ATOM     18  C   UNL A   1      33.715  18.873  24.702  1.00  0.00     0.072 A 
ATOM     19  C   UNL A   1      32.886  17.533  22.455  1.00  0.00     0.006 A 
ATOM     20  C   UNL A   1      34.433  17.754  24.277  1.00  0.00     0.120 A 
ATOM     21  C   UNL A   1      34.003  17.073  23.151  1.00  0.00     0.046 A 
BRANCH  20  22
ATOM     22  O   UNL A   1      35.476  17.210  24.974  1.00  0.00    -0.497 OA
ATOM     23  C   UNL A   1      35.304  15.833  25.312  1.00  0.00     0.278 C 
ENDBRANCH  20  22
ENDBRANCH  14  16
ENDBRANCH  11  12
ENDBRANCH   6  11
ENDBRANCH   3   6
ENDBRANCH   1   2
BRANCH   1  24
ATOM     24  C   UNL A   1      38.347  19.630  24.822  1.00  0.00     0.042 C 
BRANCH  24  25
ATOM     25  C   UNL A   1      39.432  20.019  25.816  1.00  0.00     0.118 C 
BRANCH  25  26
ATOM     26  N   UNL A   1      40.436  18.970  25.982  1.00  0.00    -0.352 N 
ATOM     27  C   UNL A   1      41.795  19.081  26.131  1.00  0.00     0.251 C 
ATOM     28  H   UNL A   1      40.087  18.050  25.988  1.00  0.00     0.163 HD
ATOM     29  O   UNL A   1      42.518  18.103  26.012  1.00  0.00    -0.269 OA
BRANCH  27  30
ATOM     30  C   UNL A   1      42.366  20.409  26.416  1.00  0.00     0.039 A 
ATOM     31  C   UNL A   1      42.807  21.204  25.359  1.00  0.00     0.014 A 
ATOM     32  C   UNL A   1      42.426  20.869  27.733  1.00  0.00     0.014 A 
ATOM     33  C   UNL A   1      43.263  22.493  25.627  1.00  0.00     0.010 A 
ATOM     34  C   UNL A   1      42.758  22.189  27.980  1.00  0.00     0.010 A 
ATOM     35  C   UNL A   1      43.212  23.005  26.935  1.00  0.00    -0.014 A 
BRANCH  35  36
ATOM     36  C   UNL A   1      43.685  24.372  27.247  1.00  0.00     0.031 A 
ATOM     37  C   UNL A   1      42.692  25.411  27.691  1.00  0.00     0.074 A 
ATOM     38  C   UNL A   1      44.983  24.686  27.081  1.00  0.00     0.049 A 
ATOM     39  N   UNL A   1      42.885  26.677  27.958  1.00  0.00    -0.248 NA
ATOM     40  C   UNL A   1      41.288  24.981  27.815  1.00  0.00     0.031 C 
ATOM     41  C   UNL A   1      46.023  23.774  26.602  1.00  0.00     0.029 A 
ATOM     42  N   UNL A   1      45.647  25.867  27.293  1.00  0.00    -0.354 N 
ATOM     43  C   UNL A   1      41.629  27.190  28.260  1.00  0.00     0.074 A 
ATOM     44  C   UNL A   1      40.674  26.124  28.072  1.00  0.00     0.031 C 
ATOM     45  C   UNL A   1      47.201  24.420  26.592  1.00  0.00     0.029 A 
ATOM     46  C   UNL A   1      46.990  25.798  27.023  1.00  0.00     0.049 A 
ATOM     47  H   UNL A   1      45.201  26.686  27.610  1.00  0.00     0.167 HD
ATOM     48  C   UNL A   1      41.306  28.432  28.692  1.00  0.00     0.037 A 
ATOM     49  C   UNL A   1      47.943  26.746  27.110  1.00  0.00     0.037 A 
ATOM     50  C   UNL A   1      42.268  29.477  28.905  1.00  0.00     0.049 A 
ATOM     51  C   UNL A   1      47.557  28.120  27.588  1.00  0.00     0.074 A 
ATOM     52  C   UNL A   1      42.060  30.754  29.395  1.00  0.00     0.029 A 
ATOM     53  N   UNL A   1      43.625  29.365  28.636  1.00  0.00    -0.354 N 
ATOM     54  N   UNL A   1      46.379  28.572  27.944  1.00  0.00    -0.248 NA
ATOM     55  C   UNL A   1      48.636  29.111  27.684  1.00  0.00     0.031 C 
ATOM     56  C   UNL A   1      43.283  31.432  29.373  1.00  0.00     0.029 A 
ATOM     57  C   UNL A   1      44.263  30.558  28.928  1.00  0.00     0.049 A 
ATOM     58  H   UNL A   1      44.067  28.557  28.289  1.00  0.00     0.167 HD
ATOM     59  C   UNL A   1      46.581  29.889  28.339  1.00  0.00     0.074 A 
ATOM     60  C   UNL A   1      47.997  30.155  28.191  1.00  0.00     0.031 C 
ATOM     61  C   UNL A   1      45.677  30.796  28.785  1.00  0.00     0.037 A 
BRANCH  48  62
ATOM     62  C   UNL A   1      39.857  28.713  28.966  1.00  0.00     0.057 A 
ATOM     63  C   UNL A   1      38.990  29.183  27.969  1.00  0.00     0.134 A 
ATOM     64  C   UNL A   1      39.315  28.495  30.239  1.00  0.00     0.134 A 
ATOM     65  F   UNL A   1      39.446  29.428  26.731  1.00  0.00    -0.206 F 
ATOM     66  C   UNL A   1      37.648  29.455  28.236  1.00  0.00     0.040 A 
ATOM     67  C   UNL A   1      37.967  28.733  30.509  1.00  0.00     0.040 A 
ATOM     68  F   UNL A   1      40.085  28.043  31.240  1.00  0.00    -0.206 F 
ATOM     69  C   UNL A   1      37.131  29.222  29.508  1.00  0.00     0.006 A 
ENDBRANCH  48  62
BRANCH  49  70
ATOM     70  C   UNL A   1      49.351  26.423  26.768  1.00  0.00     0.057 A 
ATOM     71  C   UNL A   1      49.852  26.649  25.480  1.00  0.00     0.134 A 
ATOM     72  C   UNL A   1      50.227  25.871  27.710  1.00  0.00     0.134 A 
ATOM     73  F   UNL A   1      49.058  27.162  24.528  1.00  0.00    -0.206 F 
ATOM     74  C   UNL A   1      51.162  26.314  25.134  1.00  0.00     0.040 A 
ATOM     75  C   UNL A   1      51.549  25.559  27.386  1.00  0.00     0.040 A 
ATOM     76  F   UNL A   1      49.815  25.641  28.965  1.00  0.00    -0.206 F 
ATOM     77  C   UNL A   1      52.017  25.771  26.091  1.00  0.00     0.006 A 
ENDBRANCH  49  70
BRANCH  61  78
ATOM     78  C   UNL A   1      46.199  32.144  29.187  1.00  0.00     0.057 A 
ATOM     79  C   UNL A   1      46.616  32.421  30.495  1.00  0.00     0.134 A 
ATOM     80  C   UNL A   1      46.325  33.167  28.237  1.00  0.00     0.134 A 
ATOM     81  F   UNL A   1      46.511  31.489  31.454  1.00  0.00    -0.206 F 
ATOM     82  C   UNL A   1      47.114  33.676  30.850  1.00  0.00     0.040 A 
ATOM     83  C   UNL A   1      46.850  34.415  28.573  1.00  0.00     0.040 A 
ATOM     84  F   UNL A   1      45.954  32.965  26.964  1.00  0.00    -0.206 F 
ATOM     85  C   UNL A   1      47.239  34.674  29.886  1.00  0.00     0.006 A 
ENDBRANCH  61  78
ENDBRANCH  35  36
ENDBRANCH  27  30
ENDBRANCH  25  26
ENDBRANCH  24  25
ENDBRANCH   1  24
TORSDOF 16
ENDMDL
MODEL 3
REMARK VINA RESULT:     -11.2      5.957     10.910
REMARK SMILES CCC(CC)(CC(=O)Nc1cccc(OC)c1)C(=O)NCCCNC(=O)c1ccc(-c2c3nc(c(-c4c(F)cccc4F)c4ccc([nH]4)c(-c4c(F)cccc4F)c4nc(c(-c5c(F)cccc5F)c5ccc2[nH]5)C=C4)C=C3)cc1
REMARK SMILES IDX 21 1 20 2 18 3 19 4 3 6 2 7 1 8 4 9 5 10 6 11 7 12 8 13 9 14
REMARK SMILES IDX 10 16 11 17 17 18 12 19 14 20 13 21 15 22 16 23 22 24 23 25
REMARK SMILES IDX 24 26 25 27 26 29 27 30 28 31 80 32 29 33 79 34 30 35 31 36
REMARK SMILES IDX 32 37 73 38 33 39 78 40 72 41 74 42 34 43 77 44 71 45 70 46
REMARK SMILES IDX 35 48 61 49 44 50 60 51 45 52 48 53 59 54 75 55 46 56 47 57
REMARK SMILES IDX 58 59 76 60 49 61 36 62 37 63 42 64 38 65 39 66 41 67 43 68
REMARK SMILES IDX 40 69 62 70 63 71 68 72 64 73 65 74 67 75 69 76 66 77 50 78
REMARK SMILES IDX 51 79 56 80 52 81 53 82 55 83 57 84 54 85
REMARK H PARENT 20 5 9 15 24 28 74 47 48 58
REMARK Flexibility Score: inf
ROOT
ATOM      1  C   UNL A   1      36.941  20.368  24.970  1.00  0.00     0.117 C 
ENDROOT
BRANCH   1   2
ATOM      2  N   UNL A   1      37.164  21.703  24.455  1.00  0.00    -0.356 N 
ATOM      3  C   UNL A   1      36.238  22.480  23.842  1.00  0.00     0.226 C 
ATOM      4  O   UNL A   1      36.551  22.958  22.750  1.00  0.00    -0.274 OA
ATOM      5  H   UNL A   1      38.069  22.079  24.559  1.00  0.00     0.163 HD
BRANCH   3   6
ATOM      6  C   UNL A   1      34.926  22.831  24.557  1.00  0.00     0.057 C 
BRANCH   6   7
ATOM      7  C   UNL A   1      34.954  24.367  24.656  1.00  0.00     0.014 C 
ATOM      8  C   UNL A   1      33.935  25.223  23.918  1.00  0.00     0.005 C 
ENDBRANCH   6   7
BRANCH   6   9
ATOM      9  C   UNL A   1      34.860  22.269  26.033  1.00  0.00     0.014 C 
ATOM     10  C   UNL A   1      34.338  23.214  27.112  1.00  0.00     0.005 C 
ENDBRANCH   6   9
BRANCH   6  11
ATOM     11  C   UNL A   1      33.687  22.393  23.716  1.00  0.00     0.117 C 
BRANCH  11  12
ATOM     12  C   UNL A   1      32.423  21.870  24.410  1.00  0.00     0.225 C 
ATOM     13  O   UNL A   1      31.626  22.670  24.909  1.00  0.00    -0.275 OA
ATOM     14  N   UNL A   1      32.026  20.554  24.288  1.00  0.00    -0.326 N 
ATOM     15  H   UNL A   1      31.074  20.409  24.491  1.00  0.00     0.169 HD
BRANCH  14  16
ATOM     16  C   UNL A   1      32.712  19.372  23.930  1.00  0.00     0.044 A 
ATOM     17  C   UNL A   1      32.246  18.617  22.855  1.00  0.00     0.026 A 
ATOM     18  C   UNL A   1      33.738  18.821  24.694  1.00  0.00     0.072 A 
ATOM     19  C   UNL A   1      32.901  17.434  22.479  1.00  0.00     0.006 A 
ATOM     20  C   UNL A   1      34.466  17.705  24.278  1.00  0.00     0.120 A 
ATOM     21  C   UNL A   1      34.033  17.000  23.169  1.00  0.00     0.046 A 
BRANCH  20  22
ATOM     22  O   UNL A   1      35.525  17.187  24.971  1.00  0.00    -0.497 OA
ATOM     23  C   UNL A   1      35.355  15.828  25.376  1.00  0.00     0.278 C 
ENDBRANCH  20  22
ENDBRANCH  14  16
ENDBRANCH  11  12
ENDBRANCH   6  11
ENDBRANCH   3   6
ENDBRANCH   1   2
BRANCH   1  24
ATOM     24  C   UNL A   1      38.230  19.565  24.924  1.00  0.00     0.042 C 
BRANCH  24  25
ATOM     25  C   UNL A   1      39.325  20.136  25.814  1.00  0.00     0.118 C 
BRANCH  25  26
ATOM     26  N   UNL A   1      40.433  19.201  26.002  1.00  0.00    -0.352 N 
ATOM     27  C   UNL A   1      41.770  19.458  26.165  1.00  0.00     0.251 C 
ATOM     28  H   UNL A   1      40.183  18.250  26.014  1.00  0.00     0.163 HD
ATOM     29  O   UNL A   1      42.594  18.561  26.065  1.00  0.00    -0.269 OA
BRANCH  27  30
ATOM     30  C   UNL A   1      42.194  20.841  26.442  1.00  0.00     0.039 A 
ATOM     31  C   UNL A   1      42.392  21.721  25.379  1.00  0.00     0.014 A 
ATOM     32  C   UNL A   1      42.357  21.264  27.763  1.00  0.00     0.014 A 
ATOM     33  C   UNL A   1      42.704  23.051  25.651  1.00  0.00     0.010 A 
ATOM     34  C   UNL A   1      42.541  22.609  28.031  1.00  0.00     0.010 A 
ATOM     35  C   UNL A   1      42.751  23.510  26.978  1.00  0.00    -0.014 A 
BRANCH  35  36
ATOM     36  C   UNL A   1      43.075  24.919  27.297  1.00  0.00     0.031 A 
ATOM     37  C   UNL A   1      44.465  25.431  27.037  1.00  0.00     0.074 A 
ATOM     38  C   UNL A   1      42.145  25.709  27.863  1.00  0.00     0.049 A 
ATOM     39  N   UNL A   1      44.974  26.609  27.295  1.00  0.00    -0.248 NA
ATOM     40  C   UNL A   1      45.424  24.483  26.443  1.00  0.00     0.031 C 
ATOM     41  C   UNL A   1      40.782  25.302  28.212  1.00  0.00     0.029 A 
ATOM     42  N   UNL A   1      42.209  27.023  28.250  1.00  0.00    -0.354 N 
ATOM     43  C   UNL A   1      46.308  26.531  26.913  1.00  0.00     0.074 A 
ATOM     44  C   UNL A   1      46.550  25.176  26.477  1.00  0.00     0.031 C 
ATOM     45  C   UNL A   1      40.128  26.356  28.727  1.00  0.00     0.029 A 
ATOM     46  C   UNL A   1      41.037  27.497  28.784  1.00  0.00     0.049 A 
ATOM     47  H   UNL A   1      43.020  27.574  28.154  1.00  0.00     0.167 HD
ATOM     48  C   UNL A   1      47.239  27.514  26.893  1.00  0.00     0.037 A 
ATOM     49  C   UNL A   1      40.734  28.716  29.267  1.00  0.00     0.037 A 
ATOM     50  C   UNL A   1      46.978  28.866  27.301  1.00  0.00     0.049 A 
ATOM     51  C   UNL A   1      41.788  29.790  29.239  1.00  0.00     0.074 A 
ATOM     52  C   UNL A   1      47.831  29.956  27.267  1.00  0.00     0.029 A 
ATOM     53  N   UNL A   1      45.772  29.314  27.819  1.00  0.00    -0.354 N 
ATOM     54  N   UNL A   1      43.023  29.726  28.803  1.00  0.00    -0.248 NA
ATOM     55  C   UNL A   1      41.401  31.108  29.759  1.00  0.00     0.031 C 
ATOM     56  C   UNL A   1      47.156  31.051  27.815  1.00  0.00     0.029 A 
ATOM     57  C   UNL A   1      45.864  30.659  28.133  1.00  0.00     0.049 A 
ATOM     58  H   UNL A   1      44.970  28.757  27.946  1.00  0.00     0.167 HD
ATOM     59  C   UNL A   1      43.550  31.002  28.967  1.00  0.00     0.074 A 
ATOM     60  C   UNL A   1      42.494  31.819  29.526  1.00  0.00     0.031 C 
ATOM     61  C   UNL A   1      44.795  31.456  28.678  1.00  0.00     0.037 A 
BRANCH  48  62
ATOM     62  C   UNL A   1      48.613  27.153  26.408  1.00  0.00     0.057 A 
ATOM     63  C   UNL A   1      49.621  26.725  27.283  1.00  0.00     0.134 A 
ATOM     64  C   UNL A   1      48.930  27.219  25.045  1.00  0.00     0.134 A 
ATOM     65  F   UNL A   1      49.390  26.653  28.603  1.00  0.00    -0.206 F 
ATOM     66  C   UNL A   1      50.900  26.406  26.826  1.00  0.00     0.040 A 
ATOM     67  C   UNL A   1      50.196  26.872  24.572  1.00  0.00     0.040 A 
ATOM     68  F   UNL A   1      48.014  27.618  24.150  1.00  0.00    -0.206 F 
ATOM     69  C   UNL A   1      51.188  26.471  25.464  1.00  0.00     0.006 A 
ENDBRANCH  48  62
BRANCH  49  70
ATOM     70  C   UNL A   1      39.372  28.995  29.789  1.00  0.00     0.057 A 
ATOM     71  C   UNL A   1      39.058  28.782  31.137  1.00  0.00     0.134 A 
ATOM     72  C   UNL A   1      38.350  29.469  28.958  1.00  0.00     0.134 A 
ATOM     73  F   UNL A   1      39.989  28.315  31.982  1.00  0.00    -0.206 F 
ATOM     74  C   UNL A   1      37.772  29.004  31.633  1.00  0.00     0.040 A 
ATOM     75  C   UNL A   1      37.068  29.723  29.447  1.00  0.00     0.040 A 
ATOM     76  F   UNL A   1      38.588  29.706  27.659  1.00  0.00    -0.206 F 
ATOM     77  C   UNL A   1      36.773  29.480  30.786  1.00  0.00     0.006 A 
ENDBRANCH  49  70
BRANCH  61  78
ATOM     78  C   UNL A   1      45.067  32.912  28.920  1.00  0.00     0.057 A 
ATOM     79  C   UNL A   1      44.774  33.893  27.965  1.00  0.00     0.134 A 
ATOM     80  C   UNL A   1      45.592  33.339  30.147  1.00  0.00     0.134 A 
ATOM     81  F   UNL A   1      44.280  33.549  26.766  1.00  0.00    -0.206 F 
ATOM     82  C   UNL A   1      45.019  35.245  28.211  1.00  0.00     0.040 A 
ATOM     83  C   UNL A   1      45.811  34.690  30.417  1.00  0.00     0.040 A 
ATOM     84  F   UNL A   1      45.885  32.452  31.110  1.00  0.00    -0.206 F 
ATOM     85  C   UNL A   1      45.531  35.647  29.443  1.00  0.00     0.006 A 
ENDBRANCH  61  78
ENDBRANCH  35  36
ENDBRANCH  27  30
ENDBRANCH  25  26
ENDBRANCH  24  25
ENDBRANCH   1  24
TORSDOF 16
ENDMDL
