MODEL 1
REMARK VINA RESULT:     -12.6      0.000      0.000
REMARK SMILES COc1cc(S(=O)(=O)Nc2cccc(C(=O)NCCCNC(=O)c3ccc(-c4c5nc(c(-c6c(F)cccc6F)c6ccc([nH]6)c(-c6c(F)cccc6F)c6nc(c(-c7c(F)cccc7F)c7ccc4[nH]7)C=C6)C=C5)cc3)c2)c(OC)cc1C
REMARK SMILES IDX 18 1 17 2 15 3 16 4 14 6 10 7 11 8 78 9 12 10 13 11 9 12
REMARK SMILES IDX 6 14 7 15 8 16 5 17 3 18 4 19 83 20 82 21 84 22 79 23 2 24
REMARK SMILES IDX 1 25 80 26 81 27 19 28 20 29 21 30 22 31 23 33 24 34 25 35
REMARK SMILES IDX 77 36 26 37 76 38 27 39 28 40 29 41 70 42 30 43 75 44 69 45
REMARK SMILES IDX 71 46 31 47 74 48 68 49 67 50 32 52 58 53 41 54 57 55 42 56
REMARK SMILES IDX 45 57 56 58 72 59 43 60 44 61 55 63 73 64 46 65 33 66 34 67
REMARK SMILES IDX 39 68 35 69 36 70 38 71 40 72 37 73 59 74 60 75 65 76 61 77
REMARK SMILES IDX 62 78 64 79 66 80 63 81 47 82 48 83 53 84 49 85 50 86 52 87
REMARK SMILES IDX 54 88 51 89
REMARK H PARENT 17 5 9 13 21 32 71 51 45 62
REMARK Flexibility Score: inf
ROOT
ATOM      1  C   UNL A   1      36.997  21.014  24.978  1.00  0.00     0.118 C 
ENDROOT
BRANCH   1   2
ATOM      2  N   UNL A   1      36.116  21.327  26.092  1.00  0.00    -0.352 N 
ATOM      3  C   UNL A   1      34.743  21.343  26.173  1.00  0.00     0.251 C 
ATOM      4  O   UNL A   1      34.215  21.507  27.270  1.00  0.00    -0.269 OA
ATOM      5  H   UNL A   1      36.580  21.568  26.926  1.00  0.00     0.163 HD
BRANCH   3   6
ATOM      6  C   UNL A   1      33.882  21.077  24.995  1.00  0.00     0.041 A 
ATOM      7  C   UNL A   1      32.618  22.034  23.155  1.00  0.00     0.050 A 
ATOM      8  C   UNL A   1      32.156  20.766  22.811  1.00  0.00     0.027 A 
ATOM      9  C   UNL A   1      33.537  22.175  24.200  1.00  0.00     0.040 A 
ATOM     10  C   UNL A   1      32.551  19.655  23.560  1.00  0.00     0.003 A 
ATOM     11  C   UNL A   1      33.408  19.811  24.653  1.00  0.00     0.014 A 
BRANCH   7  12
ATOM     12  N   UNL A   1      32.170  23.235  22.544  1.00  0.00    -0.279 N 
ATOM     13  H   UNL A   1      31.385  23.175  21.953  1.00  0.00     0.180 HD
BRANCH  12  14
ATOM     14  S   UNL A   1      32.862  24.742  22.742  1.00  0.00     0.265 S 
ATOM     15  O   UNL A   1      32.275  25.631  21.761  1.00  0.00    -0.201 OA
ATOM     16  O   UNL A   1      34.293  24.498  22.744  1.00  0.00    -0.201 OA
BRANCH  14  17
ATOM     17  C   UNL A   1      32.486  25.445  24.334  1.00  0.00     0.133 A 
ATOM     18  C   UNL A   1      33.129  27.184  25.905  1.00  0.00     0.123 A 
ATOM     19  C   UNL A   1      33.388  26.438  24.757  1.00  0.00     0.073 A 
ATOM     20  C   UNL A   1      31.901  27.072  26.551  1.00  0.00    -0.005 A 
ATOM     21  C   UNL A   1      31.057  26.017  26.182  1.00  0.00     0.055 A 
ATOM     22  C   UNL A   1      31.471  27.999  27.649  1.00  0.00     0.048 C 
ATOM     23  C   UNL A   1      31.378  25.145  25.127  1.00  0.00     0.139 A 
BRANCH  18  24
ATOM     24  O   UNL A   1      34.108  28.036  26.333  1.00  0.00    -0.496 OA
ATOM     25  C   UNL A   1      33.936  29.331  25.744  1.00  0.00     0.278 C 
ENDBRANCH  18  24
BRANCH  23  26
ATOM     26  O   UNL A   1      30.688  23.995  24.898  1.00  0.00    -0.495 OA
ATOM     27  C   UNL A   1      30.595  23.057  25.964  1.00  0.00     0.278 C 
ENDBRANCH  23  26
ENDBRANCH  14  17
ENDBRANCH  12  14
ENDBRANCH   7  12
ENDBRANCH   3   6
ENDBRANCH   1   2
BRANCH   1  28
ATOM     28  C   UNL A   1      38.466  21.076  25.365  1.00  0.00     0.042 C 
BRANCH  28  29
ATOM     29  C   UNL A   1      38.858  22.356  26.080  1.00  0.00     0.118 C 
BRANCH  29  30
ATOM     30  N   UNL A   1      40.297  22.534  26.245  1.00  0.00    -0.352 N 
ATOM     31  C   UNL A   1      41.013  23.685  26.528  1.00  0.00     0.251 C 
ATOM     32  H   UNL A   1      40.837  21.717  26.140  1.00  0.00     0.163 HD
ATOM     33  O   UNL A   1      42.234  23.632  26.637  1.00  0.00    -0.269 OA
BRANCH  31  34
ATOM     34  C   UNL A   1      40.290  24.936  26.866  1.00  0.00     0.039 A 
ATOM     35  C   UNL A   1      40.658  26.099  26.179  1.00  0.00     0.014 A 
ATOM     36  C   UNL A   1      39.509  25.023  28.010  1.00  0.00     0.014 A 
ATOM     37  C   UNL A   1      40.516  27.330  26.809  1.00  0.00     0.010 A 
ATOM     38  C   UNL A   1      39.503  26.212  28.703  1.00  0.00     0.010 A 
ATOM     39  C   UNL A   1      40.072  27.351  28.128  1.00  0.00    -0.014 A 
BRANCH  39  40
ATOM     40  C   UNL A   1      40.243  28.488  29.017  1.00  0.00     0.031 A 
ATOM     41  C   UNL A   1      39.161  29.480  29.152  1.00  0.00     0.074 A 
ATOM     42  C   UNL A   1      41.340  28.555  29.804  1.00  0.00     0.049 A 
ATOM     43  N   UNL A   1      39.326  30.678  29.593  1.00  0.00    -0.248 NA
ATOM     44  C   UNL A   1      37.788  29.199  28.752  1.00  0.00     0.031 C 
ATOM     45  C   UNL A   1      41.554  29.422  30.959  1.00  0.00     0.029 A 
ATOM     46  N   UNL A   1      42.591  27.962  29.580  1.00  0.00    -0.354 N 
ATOM     47  C   UNL A   1      38.080  31.221  29.809  1.00  0.00     0.074 A 
ATOM     48  C   UNL A   1      37.160  30.286  29.208  1.00  0.00     0.031 C 
ATOM     49  C   UNL A   1      42.874  29.544  31.172  1.00  0.00     0.029 A 
ATOM     50  C   UNL A   1      43.546  28.882  30.068  1.00  0.00     0.049 A 
ATOM     51  H   UNL A   1      42.768  27.086  29.166  1.00  0.00     0.167 HD
ATOM     52  C   UNL A   1      37.973  32.332  30.593  1.00  0.00     0.037 A 
ATOM     53  C   UNL A   1      44.447  29.480  29.237  1.00  0.00     0.037 A 
ATOM     54  C   UNL A   1      39.295  32.818  30.988  1.00  0.00     0.049 A 
ATOM     55  C   UNL A   1      44.348  30.987  29.220  1.00  0.00     0.074 A 
ATOM     56  C   UNL A   1      40.050  32.655  32.139  1.00  0.00     0.029 A 
ATOM     57  N   UNL A   1      40.162  33.312  30.018  1.00  0.00    -0.354 N 
ATOM     58  N   UNL A   1      43.284  31.651  29.579  1.00  0.00    -0.248 NA
ATOM     59  C   UNL A   1      45.433  31.863  28.790  1.00  0.00     0.031 C 
ATOM     60  C   UNL A   1      41.387  33.016  31.845  1.00  0.00     0.029 A 
ATOM     61  C   UNL A   1      41.444  33.415  30.521  1.00  0.00     0.049 A 
ATOM     62  H   UNL A   1      39.898  33.554  29.101  1.00  0.00     0.167 HD
ATOM     63  C   UNL A   1      43.507  32.997  29.425  1.00  0.00     0.074 A 
ATOM     64  C   UNL A   1      44.875  33.076  28.947  1.00  0.00     0.031 C 
ATOM     65  C   UNL A   1      42.536  33.920  29.699  1.00  0.00     0.037 A 
BRANCH  52  66
ATOM     66  C   UNL A   1      36.684  32.790  31.247  1.00  0.00     0.057 A 
ATOM     67  C   UNL A   1      35.880  33.778  30.642  1.00  0.00     0.134 A 
ATOM     68  C   UNL A   1      36.205  32.350  32.492  1.00  0.00     0.134 A 
ATOM     69  F   UNL A   1      36.120  34.224  29.401  1.00  0.00    -0.206 F 
ATOM     70  C   UNL A   1      34.777  34.365  31.277  1.00  0.00     0.040 A 
ATOM     71  C   UNL A   1      35.136  32.964  33.164  1.00  0.00     0.040 A 
ATOM     72  F   UNL A   1      36.701  31.263  33.093  1.00  0.00    -0.206 F 
ATOM     73  C   UNL A   1      34.427  33.990  32.562  1.00  0.00     0.006 A 
ENDBRANCH  52  66
BRANCH  53  74
ATOM     74  C   UNL A   1      44.822  28.630  28.076  1.00  0.00     0.057 A 
ATOM     75  C   UNL A   1      45.715  27.565  28.289  1.00  0.00     0.134 A 
ATOM     76  C   UNL A   1      44.040  28.582  26.919  1.00  0.00     0.134 A 
ATOM     77  F   UNL A   1      46.498  27.550  29.380  1.00  0.00    -0.206 F 
ATOM     78  C   UNL A   1      45.737  26.440  27.460  1.00  0.00     0.040 A 
ATOM     79  C   UNL A   1      44.064  27.466  26.073  1.00  0.00     0.040 A 
ATOM     80  F   UNL A   1      43.150  29.548  26.656  1.00  0.00    -0.206 F 
ATOM     81  C   UNL A   1      44.880  26.373  26.368  1.00  0.00     0.006 A 
ENDBRANCH  53  74
BRANCH  65  82
ATOM     82  C   UNL A   1      42.541  35.389  29.321  1.00  0.00     0.057 A 
ATOM     83  C   UNL A   1      43.319  36.375  29.946  1.00  0.00     0.134 A 
ATOM     84  C   UNL A   1      41.838  35.837  28.176  1.00  0.00     0.134 A 
ATOM     85  F   UNL A   1      44.134  36.089  30.968  1.00  0.00    -0.206 F 
ATOM     86  C   UNL A   1      43.349  37.708  29.508  1.00  0.00     0.040 A 
ATOM     87  C   UNL A   1      41.908  37.149  27.694  1.00  0.00     0.040 A 
ATOM     88  F   UNL A   1      41.068  35.015  27.447  1.00  0.00    -0.206 F 
ATOM     89  C   UNL A   1      42.654  38.096  28.371  1.00  0.00     0.006 A 
ENDBRANCH  65  82
ENDBRANCH  39  40
ENDBRANCH  31  34
ENDBRANCH  29  30
ENDBRANCH  28  29
ENDBRANCH   1  28
TORSDOF 15
ENDMDL
MODEL 2
REMARK VINA RESULT:     -12.6      3.465      8.891
REMARK SMILES COc1cc(S(=O)(=O)Nc2cccc(C(=O)NCCCNC(=O)c3ccc(-c4c5nc(c(-c6c(F)cccc6F)c6ccc([nH]6)c(-c6c(F)cccc6F)c6nc(c(-c7c(F)cccc7F)c7ccc4[nH]7)C=C6)C=C5)cc3)c2)c(OC)cc1C
REMARK SMILES IDX 18 1 17 2 15 3 16 4 14 6 10 7 11 8 78 9 12 10 13 11 9 12
REMARK SMILES IDX 6 14 7 15 8 16 5 17 3 18 4 19 83 20 82 21 84 22 79 23 2 24
REMARK SMILES IDX 1 25 80 26 81 27 19 28 20 29 21 30 22 31 23 33 24 34 25 35
REMARK SMILES IDX 77 36 26 37 76 38 27 39 28 40 29 41 70 42 30 43 75 44 69 45
REMARK SMILES IDX 71 46 31 47 74 48 68 49 67 50 32 52 58 53 41 54 57 55 42 56
REMARK SMILES IDX 45 57 56 58 72 59 43 60 44 61 55 63 73 64 46 65 33 66 34 67
REMARK SMILES IDX 39 68 35 69 36 70 38 71 40 72 37 73 59 74 60 75 65 76 61 77
REMARK SMILES IDX 62 78 64 79 66 80 63 81 47 82 48 83 53 84 49 85 50 86 52 87
REMARK SMILES IDX 54 88 51 89
REMARK H PARENT 17 5 9 13 21 32 71 51 45 62
REMARK Flexibility Score: inf
ROOT
ATOM      1  C   UNL A   1      31.917  30.482  26.331  1.00  0.00     0.118 C 
ENDROOT
BRANCH   1   2
ATOM      2  N   UNL A   1      32.687  30.061  25.171  1.00  0.00    -0.352 N 
ATOM      3  C   UNL A   1      32.512  28.999  24.315  1.00  0.00     0.251 C 
ATOM      4  O   UNL A   1      33.217  28.922  23.311  1.00  0.00    -0.269 OA
ATOM      5  H   UNL A   1      33.463  30.632  24.965  1.00  0.00     0.163 HD
BRANCH   3   6
ATOM      6  C   UNL A   1      31.439  27.996  24.516  1.00  0.00     0.041 A 
ATOM      7  C   UNL A   1      30.712  26.027  25.739  1.00  0.00     0.050 A 
ATOM      8  C   UNL A   1      29.568  25.956  24.948  1.00  0.00     0.027 A 
ATOM      9  C   UNL A   1      31.606  27.090  25.568  1.00  0.00     0.040 A 
ATOM     10  C   UNL A   1      29.361  26.899  23.938  1.00  0.00     0.003 A 
ATOM     11  C   UNL A   1      30.297  27.913  23.719  1.00  0.00     0.014 A 
BRANCH   7  12
ATOM     12  N   UNL A   1      31.079  25.044  26.695  1.00  0.00    -0.279 N 
ATOM     13  H   UNL A   1      31.012  25.292  27.646  1.00  0.00     0.180 HD
BRANCH  12  14
ATOM     14  S   UNL A   1      31.615  23.501  26.346  1.00  0.00     0.265 S 
ATOM     15  O   UNL A   1      30.592  22.844  25.560  1.00  0.00    -0.201 OA
ATOM     16  O   UNL A   1      32.022  22.949  27.625  1.00  0.00    -0.201 OA
BRANCH  14  17
ATOM     17  C   UNL A   1      33.081  23.518  25.334  1.00  0.00     0.133 A 
ATOM     18  C   UNL A   1      35.459  23.024  25.331  1.00  0.00     0.123 A 
ATOM     19  C   UNL A   1      34.265  23.205  26.024  1.00  0.00     0.073 A 
ATOM     20  C   UNL A   1      35.463  22.988  23.939  1.00  0.00    -0.005 A 
ATOM     21  C   UNL A   1      34.304  23.398  23.268  1.00  0.00     0.055 A 
ATOM     22  C   UNL A   1      36.663  22.578  23.138  1.00  0.00     0.048 C 
ATOM     23  C   UNL A   1      33.131  23.744  23.958  1.00  0.00     0.139 A 
BRANCH  18  24
ATOM     24  O   UNL A   1      36.596  22.855  26.072  1.00  0.00    -0.496 OA
ATOM     25  C   UNL A   1      37.342  24.077  26.127  1.00  0.00     0.278 C 
ENDBRANCH  18  24
BRANCH  23  26
ATOM     26  O   UNL A   1      32.077  24.349  23.345  1.00  0.00    -0.495 OA
ATOM     27  C   UNL A   1      32.360  25.255  22.286  1.00  0.00     0.278 C 
ENDBRANCH  23  26
ENDBRANCH  14  17
ENDBRANCH  12  14
ENDBRANCH   7  12
ENDBRANCH   3   6
ENDBRANCH   1   2
BRANCH   1  28
ATOM     28  C   UNL A   1      32.710  31.394  27.253  1.00  0.00     0.042 C 
BRANCH  28  29
ATOM     29  C   UNL A   1      34.091  30.868  27.598  1.00  0.00     0.118 C 
BRANCH  29  30
ATOM     30  N   UNL A   1      34.850  31.724  28.505  1.00  0.00    -0.352 N 
ATOM     31  C   UNL A   1      36.035  31.464  29.173  1.00  0.00     0.251 C 
ATOM     32  H   UNL A   1      34.463  32.616  28.663  1.00  0.00     0.163 HD
ATOM     33  O   UNL A   1      36.529  32.325  29.895  1.00  0.00    -0.269 OA
BRANCH  31  34
ATOM     34  C   UNL A   1      36.786  30.218  28.881  1.00  0.00     0.039 A 
ATOM     35  C   UNL A   1      36.993  29.327  29.941  1.00  0.00     0.014 A 
ATOM     36  C   UNL A   1      37.509  30.079  27.704  1.00  0.00     0.014 A 
ATOM     37  C   UNL A   1      38.127  28.522  29.934  1.00  0.00     0.010 A 
ATOM     38  C   UNL A   1      38.707  29.404  27.756  1.00  0.00     0.010 A 
ATOM     39  C   UNL A   1      39.047  28.683  28.903  1.00  0.00    -0.014 A 
BRANCH  39  40
ATOM     40  C   UNL A   1      40.420  28.211  28.968  1.00  0.00     0.031 A 
ATOM     41  C   UNL A   1      40.760  26.876  28.445  1.00  0.00     0.074 A 
ATOM     42  C   UNL A   1      41.390  29.052  29.392  1.00  0.00     0.049 A 
ATOM     43  N   UNL A   1      41.817  26.216  28.771  1.00  0.00    -0.248 NA
ATOM     44  C   UNL A   1      39.894  26.152  27.524  1.00  0.00     0.031 C 
ATOM     45  C   UNL A   1      42.833  28.890  29.245  1.00  0.00     0.029 A 
ATOM     46  N   UNL A   1      41.250  30.161  30.238  1.00  0.00    -0.354 N 
ATOM     47  C   UNL A   1      41.924  25.143  27.915  1.00  0.00     0.074 A 
ATOM     48  C   UNL A   1      40.669  25.113  27.203  1.00  0.00     0.031 C 
ATOM     49  C   UNL A   1      43.451  29.642  30.169  1.00  0.00     0.029 A 
ATOM     50  C   UNL A   1      42.419  30.190  31.031  1.00  0.00     0.049 A 
ATOM     51  H   UNL A   1      40.493  30.790  30.273  1.00  0.00     0.167 HD
ATOM     52  C   UNL A   1      43.120  24.496  27.818  1.00  0.00     0.037 A 
ATOM     53  C   UNL A   1      42.364  30.016  32.384  1.00  0.00     0.037 A 
ATOM     54  C   UNL A   1      44.082  25.035  28.780  1.00  0.00     0.049 A 
ATOM     55  C   UNL A   1      43.157  28.828  32.874  1.00  0.00     0.074 A 
ATOM     56  C   UNL A   1      45.108  25.959  28.663  1.00  0.00     0.029 A 
ATOM     57  N   UNL A   1      43.851  24.876  30.143  1.00  0.00    -0.354 N 
ATOM     58  N   UNL A   1      43.496  27.818  32.122  1.00  0.00    -0.248 NA
ATOM     59  C   UNL A   1      43.623  28.681  34.249  1.00  0.00     0.031 C 
ATOM     60  C   UNL A   1      45.468  26.386  29.964  1.00  0.00     0.029 A 
ATOM     61  C   UNL A   1      44.674  25.711  30.874  1.00  0.00     0.049 A 
ATOM     62  H   UNL A   1      43.194  24.255  30.532  1.00  0.00     0.167 HD
ATOM     63  C   UNL A   1      44.187  26.898  32.871  1.00  0.00     0.074 A 
ATOM     64  C   UNL A   1      44.256  27.496  34.191  1.00  0.00     0.031 C 
ATOM     65  C   UNL A   1      44.631  25.722  32.331  1.00  0.00     0.037 A 
BRANCH  52  66
ATOM     66  C   UNL A   1      43.509  23.598  26.660  1.00  0.00     0.057 A 
ATOM     67  C   UNL A   1      43.253  22.212  26.705  1.00  0.00     0.134 A 
ATOM     68  C   UNL A   1      44.188  24.014  25.503  1.00  0.00     0.134 A 
ATOM     69  F   UNL A   1      42.512  21.660  27.675  1.00  0.00    -0.206 F 
ATOM     70  C   UNL A   1      43.742  21.310  25.751  1.00  0.00     0.040 A 
ATOM     71  C   UNL A   1      44.731  23.120  24.567  1.00  0.00     0.040 A 
ATOM     72  F   UNL A   1      44.303  25.307  25.182  1.00  0.00    -0.206 F 
ATOM     73  C   UNL A   1      44.522  21.757  24.699  1.00  0.00     0.006 A 
ENDBRANCH  52  66
BRANCH  53  74
ATOM     74  C   UNL A   1      41.096  30.511  32.984  1.00  0.00     0.057 A 
ATOM     75  C   UNL A   1      40.081  29.579  33.262  1.00  0.00     0.134 A 
ATOM     76  C   UNL A   1      41.028  31.741  33.643  1.00  0.00     0.134 A 
ATOM     77  F   UNL A   1      40.086  28.377  32.661  1.00  0.00    -0.206 F 
ATOM     78  C   UNL A   1      39.117  29.807  34.247  1.00  0.00     0.040 A 
ATOM     79  C   UNL A   1      40.057  31.986  34.621  1.00  0.00     0.040 A 
ATOM     80  F   UNL A   1      41.970  32.674  33.447  1.00  0.00    -0.206 F 
ATOM     81  C   UNL A   1      39.128  31.002  34.957  1.00  0.00     0.006 A 
ENDBRANCH  53  74
BRANCH  65  82
ATOM     82  C   UNL A   1      45.152  24.511  33.082  1.00  0.00     0.057 A 
ATOM     83  C   UNL A   1      46.425  24.416  33.661  1.00  0.00     0.134 A 
ATOM     84  C   UNL A   1      44.293  23.424  33.373  1.00  0.00     0.134 A 
ATOM     85  F   UNL A   1      47.316  25.412  33.582  1.00  0.00    -0.206 F 
ATOM     86  C   UNL A   1      46.833  23.305  34.416  1.00  0.00     0.040 A 
ATOM     87  C   UNL A   1      44.668  22.341  34.174  1.00  0.00     0.040 A 
ATOM     88  F   UNL A   1      43.032  23.372  32.918  1.00  0.00    -0.206 F 
ATOM     89  C   UNL A   1      45.950  22.269  34.686  1.00  0.00     0.006 A 
ENDBRANCH  65  82
ENDBRANCH  39  40
ENDBRANCH  31  34
ENDBRANCH  29  30
ENDBRANCH  28  29
ENDBRANCH   1  28
TORSDOF 15
ENDMDL
MODEL 3
REMARK VINA RESULT:     -12.5      1.253      1.762
REMARK SMILES COc1cc(S(=O)(=O)Nc2cccc(C(=O)NCCCNC(=O)c3ccc(-c4c5nc(c(-c6c(F)cccc6F)c6ccc([nH]6)c(-c6c(F)cccc6F)c6nc(c(-c7c(F)cccc7F)c7ccc4[nH]7)C=C6)C=C5)cc3)c2)c(OC)cc1C
REMARK SMILES IDX 18 1 17 2 15 3 16 4 14 6 10 7 11 8 78 9 12 10 13 11 9 12
REMARK SMILES IDX 6 14 7 15 8 16 5 17 3 18 4 19 83 20 82 21 84 22 79 23 2 24
REMARK SMILES IDX 1 25 80 26 81 27 19 28 20 29 21 30 22 31 23 33 24 34 25 35
REMARK SMILES IDX 77 36 26 37 76 38 27 39 28 40 29 41 70 42 30 43 75 44 69 45
REMARK SMILES IDX 71 46 31 47 74 48 68 49 67 50 32 52 58 53 41 54 57 55 42 56
REMARK SMILES IDX 45 57 56 58 72 59 43 60 44 61 55 63 73 64 46 65 33 66 34 67
REMARK SMILES IDX 39 68 35 69 36 70 38 71 40 72 37 73 59 74 60 75 65 76 61 77
REMARK SMILES IDX 62 78 64 79 66 80 63 81 47 82 48 83 53 84 49 85 50 86 52 87
REMARK SMILES IDX 54 88 51 89
REMARK H PARENT 17 5 9 13 21 32 71 51 45 62
REMARK Flexibility Score: inf
ROOT
ATOM      1  C   UNL A   1      36.010  21.164  25.412  1.00  0.00     0.118 C 
ENDROOT
BRANCH   1   2
ATOM      2  N   UNL A   1      35.314  19.958  24.992  1.00  0.00    -0.352 N 
ATOM      3  C   UNL A   1      34.001  19.757  24.637  1.00  0.00     0.251 C 
ATOM      4  O   UNL A   1      33.669  18.666  24.180  1.00  0.00    -0.269 OA
ATOM      5  H   UNL A   1      35.877  19.151  24.957  1.00  0.00     0.163 HD
BRANCH   3   6
ATOM      6  C   UNL A   1      32.994  20.844  24.700  1.00  0.00     0.041 A 
ATOM      7  C   UNL A   1      32.046  22.791  23.599  1.00  0.00     0.050 A 
ATOM      8  C   UNL A   1      31.233  23.024  24.706  1.00  0.00     0.027 A 
ATOM      9  C   UNL A   1      32.869  21.660  23.571  1.00  0.00     0.040 A 
ATOM     10  C   UNL A   1      31.304  22.172  25.810  1.00  0.00     0.003 A 
ATOM     11  C   UNL A   1      32.186  21.088  25.810  1.00  0.00     0.014 A 
BRANCH   7  12
ATOM     12  N   UNL A   1      32.146  23.671  22.488  1.00  0.00    -0.279 N 
ATOM     13  H   UNL A   1      31.545  23.507  21.727  1.00  0.00     0.180 HD
BRANCH  12  14
ATOM     14  S   UNL A   1      33.199  24.961  22.364  1.00  0.00     0.265 S 
ATOM     15  O   UNL A   1      32.827  25.725  21.192  1.00  0.00    -0.201 OA
ATOM     16  O   UNL A   1      34.523  24.373  22.463  1.00  0.00    -0.201 OA
BRANCH  14  17
ATOM     17  C   UNL A   1      33.056  26.075  23.746  1.00  0.00     0.133 A 
ATOM     18  C   UNL A   1      31.936  28.083  24.530  1.00  0.00     0.123 A 
ATOM     19  C   UNL A   1      32.265  27.210  23.496  1.00  0.00     0.073 A 
ATOM     20  C   UNL A   1      32.246  27.757  25.847  1.00  0.00    -0.005 A 
ATOM     21  C   UNL A   1      33.115  26.682  26.071  1.00  0.00     0.055 A 
ATOM     22  C   UNL A   1      31.728  28.533  27.022  1.00  0.00     0.048 C 
ATOM     23  C   UNL A   1      33.593  25.883  25.019  1.00  0.00     0.139 A 
BRANCH  18  24
ATOM     24  O   UNL A   1      31.279  29.235  24.195  1.00  0.00    -0.496 OA
ATOM     25  C   UNL A   1      30.014  28.930  23.594  1.00  0.00     0.278 C 
ENDBRANCH  18  24
BRANCH  23  26
ATOM     26  O   UNL A   1      34.600  24.983  25.187  1.00  0.00    -0.495 OA
ATOM     27  C   UNL A   1      34.470  24.036  26.242  1.00  0.00     0.278 C 
ENDBRANCH  23  26
ENDBRANCH  14  17
ENDBRANCH  12  14
ENDBRANCH   7  12
ENDBRANCH   3   6
ENDBRANCH   1   2
BRANCH   1  28
ATOM     28  C   UNL A   1      37.521  21.026  25.315  1.00  0.00     0.042 C 
BRANCH  28  29
ATOM     29  C   UNL A   1      38.270  22.333  25.499  1.00  0.00     0.118 C 
BRANCH  29  30
ATOM     30  N   UNL A   1      39.616  22.182  26.042  1.00  0.00    -0.352 N 
ATOM     31  C   UNL A   1      40.441  23.130  26.622  1.00  0.00     0.251 C 
ATOM     32  H   UNL A   1      39.991  21.273  25.987  1.00  0.00     0.163 HD
ATOM     33  O   UNL A   1      41.551  22.804  27.031  1.00  0.00    -0.269 OA
BRANCH  31  34
ATOM     34  C   UNL A   1      39.915  24.490  26.902  1.00  0.00     0.039 A 
ATOM     35  C   UNL A   1      40.459  25.553  26.172  1.00  0.00     0.014 A 
ATOM     36  C   UNL A   1      39.151  24.741  28.033  1.00  0.00     0.014 A 
ATOM     37  C   UNL A   1      40.503  26.817  26.751  1.00  0.00     0.010 A 
ATOM     38  C   UNL A   1      39.324  25.945  28.677  1.00  0.00     0.010 A 
ATOM     39  C   UNL A   1      40.062  26.959  28.063  1.00  0.00    -0.014 A 
BRANCH  39  40
ATOM     40  C   UNL A   1      40.400  28.093  28.907  1.00  0.00     0.031 A 
ATOM     41  C   UNL A   1      39.403  29.154  29.140  1.00  0.00     0.074 A 
ATOM     42  C   UNL A   1      41.578  28.098  29.569  1.00  0.00     0.049 A 
ATOM     43  N   UNL A   1      39.690  30.344  29.539  1.00  0.00    -0.248 NA
ATOM     44  C   UNL A   1      37.980  28.958  28.897  1.00  0.00     0.031 C 
ATOM     45  C   UNL A   1      41.971  28.963  30.679  1.00  0.00     0.029 A 
ATOM     46  N   UNL A   1      42.757  27.424  29.222  1.00  0.00    -0.354 N 
ATOM     47  C   UNL A   1      38.511  30.969  29.878  1.00  0.00     0.074 A 
ATOM     48  C   UNL A   1      37.475  30.088  29.398  1.00  0.00     0.031 C 
ATOM     49  C   UNL A   1      43.311  29.003  30.745  1.00  0.00     0.029 A 
ATOM     50  C   UNL A   1      43.816  28.286  29.587  1.00  0.00     0.049 A 
ATOM     51  H   UNL A   1      42.832  26.533  28.808  1.00  0.00     0.167 HD
ATOM     52  C   UNL A   1      38.561  32.093  30.650  1.00  0.00     0.037 A 
ATOM     53  C   UNL A   1      44.656  28.815  28.652  1.00  0.00     0.037 A 
ATOM     54  C   UNL A   1      39.947  32.497  30.889  1.00  0.00     0.049 A 
ATOM     55  C   UNL A   1      44.650  30.325  28.618  1.00  0.00     0.074 A 
ATOM     56  C   UNL A   1      40.810  32.299  31.954  1.00  0.00     0.029 A 
ATOM     57  N   UNL A   1      40.732  32.923  29.822  1.00  0.00    -0.354 N 
ATOM     58  N   UNL A   1      43.676  31.060  29.079  1.00  0.00    -0.248 NA
ATOM     59  C   UNL A   1      45.735  31.124  28.057  1.00  0.00     0.031 C 
ATOM     60  C   UNL A   1      42.128  32.570  31.511  1.00  0.00     0.029 A 
ATOM     61  C   UNL A   1      42.065  32.950  30.182  1.00  0.00     0.049 A 
ATOM     62  H   UNL A   1      40.385  33.171  28.935  1.00  0.00     0.167 HD
ATOM     63  C   UNL A   1      43.966  32.387  28.876  1.00  0.00     0.074 A 
ATOM     64  C   UNL A   1      45.275  32.372  28.252  1.00  0.00     0.031 C 
ATOM     65  C   UNL A   1      43.090  33.374  29.237  1.00  0.00     0.037 A 
BRANCH  52  66
ATOM     66  C   UNL A   1      37.383  32.641  31.430  1.00  0.00     0.057 A 
ATOM     67  C   UNL A   1      37.158  32.249  32.766  1.00  0.00     0.134 A 
ATOM     68  C   UNL A   1      36.400  33.504  30.917  1.00  0.00     0.134 A 
ATOM     69  F   UNL A   1      38.054  31.526  33.452  1.00  0.00    -0.206 F 
ATOM     70  C   UNL A   1      35.998  32.579  33.479  1.00  0.00     0.040 A 
ATOM     71  C   UNL A   1      35.208  33.800  31.597  1.00  0.00     0.040 A 
ATOM     72  F   UNL A   1      36.571  34.158  29.764  1.00  0.00    -0.206 F 
ATOM     73  C   UNL A   1      34.995  33.323  32.879  1.00  0.00     0.006 A 
ENDBRANCH  52  66
BRANCH  53  74
ATOM     74  C   UNL A   1      44.848  27.929  27.473  1.00  0.00     0.057 A 
ATOM     75  C   UNL A   1      45.667  26.795  27.616  1.00  0.00     0.134 A 
ATOM     76  C   UNL A   1      43.958  27.939  26.396  1.00  0.00     0.134 A 
ATOM     77  F   UNL A   1      46.547  26.723  28.629  1.00  0.00    -0.206 F 
ATOM     78  C   UNL A   1      45.517  25.667  26.805  1.00  0.00     0.040 A 
ATOM     79  C   UNL A   1      43.810  26.819  25.568  1.00  0.00     0.040 A 
ATOM     80  F   UNL A   1      43.129  28.974  26.204  1.00  0.00    -0.206 F 
ATOM     81  C   UNL A   1      44.557  25.665  25.800  1.00  0.00     0.006 A 
ENDBRANCH  53  74
BRANCH  65  82
ATOM     82  C   UNL A   1      43.145  34.835  28.834  1.00  0.00     0.057 A 
ATOM     83  C   UNL A   1      43.330  35.905  29.722  1.00  0.00     0.134 A 
ATOM     84  C   UNL A   1      43.157  35.202  27.466  1.00  0.00     0.134 A 
ATOM     85  F   UNL A   1      43.461  35.715  31.040  1.00  0.00    -0.206 F 
ATOM     86  C   UNL A   1      43.455  37.235  29.292  1.00  0.00     0.040 A 
ATOM     87  C   UNL A   1      43.342  36.516  27.023  1.00  0.00     0.040 A 
ATOM     88  F   UNL A   1      43.020  34.296  26.486  1.00  0.00    -0.206 F 
ATOM     89  C   UNL A   1      43.475  37.543  27.939  1.00  0.00     0.006 A 
ENDBRANCH  65  82
ENDBRANCH  39  40
ENDBRANCH  31  34
ENDBRANCH  29  30
ENDBRANCH  28  29
ENDBRANCH   1  28
TORSDOF 15
ENDMDL
