MODEL 1
REMARK VINA RESULT:     -11.5      0.000      0.000
REMARK SMILES Cc1cccc(C[N@@H+](C)C[C@]2(C(=O)NCCCNC(=O)c3ccc(-c4c5nc(c(-c6c(F)cccc6F)c6ccc([nH]6)c(-c6c(F)cccc6F)c6nc(c(-c7c(F)cccc7F)c7ccc4[nH]7)C=C6)C=C5)cc3)CCOC2)n1
REMARK SMILES IDX 15 1 14 2 12 3 13 4 11 6 75 7 78 8 76 9 77 10 10 11 8 12
REMARK SMILES IDX 9 13 7 15 6 16 1 17 2 18 3 19 79 20 4 21 5 22 16 23 17 24
REMARK SMILES IDX 18 25 19 26 20 28 21 29 22 30 74 31 23 32 73 33 24 34 25 35
REMARK SMILES IDX 26 36 67 37 27 38 72 39 66 40 68 41 28 42 71 43 65 44 64 45
REMARK SMILES IDX 29 47 55 48 38 49 54 50 39 51 42 52 53 53 69 54 40 55 41 56
REMARK SMILES IDX 52 58 70 59 43 60 30 61 31 62 36 63 32 64 33 65 35 66 37 67
REMARK SMILES IDX 34 68 56 69 57 70 62 71 58 72 59 73 61 74 63 75 60 76 44 77
REMARK SMILES IDX 45 78 50 79 46 80 47 81 49 82 51 83 48 84
REMARK H PARENT 14 5 8 14 18 27 68 46 42 57
REMARK Flexibility Score: inf
ROOT
ATOM      1  C   UNL A   1      36.489  20.687  25.238  1.00  0.00     0.117 C 
ENDROOT
BRANCH   1   2
ATOM      2  N   UNL A   1      36.721  21.976  25.855  1.00  0.00    -0.355 N 
ATOM      3  C   UNL A   1      36.211  23.211  25.644  1.00  0.00     0.234 C 
ATOM      4  O   UNL A   1      36.963  24.102  26.042  1.00  0.00    -0.274 OA
ATOM      5  H   UNL A   1      37.387  21.948  26.579  1.00  0.00     0.163 HD
BRANCH   3   6
ATOM      6  C   UNL A   1      34.847  23.486  25.001  1.00  0.00     0.123 C 
ATOM      7  C   UNL A   1      34.480  24.971  24.951  1.00  0.00     0.054 C 
ATOM      8  C   UNL A   1      34.939  23.103  23.501  1.00  0.00     0.183 C 
ATOM      9  C   UNL A   1      33.956  25.178  23.546  1.00  0.00     0.161 C 
ATOM     10  O   UNL A   1      34.712  24.290  22.727  1.00  0.00    -0.380 OA
BRANCH   6  11
ATOM     11  C   UNL A   1      33.694  22.614  25.619  1.00  0.00     0.281 C 
BRANCH  11  12
ATOM     12  N   UNL A   1      32.601  21.963  24.882  1.00  0.00    -0.331 N 
ATOM     13  C   UNL A   1      31.433  22.784  24.617  1.00  0.00     0.333 C 
ATOM     14  H   UNL A   1      33.079  21.832  23.990  1.00  0.00     0.348 HD
BRANCH  12  15
ATOM     15  C   UNL A   1      32.206  20.600  25.312  1.00  0.00     0.319 C 
BRANCH  15  16
ATOM     16  C   UNL A   1      32.670  19.443  24.436  1.00  0.00     0.095 A 
ATOM     17  C   UNL A   1      34.921  16.570  24.856  1.00  0.00     0.067 C 
ATOM     18  C   UNL A   1      33.924  17.494  24.230  1.00  0.00     0.038 A 
ATOM     19  C   UNL A   1      33.439  17.262  22.948  1.00  0.00     0.023 A 
ATOM     20  N   UNL A   1      33.543  18.557  24.978  1.00  0.00    -0.252 NA
ATOM     21  C   UNL A   1      32.554  18.177  22.396  1.00  0.00     0.004 A 
ATOM     22  C   UNL A   1      32.179  19.290  23.139  1.00  0.00     0.030 A 
ENDBRANCH  15  16
ENDBRANCH  12  15
ENDBRANCH  11  12
ENDBRANCH   6  11
ENDBRANCH   3   6
ENDBRANCH   1   2
BRANCH   1  23
ATOM     23  C   UNL A   1      37.814  20.051  24.819  1.00  0.00     0.042 C 
BRANCH  23  24
ATOM     24  C   UNL A   1      38.990  20.388  25.736  1.00  0.00     0.118 C 
BRANCH  24  25
ATOM     25  N   UNL A   1      39.950  19.299  25.850  1.00  0.00    -0.352 N 
ATOM     26  C   UNL A   1      41.300  19.340  26.094  1.00  0.00     0.251 C 
ATOM     27  H   UNL A   1      39.573  18.397  25.735  1.00  0.00     0.163 HD
ATOM     28  O   UNL A   1      41.979  18.329  25.977  1.00  0.00    -0.269 OA
BRANCH  26  29
ATOM     29  C   UNL A   1      41.934  20.619  26.469  1.00  0.00     0.039 A 
ATOM     30  C   UNL A   1      42.366  21.477  25.456  1.00  0.00     0.014 A 
ATOM     31  C   UNL A   1      42.084  20.974  27.812  1.00  0.00     0.014 A 
ATOM     32  C   UNL A   1      42.881  22.730  25.791  1.00  0.00     0.010 A 
ATOM     33  C   UNL A   1      42.522  22.252  28.140  1.00  0.00     0.010 A 
ATOM     34  C   UNL A   1      42.922  23.144  27.133  1.00  0.00    -0.014 A 
BRANCH  34  35
ATOM     35  C   UNL A   1      43.366  24.513  27.499  1.00  0.00     0.031 A 
ATOM     36  C   UNL A   1      42.358  25.553  27.900  1.00  0.00     0.074 A 
ATOM     37  C   UNL A   1      44.671  24.834  27.405  1.00  0.00     0.049 A 
ATOM     38  N   UNL A   1      42.545  26.816  28.190  1.00  0.00    -0.248 NA
ATOM     39  C   UNL A   1      40.951  25.126  27.959  1.00  0.00     0.031 C 
ATOM     40  C   UNL A   1      45.739  23.927  26.978  1.00  0.00     0.029 A 
ATOM     41  N   UNL A   1      45.322  26.016  27.653  1.00  0.00    -0.354 N 
ATOM     42  C   UNL A   1      41.284  27.335  28.447  1.00  0.00     0.074 A 
ATOM     43  C   UNL A   1      40.334  26.266  28.231  1.00  0.00     0.031 C 
ATOM     44  C   UNL A   1      46.913  24.578  27.020  1.00  0.00     0.029 A 
ATOM     45  C   UNL A   1      46.677  25.956  27.435  1.00  0.00     0.049 A 
ATOM     46  H   UNL A   1      44.861  26.831  27.957  1.00  0.00     0.167 HD
ATOM     47  C   UNL A   1      40.950  28.583  28.851  1.00  0.00     0.037 A 
ATOM     48  C   UNL A   1      47.623  26.908  27.551  1.00  0.00     0.037 A 
ATOM     49  C   UNL A   1      41.901  29.636  29.093  1.00  0.00     0.049 A 
ATOM     50  C   UNL A   1      47.223  28.287  27.996  1.00  0.00     0.074 A 
ATOM     51  C   UNL A   1      41.668  30.915  29.568  1.00  0.00     0.029 A 
ATOM     52  N   UNL A   1      43.266  29.532  28.877  1.00  0.00    -0.354 N 
ATOM     53  N   UNL A   1      46.034  28.744  28.308  1.00  0.00    -0.248 NA
ATOM     54  C   UNL A   1      48.297  29.284  28.111  1.00  0.00     0.031 C 
ATOM     55  C   UNL A   1      42.886  31.600  29.594  1.00  0.00     0.029 A 
ATOM     56  C   UNL A   1      43.885  30.731  29.185  1.00  0.00     0.049 A 
ATOM     57  H   UNL A   1      43.727  28.724  28.552  1.00  0.00     0.167 HD
ATOM     58  C   UNL A   1      46.221  30.068  28.683  1.00  0.00     0.074 A 
ATOM     59  C   UNL A   1      47.640  30.336  28.576  1.00  0.00     0.031 C 
ATOM     60  C   UNL A   1      45.301  30.980  29.082  1.00  0.00     0.037 A 
BRANCH  47  61
ATOM     61  C   UNL A   1      39.493  28.879  29.065  1.00  0.00     0.057 A 
ATOM     62  C   UNL A   1      38.671  29.330  28.025  1.00  0.00     0.134 A 
ATOM     63  C   UNL A   1      38.897  28.665  30.315  1.00  0.00     0.134 A 
ATOM     64  F   UNL A   1      39.181  29.566  26.807  1.00  0.00    -0.206 F 
ATOM     65  C   UNL A   1      37.311  29.581  28.225  1.00  0.00     0.040 A 
ATOM     66  C   UNL A   1      37.533  28.886  30.519  1.00  0.00     0.040 A 
ATOM     67  F   UNL A   1      39.625  28.229  31.352  1.00  0.00    -0.206 F 
ATOM     68  C   UNL A   1      36.738  29.351  29.474  1.00  0.00     0.006 A 
ENDBRANCH  47  61
BRANCH  48  69
ATOM     69  C   UNL A   1      49.044  26.589  27.261  1.00  0.00     0.057 A 
ATOM     70  C   UNL A   1      49.586  26.803  25.987  1.00  0.00     0.134 A 
ATOM     71  C   UNL A   1      49.888  26.048  28.237  1.00  0.00     0.134 A 
ATOM     72  F   UNL A   1      48.821  27.303  25.005  1.00  0.00    -0.206 F 
ATOM     73  C   UNL A   1      50.907  26.468  25.688  1.00  0.00     0.040 A 
ATOM     74  C   UNL A   1      51.219  25.732  27.959  1.00  0.00     0.040 A 
ATOM     75  F   UNL A   1      49.434  25.827  29.480  1.00  0.00    -0.206 F 
ATOM     76  C   UNL A   1      51.729  25.934  26.678  1.00  0.00     0.006 A 
ENDBRANCH  48  69
BRANCH  60  77
ATOM     77  C   UNL A   1      45.804  32.339  29.468  1.00  0.00     0.057 A 
ATOM     78  C   UNL A   1      45.883  33.390  28.547  1.00  0.00     0.134 A 
ATOM     79  C   UNL A   1      46.180  32.609  30.792  1.00  0.00     0.134 A 
ATOM     80  F   UNL A   1      45.551  33.193  27.261  1.00  0.00    -0.206 F 
ATOM     81  C   UNL A   1      46.338  34.655  28.920  1.00  0.00     0.040 A 
ATOM     82  C   UNL A   1      46.610  33.877  31.183  1.00  0.00     0.040 A 
ATOM     83  F   UNL A   1      46.119  31.649  31.727  1.00  0.00    -0.206 F 
ATOM     84  C   UNL A   1      46.697  34.902  30.244  1.00  0.00     0.006 A 
ENDBRANCH  60  77
ENDBRANCH  34  35
ENDBRANCH  26  29
ENDBRANCH  24  25
ENDBRANCH  23  24
ENDBRANCH   1  23
TORSDOF 14
ENDMDL
MODEL 2
REMARK VINA RESULT:     -11.5      0.365      6.322
REMARK SMILES Cc1cccc(C[N@@H+](C)C[C@]2(C(=O)NCCCNC(=O)c3ccc(-c4c5nc(c(-c6c(F)cccc6F)c6ccc([nH]6)c(-c6c(F)cccc6F)c6nc(c(-c7c(F)cccc7F)c7ccc4[nH]7)C=C6)C=C5)cc3)CCOC2)n1
REMARK SMILES IDX 15 1 14 2 12 3 13 4 11 6 75 7 78 8 76 9 77 10 10 11 8 12
REMARK SMILES IDX 9 13 7 15 6 16 1 17 2 18 3 19 79 20 4 21 5 22 16 23 17 24
REMARK SMILES IDX 18 25 19 26 20 28 21 29 22 30 74 31 23 32 73 33 24 34 25 35
REMARK SMILES IDX 26 36 67 37 27 38 72 39 66 40 68 41 28 42 71 43 65 44 64 45
REMARK SMILES IDX 29 47 55 48 38 49 54 50 39 51 42 52 53 53 69 54 40 55 41 56
REMARK SMILES IDX 52 58 70 59 43 60 30 61 31 62 36 63 32 64 33 65 35 66 37 67
REMARK SMILES IDX 34 68 56 69 57 70 62 71 58 72 59 73 61 74 63 75 60 76 44 77
REMARK SMILES IDX 45 78 50 79 46 80 47 81 49 82 51 83 48 84
REMARK H PARENT 14 5 8 14 18 27 68 46 42 57
REMARK Flexibility Score: inf
ROOT
ATOM      1  C   UNL A   1      36.564  20.537  25.003  1.00  0.00     0.117 C 
ENDROOT
BRANCH   1   2
ATOM      2  N   UNL A   1      36.887  21.792  25.650  1.00  0.00    -0.355 N 
ATOM      3  C   UNL A   1      36.393  23.046  25.540  1.00  0.00     0.234 C 
ATOM      4  O   UNL A   1      37.202  23.901  25.902  1.00  0.00    -0.274 OA
ATOM      5  H   UNL A   1      37.617  21.716  26.306  1.00  0.00     0.163 HD
BRANCH   3   6
ATOM      6  C   UNL A   1      34.983  23.380  25.040  1.00  0.00     0.123 C 
ATOM      7  C   UNL A   1      34.689  24.882  24.989  1.00  0.00     0.054 C 
ATOM      8  C   UNL A   1      34.890  22.959  23.551  1.00  0.00     0.183 C 
ATOM      9  C   UNL A   1      34.026  25.085  23.643  1.00  0.00     0.161 C 
ATOM     10  O   UNL A   1      34.642  24.140  22.773  1.00  0.00    -0.380 OA
BRANCH   6  11
ATOM     11  C   UNL A   1      33.860  22.586  25.803  1.00  0.00     0.281 C 
BRANCH  11  12
ATOM     12  N   UNL A   1      32.858  21.695  25.200  1.00  0.00    -0.331 N 
ATOM     13  C   UNL A   1      31.546  22.275  24.972  1.00  0.00     0.333 C 
ATOM     14  H   UNL A   1      33.292  21.578  24.285  1.00  0.00     0.348 HD
BRANCH  12  15
ATOM     15  C   UNL A   1      32.744  20.324  25.753  1.00  0.00     0.319 C 
BRANCH  15  16
ATOM     16  C   UNL A   1      33.035  19.174  24.796  1.00  0.00     0.095 A 
ATOM     17  C   UNL A   1      34.846  15.984  25.001  1.00  0.00     0.067 C 
ATOM     18  C   UNL A   1      33.993  17.082  24.448  1.00  0.00     0.038 A 
ATOM     19  C   UNL A   1      33.478  17.009  23.159  1.00  0.00     0.023 A 
ATOM     20  N   UNL A   1      33.770  18.136  25.269  1.00  0.00    -0.252 NA
ATOM     21  C   UNL A   1      32.735  18.078  22.678  1.00  0.00     0.004 A 
ATOM     22  C   UNL A   1      32.526  19.181  23.497  1.00  0.00     0.030 A 
ENDBRANCH  15  16
ENDBRANCH  12  15
ENDBRANCH  11  12
ENDBRANCH   6  11
ENDBRANCH   3   6
ENDBRANCH   1   2
BRANCH   1  23
ATOM     23  C   UNL A   1      37.823  19.688  24.830  1.00  0.00     0.042 C 
BRANCH  23  24
ATOM     24  C   UNL A   1      38.998  20.121  25.708  1.00  0.00     0.118 C 
BRANCH  24  25
ATOM     25  N   UNL A   1      40.019  19.090  25.835  1.00  0.00    -0.352 N 
ATOM     26  C   UNL A   1      41.367  19.213  26.066  1.00  0.00     0.251 C 
ATOM     27  H   UNL A   1      39.694  18.166  25.742  1.00  0.00     0.163 HD
ATOM     28  O   UNL A   1      42.101  18.240  25.963  1.00  0.00    -0.269 OA
BRANCH  26  29
ATOM     29  C   UNL A   1      41.929  20.533  26.410  1.00  0.00     0.039 A 
ATOM     30  C   UNL A   1      42.313  21.390  25.376  1.00  0.00     0.014 A 
ATOM     31  C   UNL A   1      42.060  20.928  27.744  1.00  0.00     0.014 A 
ATOM     32  C   UNL A   1      42.758  22.677  25.681  1.00  0.00     0.010 A 
ATOM     33  C   UNL A   1      42.427  22.236  28.040  1.00  0.00     0.010 A 
ATOM     34  C   UNL A   1      42.777  23.124  27.012  1.00  0.00    -0.014 A 
BRANCH  34  35
ATOM     35  C   UNL A   1      43.146  24.523  27.346  1.00  0.00     0.031 A 
ATOM     36  C   UNL A   1      44.586  24.954  27.318  1.00  0.00     0.074 A 
ATOM     37  C   UNL A   1      42.188  25.386  27.739  1.00  0.00     0.049 A 
ATOM     38  N   UNL A   1      45.108  26.109  27.640  1.00  0.00    -0.248 NA
ATOM     39  C   UNL A   1      45.571  23.946  26.897  1.00  0.00     0.031 C 
ATOM     40  C   UNL A   1      40.761  25.073  27.856  1.00  0.00     0.029 A 
ATOM     41  N   UNL A   1      42.270  26.700  28.122  1.00  0.00    -0.354 N 
ATOM     42  C   UNL A   1      46.479  25.962  27.478  1.00  0.00     0.074 A 
ATOM     43  C   UNL A   1      46.713  24.592  27.078  1.00  0.00     0.031 C 
ATOM     44  C   UNL A   1      40.101  26.171  28.257  1.00  0.00     0.029 A 
ATOM     45  C   UNL A   1      41.059  27.252  28.464  1.00  0.00     0.049 A 
ATOM     46  H   UNL A   1      43.118  27.201  28.151  1.00  0.00     0.167 HD
ATOM     47  C   UNL A   1      47.453  26.892  27.625  1.00  0.00     0.037 A 
ATOM     48  C   UNL A   1      40.756  28.489  28.901  1.00  0.00     0.037 A 
ATOM     49  C   UNL A   1      47.213  28.261  27.996  1.00  0.00     0.049 A 
ATOM     50  C   UNL A   1      41.857  29.500  29.061  1.00  0.00     0.074 A 
ATOM     51  C   UNL A   1      48.125  29.296  28.107  1.00  0.00     0.029 A 
ATOM     52  N   UNL A   1      45.971  28.786  28.317  1.00  0.00    -0.354 N 
ATOM     53  N   UNL A   1      43.142  29.367  28.832  1.00  0.00    -0.248 NA
ATOM     54  C   UNL A   1      41.468  30.835  29.536  1.00  0.00     0.031 C 
ATOM     55  C   UNL A   1      47.442  30.436  28.541  1.00  0.00     0.029 A 
ATOM     56  C   UNL A   1      46.097  30.125  28.651  1.00  0.00     0.049 A 
ATOM     57  H   UNL A   1      45.124  28.282  28.310  1.00  0.00     0.167 HD
ATOM     58  C   UNL A   1      43.707  30.606  29.105  1.00  0.00     0.074 A 
ATOM     59  C   UNL A   1      42.624  31.481  29.501  1.00  0.00     0.031 C 
ATOM     60  C   UNL A   1      45.006  30.986  29.034  1.00  0.00     0.037 A 
BRANCH  47  61
ATOM     61  C   UNL A   1      48.870  26.460  27.378  1.00  0.00     0.057 A 
ATOM     62  C   UNL A   1      49.692  25.998  28.413  1.00  0.00     0.134 A 
ATOM     63  C   UNL A   1      49.402  26.465  26.082  1.00  0.00     0.134 A 
ATOM     64  F   UNL A   1      49.248  25.979  29.679  1.00  0.00    -0.206 F 
ATOM     65  C   UNL A   1      51.002  25.575  28.172  1.00  0.00     0.040 A 
ATOM     66  C   UNL A   1      50.701  26.019  25.826  1.00  0.00     0.040 A 
ATOM     67  F   UNL A   1      48.667  26.890  25.044  1.00  0.00    -0.206 F 
ATOM     68  C   UNL A   1      51.505  25.579  26.874  1.00  0.00     0.006 A 
ENDBRANCH  47  61
BRANCH  48  69
ATOM     69  C   UNL A   1      39.347  28.852  29.201  1.00  0.00     0.057 A 
ATOM     70  C   UNL A   1      38.809  28.658  30.479  1.00  0.00     0.134 A 
ATOM     71  C   UNL A   1      38.501  29.381  28.220  1.00  0.00     0.134 A 
ATOM     72  F   UNL A   1      39.566  28.137  31.457  1.00  0.00    -0.206 F 
ATOM     73  C   UNL A   1      37.475  28.953  30.765  1.00  0.00     0.040 A 
ATOM     74  C   UNL A   1      37.172  29.705  28.498  1.00  0.00     0.040 A 
ATOM     75  F   UNL A   1      38.957  29.600  26.977  1.00  0.00    -0.206 F 
ATOM     76  C   UNL A   1      36.654  29.483  29.772  1.00  0.00     0.006 A 
ENDBRANCH  48  69
BRANCH  60  77
ATOM     77  C   UNL A   1      45.322  32.417  29.353  1.00  0.00     0.057 A 
ATOM     78  C   UNL A   1      45.267  33.423  28.381  1.00  0.00     0.134 A 
ATOM     79  C   UNL A   1      45.648  32.798  30.662  1.00  0.00     0.134 A 
ATOM     80  F   UNL A   1      44.975  33.122  27.107  1.00  0.00    -0.206 F 
ATOM     81  C   UNL A   1      45.549  34.754  28.692  1.00  0.00     0.040 A 
ATOM     82  C   UNL A   1      45.903  34.130  30.991  1.00  0.00     0.040 A 
ATOM     83  F   UNL A   1      45.708  31.885  31.643  1.00  0.00    -0.206 F 
ATOM     84  C   UNL A   1      45.861  35.110  30.003  1.00  0.00     0.006 A 
ENDBRANCH  60  77
ENDBRANCH  34  35
ENDBRANCH  26  29
ENDBRANCH  24  25
ENDBRANCH  23  24
ENDBRANCH   1  23
TORSDOF 14
ENDMDL
MODEL 3
REMARK VINA RESULT:     -11.5      5.924     10.750
REMARK SMILES Cc1cccc(C[N@@H+](C)C[C@]2(C(=O)NCCCNC(=O)c3ccc(-c4c5nc(c(-c6c(F)cccc6F)c6ccc([nH]6)c(-c6c(F)cccc6F)c6nc(c(-c7c(F)cccc7F)c7ccc4[nH]7)C=C6)C=C5)cc3)CCOC2)n1
REMARK SMILES IDX 15 1 14 2 12 3 13 4 11 6 75 7 78 8 76 9 77 10 10 11 8 12
REMARK SMILES IDX 9 13 7 15 6 16 1 17 2 18 3 19 79 20 4 21 5 22 16 23 17 24
REMARK SMILES IDX 18 25 19 26 20 28 21 29 22 30 74 31 23 32 73 33 24 34 25 35
REMARK SMILES IDX 26 36 67 37 27 38 72 39 66 40 68 41 28 42 71 43 65 44 64 45
REMARK SMILES IDX 29 47 55 48 38 49 54 50 39 51 42 52 53 53 69 54 40 55 41 56
REMARK SMILES IDX 52 58 70 59 43 60 30 61 31 62 36 63 32 64 33 65 35 66 37 67
REMARK SMILES IDX 34 68 56 69 57 70 62 71 58 72 59 73 61 74 63 75 60 76 44 77
REMARK SMILES IDX 45 78 50 79 46 80 47 81 49 82 51 83 48 84
REMARK H PARENT 14 5 8 14 18 27 68 46 42 57
REMARK Flexibility Score: inf
ROOT
ATOM      1  C   UNL A   1      32.031  30.114  25.844  1.00  0.00     0.117 C 
ENDROOT
BRANCH   1   2
ATOM      2  N   UNL A   1      31.655  29.019  26.715  1.00  0.00    -0.355 N 
ATOM      3  C   UNL A   1      31.540  27.684  26.530  1.00  0.00     0.234 C 
ATOM      4  O   UNL A   1      30.782  27.162  27.348  1.00  0.00    -0.274 OA
ATOM      5  H   UNL A   1      31.440  29.305  27.631  1.00  0.00     0.163 HD
BRANCH   3   6
ATOM      6  C   UNL A   1      32.278  26.895  25.443  1.00  0.00     0.123 C 
ATOM      7  C   UNL A   1      33.801  27.041  25.505  1.00  0.00     0.054 C 
ATOM      8  C   UNL A   1      32.067  25.384  25.720  1.00  0.00     0.183 C 
ATOM      9  C   UNL A   1      34.319  25.628  25.342  1.00  0.00     0.161 C 
ATOM     10  O   UNL A   1      33.351  24.797  25.977  1.00  0.00    -0.380 OA
BRANCH   6  11
ATOM     11  C   UNL A   1      31.718  27.171  24.000  1.00  0.00     0.281 C 
BRANCH  11  12
ATOM     12  N   UNL A   1      30.370  27.651  23.665  1.00  0.00    -0.331 N 
ATOM     13  C   UNL A   1      29.287  26.704  23.868  1.00  0.00     0.333 C 
ATOM     14  H   UNL A   1      30.279  28.363  24.389  1.00  0.00     0.348 HD
BRANCH  12  15
ATOM     15  C   UNL A   1      30.204  28.380  22.384  1.00  0.00     0.319 C 
BRANCH  15  16
ATOM     16  C   UNL A   1      29.525  29.742  22.453  1.00  0.00     0.095 A 
ATOM     17  C   UNL A   1      28.028  32.055  20.023  1.00  0.00     0.067 C 
ATOM     18  C   UNL A   1      28.442  31.474  21.338  1.00  0.00     0.038 A 
ATOM     19  C   UNL A   1      28.172  32.135  22.531  1.00  0.00     0.023 A 
ATOM     20  N   UNL A   1      29.095  30.288  21.288  1.00  0.00    -0.252 NA
ATOM     21  C   UNL A   1      28.623  31.576  23.718  1.00  0.00     0.004 A 
ATOM     22  C   UNL A   1      29.323  30.377  23.679  1.00  0.00     0.030 A 
ENDBRANCH  15  16
ENDBRANCH  12  15
ENDBRANCH  11  12
ENDBRANCH   6  11
ENDBRANCH   3   6
ENDBRANCH   1   2
BRANCH   1  23
ATOM     23  C   UNL A   1      31.660  31.452  26.482  1.00  0.00     0.042 C 
BRANCH  23  24
ATOM     24  C   UNL A   1      32.817  32.150  27.196  1.00  0.00     0.118 C 
BRANCH  24  25
ATOM     25  N   UNL A   1      32.527  33.540  27.520  1.00  0.00    -0.352 N 
ATOM     26  C   UNL A   1      33.079  34.353  28.478  1.00  0.00     0.251 C 
ATOM     27  H   UNL A   1      31.829  33.960  26.968  1.00  0.00     0.163 HD
ATOM     28  O   UNL A   1      32.582  35.443  28.723  1.00  0.00    -0.269 OA
BRANCH  26  29
ATOM     29  C   UNL A   1      34.260  33.890  29.233  1.00  0.00     0.039 A 
ATOM     30  C   UNL A   1      34.065  33.115  30.378  1.00  0.00     0.014 A 
ATOM     31  C   UNL A   1      35.551  34.204  28.801  1.00  0.00     0.014 A 
ATOM     32  C   UNL A   1      35.171  32.592  31.048  1.00  0.00     0.010 A 
ATOM     33  C   UNL A   1      36.647  33.616  29.423  1.00  0.00     0.010 A 
ATOM     34  C   UNL A   1      36.467  32.802  30.551  1.00  0.00    -0.014 A 
BRANCH  34  35
ATOM     35  C   UNL A   1      37.646  32.164  31.190  1.00  0.00     0.031 A 
ATOM     36  C   UNL A   1      38.385  31.061  30.484  1.00  0.00     0.074 A 
ATOM     37  C   UNL A   1      38.008  32.533  32.434  1.00  0.00     0.049 A 
ATOM     38  N   UNL A   1      39.392  30.340  30.906  1.00  0.00    -0.248 NA
ATOM     39  C   UNL A   1      37.914  30.704  29.136  1.00  0.00     0.031 C 
ATOM     40  C   UNL A   1      37.338  33.555  33.243  1.00  0.00     0.029 A 
ATOM     41  N   UNL A   1      39.023  32.085  33.241  1.00  0.00    -0.354 N 
ATOM     42  C   UNL A   1      39.663  29.436  29.887  1.00  0.00     0.074 A 
ATOM     43  C   UNL A   1      38.683  29.665  28.847  1.00  0.00     0.031 C 
ATOM     44  C   UNL A   1      37.976  33.673  34.419  1.00  0.00     0.029 A 
ATOM     45  C   UNL A   1      39.071  32.710  34.464  1.00  0.00     0.049 A 
ATOM     46  H   UNL A   1      39.655  31.381  32.971  1.00  0.00     0.167 HD
ATOM     47  C   UNL A   1      40.654  28.517  29.814  1.00  0.00     0.037 A 
ATOM     48  C   UNL A   1      39.902  32.523  35.507  1.00  0.00     0.037 A 
ATOM     49  C   UNL A   1      41.643  28.312  30.838  1.00  0.00     0.049 A 
ATOM     50  C   UNL A   1      40.990  31.490  35.401  1.00  0.00     0.074 A 
ATOM     51  C   UNL A   1      42.727  27.451  30.830  1.00  0.00     0.029 A 
ATOM     52  N   UNL A   1      41.670  28.976  32.055  1.00  0.00    -0.354 N 
ATOM     53  N   UNL A   1      41.280  30.693  34.401  1.00  0.00    -0.248 NA
ATOM     54  C   UNL A   1      41.870  31.333  36.568  1.00  0.00     0.031 C 
ATOM     55  C   UNL A   1      43.381  27.559  32.060  1.00  0.00     0.029 A 
ATOM     56  C   UNL A   1      42.736  28.526  32.815  1.00  0.00     0.049 A 
ATOM     57  H   UNL A   1      41.025  29.665  32.337  1.00  0.00     0.167 HD
ATOM     58  C   UNL A   1      42.391  29.965  34.805  1.00  0.00     0.074 A 
ATOM     59  C   UNL A   1      42.732  30.425  36.134  1.00  0.00     0.031 C 
ATOM     60  C   UNL A   1      43.069  29.001  34.134  1.00  0.00     0.037 A 
BRANCH  47  61
ATOM     61  C   UNL A   1      40.721  27.664  28.580  1.00  0.00     0.057 A 
ATOM     62  C   UNL A   1      40.007  26.464  28.471  1.00  0.00     0.134 A 
ATOM     63  C   UNL A   1      41.474  28.071  27.471  1.00  0.00     0.134 A 
ATOM     64  F   UNL A   1      39.276  26.011  29.501  1.00  0.00    -0.206 F 
ATOM     65  C   UNL A   1      40.055  25.687  27.311  1.00  0.00     0.040 A 
ATOM     66  C   UNL A   1      41.508  27.316  26.296  1.00  0.00     0.040 A 
ATOM     67  F   UNL A   1      42.178  29.212  27.505  1.00  0.00    -0.206 F 
ATOM     68  C   UNL A   1      40.802  26.118  26.217  1.00  0.00     0.006 A 
ENDBRANCH  47  61
BRANCH  48  69
ATOM     69  C   UNL A   1      39.754  33.342  36.738  1.00  0.00     0.057 A 
ATOM     70  C   UNL A   1      38.873  32.959  37.757  1.00  0.00     0.134 A 
ATOM     71  C   UNL A   1      40.470  34.530  36.917  1.00  0.00     0.134 A 
ATOM     72  F   UNL A   1      38.146  31.839  37.634  1.00  0.00    -0.206 F 
ATOM     73  C   UNL A   1      38.691  33.741  38.899  1.00  0.00     0.040 A 
ATOM     74  C   UNL A   1      40.318  35.309  38.066  1.00  0.00     0.040 A 
ATOM     75  F   UNL A   1      41.337  34.948  35.983  1.00  0.00    -0.206 F 
ATOM     76  C   UNL A   1      39.419  34.918  39.057  1.00  0.00     0.006 A 
ENDBRANCH  48  69
BRANCH  60  77
ATOM     77  C   UNL A   1      44.269  28.408  34.811  1.00  0.00     0.057 A 
ATOM     78  C   UNL A   1      45.543  28.976  34.692  1.00  0.00     0.134 A 
ATOM     79  C   UNL A   1      44.138  27.275  35.626  1.00  0.00     0.134 A 
ATOM     80  F   UNL A   1      45.738  30.053  33.916  1.00  0.00    -0.206 F 
ATOM     81  C   UNL A   1      46.650  28.424  35.338  1.00  0.00     0.040 A 
ATOM     82  C   UNL A   1      45.232  26.732  36.300  1.00  0.00     0.040 A 
ATOM     83  F   UNL A   1      42.943  26.688  35.791  1.00  0.00    -0.206 F 
ATOM     84  C   UNL A   1      46.494  27.303  36.151  1.00  0.00     0.006 A 
ENDBRANCH  60  77
ENDBRANCH  34  35
ENDBRANCH  26  29
ENDBRANCH  24  25
ENDBRANCH  23  24
ENDBRANCH   1  23
TORSDOF 14
ENDMDL
