MODEL 1
REMARK VINA RESULT:     -12.1      0.000      0.000
REMARK SMILES O=C(NCCCNC(=O)[C@@H](Cc1ccncc1)c1ccc(Cl)cc1)c1ccc(-c2c3nc(c(-c4c(F)cccc4F)c4ccc([nH]4)c(-c4c(F)cccc4F)c4nc(c(-c5c(F)cccc5F)c5ccc2[nH]5)C=C4)C=C3)cc1
REMARK SMILES IDX 5 1 4 2 3 3 1 4 2 5 25 7 26 8 78 9 27 10 77 11 28 12 29 13
REMARK SMILES IDX 30 14 71 15 31 16 76 17 70 18 72 19 32 20 75 21 69 22 68 23
REMARK SMILES IDX 33 25 59 26 42 27 58 28 43 29 46 30 57 31 73 32 44 33 45 34
REMARK SMILES IDX 56 36 74 37 47 38 34 39 35 40 40 41 36 42 37 43 39 44 41 45
REMARK SMILES IDX 38 46 60 47 61 48 66 49 62 50 63 51 65 52 67 53 64 54 48 55
REMARK SMILES IDX 49 56 54 57 50 58 51 59 53 60 55 61 52 62 6 63 7 64 8 65
REMARK SMILES IDX 9 67 10 68 11 69 12 70 13 71 17 72 14 73 16 74 15 75 18 76
REMARK SMILES IDX 19 77 24 78 20 79 23 80 21 81 22 82
REMARK H PARENT 3 6 72 24 46 35 7 66
REMARK Flexibility Score: inf
ROOT
ATOM      1  C   UNL A   1      37.117  23.136  25.032  1.00  0.00     0.042 C 
ENDROOT
BRANCH   1   2
ATOM      2  C   UNL A   1      37.872  23.868  26.127  1.00  0.00     0.118 C 
BRANCH   2   3
ATOM      3  N   UNL A   1      39.308  23.619  26.062  1.00  0.00    -0.352 N 
ATOM      4  O   UNL A   1      41.512  23.997  26.118  1.00  0.00    -0.269 OA
ATOM      5  C   UNL A   1      40.394  24.322  26.526  1.00  0.00     0.251 C 
ATOM      6  H   UNL A   1      39.546  22.785  25.595  1.00  0.00     0.163 HD
BRANCH   5   7
ATOM      7  C   UNL A   1      40.275  25.457  27.476  1.00  0.00     0.039 A 
ATOM      8  C   UNL A   1      39.497  25.381  28.627  1.00  0.00     0.014 A 
ATOM      9  C   UNL A   1      41.048  26.608  27.266  1.00  0.00     0.014 A 
ATOM     10  C   UNL A   1      39.353  26.484  29.460  1.00  0.00     0.010 A 
ATOM     11  C   UNL A   1      41.017  27.667  28.185  1.00  0.00     0.010 A 
ATOM     12  C   UNL A   1      40.147  27.625  29.283  1.00  0.00    -0.014 A 
BRANCH  12  13
ATOM     13  C   UNL A   1      40.100  28.696  30.315  1.00  0.00     0.031 A 
ATOM     14  C   UNL A   1      39.067  29.785  30.270  1.00  0.00     0.074 A 
ATOM     15  C   UNL A   1      40.983  28.651  31.336  1.00  0.00     0.049 A 
ATOM     16  N   UNL A   1      38.866  30.764  31.117  1.00  0.00    -0.248 NA
ATOM     17  C   UNL A   1      38.145  29.785  29.125  1.00  0.00     0.031 C 
ATOM     18  C   UNL A   1      42.047  27.654  31.487  1.00  0.00     0.029 A 
ATOM     19  N   UNL A   1      41.107  29.431  32.457  1.00  0.00    -0.354 N 
ATOM     20  C   UNL A   1      37.821  31.514  30.592  1.00  0.00     0.074 A 
ATOM     21  C   UNL A   1      37.444  30.889  29.342  1.00  0.00     0.031 C 
ATOM     22  C   UNL A   1      42.656  27.830  32.667  1.00  0.00     0.029 A 
ATOM     23  C   UNL A   1      42.089  29.002  33.319  1.00  0.00     0.049 A 
ATOM     24  H   UNL A   1      40.547  30.222  32.629  1.00  0.00     0.167 HD
ATOM     25  C   UNL A   1      37.228  32.618  31.109  1.00  0.00     0.037 A 
ATOM     26  C   UNL A   1      42.503  29.500  34.498  1.00  0.00     0.037 A 
ATOM     27  C   UNL A   1      37.594  33.225  32.364  1.00  0.00     0.049 A 
ATOM     28  C   UNL A   1      41.841  30.732  35.038  1.00  0.00     0.074 A 
ATOM     29  C   UNL A   1      37.028  34.322  32.990  1.00  0.00     0.029 A 
ATOM     30  N   UNL A   1      38.625  32.787  33.184  1.00  0.00    -0.354 N 
ATOM     31  N   UNL A   1      40.838  31.413  34.542  1.00  0.00    -0.248 NA
ATOM     32  C   UNL A   1      42.376  31.271  36.295  1.00  0.00     0.031 C 
ATOM     33  C   UNL A   1      37.747  34.578  34.164  1.00  0.00     0.029 A 
ATOM     34  C   UNL A   1      38.727  33.608  34.298  1.00  0.00     0.049 A 
ATOM     35  H   UNL A   1      39.200  32.009  33.002  1.00  0.00     0.167 HD
ATOM     36  C   UNL A   1      40.608  32.452  35.432  1.00  0.00     0.074 A 
ATOM     37  C   UNL A   1      41.566  32.299  36.509  1.00  0.00     0.031 C 
ATOM     38  C   UNL A   1      39.685  33.443  35.363  1.00  0.00     0.037 A 
BRANCH  25  39
ATOM     39  C   UNL A   1      36.140  33.262  30.294  1.00  0.00     0.057 A 
ATOM     40  C   UNL A   1      36.417  34.087  29.197  1.00  0.00     0.134 A 
ATOM     41  C   UNL A   1      34.792  33.039  30.608  1.00  0.00     0.134 A 
ATOM     42  F   UNL A   1      37.685  34.350  28.848  1.00  0.00    -0.206 F 
ATOM     43  C   UNL A   1      35.395  34.696  28.464  1.00  0.00     0.040 A 
ATOM     44  C   UNL A   1      33.762  33.619  29.866  1.00  0.00     0.040 A 
ATOM     45  F   UNL A   1      34.453  32.251  31.640  1.00  0.00    -0.206 F 
ATOM     46  C   UNL A   1      34.063  34.458  28.795  1.00  0.00     0.006 A 
ENDBRANCH  25  39
BRANCH  26  47
ATOM     47  C   UNL A   1      43.598  28.827  35.241  1.00  0.00     0.057 A 
ATOM     48  C   UNL A   1      44.939  29.122  34.975  1.00  0.00     0.134 A 
ATOM     49  C   UNL A   1      43.330  27.896  36.253  1.00  0.00     0.134 A 
ATOM     50  F   UNL A   1      45.260  29.992  34.007  1.00  0.00    -0.206 F 
ATOM     51  C   UNL A   1      45.976  28.511  35.683  1.00  0.00     0.040 A 
ATOM     52  C   UNL A   1      44.355  27.299  36.988  1.00  0.00     0.040 A 
ATOM     53  F   UNL A   1      42.065  27.577  36.561  1.00  0.00    -0.206 F 
ATOM     54  C   UNL A   1      45.684  27.604  36.699  1.00  0.00     0.006 A 
ENDBRANCH  26  47
BRANCH  38  55
ATOM     55  C   UNL A   1      39.646  34.414  36.505  1.00  0.00     0.057 A 
ATOM     56  C   UNL A   1      40.326  35.638  36.464  1.00  0.00     0.134 A 
ATOM     57  C   UNL A   1      38.901  34.126  37.656  1.00  0.00     0.134 A 
ATOM     58  F   UNL A   1      41.072  35.966  35.397  1.00  0.00    -0.206 F 
ATOM     59  C   UNL A   1      40.287  36.530  37.536  1.00  0.00     0.040 A 
ATOM     60  C   UNL A   1      38.832  35.022  38.724  1.00  0.00     0.040 A 
ATOM     61  F   UNL A   1      38.222  32.974  37.758  1.00  0.00    -0.206 F 
ATOM     62  C   UNL A   1      39.533  36.225  38.668  1.00  0.00     0.006 A 
ENDBRANCH  38  55
ENDBRANCH  12  13
ENDBRANCH   5   7
ENDBRANCH   2   3
ENDBRANCH   1   2
BRANCH   1  63
ATOM     63  C   UNL A   1      36.814  21.700  25.418  1.00  0.00     0.117 C 
BRANCH  63  64
ATOM     64  N   UNL A   1      35.763  21.602  26.405  1.00  0.00    -0.355 N 
ATOM     65  C   UNL A   1      34.437  21.348  26.277  1.00  0.00     0.227 C 
ATOM     66  H   UNL A   1      36.062  21.743  27.332  1.00  0.00     0.163 HD
ATOM     67  O   UNL A   1      33.811  21.250  27.341  1.00  0.00    -0.274 OA
BRANCH  65  68
ATOM     68  C   UNL A   1      33.693  21.213  24.942  1.00  0.00     0.113 C 
BRANCH  68  69
ATOM     69  C   UNL A   1      32.593  20.120  24.868  1.00  0.00     0.054 C 
BRANCH  69  70
ATOM     70  C   UNL A   1      32.934  18.657  24.732  1.00  0.00    -0.044 A 
ATOM     71  C   UNL A   1      33.484  18.166  23.542  1.00  0.00     0.024 A 
ATOM     72  C   UNL A   1      32.673  17.741  25.754  1.00  0.00     0.024 A 
ATOM     73  C   UNL A   1      33.812  16.820  23.455  1.00  0.00     0.111 A 
ATOM     74  C   UNL A   1      33.058  16.419  25.584  1.00  0.00     0.111 A 
ATOM     75  N   UNL A   1      33.637  15.941  24.463  1.00  0.00    -0.265 NA
ENDBRANCH  69  70
ENDBRANCH  68  69
BRANCH  68  76
ATOM     76  C   UNL A   1      33.509  22.490  24.119  1.00  0.00    -0.035 A 
ATOM     77  C   UNL A   1      33.317  22.521  22.731  1.00  0.00     0.006 A 
ATOM     78  C   UNL A   1      33.553  23.732  24.786  1.00  0.00     0.006 A 
ATOM     79  C   UNL A   1      33.221  23.729  22.028  1.00  0.00     0.021 A 
ATOM     80  C   UNL A   1      33.441  24.942  24.091  1.00  0.00     0.021 A 
ATOM     81  C   UNL A   1      33.289  24.935  22.711  1.00  0.00     0.041 A 
ATOM     82  Cl  UNL A   1      33.192  26.416  21.844  1.00  0.00    -0.084 Cl
ENDBRANCH  68  76
ENDBRANCH  65  68
ENDBRANCH  63  64
ENDBRANCH   1  63
TORSDOF 13
ENDMDL
MODEL 2
REMARK VINA RESULT:     -12.1      4.828      8.685
REMARK SMILES O=C(NCCCNC(=O)[C@@H](Cc1ccncc1)c1ccc(Cl)cc1)c1ccc(-c2c3nc(c(-c4c(F)cccc4F)c4ccc([nH]4)c(-c4c(F)cccc4F)c4nc(c(-c5c(F)cccc5F)c5ccc2[nH]5)C=C4)C=C3)cc1
REMARK SMILES IDX 5 1 4 2 3 3 1 4 2 5 25 7 26 8 78 9 27 10 77 11 28 12 29 13
REMARK SMILES IDX 30 14 71 15 31 16 76 17 70 18 72 19 32 20 75 21 69 22 68 23
REMARK SMILES IDX 33 25 59 26 42 27 58 28 43 29 46 30 57 31 73 32 44 33 45 34
REMARK SMILES IDX 56 36 74 37 47 38 34 39 35 40 40 41 36 42 37 43 39 44 41 45
REMARK SMILES IDX 38 46 60 47 61 48 66 49 62 50 63 51 65 52 67 53 64 54 48 55
REMARK SMILES IDX 49 56 54 57 50 58 51 59 53 60 55 61 52 62 6 63 7 64 8 65
REMARK SMILES IDX 9 67 10 68 11 69 12 70 13 71 17 72 14 73 16 74 15 75 18 76
REMARK SMILES IDX 19 77 24 78 20 79 23 80 21 81 22 82
REMARK H PARENT 3 6 72 24 46 35 7 66
REMARK Flexibility Score: inf
ROOT
ATOM      1  C   UNL A   1      37.623  19.469  25.012  1.00  0.00     0.042 C 
ENDROOT
BRANCH   1   2
ATOM      2  C   UNL A   1      38.795  20.107  25.734  1.00  0.00     0.118 C 
BRANCH   2   3
ATOM      3  N   UNL A   1      39.934  19.201  25.837  1.00  0.00    -0.352 N 
ATOM      4  O   UNL A   1      42.049  18.474  25.831  1.00  0.00    -0.269 OA
ATOM      5  C   UNL A   1      41.278  19.417  26.026  1.00  0.00     0.251 C 
ATOM      6  H   UNL A   1      39.693  18.249  25.754  1.00  0.00     0.163 HD
BRANCH   5   7
ATOM      7  C   UNL A   1      41.835  20.731  26.436  1.00  0.00     0.039 A 
ATOM      8  C   UNL A   1      42.030  21.768  25.530  1.00  0.00     0.014 A 
ATOM      9  C   UNL A   1      42.083  20.974  27.795  1.00  0.00     0.014 A 
ATOM     10  C   UNL A   1      42.617  22.962  25.933  1.00  0.00     0.010 A 
ATOM     11  C   UNL A   1      42.538  22.229  28.224  1.00  0.00     0.010 A 
ATOM     12  C   UNL A   1      42.833  23.232  27.291  1.00  0.00    -0.014 A 
BRANCH  12  13
ATOM     13  C   UNL A   1      43.277  24.596  27.686  1.00  0.00     0.031 A 
ATOM     14  C   UNL A   1      44.712  25.021  27.564  1.00  0.00     0.074 A 
ATOM     15  C   UNL A   1      42.351  25.478  28.119  1.00  0.00     0.049 A 
ATOM     16  N   UNL A   1      45.250  26.187  27.825  1.00  0.00    -0.248 NA
ATOM     17  C   UNL A   1      45.672  24.009  27.100  1.00  0.00     0.031 C 
ATOM     18  C   UNL A   1      40.925  25.184  28.298  1.00  0.00     0.029 A 
ATOM     19  N   UNL A   1      42.453  26.805  28.451  1.00  0.00    -0.354 N 
ATOM     20  C   UNL A   1      46.611  26.040  27.591  1.00  0.00     0.074 A 
ATOM     21  C   UNL A   1      46.821  24.666  27.187  1.00  0.00     0.031 C 
ATOM     22  C   UNL A   1      40.277  26.311  28.622  1.00  0.00     0.029 A 
ATOM     23  C   UNL A   1      41.247  27.388  28.760  1.00  0.00     0.049 A 
ATOM     24  H   UNL A   1      43.308  27.294  28.465  1.00  0.00     0.167 HD
ATOM     25  C   UNL A   1      47.594  26.969  27.697  1.00  0.00     0.037 A 
ATOM     26  C   UNL A   1      40.948  28.647  29.131  1.00  0.00     0.037 A 
ATOM     27  C   UNL A   1      47.377  28.341  28.080  1.00  0.00     0.049 A 
ATOM     28  C   UNL A   1      42.057  29.649  29.257  1.00  0.00     0.074 A 
ATOM     29  C   UNL A   1      48.302  29.366  28.180  1.00  0.00     0.029 A 
ATOM     30  N   UNL A   1      46.147  28.880  28.431  1.00  0.00    -0.354 N 
ATOM     31  N   UNL A   1      43.334  29.500  29.006  1.00  0.00    -0.248 NA
ATOM     32  C   UNL A   1      41.684  30.988  29.728  1.00  0.00     0.031 C 
ATOM     33  C   UNL A   1      47.641  30.512  28.637  1.00  0.00     0.029 A 
ATOM     34  C   UNL A   1      46.294  30.217  28.772  1.00  0.00     0.049 A 
ATOM     35  H   UNL A   1      45.295  28.386  28.438  1.00  0.00     0.167 HD
ATOM     36  C   UNL A   1      43.918  30.730  29.272  1.00  0.00     0.074 A 
ATOM     37  C   UNL A   1      42.850  31.618  29.685  1.00  0.00     0.031 C 
ATOM     38  C   UNL A   1      45.222  31.090  29.180  1.00  0.00     0.037 A 
BRANCH  25  39
ATOM     39  C   UNL A   1      49.002  26.516  27.425  1.00  0.00     0.057 A 
ATOM     40  C   UNL A   1      49.845  26.049  28.442  1.00  0.00     0.134 A 
ATOM     41  C   UNL A   1      49.516  26.537  26.121  1.00  0.00     0.134 A 
ATOM     42  F   UNL A   1      49.421  26.012  29.714  1.00  0.00    -0.206 F 
ATOM     43  C   UNL A   1      51.159  25.653  28.178  1.00  0.00     0.040 A 
ATOM     44  C   UNL A   1      50.817  26.117  25.841  1.00  0.00     0.040 A 
ATOM     45  F   UNL A   1      48.760  26.962  25.097  1.00  0.00    -0.206 F 
ATOM     46  C   UNL A   1      51.646  25.683  26.872  1.00  0.00     0.006 A 
ENDBRANCH  25  39
BRANCH  26  47
ATOM     47  C   UNL A   1      39.538  29.022  29.404  1.00  0.00     0.057 A 
ATOM     48  C   UNL A   1      38.999  28.914  30.690  1.00  0.00     0.134 A 
ATOM     49  C   UNL A   1      38.706  29.523  28.395  1.00  0.00     0.134 A 
ATOM     50  F   UNL A   1      39.740  28.426  31.696  1.00  0.00    -0.206 F 
ATOM     51  C   UNL A   1      37.680  29.285  30.963  1.00  0.00     0.040 A 
ATOM     52  C   UNL A   1      37.396  29.924  28.659  1.00  0.00     0.040 A 
ATOM     53  F   UNL A   1      39.167  29.658  27.143  1.00  0.00    -0.206 F 
ATOM     54  C   UNL A   1      36.878  29.800  29.947  1.00  0.00     0.006 A 
ENDBRANCH  26  47
BRANCH  38  55
ATOM     55  C   UNL A   1      45.555  32.518  29.498  1.00  0.00     0.057 A 
ATOM     56  C   UNL A   1      45.519  33.524  28.525  1.00  0.00     0.134 A 
ATOM     57  C   UNL A   1      45.899  32.892  30.803  1.00  0.00     0.134 A 
ATOM     58  F   UNL A   1      45.213  33.227  27.252  1.00  0.00    -0.206 F 
ATOM     59  C   UNL A   1      45.837  34.847  28.832  1.00  0.00     0.040 A 
ATOM     60  C   UNL A   1      46.193  34.217  31.129  1.00  0.00     0.040 A 
ATOM     61  F   UNL A   1      45.948  31.978  31.785  1.00  0.00    -0.206 F 
ATOM     62  C   UNL A   1      46.169  35.197  30.140  1.00  0.00     0.006 A 
ENDBRANCH  38  55
ENDBRANCH  12  13
ENDBRANCH   5   7
ENDBRANCH   2   3
ENDBRANCH   1   2
BRANCH   1  63
ATOM     63  C   UNL A   1      36.578  20.496  24.615  1.00  0.00     0.117 C 
BRANCH  63  64
ATOM     64  N   UNL A   1      35.584  20.701  25.645  1.00  0.00    -0.355 N 
ATOM     65  C   UNL A   1      34.233  20.786  25.577  1.00  0.00     0.227 C 
ATOM     66  H   UNL A   1      35.954  20.795  26.552  1.00  0.00     0.163 HD
ATOM     67  O   UNL A   1      33.654  20.887  26.668  1.00  0.00    -0.274 OA
BRANCH  65  68
ATOM     68  C   UNL A   1      33.415  20.796  24.280  1.00  0.00     0.113 C 
BRANCH  68  69
ATOM     69  C   UNL A   1      32.512  19.562  24.018  1.00  0.00     0.054 C 
BRANCH  69  70
ATOM     70  C   UNL A   1      32.976  18.159  24.319  1.00  0.00    -0.044 A 
ATOM     71  C   UNL A   1      32.514  17.489  25.459  1.00  0.00     0.024 A 
ATOM     72  C   UNL A   1      33.909  17.502  23.513  1.00  0.00     0.024 A 
ATOM     73  C   UNL A   1      32.939  16.190  25.696  1.00  0.00     0.111 A 
ATOM     74  C   UNL A   1      34.255  16.193  23.817  1.00  0.00     0.111 A 
ATOM     75  N   UNL A   1      33.778  15.517  24.883  1.00  0.00    -0.265 NA
ENDBRANCH  69  70
ENDBRANCH  68  69
BRANCH  68  76
ATOM     76  C   UNL A   1      32.954  22.162  23.762  1.00  0.00    -0.035 A 
ATOM     77  C   UNL A   1      31.651  22.660  23.887  1.00  0.00     0.006 A 
ATOM     78  C   UNL A   1      33.890  22.978  23.093  1.00  0.00     0.006 A 
ATOM     79  C   UNL A   1      31.278  23.892  23.332  1.00  0.00     0.021 A 
ATOM     80  C   UNL A   1      33.527  24.217  22.552  1.00  0.00     0.021 A 
ATOM     81  C   UNL A   1      32.217  24.662  22.663  1.00  0.00     0.041 A 
ATOM     82  Cl  UNL A   1      31.753  26.163  21.966  1.00  0.00    -0.084 Cl
ENDBRANCH  68  76
ENDBRANCH  65  68
ENDBRANCH  63  64
ENDBRANCH   1  63
TORSDOF 13
ENDMDL
MODEL 3
REMARK VINA RESULT:     -12.0      4.189      8.847
REMARK SMILES O=C(NCCCNC(=O)[C@@H](Cc1ccncc1)c1ccc(Cl)cc1)c1ccc(-c2c3nc(c(-c4c(F)cccc4F)c4ccc([nH]4)c(-c4c(F)cccc4F)c4nc(c(-c5c(F)cccc5F)c5ccc2[nH]5)C=C4)C=C3)cc1
REMARK SMILES IDX 5 1 4 2 3 3 1 4 2 5 25 7 26 8 78 9 27 10 77 11 28 12 29 13
REMARK SMILES IDX 30 14 71 15 31 16 76 17 70 18 72 19 32 20 75 21 69 22 68 23
REMARK SMILES IDX 33 25 59 26 42 27 58 28 43 29 46 30 57 31 73 32 44 33 45 34
REMARK SMILES IDX 56 36 74 37 47 38 34 39 35 40 40 41 36 42 37 43 39 44 41 45
REMARK SMILES IDX 38 46 60 47 61 48 66 49 62 50 63 51 65 52 67 53 64 54 48 55
REMARK SMILES IDX 49 56 54 57 50 58 51 59 53 60 55 61 52 62 6 63 7 64 8 65
REMARK SMILES IDX 9 67 10 68 11 69 12 70 13 71 17 72 14 73 16 74 15 75 18 76
REMARK SMILES IDX 19 77 24 78 20 79 23 80 21 81 22 82
REMARK H PARENT 3 6 72 24 46 35 7 66
REMARK Flexibility Score: inf
ROOT
ATOM      1  C   UNL A   1      31.341  31.792  26.390  1.00  0.00     0.042 C 
ENDROOT
BRANCH   1   2
ATOM      2  C   UNL A   1      32.677  32.340  26.858  1.00  0.00     0.118 C 
BRANCH   2   3
ATOM      3  N   UNL A   1      32.545  33.662  27.460  1.00  0.00    -0.352 N 
ATOM      4  O   UNL A   1      32.698  35.313  28.962  1.00  0.00    -0.269 OA
ATOM      5  C   UNL A   1      33.179  34.266  28.519  1.00  0.00     0.251 C 
ATOM      6  H   UNL A   1      31.873  34.232  27.022  1.00  0.00     0.163 HD
BRANCH   5   7
ATOM      7  C   UNL A   1      34.399  33.708  29.157  1.00  0.00     0.039 A 
ATOM      8  C   UNL A   1      34.352  32.610  30.010  1.00  0.00     0.014 A 
ATOM      9  C   UNL A   1      35.652  34.237  28.816  1.00  0.00     0.014 A 
ATOM     10  C   UNL A   1      35.501  32.155  30.645  1.00  0.00     0.010 A 
ATOM     11  C   UNL A   1      36.828  33.683  29.342  1.00  0.00     0.010 A 
ATOM     12  C   UNL A   1      36.763  32.648  30.284  1.00  0.00    -0.014 A 
BRANCH  12  13
ATOM     13  C   UNL A   1      37.974  31.991  30.845  1.00  0.00     0.031 A 
ATOM     14  C   UNL A   1      38.483  32.323  32.219  1.00  0.00     0.074 A 
ATOM     15  C   UNL A   1      38.594  31.042  30.112  1.00  0.00     0.049 A 
ATOM     16  N   UNL A   1      39.498  31.808  32.867  1.00  0.00    -0.248 NA
ATOM     17  C   UNL A   1      37.771  33.375  32.959  1.00  0.00     0.031 C 
ATOM     18  C   UNL A   1      38.209  30.638  28.756  1.00  0.00     0.029 A 
ATOM     19  N   UNL A   1      39.650  30.218  30.408  1.00  0.00    -0.354 N 
ATOM     20  C   UNL A   1      39.567  32.494  34.073  1.00  0.00     0.074 A 
ATOM     21  C   UNL A   1      38.506  33.477  34.058  1.00  0.00     0.031 C 
ATOM     22  C   UNL A   1      38.956  29.594  28.374  1.00  0.00     0.029 A 
ATOM     23  C   UNL A   1      39.932  29.308  29.417  1.00  0.00     0.049 A 
ATOM     24  H   UNL A   1      40.158  30.273  31.250  1.00  0.00     0.167 HD
ATOM     25  C   UNL A   1      40.434  32.314  35.101  1.00  0.00     0.037 A 
ATOM     26  C   UNL A   1      40.879  28.355  29.342  1.00  0.00     0.037 A 
ATOM     27  C   UNL A   1      41.478  31.320  35.119  1.00  0.00     0.049 A 
ATOM     28  C   UNL A   1      41.835  28.190  30.485  1.00  0.00     0.074 A 
ATOM     29  C   UNL A   1      42.382  31.036  36.128  1.00  0.00     0.029 A 
ATOM     30  N   UNL A   1      41.760  30.449  34.076  1.00  0.00    -0.354 N 
ATOM     31  N   UNL A   1      41.870  28.829  31.628  1.00  0.00    -0.248 NA
ATOM     32  C   UNL A   1      42.889  27.181  30.322  1.00  0.00     0.031 C 
ATOM     33  C   UNL A   1      43.240  30.027  35.678  1.00  0.00     0.029 A 
ATOM     34  C   UNL A   1      42.839  29.644  34.408  1.00  0.00     0.049 A 
ATOM     35  H   UNL A   1      41.266  30.408  33.225  1.00  0.00     0.167 HD
ATOM     36  C   UNL A   1      42.938  28.289  32.331  1.00  0.00     0.074 A 
ATOM     37  C   UNL A   1      43.512  27.257  31.490  1.00  0.00     0.031 C 
ATOM     38  C   UNL A   1      43.400  28.619  33.562  1.00  0.00     0.037 A 
BRANCH  25  39
ATOM     39  C   UNL A   1      40.308  33.240  36.278  1.00  0.00     0.057 A 
ATOM     40  C   UNL A   1      41.072  34.409  36.394  1.00  0.00     0.134 A 
ATOM     41  C   UNL A   1      39.397  32.962  37.307  1.00  0.00     0.134 A 
ATOM     42  F   UNL A   1      41.970  34.730  35.450  1.00  0.00    -0.206 F 
ATOM     43  C   UNL A   1      40.960  35.249  37.505  1.00  0.00     0.040 A 
ATOM     44  C   UNL A   1      39.256  33.808  38.408  1.00  0.00     0.040 A 
ATOM     45  F   UNL A   1      38.626  31.865  37.256  1.00  0.00    -0.206 F 
ATOM     46  C   UNL A   1      40.047  34.950  38.514  1.00  0.00     0.006 A 
ENDBRANCH  25  39
BRANCH  26  47
ATOM     47  C   UNL A   1      40.960  27.488  28.140  1.00  0.00     0.057 A 
ATOM     48  C   UNL A   1      40.267  26.275  28.076  1.00  0.00     0.134 A 
ATOM     49  C   UNL A   1      41.707  27.864  27.016  1.00  0.00     0.134 A 
ATOM     50  F   UNL A   1      39.547  25.851  29.125  1.00  0.00    -0.206 F 
ATOM     51  C   UNL A   1      40.318  25.463  26.940  1.00  0.00     0.040 A 
ATOM     52  C   UNL A   1      41.745  27.077  25.865  1.00  0.00     0.040 A 
ATOM     53  F   UNL A   1      42.387  29.020  27.012  1.00  0.00    -0.206 F 
ATOM     54  C   UNL A   1      41.052  25.868  25.828  1.00  0.00     0.006 A 
ENDBRANCH  26  47
BRANCH  38  55
ATOM     55  C   UNL A   1      44.561  27.827  34.085  1.00  0.00     0.057 A 
ATOM     56  C   UNL A   1      45.886  28.240  33.899  1.00  0.00     0.134 A 
ATOM     57  C   UNL A   1      44.346  26.643  34.802  1.00  0.00     0.134 A 
ATOM     58  F   UNL A   1      46.160  29.356  33.207  1.00  0.00    -0.206 F 
ATOM     59  C   UNL A   1      46.958  27.490  34.386  1.00  0.00     0.040 A 
ATOM     60  C   UNL A   1      45.408  25.899  35.317  1.00  0.00     0.040 A 
ATOM     61  F   UNL A   1      43.100  26.194  35.020  1.00  0.00    -0.206 F 
ATOM     62  C   UNL A   1      46.719  26.319  35.103  1.00  0.00     0.006 A 
ENDBRANCH  38  55
ENDBRANCH  12  13
ENDBRANCH   5   7
ENDBRANCH   2   3
ENDBRANCH   1   2
BRANCH   1  63
ATOM     63  C   UNL A   1      31.397  30.295  26.150  1.00  0.00     0.117 C 
BRANCH  63  64
ATOM     64  N   UNL A   1      32.005  29.960  24.882  1.00  0.00    -0.355 N 
ATOM     65  C   UNL A   1      31.588  29.150  23.878  1.00  0.00     0.227 C 
ATOM     66  H   UNL A   1      32.871  30.397  24.719  1.00  0.00     0.163 HD
ATOM     67  O   UNL A   1      32.311  29.137  22.872  1.00  0.00    -0.274 OA
BRANCH  65  68
ATOM     68  C   UNL A   1      30.340  28.258  23.927  1.00  0.00     0.113 C 
BRANCH  68  69
ATOM     69  C   UNL A   1      29.201  28.602  22.931  1.00  0.00     0.054 C 
BRANCH  69  70
ATOM     70  C   UNL A   1      28.812  30.028  22.631  1.00  0.00    -0.044 A 
ATOM     71  C   UNL A   1      28.520  30.422  21.319  1.00  0.00     0.024 A 
ATOM     72  C   UNL A   1      28.777  31.008  23.626  1.00  0.00     0.024 A 
ATOM     73  C   UNL A   1      28.140  31.735  21.077  1.00  0.00     0.111 A 
ATOM     74  C   UNL A   1      28.361  32.289  23.292  1.00  0.00     0.111 A 
ATOM     75  N   UNL A   1      28.026  32.670  22.042  1.00  0.00    -0.265 NA
ENDBRANCH  69  70
ENDBRANCH  68  69
BRANCH  68  76
ATOM     76  C   UNL A   1      30.551  26.792  24.317  1.00  0.00    -0.035 A 
ATOM     77  C   UNL A   1      30.580  25.725  23.410  1.00  0.00     0.006 A 
ATOM     78  C   UNL A   1      30.709  26.476  25.682  1.00  0.00     0.006 A 
ATOM     79  C   UNL A   1      30.711  24.398  23.840  1.00  0.00     0.021 A 
ATOM     80  C   UNL A   1      30.858  25.154  26.116  1.00  0.00     0.021 A 
ATOM     81  C   UNL A   1      30.844  24.118  25.192  1.00  0.00     0.041 A 
ATOM     82  Cl  UNL A   1      30.985  22.488  25.719  1.00  0.00    -0.084 Cl
ENDBRANCH  68  76
ENDBRANCH  65  68
ENDBRANCH  63  64
ENDBRANCH   1  63
TORSDOF 13
ENDMDL
