MODEL 1
REMARK VINA RESULT:     -11.7      0.000      0.000
REMARK SMILES C[C@H]1[C@H](C(=O)NCCCNC(=O)c2ccc(-c3c4nc(c(-c5c(F)cccc5F)c5ccc([nH]5)c(-c5c(F)cccc5F)c5nc(c(-c6c(F)cccc6F)c6ccc3[nH]6)C=C5)C=C4)cc2)CC[N@@H+]1Cc1ccc(C(F)(F)F)cc1
REMARK SMILES IDX 7 1 6 2 4 3 5 4 3 6 1 7 2 8 69 9 67 10 68 11 70 13 71 14
REMARK SMILES IDX 72 15 80 16 73 17 79 18 74 19 75 20 76 21 77 22 78 23 8 24
REMARK SMILES IDX 9 25 10 26 11 27 12 29 13 30 14 31 66 32 15 33 65 34 16 35
REMARK SMILES IDX 17 36 18 37 59 38 19 39 64 40 58 41 60 42 20 43 63 44 57 45
REMARK SMILES IDX 56 46 21 48 47 49 30 50 46 51 31 52 34 53 45 54 61 55 32 56
REMARK SMILES IDX 33 57 44 59 62 60 35 61 22 62 23 63 28 64 24 65 25 66 27 67
REMARK SMILES IDX 29 68 26 69 48 70 49 71 54 72 50 73 51 74 53 75 55 76 52 77
REMARK SMILES IDX 36 78 37 79 42 80 38 81 39 82 41 83 43 84 40 85
REMARK H PARENT 6 5 69 12 10 28 60 47 34 58
REMARK Flexibility Score: inf
ROOT
ATOM      1  C   UNL A   1      33.603  30.092  27.177  1.00  0.00     0.117 C 
ENDROOT
BRANCH   1   2
ATOM      2  N   UNL A   1      33.844  29.889  25.768  1.00  0.00    -0.356 N 
ATOM      3  C   UNL A   1      33.627  28.797  24.993  1.00  0.00     0.229 C 
ATOM      4  O   UNL A   1      33.883  28.922  23.790  1.00  0.00    -0.275 OA
ATOM      5  H   UNL A   1      34.225  30.665  25.296  1.00  0.00     0.163 HD
BRANCH   3   6
ATOM      6  C   UNL A   1      33.047  27.482  25.505  1.00  0.00     0.142 C 
ATOM      7  C   UNL A   1      31.289  27.567  27.293  1.00  0.00     0.076 C 
ATOM      8  C   UNL A   1      31.532  27.396  25.787  1.00  0.00     0.193 C 
ATOM      9  N   UNL A   1      31.122  26.030  25.402  1.00  0.00    -0.328 N 
ATOM     10  C   UNL A   1      33.344  26.267  24.639  1.00  0.00     0.081 C 
ATOM     11  C   UNL A   1      32.333  25.256  25.161  1.00  0.00     0.263 C 
ATOM     12  H   UNL A   1      30.618  25.627  26.192  1.00  0.00     0.348 HD
BRANCH   9  13
ATOM     13  C   UNL A   1      29.992  25.854  24.472  1.00  0.00     0.299 C 
BRANCH  13  14
ATOM     14  C   UNL A   1      29.499  27.034  23.643  1.00  0.00     0.006 A 
ATOM     15  C   UNL A   1      28.142  27.397  23.647  1.00  0.00     0.010 A 
ATOM     16  C   UNL A   1      30.359  27.792  22.837  1.00  0.00     0.010 A 
ATOM     17  C   UNL A   1      27.712  28.590  23.042  1.00  0.00     0.013 A 
ATOM     18  C   UNL A   1      29.946  28.998  22.267  1.00  0.00     0.013 A 
ATOM     19  C   UNL A   1      28.630  29.441  22.412  1.00  0.00     0.056 A 
BRANCH  19  20
ATOM     20  C   UNL A   1      28.246  30.840  21.994  1.00  0.00     0.416 C 
ATOM     21  F   UNL A   1      29.296  31.697  21.924  1.00  0.00    -0.166 F 
ATOM     22  F   UNL A   1      27.637  30.840  20.772  1.00  0.00    -0.166 F 
ATOM     23  F   UNL A   1      27.346  31.421  22.839  1.00  0.00    -0.166 F 
ENDBRANCH  19  20
ENDBRANCH  13  14
ENDBRANCH   9  13
ENDBRANCH   3   6
ENDBRANCH   1   2
BRANCH   1  24
ATOM     24  C   UNL A   1      32.380  30.969  27.433  1.00  0.00     0.042 C 
BRANCH  24  25
ATOM     25  C   UNL A   1      32.324  32.211  26.550  1.00  0.00     0.118 C 
BRANCH  25  26
ATOM     26  N   UNL A   1      32.217  33.449  27.317  1.00  0.00    -0.352 N 
ATOM     27  C   UNL A   1      32.999  34.009  28.292  1.00  0.00     0.251 C 
ATOM     28  H   UNL A   1      31.427  33.989  27.087  1.00  0.00     0.163 HD
ATOM     29  O   UNL A   1      32.561  34.985  28.911  1.00  0.00    -0.269 OA
BRANCH  27  30
ATOM     30  C   UNL A   1      34.328  33.488  28.661  1.00  0.00     0.039 A 
ATOM     31  C   UNL A   1      34.443  32.735  29.840  1.00  0.00     0.014 A 
ATOM     32  C   UNL A   1      35.474  33.805  27.935  1.00  0.00     0.014 A 
ATOM     33  C   UNL A   1      35.692  32.275  30.264  1.00  0.00     0.010 A 
ATOM     34  C   UNL A   1      36.701  33.264  28.301  1.00  0.00     0.010 A 
ATOM     35  C   UNL A   1      36.828  32.517  29.482  1.00  0.00    -0.014 A 
BRANCH  35  36
ATOM     36  C   UNL A   1      38.178  32.068  29.896  1.00  0.00     0.031 A 
ATOM     37  C   UNL A   1      38.712  30.764  29.370  1.00  0.00     0.074 A 
ATOM     38  C   UNL A   1      38.872  32.773  30.809  1.00  0.00     0.049 A 
ATOM     39  N   UNL A   1      39.755  30.075  29.757  1.00  0.00    -0.248 NA
ATOM     40  C   UNL A   1      37.936  30.124  28.295  1.00  0.00     0.031 C 
ATOM     41  C   UNL A   1      38.442  34.037  31.410  1.00  0.00     0.029 A 
ATOM     42  N   UNL A   1      40.076  32.511  31.408  1.00  0.00    -0.354 N 
ATOM     43  C   UNL A   1      39.732  28.905  29.007  1.00  0.00     0.074 A 
ATOM     44  C   UNL A   1      38.549  28.957  28.176  1.00  0.00     0.031 C 
ATOM     45  C   UNL A   1      39.371  34.442  32.290  1.00  0.00     0.029 A 
ATOM     46  C   UNL A   1      40.436  33.447  32.345  1.00  0.00     0.049 A 
ATOM     47  H   UNL A   1      40.630  31.727  31.187  1.00  0.00     0.167 HD
ATOM     48  C   UNL A   1      40.627  27.889  29.001  1.00  0.00     0.037 A 
ATOM     49  C   UNL A   1      41.498  33.485  33.172  1.00  0.00     0.037 A 
ATOM     50  C   UNL A   1      41.827  27.876  29.795  1.00  0.00     0.049 A 
ATOM     51  C   UNL A   1      42.501  32.367  33.116  1.00  0.00     0.074 A 
ATOM     52  C   UNL A   1      42.833  26.928  29.829  1.00  0.00     0.029 A 
ATOM     53  N   UNL A   1      42.188  28.877  30.687  1.00  0.00    -0.354 N 
ATOM     54  N   UNL A   1      42.481  31.274  32.390  1.00  0.00    -0.248 NA
ATOM     55  C   UNL A   1      43.677  32.491  33.988  1.00  0.00     0.031 C 
ATOM     56  C   UNL A   1      43.791  27.342  30.761  1.00  0.00     0.029 A 
ATOM     57  C   UNL A   1      43.401  28.568  31.278  1.00  0.00     0.049 A 
ATOM     58  H   UNL A   1      41.660  29.686  30.871  1.00  0.00     0.167 HD
ATOM     59  C   UNL A   1      43.647  30.589  32.702  1.00  0.00     0.074 A 
ATOM     60  C   UNL A   1      44.360  31.400  33.669  1.00  0.00     0.031 C 
ATOM     61  C   UNL A   1      44.088  29.395  32.236  1.00  0.00     0.037 A 
BRANCH  48  62
ATOM     62  C   UNL A   1      40.336  26.717  28.107  1.00  0.00     0.057 A 
ATOM     63  C   UNL A   1      39.481  25.678  28.501  1.00  0.00     0.134 A 
ATOM     64  C   UNL A   1      40.913  26.627  26.834  1.00  0.00     0.134 A 
ATOM     65  F   UNL A   1      38.907  25.693  29.713  1.00  0.00    -0.206 F 
ATOM     66  C   UNL A   1      39.241  24.576  27.677  1.00  0.00     0.040 A 
ATOM     67  C   UNL A   1      40.657  25.544  25.989  1.00  0.00     0.040 A 
ATOM     68  F   UNL A   1      41.738  27.587  26.390  1.00  0.00    -0.206 F 
ATOM     69  C   UNL A   1      39.826  24.511  26.414  1.00  0.00     0.006 A 
ENDBRANCH  48  62
BRANCH  49  70
ATOM     70  C   UNL A   1      41.672  34.629  34.101  1.00  0.00     0.057 A 
ATOM     71  C   UNL A   1      42.341  35.789  33.694  1.00  0.00     0.134 A 
ATOM     72  C   UNL A   1      41.159  34.601  35.402  1.00  0.00     0.134 A 
ATOM     73  F   UNL A   1      42.866  35.868  32.463  1.00  0.00    -0.206 F 
ATOM     74  C   UNL A   1      42.506  36.876  34.554  1.00  0.00     0.040 A 
ATOM     75  C   UNL A   1      41.297  35.690  36.266  1.00  0.00     0.040 A 
ATOM     76  F   UNL A   1      40.498  33.523  35.848  1.00  0.00    -0.206 F 
ATOM     77  C   UNL A   1      41.978  36.831  35.842  1.00  0.00     0.006 A 
ENDBRANCH  49  70
BRANCH  61  78
ATOM     78  C   UNL A   1      45.413  28.918  32.748  1.00  0.00     0.057 A 
ATOM     79  C   UNL A   1      45.517  28.113  33.889  1.00  0.00     0.134 A 
ATOM     80  C   UNL A   1      46.597  29.248  32.076  1.00  0.00     0.134 A 
ATOM     81  F   UNL A   1      44.419  27.775  34.583  1.00  0.00    -0.206 F 
ATOM     82  C   UNL A   1      46.755  27.674  34.359  1.00  0.00     0.040 A 
ATOM     83  C   UNL A   1      47.838  28.795  32.522  1.00  0.00     0.040 A 
ATOM     84  F   UNL A   1      46.564  30.009  30.972  1.00  0.00    -0.206 F 
ATOM     85  C   UNL A   1      47.919  28.011  33.672  1.00  0.00     0.006 A 
ENDBRANCH  61  78
ENDBRANCH  35  36
ENDBRANCH  27  30
ENDBRANCH  25  26
ENDBRANCH  24  25
ENDBRANCH   1  24
TORSDOF 13
ENDMDL
MODEL 2
REMARK VINA RESULT:     -11.6      4.477      8.746
REMARK SMILES C[C@H]1[C@H](C(=O)NCCCNC(=O)c2ccc(-c3c4nc(c(-c5c(F)cccc5F)c5ccc([nH]5)c(-c5c(F)cccc5F)c5nc(c(-c6c(F)cccc6F)c6ccc3[nH]6)C=C5)C=C4)cc2)CC[N@@H+]1Cc1ccc(C(F)(F)F)cc1
REMARK SMILES IDX 7 1 6 2 4 3 5 4 3 6 1 7 2 8 69 9 67 10 68 11 70 13 71 14
REMARK SMILES IDX 72 15 80 16 73 17 79 18 74 19 75 20 76 21 77 22 78 23 8 24
REMARK SMILES IDX 9 25 10 26 11 27 12 29 13 30 14 31 66 32 15 33 65 34 16 35
REMARK SMILES IDX 17 36 18 37 59 38 19 39 64 40 58 41 60 42 20 43 63 44 57 45
REMARK SMILES IDX 56 46 21 48 47 49 30 50 46 51 31 52 34 53 45 54 61 55 32 56
REMARK SMILES IDX 33 57 44 59 62 60 35 61 22 62 23 63 28 64 24 65 25 66 27 67
REMARK SMILES IDX 29 68 26 69 48 70 49 71 54 72 50 73 51 74 53 75 55 76 52 77
REMARK SMILES IDX 36 78 37 79 42 80 38 81 39 82 41 83 43 84 40 85
REMARK H PARENT 6 5 69 12 10 28 60 47 34 58
REMARK Flexibility Score: inf
ROOT
ATOM      1  C   UNL A   1      38.074  23.354  26.002  1.00  0.00     0.117 C 
ENDROOT
BRANCH   1   2
ATOM      2  N   UNL A   1      37.764  23.070  24.621  1.00  0.00    -0.356 N 
ATOM      3  C   UNL A   1      36.600  23.213  23.939  1.00  0.00     0.229 C 
ATOM      4  O   UNL A   1      36.635  22.936  22.734  1.00  0.00    -0.275 OA
ATOM      5  H   UNL A   1      38.516  22.717  24.091  1.00  0.00     0.163 HD
BRANCH   3   6
ATOM      6  C   UNL A   1      35.305  23.739  24.550  1.00  0.00     0.142 C 
ATOM      7  C   UNL A   1      33.541  24.645  23.014  1.00  0.00     0.076 C 
ATOM      8  C   UNL A   1      33.968  23.428  23.844  1.00  0.00     0.193 C 
ATOM      9  N   UNL A   1      32.976  23.228  24.920  1.00  0.00    -0.328 N 
ATOM     10  C   UNL A   1      35.072  23.347  26.001  1.00  0.00     0.081 C 
ATOM     11  C   UNL A   1      33.591  23.650  26.173  1.00  0.00     0.263 C 
ATOM     12  H   UNL A   1      32.178  23.830  24.719  1.00  0.00     0.348 HD
BRANCH   9  13
ATOM     13  C   UNL A   1      32.162  21.998  24.929  1.00  0.00     0.299 C 
BRANCH  13  14
ATOM     14  C   UNL A   1      32.773  20.681  24.465  1.00  0.00     0.006 A 
ATOM     15  C   UNL A   1      33.976  20.212  25.019  1.00  0.00     0.010 A 
ATOM     16  C   UNL A   1      32.182  19.893  23.468  1.00  0.00     0.010 A 
ATOM     17  C   UNL A   1      34.444  18.918  24.739  1.00  0.00     0.013 A 
ATOM     18  C   UNL A   1      32.620  18.591  23.215  1.00  0.00     0.013 A 
ATOM     19  C   UNL A   1      33.723  18.068  23.891  1.00  0.00     0.056 A 
BRANCH  19  20
ATOM     20  C   UNL A   1      34.055  16.598  23.784  1.00  0.00     0.416 C 
ATOM     21  F   UNL A   1      34.465  16.218  22.548  1.00  0.00    -0.166 F 
ATOM     22  F   UNL A   1      35.039  16.249  24.664  1.00  0.00    -0.166 F 
ATOM     23  F   UNL A   1      33.000  15.789  24.092  1.00  0.00    -0.166 F 
ENDBRANCH  19  20
ENDBRANCH  13  14
ENDBRANCH   9  13
ENDBRANCH   3   6
ENDBRANCH   1   2
BRANCH   1  24
ATOM     24  C   UNL A   1      39.163  22.435  26.550  1.00  0.00     0.042 C 
BRANCH  24  25
ATOM     25  C   UNL A   1      40.378  23.183  27.086  1.00  0.00     0.118 C 
BRANCH  25  26
ATOM     26  N   UNL A   1      40.981  24.072  26.096  1.00  0.00    -0.352 N 
ATOM     27  C   UNL A   1      41.154  25.429  26.050  1.00  0.00     0.251 C 
ATOM     28  H   UNL A   1      41.334  23.602  25.306  1.00  0.00     0.163 HD
ATOM     29  O   UNL A   1      41.529  25.940  24.988  1.00  0.00    -0.269 OA
BRANCH  27  30
ATOM     30  C   UNL A   1      40.888  26.318  27.196  1.00  0.00     0.039 A 
ATOM     31  C   UNL A   1      41.674  27.471  27.339  1.00  0.00     0.014 A 
ATOM     32  C   UNL A   1      39.959  25.994  28.183  1.00  0.00     0.014 A 
ATOM     33  C   UNL A   1      41.502  28.310  28.443  1.00  0.00     0.010 A 
ATOM     34  C   UNL A   1      39.717  26.879  29.227  1.00  0.00     0.010 A 
ATOM     35  C   UNL A   1      40.503  28.030  29.383  1.00  0.00    -0.014 A 
BRANCH  35  36
ATOM     36  C   UNL A   1      40.292  28.876  30.582  1.00  0.00     0.031 A 
ATOM     37  C   UNL A   1      39.217  29.928  30.558  1.00  0.00     0.074 A 
ATOM     38  C   UNL A   1      41.121  28.767  31.637  1.00  0.00     0.049 A 
ATOM     39  N   UNL A   1      38.998  30.912  31.392  1.00  0.00    -0.248 NA
ATOM     40  C   UNL A   1      38.293  29.895  29.412  1.00  0.00     0.031 C 
ATOM     41  C   UNL A   1      42.216  27.805  31.759  1.00  0.00     0.029 A 
ATOM     42  N   UNL A   1      41.183  29.494  32.798  1.00  0.00    -0.354 N 
ATOM     43  C   UNL A   1      37.946  31.639  30.847  1.00  0.00     0.074 A 
ATOM     44  C   UNL A   1      37.600  31.009  29.592  1.00  0.00     0.031 C 
ATOM     45  C   UNL A   1      42.839  27.997  32.933  1.00  0.00     0.029 A 
ATOM     46  C   UNL A   1      42.216  29.122  33.621  1.00  0.00     0.049 A 
ATOM     47  H   UNL A   1      40.548  30.213  33.019  1.00  0.00     0.167 HD
ATOM     48  C   UNL A   1      37.314  32.723  31.358  1.00  0.00     0.037 A 
ATOM     49  C   UNL A   1      42.627  29.646  34.791  1.00  0.00     0.037 A 
ATOM     50  C   UNL A   1      37.635  33.306  32.634  1.00  0.00     0.049 A 
ATOM     51  C   UNL A   1      41.883  30.821  35.360  1.00  0.00     0.074 A 
ATOM     52  C   UNL A   1      37.027  34.369  33.277  1.00  0.00     0.029 A 
ATOM     53  N   UNL A   1      38.649  32.858  33.469  1.00  0.00    -0.354 N 
ATOM     54  N   UNL A   1      40.877  31.489  34.847  1.00  0.00    -0.248 NA
ATOM     55  C   UNL A   1      42.326  31.311  36.672  1.00  0.00     0.031 C 
ATOM     56  C   UNL A   1      37.690  34.581  34.490  1.00  0.00     0.029 A 
ATOM     57  C   UNL A   1      38.686  33.625  34.621  1.00  0.00     0.049 A 
ATOM     58  H   UNL A   1      39.253  32.107  33.271  1.00  0.00     0.167 HD
ATOM     59  C   UNL A   1      40.554  32.465  35.780  1.00  0.00     0.074 A 
ATOM     60  C   UNL A   1      41.459  32.288  36.897  1.00  0.00     0.031 C 
ATOM     61  C   UNL A   1      39.598  33.425  35.718  1.00  0.00     0.037 A 
BRANCH  48  62
ATOM     62  C   UNL A   1      36.218  33.336  30.534  1.00  0.00     0.057 A 
ATOM     63  C   UNL A   1      34.863  33.109  30.816  1.00  0.00     0.134 A 
ATOM     64  C   UNL A   1      36.518  34.167  29.448  1.00  0.00     0.134 A 
ATOM     65  F   UNL A   1      34.505  32.311  31.834  1.00  0.00    -0.206 F 
ATOM     66  C   UNL A   1      33.849  33.656  30.027  1.00  0.00     0.040 A 
ATOM     67  C   UNL A   1      35.513  34.744  28.668  1.00  0.00     0.040 A 
ATOM     68  F   UNL A   1      37.792  34.430  29.122  1.00  0.00    -0.206 F 
ATOM     69  C   UNL A   1      34.174  34.482  28.952  1.00  0.00     0.006 A 
ENDBRANCH  48  62
BRANCH  49  70
ATOM     70  C   UNL A   1      43.781  29.048  35.506  1.00  0.00     0.057 A 
ATOM     71  C   UNL A   1      45.086  29.490  35.261  1.00  0.00     0.134 A 
ATOM     72  C   UNL A   1      43.609  28.040  36.462  1.00  0.00     0.134 A 
ATOM     73  F   UNL A   1      45.314  30.442  34.345  1.00  0.00    -0.206 F 
ATOM     74  C   UNL A   1      46.181  28.942  35.930  1.00  0.00     0.040 A 
ATOM     75  C   UNL A   1      44.693  27.499  37.156  1.00  0.00     0.040 A 
ATOM     76  F   UNL A   1      42.383  27.582  36.752  1.00  0.00    -0.206 F 
ATOM     77  C   UNL A   1      45.986  27.948  36.886  1.00  0.00     0.006 A 
ENDBRANCH  49  70
BRANCH  61  78
ATOM     78  C   UNL A   1      39.472  34.331  36.905  1.00  0.00     0.057 A 
ATOM     79  C   UNL A   1      40.068  35.597  36.932  1.00  0.00     0.134 A 
ATOM     80  C   UNL A   1      38.724  33.940  38.023  1.00  0.00     0.134 A 
ATOM     81  F   UNL A   1      40.809  36.022  35.897  1.00  0.00    -0.206 F 
ATOM     82  C   UNL A   1      39.947  36.434  38.042  1.00  0.00     0.040 A 
ATOM     83  C   UNL A   1      38.575  34.777  39.128  1.00  0.00     0.040 A 
ATOM     84  F   UNL A   1      38.121  32.742  38.054  1.00  0.00    -0.206 F 
ATOM     85  C   UNL A   1      39.194  36.026  39.141  1.00  0.00     0.006 A 
ENDBRANCH  61  78
ENDBRANCH  35  36
ENDBRANCH  27  30
ENDBRANCH  25  26
ENDBRANCH  24  25
ENDBRANCH   1  24
TORSDOF 13
ENDMDL
MODEL 3
REMARK VINA RESULT:     -11.6      3.411      7.523
REMARK SMILES C[C@H]1[C@H](C(=O)NCCCNC(=O)c2ccc(-c3c4nc(c(-c5c(F)cccc5F)c5ccc([nH]5)c(-c5c(F)cccc5F)c5nc(c(-c6c(F)cccc6F)c6ccc3[nH]6)C=C5)C=C4)cc2)CC[N@@H+]1Cc1ccc(C(F)(F)F)cc1
REMARK SMILES IDX 7 1 6 2 4 3 5 4 3 6 1 7 2 8 69 9 67 10 68 11 70 13 71 14
REMARK SMILES IDX 72 15 80 16 73 17 79 18 74 19 75 20 76 21 77 22 78 23 8 24
REMARK SMILES IDX 9 25 10 26 11 27 12 29 13 30 14 31 66 32 15 33 65 34 16 35
REMARK SMILES IDX 17 36 18 37 59 38 19 39 64 40 58 41 60 42 20 43 63 44 57 45
REMARK SMILES IDX 56 46 21 48 47 49 30 50 46 51 31 52 34 53 45 54 61 55 32 56
REMARK SMILES IDX 33 57 44 59 62 60 35 61 22 62 23 63 28 64 24 65 25 66 27 67
REMARK SMILES IDX 29 68 26 69 48 70 49 71 54 72 50 73 51 74 53 75 55 76 52 77
REMARK SMILES IDX 36 78 37 79 42 80 38 81 39 82 41 83 43 84 40 85
REMARK H PARENT 6 5 69 12 10 28 60 47 34 58
REMARK Flexibility Score: inf
ROOT
ATOM      1  C   UNL A   1      37.294  22.584  25.082  1.00  0.00     0.117 C 
ENDROOT
BRANCH   1   2
ATOM      2  N   UNL A   1      36.423  23.037  24.024  1.00  0.00    -0.356 N 
ATOM      3  C   UNL A   1      35.122  22.744  23.777  1.00  0.00     0.229 C 
ATOM      4  O   UNL A   1      34.604  23.323  22.814  1.00  0.00    -0.275 OA
ATOM      5  H   UNL A   1      36.839  23.656  23.380  1.00  0.00     0.163 HD
BRANCH   3   6
ATOM      6  C   UNL A   1      34.273  21.811  24.636  1.00  0.00     0.142 C 
ATOM      7  C   UNL A   1      34.329  22.100  27.128  1.00  0.00     0.076 C 
ATOM      8  C   UNL A   1      33.526  22.394  25.854  1.00  0.00     0.193 C 
ATOM      9  N   UNL A   1      32.245  21.663  25.934  1.00  0.00    -0.328 N 
ATOM     10  C   UNL A   1      33.216  21.023  23.879  1.00  0.00     0.081 C 
ATOM     11  C   UNL A   1      32.318  20.539  25.008  1.00  0.00     0.263 C 
ATOM     12  H   UNL A   1      32.152  21.308  26.885  1.00  0.00     0.348 HD
BRANCH   9  13
ATOM     13  C   UNL A   1      30.984  22.425  25.998  1.00  0.00     0.299 C 
BRANCH  13  14
ATOM     14  C   UNL A   1      30.881  23.781  25.309  1.00  0.00     0.006 A 
ATOM     15  C   UNL A   1      30.851  23.875  23.908  1.00  0.00     0.010 A 
ATOM     16  C   UNL A   1      30.830  24.983  26.029  1.00  0.00     0.010 A 
ATOM     17  C   UNL A   1      30.566  25.094  23.272  1.00  0.00     0.013 A 
ATOM     18  C   UNL A   1      30.508  26.191  25.405  1.00  0.00     0.013 A 
ATOM     19  C   UNL A   1      30.315  26.249  24.024  1.00  0.00     0.056 A 
BRANCH  19  20
ATOM     20  C   UNL A   1      29.751  27.496  23.386  1.00  0.00     0.416 C 
ATOM     21  F   UNL A   1      30.184  27.705  22.117  1.00  0.00    -0.166 F 
ATOM     22  F   UNL A   1      28.387  27.457  23.349  1.00  0.00    -0.166 F 
ATOM     23  F   UNL A   1      30.055  28.633  24.076  1.00  0.00    -0.166 F 
ENDBRANCH  19  20
ENDBRANCH  13  14
ENDBRANCH   9  13
ENDBRANCH   3   6
ENDBRANCH   1   2
BRANCH   1  24
ATOM     24  C   UNL A   1      37.723  23.723  26.004  1.00  0.00     0.042 C 
BRANCH  24  25
ATOM     25  C   UNL A   1      39.057  23.477  26.698  1.00  0.00     0.118 C 
BRANCH  25  26
ATOM     26  N   UNL A   1      40.184  24.089  25.998  1.00  0.00    -0.352 N 
ATOM     27  C   UNL A   1      40.832  25.285  26.149  1.00  0.00     0.251 C 
ATOM     28  H   UNL A   1      40.550  23.530  25.274  1.00  0.00     0.163 HD
ATOM     29  O   UNL A   1      41.641  25.632  25.280  1.00  0.00    -0.269 OA
BRANCH  27  30
ATOM     30  C   UNL A   1      40.594  26.197  27.283  1.00  0.00     0.039 A 
ATOM     31  C   UNL A   1      41.285  27.418  27.311  1.00  0.00     0.014 A 
ATOM     32  C   UNL A   1      39.792  25.838  28.364  1.00  0.00     0.014 A 
ATOM     33  C   UNL A   1      41.141  28.285  28.396  1.00  0.00     0.010 A 
ATOM     34  C   UNL A   1      39.569  26.743  29.396  1.00  0.00     0.010 A 
ATOM     35  C   UNL A   1      40.261  27.962  29.436  1.00  0.00    -0.014 A 
BRANCH  35  36
ATOM     36  C   UNL A   1      40.086  28.838  30.619  1.00  0.00     0.031 A 
ATOM     37  C   UNL A   1      39.037  29.915  30.588  1.00  0.00     0.074 A 
ATOM     38  C   UNL A   1      40.925  28.731  31.666  1.00  0.00     0.049 A 
ATOM     39  N   UNL A   1      38.852  30.922  31.403  1.00  0.00    -0.248 NA
ATOM     40  C   UNL A   1      38.097  29.882  29.454  1.00  0.00     0.031 C 
ATOM     41  C   UNL A   1      41.998  27.744  31.795  1.00  0.00     0.029 A 
ATOM     42  N   UNL A   1      41.020  29.479  32.811  1.00  0.00    -0.354 N 
ATOM     43  C   UNL A   1      37.811  31.662  30.856  1.00  0.00     0.074 A 
ATOM     44  C   UNL A   1      37.434  31.015  29.619  1.00  0.00     0.031 C 
ATOM     45  C   UNL A   1      42.641  27.945  32.956  1.00  0.00     0.029 A 
ATOM     46  C   UNL A   1      42.055  29.099  33.629  1.00  0.00     0.049 A 
ATOM     47  H   UNL A   1      40.406  30.218  33.025  1.00  0.00     0.167 HD
ATOM     48  C   UNL A   1      37.213  32.772  31.352  1.00  0.00     0.037 A 
ATOM     49  C   UNL A   1      42.493  29.637  34.783  1.00  0.00     0.037 A 
ATOM     50  C   UNL A   1      37.565  33.374  32.611  1.00  0.00     0.049 A 
ATOM     51  C   UNL A   1      41.786  30.842  35.335  1.00  0.00     0.074 A 
ATOM     52  C   UNL A   1      36.991  34.464  33.239  1.00  0.00     0.029 A 
ATOM     53  N   UNL A   1      38.578  32.918  33.443  1.00  0.00    -0.354 N 
ATOM     54  N   UNL A   1      40.789  31.524  34.822  1.00  0.00    -0.248 NA
ATOM     55  C   UNL A   1      42.257  31.347  36.632  1.00  0.00     0.031 C 
ATOM     56  C   UNL A   1      37.675  34.684  34.440  1.00  0.00     0.029 A 
ATOM     57  C   UNL A   1      38.649  33.707  34.578  1.00  0.00     0.049 A 
ATOM     58  H   UNL A   1      39.161  32.148  33.253  1.00  0.00     0.167 HD
ATOM     59  C   UNL A   1      40.502  32.526  35.738  1.00  0.00     0.074 A 
ATOM     60  C   UNL A   1      41.417  32.350  36.847  1.00  0.00     0.031 C 
ATOM     61  C   UNL A   1      39.569  33.507  35.667  1.00  0.00     0.037 A 
BRANCH  48  62
ATOM     62  C   UNL A   1      36.121  33.395  30.529  1.00  0.00     0.057 A 
ATOM     63  C   UNL A   1      34.765  33.220  30.842  1.00  0.00     0.134 A 
ATOM     64  C   UNL A   1      36.427  34.182  29.413  1.00  0.00     0.134 A 
ATOM     65  F   UNL A   1      34.402  32.465  31.889  1.00  0.00    -0.206 F 
ATOM     66  C   UNL A   1      33.755  33.775  30.054  1.00  0.00     0.040 A 
ATOM     67  C   UNL A   1      35.426  34.767  28.633  1.00  0.00     0.040 A 
ATOM     68  F   UNL A   1      37.702  34.395  29.057  1.00  0.00    -0.206 F 
ATOM     69  C   UNL A   1      34.085  34.557  28.948  1.00  0.00     0.006 A 
ENDBRANCH  48  62
BRANCH  49  70
ATOM     70  C   UNL A   1      43.641  29.025  35.495  1.00  0.00     0.057 A 
ATOM     71  C   UNL A   1      44.949  29.464  35.261  1.00  0.00     0.134 A 
ATOM     72  C   UNL A   1      43.461  28.008  36.439  1.00  0.00     0.134 A 
ATOM     73  F   UNL A   1      45.185  30.426  34.357  1.00  0.00    -0.206 F 
ATOM     74  C   UNL A   1      46.039  28.904  35.928  1.00  0.00     0.040 A 
ATOM     75  C   UNL A   1      44.540  27.454  37.132  1.00  0.00     0.040 A 
ATOM     76  F   UNL A   1      42.231  27.552  36.718  1.00  0.00    -0.206 F 
ATOM     77  C   UNL A   1      45.835  27.900  36.872  1.00  0.00     0.006 A 
ENDBRANCH  49  70
BRANCH  61  78
ATOM     78  C   UNL A   1      39.481  34.441  36.837  1.00  0.00     0.057 A 
ATOM     79  C   UNL A   1      38.784  34.100  38.001  1.00  0.00     0.134 A 
ATOM     80  C   UNL A   1      40.125  35.685  36.804  1.00  0.00     0.134 A 
ATOM     81  F   UNL A   1      38.135  32.928  38.087  1.00  0.00    -0.206 F 
ATOM     82  C   UNL A   1      38.706  34.975  39.084  1.00  0.00     0.040 A 
ATOM     83  C   UNL A   1      40.075  36.558  37.891  1.00  0.00     0.040 A 
ATOM     84  F   UNL A   1      40.816  36.066  35.720  1.00  0.00    -0.206 F 
ATOM     85  C   UNL A   1      39.358  36.206  39.033  1.00  0.00     0.006 A 
ENDBRANCH  61  78
ENDBRANCH  35  36
ENDBRANCH  27  30
ENDBRANCH  25  26
ENDBRANCH  24  25
ENDBRANCH   1  24
TORSDOF 13
ENDMDL
