MODEL 1
REMARK VINA RESULT:     -12.4      0.000      0.000
REMARK SMILES Cc1ccnc(C(=O)c2[nH]c3ccc(C(C)(C)C)cc3c2CC(=O)NCCCNC(=O)c2ccc(-c3c4nc(c(-c5c(F)cccc5F)c5ccc([nH]5)c(-c5c(F)cccc5F)c5nc(c(-c6c(F)cccc6F)c6ccc3[nH]6)C=C5)C=C4)cc2)c1
REMARK SMILES IDX 26 1 25 2 23 3 24 4 22 6 21 7 9 8 10 9 11 10 20 12 12 13
REMARK SMILES IDX 19 14 13 15 14 16 7 17 8 18 6 19 1 20 2 21 3 22 86 23 4 24
REMARK SMILES IDX 5 25 15 26 16 27 17 28 18 29 27 30 28 31 29 32 30 33 31 35
REMARK SMILES IDX 32 36 33 37 85 38 34 39 84 40 35 41 36 42 37 43 78 44 38 45
REMARK SMILES IDX 83 46 77 47 79 48 39 49 82 50 76 51 75 52 40 54 66 55 49 56
REMARK SMILES IDX 65 57 50 58 53 59 64 60 80 61 51 62 52 63 63 65 81 66 54 67
REMARK SMILES IDX 41 68 42 69 47 70 43 71 44 72 46 73 48 74 45 75 67 76 68 77
REMARK SMILES IDX 73 78 69 79 70 80 72 81 74 82 71 83 55 84 56 85 61 86 57 87
REMARK SMILES IDX 58 88 60 89 62 90 59 91
REMARK H PARENT 25 5 10 11 29 34 79 53 53 64
REMARK Flexibility Score: inf
ROOT
ATOM      1  C   UNL A   1      37.414  21.234  24.227  1.00  0.00     0.117 C 
ENDROOT
BRANCH   1   2
ATOM      2  N   UNL A   1      37.685  22.314  25.156  1.00  0.00    -0.356 N 
ATOM      3  C   UNL A   1      37.022  23.492  25.340  1.00  0.00     0.224 C 
ATOM      4  O   UNL A   1      37.351  24.192  26.302  1.00  0.00    -0.275 OA
ATOM      5  H   UNL A   1      38.464  22.175  25.741  1.00  0.00     0.163 HD
BRANCH   3   6
ATOM      6  C   UNL A   1      35.841  23.876  24.464  1.00  0.00     0.138 C 
BRANCH   6   7
ATOM      7  C   UNL A   1      34.504  23.844  25.149  1.00  0.00    -0.002 A 
ATOM      8  C   UNL A   1      33.847  22.737  25.678  1.00  0.00     0.093 A 
ATOM      9  N   UNL A   1      32.688  23.189  26.265  1.00  0.00    -0.352 N 
ATOM     10  C   UNL A   1      32.516  24.529  26.034  1.00  0.00     0.046 A 
ATOM     11  H   UNL A   1      32.067  22.626  26.782  1.00  0.00     0.167 HD
ATOM     12  C   UNL A   1      33.629  24.969  25.330  1.00  0.00     0.004 A 
ATOM     13  C   UNL A   1      31.475  25.381  26.407  1.00  0.00     0.027 A 
ATOM     14  C   UNL A   1      33.699  26.336  24.981  1.00  0.00     0.015 A 
ATOM     15  C   UNL A   1      31.579  26.734  26.052  1.00  0.00     0.006 A 
ATOM     16  C   UNL A   1      32.678  27.242  25.343  1.00  0.00    -0.042 A 
BRANCH   8  17
ATOM     17  C   UNL A   1      34.271  21.348  25.735  1.00  0.00     0.227 C 
ATOM     18  O   UNL A   1      35.070  20.973  26.585  1.00  0.00    -0.285 OA
BRANCH  17  19
ATOM     19  C   UNL A   1      33.659  20.368  24.758  1.00  0.00     0.113 A 
ATOM     20  C   UNL A   1      33.970  16.788  23.528  1.00  0.00     0.044 C 
ATOM     21  C   UNL A   1      33.514  18.206  23.700  1.00  0.00    -0.047 A 
ATOM     22  C   UNL A   1      32.505  18.720  22.885  1.00  0.00     0.023 A 
ATOM     23  C   UNL A   1      34.085  19.040  24.666  1.00  0.00     0.036 A 
ATOM     24  C   UNL A   1      32.126  20.040  23.054  1.00  0.00     0.112 A 
ATOM     25  N   UNL A   1      32.688  20.873  23.954  1.00  0.00    -0.253 NA
ENDBRANCH  17  19
ENDBRANCH   8  17
BRANCH  16  26
ATOM     26  C   UNL A   1      32.817  28.731  24.978  1.00  0.00    -0.013 C 
ATOM     27  C   UNL A   1      31.411  29.341  24.796  1.00  0.00     0.016 C 
ATOM     28  C   UNL A   1      33.556  29.488  26.104  1.00  0.00     0.016 C 
ATOM     29  C   UNL A   1      33.602  28.984  23.672  1.00  0.00     0.016 C 
ENDBRANCH  16  26
ENDBRANCH   6   7
ENDBRANCH   3   6
ENDBRANCH   1   2
BRANCH   1  30
ATOM     30  C   UNL A   1      37.979  19.890  24.680  1.00  0.00     0.042 C 
BRANCH  30  31
ATOM     31  C   UNL A   1      38.836  19.949  25.943  1.00  0.00     0.118 C 
BRANCH  31  32
ATOM     32  N   UNL A   1      40.081  19.205  25.816  1.00  0.00    -0.352 N 
ATOM     33  C   UNL A   1      41.382  19.604  25.992  1.00  0.00     0.251 C 
ATOM     34  H   UNL A   1      39.972  18.260  25.561  1.00  0.00     0.163 HD
ATOM     35  O   UNL A   1      42.292  18.838  25.676  1.00  0.00    -0.269 OA
BRANCH  33  36
ATOM     36  C   UNL A   1      41.719  20.940  26.536  1.00  0.00     0.039 A 
ATOM     37  C   UNL A   1      41.681  21.121  27.925  1.00  0.00     0.014 A 
ATOM     38  C   UNL A   1      42.006  22.028  25.706  1.00  0.00     0.014 A 
ATOM     39  C   UNL A   1      41.986  22.367  28.481  1.00  0.00     0.010 A 
ATOM     40  C   UNL A   1      42.353  23.260  26.263  1.00  0.00     0.010 A 
ATOM     41  C   UNL A   1      42.349  23.440  27.655  1.00  0.00    -0.014 A 
BRANCH  41  42
ATOM     42  C   UNL A   1      42.738  24.753  28.227  1.00  0.00     0.031 A 
ATOM     43  C   UNL A   1      41.704  25.815  28.467  1.00  0.00     0.074 A 
ATOM     44  C   UNL A   1      44.035  25.014  28.474  1.00  0.00     0.049 A 
ATOM     45  N   UNL A   1      41.868  27.055  28.851  1.00  0.00    -0.248 NA
ATOM     46  C   UNL A   1      40.302  25.437  28.230  1.00  0.00     0.031 C 
ATOM     47  C   UNL A   1      45.142  24.080  28.266  1.00  0.00     0.029 A 
ATOM     48  N   UNL A   1      44.642  26.154  28.939  1.00  0.00    -0.354 N 
ATOM     49  C   UNL A   1      40.599  27.616  28.872  1.00  0.00     0.074 A 
ATOM     50  C   UNL A   1      39.673  26.582  28.456  1.00  0.00     0.031 C 
ATOM     51  C   UNL A   1      46.293  24.683  28.608  1.00  0.00     0.029 A 
ATOM     52  C   UNL A   1      46.008  26.051  29.028  1.00  0.00     0.049 A 
ATOM     53  H   UNL A   1      44.146  26.968  29.185  1.00  0.00     0.167 HD
ATOM     54  C   UNL A   1      40.235  28.875  29.213  1.00  0.00     0.037 A 
ATOM     55  C   UNL A   1      46.930  26.961  29.394  1.00  0.00     0.037 A 
ATOM     56  C   UNL A   1      41.141  29.897  29.666  1.00  0.00     0.049 A 
ATOM     57  C   UNL A   1      46.500  28.345  29.782  1.00  0.00     0.074 A 
ATOM     58  C   UNL A   1      40.850  31.183  30.089  1.00  0.00     0.029 A 
ATOM     59  N   UNL A   1      42.514  29.745  29.760  1.00  0.00    -0.354 N 
ATOM     60  N   UNL A   1      45.293  28.854  29.817  1.00  0.00    -0.248 NA
ATOM     61  C   UNL A   1      47.562  29.284  30.174  1.00  0.00     0.031 C 
ATOM     62  C   UNL A   1      42.052  31.817  30.424  1.00  0.00     0.029 A 
ATOM     63  C   UNL A   1      43.088  30.918  30.225  1.00  0.00     0.049 A 
ATOM     64  H   UNL A   1      43.009  28.926  29.532  1.00  0.00     0.167 HD
ATOM     65  C   UNL A   1      45.447  30.165  30.244  1.00  0.00     0.074 A 
ATOM     66  C   UNL A   1      46.863  30.374  30.463  1.00  0.00     0.031 C 
ATOM     67  C   UNL A   1      44.496  31.111  30.437  1.00  0.00     0.037 A 
BRANCH  54  68
ATOM     68  C   UNL A   1      38.784  29.221  29.101  1.00  0.00     0.057 A 
ATOM     69  C   UNL A   1      38.213  29.608  27.884  1.00  0.00     0.134 A 
ATOM     70  C   UNL A   1      37.942  29.135  30.216  1.00  0.00     0.134 A 
ATOM     71  F   UNL A   1      38.973  29.721  26.784  1.00  0.00    -0.206 F 
ATOM     72  C   UNL A   1      36.855  29.913  27.781  1.00  0.00     0.040 A 
ATOM     73  C   UNL A   1      36.580  29.424  30.123  1.00  0.00     0.040 A 
ATOM     74  F   UNL A   1      38.430  28.767  31.410  1.00  0.00    -0.206 F 
ATOM     75  C   UNL A   1      36.034  29.817  28.903  1.00  0.00     0.006 A 
ENDBRANCH  54  68
BRANCH  55  76
ATOM     76  C   UNL A   1      48.361  26.587  29.411  1.00  0.00     0.057 A 
ATOM     77  C   UNL A   1      49.185  26.857  28.313  1.00  0.00     0.134 A 
ATOM     78  C   UNL A   1      48.938  25.962  30.521  1.00  0.00     0.134 A 
ATOM     79  F   UNL A   1      48.678  27.438  27.217  1.00  0.00    -0.206 F 
ATOM     80  C   UNL A   1      50.536  26.511  28.316  1.00  0.00     0.040 A 
ATOM     81  C   UNL A   1      50.290  25.621  30.541  1.00  0.00     0.040 A 
ATOM     82  F   UNL A   1      48.195  25.681  31.601  1.00  0.00    -0.206 F 
ATOM     83  C   UNL A   1      51.093  25.894  29.435  1.00  0.00     0.006 A 
ENDBRANCH  55  76
BRANCH  67  84
ATOM     84  C   UNL A   1      44.958  32.448  30.921  1.00  0.00     0.057 A 
ATOM     85  C   UNL A   1      45.087  32.725  32.286  1.00  0.00     0.134 A 
ATOM     86  C   UNL A   1      45.304  33.457  30.015  1.00  0.00     0.134 A 
ATOM     87  F   UNL A   1      44.755  31.800  33.201  1.00  0.00    -0.206 F 
ATOM     88  C   UNL A   1      45.537  33.966  32.736  1.00  0.00     0.040 A 
ATOM     89  C   UNL A   1      45.767  34.698  30.452  1.00  0.00     0.040 A 
ATOM     90  F   UNL A   1      45.200  33.251  28.694  1.00  0.00    -0.206 F 
ATOM     91  C   UNL A   1      45.883  34.956  31.817  1.00  0.00     0.006 A 
ENDBRANCH  67  84
ENDBRANCH  41  42
ENDBRANCH  33  36
ENDBRANCH  31  32
ENDBRANCH  30  31
ENDBRANCH   1  30
TORSDOF 14
ENDMDL
MODEL 2
REMARK VINA RESULT:     -12.2      0.607      1.745
REMARK SMILES Cc1ccnc(C(=O)c2[nH]c3ccc(C(C)(C)C)cc3c2CC(=O)NCCCNC(=O)c2ccc(-c3c4nc(c(-c5c(F)cccc5F)c5ccc([nH]5)c(-c5c(F)cccc5F)c5nc(c(-c6c(F)cccc6F)c6ccc3[nH]6)C=C5)C=C4)cc2)c1
REMARK SMILES IDX 26 1 25 2 23 3 24 4 22 6 21 7 9 8 10 9 11 10 20 12 12 13
REMARK SMILES IDX 19 14 13 15 14 16 7 17 8 18 6 19 1 20 2 21 3 22 86 23 4 24
REMARK SMILES IDX 5 25 15 26 16 27 17 28 18 29 27 30 28 31 29 32 30 33 31 35
REMARK SMILES IDX 32 36 33 37 85 38 34 39 84 40 35 41 36 42 37 43 78 44 38 45
REMARK SMILES IDX 83 46 77 47 79 48 39 49 82 50 76 51 75 52 40 54 66 55 49 56
REMARK SMILES IDX 65 57 50 58 53 59 64 60 80 61 51 62 52 63 63 65 81 66 54 67
REMARK SMILES IDX 41 68 42 69 47 70 43 71 44 72 46 73 48 74 45 75 67 76 68 77
REMARK SMILES IDX 73 78 69 79 70 80 72 81 74 82 71 83 55 84 56 85 61 86 57 87
REMARK SMILES IDX 58 88 60 89 62 90 59 91
REMARK H PARENT 25 5 10 11 29 34 79 53 53 64
REMARK Flexibility Score: inf
ROOT
ATOM      1  C   UNL A   1      37.382  21.100  24.227  1.00  0.00     0.117 C 
ENDROOT
BRANCH   1   2
ATOM      2  N   UNL A   1      37.514  22.257  25.091  1.00  0.00    -0.356 N 
ATOM      3  C   UNL A   1      36.798  23.419  25.109  1.00  0.00     0.224 C 
ATOM      4  O   UNL A   1      36.995  24.201  26.043  1.00  0.00    -0.275 OA
ATOM      5  H   UNL A   1      38.227  22.194  25.767  1.00  0.00     0.163 HD
BRANCH   3   6
ATOM      6  C   UNL A   1      35.711  23.688  24.082  1.00  0.00     0.138 C 
BRANCH   6   7
ATOM      7  C   UNL A   1      34.312  23.720  24.630  1.00  0.00    -0.002 A 
ATOM      8  C   UNL A   1      33.605  22.674  25.216  1.00  0.00     0.093 A 
ATOM      9  N   UNL A   1      32.394  23.178  25.629  1.00  0.00    -0.352 N 
ATOM     10  C   UNL A   1      32.246  24.480  25.227  1.00  0.00     0.046 A 
ATOM     11  H   UNL A   1      31.724  22.671  26.144  1.00  0.00     0.167 HD
ATOM     12  C   UNL A   1      33.424  24.849  24.592  1.00  0.00     0.004 A 
ATOM     13  C   UNL A   1      31.173  25.358  25.395  1.00  0.00     0.027 A 
ATOM     14  C   UNL A   1      33.529  26.166  24.095  1.00  0.00     0.015 A 
ATOM     15  C   UNL A   1      31.312  26.662  24.897  1.00  0.00     0.006 A 
ATOM     16  C   UNL A   1      32.476  27.097  24.247  1.00  0.00    -0.042 A 
BRANCH   8  17
ATOM     17  C   UNL A   1      34.021  21.306  25.475  1.00  0.00     0.227 C 
ATOM     18  O   UNL A   1      34.728  21.039  26.440  1.00  0.00    -0.285 OA
BRANCH  17  19
ATOM     19  C   UNL A   1      33.514  20.213  24.559  1.00  0.00     0.113 A 
ATOM     20  C   UNL A   1      34.106  16.578  23.631  1.00  0.00     0.044 C 
ATOM     21  C   UNL A   1      33.552  17.971  23.673  1.00  0.00    -0.047 A 
ATOM     22  C   UNL A   1      32.544  18.351  22.786  1.00  0.00     0.023 A 
ATOM     23  C   UNL A   1      34.028  18.915  24.589  1.00  0.00     0.036 A 
ATOM     24  C   UNL A   1      32.074  19.651  22.836  1.00  0.00     0.112 A 
ATOM     25  N   UNL A   1      32.544  20.587  23.685  1.00  0.00    -0.253 NA
ENDBRANCH  17  19
ENDBRANCH   8  17
BRANCH  16  26
ATOM     26  C   UNL A   1      32.652  28.535  23.728  1.00  0.00    -0.013 C 
ATOM     27  C   UNL A   1      31.424  28.918  22.874  1.00  0.00     0.016 C 
ATOM     28  C   UNL A   1      32.772  29.518  24.914  1.00  0.00     0.016 C 
ATOM     29  C   UNL A   1      33.906  28.734  22.847  1.00  0.00     0.016 C 
ENDBRANCH  16  26
ENDBRANCH   6   7
ENDBRANCH   3   6
ENDBRANCH   1   2
BRANCH   1  30
ATOM     30  C   UNL A   1      37.982  19.829  24.822  1.00  0.00     0.042 C 
BRANCH  30  31
ATOM     31  C   UNL A   1      38.974  20.060  25.960  1.00  0.00     0.118 C 
BRANCH  31  32
ATOM     32  N   UNL A   1      40.158  19.220  25.858  1.00  0.00    -0.352 N 
ATOM     33  C   UNL A   1      41.483  19.515  26.053  1.00  0.00     0.251 C 
ATOM     34  H   UNL A   1      39.978  18.285  25.607  1.00  0.00     0.163 HD
ATOM     35  O   UNL A   1      42.335  18.678  25.757  1.00  0.00    -0.269 OA
BRANCH  33  36
ATOM     36  C   UNL A   1      41.917  20.824  26.596  1.00  0.00     0.039 A 
ATOM     37  C   UNL A   1      42.301  21.823  25.692  1.00  0.00     0.014 A 
ATOM     38  C   UNL A   1      42.015  21.062  27.970  1.00  0.00     0.014 A 
ATOM     39  C   UNL A   1      42.723  23.072  26.160  1.00  0.00     0.010 A 
ATOM     40  C   UNL A   1      42.394  22.322  28.436  1.00  0.00     0.010 A 
ATOM     41  C   UNL A   1      42.748  23.339  27.536  1.00  0.00    -0.014 A 
BRANCH  41  42
ATOM     42  C   UNL A   1      43.132  24.676  28.052  1.00  0.00     0.031 A 
ATOM     43  C   UNL A   1      42.083  25.709  28.346  1.00  0.00     0.074 A 
ATOM     44  C   UNL A   1      44.434  24.986  28.195  1.00  0.00     0.049 A 
ATOM     45  N   UNL A   1      42.232  26.963  28.692  1.00  0.00    -0.248 NA
ATOM     46  C   UNL A   1      40.681  25.281  28.222  1.00  0.00     0.031 C 
ATOM     47  C   UNL A   1      45.555  24.084  27.924  1.00  0.00     0.029 A 
ATOM     48  N   UNL A   1      45.035  26.155  28.591  1.00  0.00    -0.354 N 
ATOM     49  C   UNL A   1      40.950  27.482  28.795  1.00  0.00     0.074 A 
ATOM     50  C   UNL A   1      40.032  26.410  28.470  1.00  0.00     0.031 C 
ATOM     51  C   UNL A   1      46.706  24.731  28.167  1.00  0.00     0.029 A 
ATOM     52  C   UNL A   1      46.406  26.099  28.580  1.00  0.00     0.049 A 
ATOM     53  H   UNL A   1      44.530  26.957  28.856  1.00  0.00     0.167 HD
ATOM     54  C   UNL A   1      40.569  28.736  29.137  1.00  0.00     0.037 A 
ATOM     55  C   UNL A   1      47.321  27.046  28.858  1.00  0.00     0.037 A 
ATOM     56  C   UNL A   1      41.470  29.797  29.500  1.00  0.00     0.049 A 
ATOM     57  C   UNL A   1      46.873  28.424  29.248  1.00  0.00     0.074 A 
ATOM     58  C   UNL A   1      41.167  31.083  29.918  1.00  0.00     0.029 A 
ATOM     59  N   UNL A   1      42.852  29.692  29.495  1.00  0.00    -0.354 N 
ATOM     60  N   UNL A   1      45.656  28.894  29.363  1.00  0.00    -0.248 NA
ATOM     61  C   UNL A   1      47.929  29.406  29.541  1.00  0.00     0.031 C 
ATOM     62  C   UNL A   1      42.369  31.762  30.149  1.00  0.00     0.029 A 
ATOM     63  C   UNL A   1      43.417  30.893  29.892  1.00  0.00     0.049 A 
ATOM     64  H   UNL A   1      43.356  28.885  29.247  1.00  0.00     0.167 HD
ATOM     65  C   UNL A   1      45.796  30.218  29.751  1.00  0.00     0.074 A 
ATOM     66  C   UNL A   1      47.216  30.479  29.860  1.00  0.00     0.031 C 
ATOM     67  C   UNL A   1      44.830  31.137  29.995  1.00  0.00     0.037 A 
BRANCH  54  68
ATOM     68  C   UNL A   1      39.103  29.032  29.127  1.00  0.00     0.057 A 
ATOM     69  C   UNL A   1      38.318  28.895  30.277  1.00  0.00     0.134 A 
ATOM     70  C   UNL A   1      38.476  29.488  27.961  1.00  0.00     0.134 A 
ATOM     71  F   UNL A   1      38.861  28.450  31.420  1.00  0.00    -0.206 F 
ATOM     72  C   UNL A   1      36.954  29.188  30.266  1.00  0.00     0.040 A 
ATOM     73  C   UNL A   1      37.115  29.798  27.941  1.00  0.00     0.040 A 
ATOM     74  F   UNL A   1      39.176  29.641  26.827  1.00  0.00    -0.206 F 
ATOM     75  C   UNL A   1      36.350  29.645  29.096  1.00  0.00     0.006 A 
ENDBRANCH  54  68
BRANCH  55  76
ATOM     76  C   UNL A   1      48.762  26.720  28.776  1.00  0.00     0.057 A 
ATOM     77  C   UNL A   1      49.433  26.163  29.870  1.00  0.00     0.134 A 
ATOM     78  C   UNL A   1      49.496  26.948  27.609  1.00  0.00     0.134 A 
ATOM     79  F   UNL A   1      48.779  25.941  31.019  1.00  0.00    -0.206 F 
ATOM     80  C   UNL A   1      50.790  25.849  29.807  1.00  0.00     0.040 A 
ATOM     81  C   UNL A   1      50.851  26.629  27.529  1.00  0.00     0.040 A 
ATOM     82  F   UNL A   1      48.903  27.479  26.529  1.00  0.00    -0.206 F 
ATOM     83  C   UNL A   1      51.503  26.079  28.631  1.00  0.00     0.006 A 
ENDBRANCH  55  76
BRANCH  67  84
ATOM     84  C   UNL A   1      45.280  32.499  30.416  1.00  0.00     0.057 A 
ATOM     85  C   UNL A   1      45.505  33.514  29.479  1.00  0.00     0.134 A 
ATOM     86  C   UNL A   1      45.462  32.808  31.768  1.00  0.00     0.134 A 
ATOM     87  F   UNL A   1      45.361  33.272  28.166  1.00  0.00    -0.206 F 
ATOM     88  C   UNL A   1      45.904  34.791  29.873  1.00  0.00     0.040 A 
ATOM     89  C   UNL A   1      45.849  34.084  32.176  1.00  0.00     0.040 A 
ATOM     90  F   UNL A   1      45.262  31.876  32.711  1.00  0.00    -0.206 F 
ATOM     91  C   UNL A   1      46.073  35.080  31.227  1.00  0.00     0.006 A 
ENDBRANCH  67  84
ENDBRANCH  41  42
ENDBRANCH  33  36
ENDBRANCH  31  32
ENDBRANCH  30  31
ENDBRANCH   1  30
TORSDOF 14
ENDMDL
MODEL 3
REMARK VINA RESULT:     -12.2      0.744      6.171
REMARK SMILES Cc1ccnc(C(=O)c2[nH]c3ccc(C(C)(C)C)cc3c2CC(=O)NCCCNC(=O)c2ccc(-c3c4nc(c(-c5c(F)cccc5F)c5ccc([nH]5)c(-c5c(F)cccc5F)c5nc(c(-c6c(F)cccc6F)c6ccc3[nH]6)C=C5)C=C4)cc2)c1
REMARK SMILES IDX 26 1 25 2 23 3 24 4 22 6 21 7 9 8 10 9 11 10 20 12 12 13
REMARK SMILES IDX 19 14 13 15 14 16 7 17 8 18 6 19 1 20 2 21 3 22 86 23 4 24
REMARK SMILES IDX 5 25 15 26 16 27 17 28 18 29 27 30 28 31 29 32 30 33 31 35
REMARK SMILES IDX 32 36 33 37 85 38 34 39 84 40 35 41 36 42 37 43 78 44 38 45
REMARK SMILES IDX 83 46 77 47 79 48 39 49 82 50 76 51 75 52 40 54 66 55 49 56
REMARK SMILES IDX 65 57 50 58 53 59 64 60 80 61 51 62 52 63 63 65 81 66 54 67
REMARK SMILES IDX 41 68 42 69 47 70 43 71 44 72 46 73 48 74 45 75 67 76 68 77
REMARK SMILES IDX 73 78 69 79 70 80 72 81 74 82 71 83 55 84 56 85 61 86 57 87
REMARK SMILES IDX 58 88 60 89 62 90 59 91
REMARK H PARENT 25 5 10 11 29 34 79 53 53 64
REMARK Flexibility Score: inf
ROOT
ATOM      1  C   UNL A   1      37.765  21.707  25.045  1.00  0.00     0.117 C 
ENDROOT
BRANCH   1   2
ATOM      2  N   UNL A   1      36.909  22.079  23.936  1.00  0.00    -0.356 N 
ATOM      3  C   UNL A   1      35.958  23.055  23.857  1.00  0.00     0.224 C 
ATOM      4  O   UNL A   1      35.461  23.285  22.751  1.00  0.00    -0.275 OA
ATOM      5  H   UNL A   1      37.031  21.546  23.117  1.00  0.00     0.163 HD
BRANCH   3   6
ATOM      6  C   UNL A   1      35.610  23.913  25.062  1.00  0.00     0.138 C 
BRANCH   6   7
ATOM      7  C   UNL A   1      34.159  23.905  25.452  1.00  0.00    -0.002 A 
ATOM      8  C   UNL A   1      33.384  22.807  25.816  1.00  0.00     0.093 A 
ATOM      9  N   UNL A   1      32.138  23.279  26.156  1.00  0.00    -0.352 N 
ATOM     10  C   UNL A   1      32.045  24.625  25.913  1.00  0.00     0.046 A 
ATOM     11  H   UNL A   1      31.411  22.725  26.523  1.00  0.00     0.167 HD
ATOM     12  C   UNL A   1      33.289  25.048  25.464  1.00  0.00     0.004 A 
ATOM     13  C   UNL A   1      30.966  25.497  26.075  1.00  0.00     0.027 A 
ATOM     14  C   UNL A   1      33.458  26.416  25.158  1.00  0.00     0.015 A 
ATOM     15  C   UNL A   1      31.169  26.851  25.770  1.00  0.00     0.006 A 
ATOM     16  C   UNL A   1      32.401  27.341  25.313  1.00  0.00    -0.042 A 
BRANCH   8  17
ATOM     17  C   UNL A   1      33.759  21.408  25.938  1.00  0.00     0.227 C 
ATOM     18  O   UNL A   1      34.382  21.011  26.917  1.00  0.00    -0.285 OA
BRANCH  17  19
ATOM     19  C   UNL A   1      33.313  20.446  24.859  1.00  0.00     0.113 A 
ATOM     20  C   UNL A   1      33.786  16.873  23.661  1.00  0.00     0.044 C 
ATOM     21  C   UNL A   1      33.325  18.296  23.767  1.00  0.00    -0.047 A 
ATOM     22  C   UNL A   1      32.478  18.832  22.797  1.00  0.00     0.023 A 
ATOM     23  C   UNL A   1      33.731  19.113  24.827  1.00  0.00     0.036 A 
ATOM     24  C   UNL A   1      32.092  20.156  22.914  1.00  0.00     0.112 A 
ATOM     25  N   UNL A   1      32.501  20.972  23.907  1.00  0.00    -0.253 NA
ENDBRANCH  17  19
ENDBRANCH   8  17
BRANCH  16  26
ATOM     26  C   UNL A   1      32.644  28.830  25.008  1.00  0.00    -0.013 C 
ATOM     27  C   UNL A   1      33.523  29.438  26.122  1.00  0.00     0.016 C 
ATOM     28  C   UNL A   1      33.365  28.985  23.651  1.00  0.00     0.016 C 
ATOM     29  C   UNL A   1      31.350  29.672  24.932  1.00  0.00     0.016 C 
ENDBRANCH  16  26
ENDBRANCH   6   7
ENDBRANCH   3   6
ENDBRANCH   1   2
BRANCH   1  30
ATOM     30  C   UNL A   1      38.354  20.306  24.912  1.00  0.00     0.042 C 
BRANCH  30  31
ATOM     31  C   UNL A   1      39.052  19.782  26.165  1.00  0.00     0.118 C 
BRANCH  31  32
ATOM     32  N   UNL A   1      40.314  19.118  25.874  1.00  0.00    -0.352 N 
ATOM     33  C   UNL A   1      41.603  19.584  25.931  1.00  0.00     0.251 C 
ATOM     34  H   UNL A   1      40.229  18.180  25.588  1.00  0.00     0.163 HD
ATOM     35  O   UNL A   1      42.514  18.887  25.487  1.00  0.00    -0.269 OA
BRANCH  33  36
ATOM     36  C   UNL A   1      41.925  20.915  26.499  1.00  0.00     0.039 A 
ATOM     37  C   UNL A   1      42.326  21.932  25.623  1.00  0.00     0.014 A 
ATOM     38  C   UNL A   1      41.903  21.159  27.876  1.00  0.00     0.014 A 
ATOM     39  C   UNL A   1      42.646  23.201  26.116  1.00  0.00     0.010 A 
ATOM     40  C   UNL A   1      42.179  22.437  28.363  1.00  0.00     0.010 A 
ATOM     41  C   UNL A   1      42.549  23.470  27.489  1.00  0.00    -0.014 A 
BRANCH  41  42
ATOM     42  C   UNL A   1      42.822  24.826  28.026  1.00  0.00     0.031 A 
ATOM     43  C   UNL A   1      44.203  25.203  28.479  1.00  0.00     0.074 A 
ATOM     44  C   UNL A   1      41.810  25.703  28.167  1.00  0.00     0.049 A 
ATOM     45  N   UNL A   1      44.607  26.294  29.078  1.00  0.00    -0.248 NA
ATOM     46  C   UNL A   1      45.267  24.216  28.241  1.00  0.00     0.031 C 
ATOM     47  C   UNL A   1      40.417  25.458  27.787  1.00  0.00     0.029 A 
ATOM     48  N   UNL A   1      41.797  26.974  28.684  1.00  0.00    -0.354 N 
ATOM     49  C   UNL A   1      45.962  26.115  29.317  1.00  0.00     0.074 A 
ATOM     50  C   UNL A   1      46.312  24.806  28.804  1.00  0.00     0.031 C 
ATOM     51  C   UNL A   1      39.687  26.547  28.079  1.00  0.00     0.029 A 
ATOM     52  C   UNL A   1      40.551  27.550  28.692  1.00  0.00     0.049 A 
ATOM     53  H   UNL A   1      42.603  27.429  29.018  1.00  0.00     0.167 HD
ATOM     54  C   UNL A   1      46.838  26.965  29.904  1.00  0.00     0.037 A 
ATOM     55  C   UNL A   1      40.146  28.747  29.156  1.00  0.00     0.037 A 
ATOM     56  C   UNL A   1      46.509  28.282  30.381  1.00  0.00     0.049 A 
ATOM     57  C   UNL A   1      41.139  29.678  29.789  1.00  0.00     0.074 A 
ATOM     58  C   UNL A   1      47.348  29.234  30.935  1.00  0.00     0.029 A 
ATOM     59  N   UNL A   1      45.239  28.835  30.352  1.00  0.00    -0.354 N 
ATOM     60  N   UNL A   1      42.421  29.503  29.988  1.00  0.00    -0.248 NA
ATOM     61  C   UNL A   1      40.625  30.970  30.267  1.00  0.00     0.031 C 
ATOM     62  C   UNL A   1      46.581  30.359  31.259  1.00  0.00     0.029 A 
ATOM     63  C   UNL A   1      45.268  30.111  30.890  1.00  0.00     0.049 A 
ATOM     64  H   UNL A   1      44.436  28.387  30.003  1.00  0.00     0.167 HD
ATOM     65  C   UNL A   1      42.871  30.662  30.603  1.00  0.00     0.074 A 
ATOM     66  C   UNL A   1      41.727  31.539  30.739  1.00  0.00     0.031 C 
ATOM     67  C   UNL A   1      44.123  30.970  31.018  1.00  0.00     0.037 A 
BRANCH  54  68
ATOM     68  C   UNL A   1      48.246  26.488  30.071  1.00  0.00     0.057 A 
ATOM     69  C   UNL A   1      48.657  25.800  31.218  1.00  0.00     0.134 A 
ATOM     70  C   UNL A   1      49.191  26.691  29.059  1.00  0.00     0.134 A 
ATOM     71  F   UNL A   1      47.798  25.587  32.225  1.00  0.00    -0.206 F 
ATOM     72  C   UNL A   1      49.967  25.342  31.360  1.00  0.00     0.040 A 
ATOM     73  C   UNL A   1      50.501  26.225  29.184  1.00  0.00     0.040 A 
ATOM     74  F   UNL A   1      48.857  27.342  27.935  1.00  0.00    -0.206 F 
ATOM     75  C   UNL A   1      50.892  25.551  30.339  1.00  0.00     0.006 A 
ENDBRANCH  54  68
BRANCH  55  76
ATOM     76  C   UNL A   1      38.723  29.137  29.035  1.00  0.00     0.057 A 
ATOM     77  C   UNL A   1      37.862  29.050  30.134  1.00  0.00     0.134 A 
ATOM     78  C   UNL A   1      38.196  29.608  27.829  1.00  0.00     0.134 A 
ATOM     79  F   UNL A   1      38.313  28.587  31.309  1.00  0.00    -0.206 F 
ATOM     80  C   UNL A   1      36.519  29.414  30.035  1.00  0.00     0.040 A 
ATOM     81  C   UNL A   1      36.858  29.986  27.720  1.00  0.00     0.040 A 
ATOM     82  F   UNL A   1      38.977  29.712  26.744  1.00  0.00    -0.206 F 
ATOM     83  C   UNL A   1      36.015  29.888  28.825  1.00  0.00     0.006 A 
ENDBRANCH  55  76
BRANCH  67  84
ATOM     84  C   UNL A   1      44.319  32.314  31.644  1.00  0.00     0.057 A 
ATOM     85  C   UNL A   1      44.627  33.440  30.872  1.00  0.00     0.134 A 
ATOM     86  C   UNL A   1      44.169  32.491  33.024  1.00  0.00     0.134 A 
ATOM     87  F   UNL A   1      44.797  33.328  29.545  1.00  0.00    -0.206 F 
ATOM     88  C   UNL A   1      44.789  34.698  31.454  1.00  0.00     0.040 A 
ATOM     89  C   UNL A   1      44.317  33.745  33.616  1.00  0.00     0.040 A 
ATOM     90  F   UNL A   1      43.875  31.449  33.815  1.00  0.00    -0.206 F 
ATOM     91  C   UNL A   1      44.630  34.853  32.830  1.00  0.00     0.006 A 
ENDBRANCH  67  84
ENDBRANCH  41  42
ENDBRANCH  33  36
ENDBRANCH  31  32
ENDBRANCH  30  31
ENDBRANCH   1  30
TORSDOF 14
ENDMDL
