MODEL 1
REMARK VINA RESULT:     -11.3      0.000      0.000
REMARK SMILES CC(C)[NH2+][C@@]1(C(=O)NCCCNC(=O)c2ccc(-c3c4nc(c(-c5c(F)cccc5F)c5ccc([nH]5)c(-c5c(F)cccc5F)c5nc(c(-c6c(F)cccc6F)c6ccc3[nH]6)C=C5)C=C4)cc2)CCC[C@H](SC2CCCCC2)C1
REMARK SMILES IDX 10 1 9 2 8 3 6 4 7 5 5 7 69 8 80 9 70 10 72 11 71 12 4 13
REMARK SMILES IDX 2 16 1 17 3 18 73 19 74 20 75 21 79 22 76 23 78 24 77 25
REMARK SMILES IDX 11 26 12 27 13 28 14 30 15 31 16 32 68 33 17 34 67 35 18 36
REMARK SMILES IDX 19 37 20 38 61 39 21 40 66 41 60 42 62 43 22 44 65 45 59 46
REMARK SMILES IDX 58 47 23 49 49 50 32 51 48 52 33 53 36 54 47 55 63 56 34 57
REMARK SMILES IDX 35 58 46 60 64 61 37 62 24 63 25 64 30 65 26 66 27 67 29 68
REMARK SMILES IDX 31 69 28 70 50 71 51 72 56 73 52 74 53 75 55 76 57 77 54 78
REMARK SMILES IDX 38 79 39 80 44 81 40 82 41 83 43 84 45 85 42 86
REMARK H PARENT 8 6 4 14 4 15 12 29 62 48 36 59
REMARK Flexibility Score: inf
ROOT
ATOM      1  C   UNL A   1      31.965  30.968  27.033  1.00  0.00     0.042 C 
ENDROOT
BRANCH   1   2
ATOM      2  C   UNL A   1      32.828  29.745  26.763  1.00  0.00     0.118 C 
BRANCH   2   3
ATOM      3  N   UNL A   1      33.250  29.734  25.367  1.00  0.00    -0.351 N 
ATOM      4  C   UNL A   1      32.831  29.095  24.243  1.00  0.00     0.281 C 
ATOM      5  O   UNL A   1      33.748  28.947  23.408  1.00  0.00    -0.268 OA
ATOM      6  H   UNL A   1      34.016  30.327  25.198  1.00  0.00     0.163 HD
BRANCH   4   7
ATOM      7  C   UNL A   1      31.350  28.593  23.827  1.00  0.00     0.176 C 
ATOM      8  C   UNL A   1      30.600  27.863  24.952  1.00  0.00     0.079 C 
ATOM      9  C   UNL A   1      31.366  27.848  22.461  1.00  0.00     0.093 C 
ATOM     10  C   UNL A   1      30.634  26.337  24.890  1.00  0.00     0.008 C 
ATOM     11  C   UNL A   1      31.271  26.301  22.399  1.00  0.00     0.053 C 
ATOM     12  C   UNL A   1      30.346  25.800  23.502  1.00  0.00     0.015 C 
BRANCH   7  13
ATOM     13  N   UNL A   1      30.682  29.946  23.645  1.00  0.00    -0.332 N 
ATOM     14  H   UNL A   1      30.703  30.385  24.566  1.00  0.00     0.347 HD
ATOM     15  H   UNL A   1      31.221  30.312  22.861  1.00  0.00     0.347 HD
BRANCH  13  16
ATOM     16  C   UNL A   1      29.319  30.153  23.147  1.00  0.00     0.176 C 
ATOM     17  C   UNL A   1      28.803  31.404  23.879  1.00  0.00     0.075 C 
ATOM     18  C   UNL A   1      29.178  30.445  21.643  1.00  0.00     0.075 C 
ENDBRANCH  13  16
ENDBRANCH   7  13
BRANCH  11  19
ATOM     19  S   UNL A   1      32.963  25.715  22.053  1.00  0.00    -0.155 SA
BRANCH  19  20
ATOM     20  C   UNL A   1      33.621  24.681  23.406  1.00  0.00     0.047 C 
ATOM     21  C   UNL A   1      34.584  23.529  23.124  1.00  0.00     0.014 C 
ATOM     22  C   UNL A   1      34.109  25.562  24.555  1.00  0.00     0.014 C 
ATOM     23  C   UNL A   1      34.821  22.683  24.378  1.00  0.00     0.001 C 
ATOM     24  C   UNL A   1      34.335  24.701  25.794  1.00  0.00     0.001 C 
ATOM     25  C   UNL A   1      35.298  23.550  25.539  1.00  0.00     0.000 C 
ENDBRANCH  19  20
ENDBRANCH  11  19
ENDBRANCH   4   7
ENDBRANCH   2   3
ENDBRANCH   1   2
BRANCH   1  26
ATOM     26  C   UNL A   1      32.062  32.219  26.165  1.00  0.00     0.118 C 
BRANCH  26  27
ATOM     27  N   UNL A   1      32.088  33.451  26.938  1.00  0.00    -0.352 N 
ATOM     28  C   UNL A   1      32.903  33.966  27.916  1.00  0.00     0.251 C 
ATOM     29  H   UNL A   1      31.348  34.057  26.706  1.00  0.00     0.163 HD
ATOM     30  O   UNL A   1      32.528  35.040  28.408  1.00  0.00    -0.269 OA
BRANCH  28  31
ATOM     31  C   UNL A   1      34.170  33.362  28.452  1.00  0.00     0.039 A 
ATOM     32  C   UNL A   1      34.027  32.332  29.406  1.00  0.00     0.014 A 
ATOM     33  C   UNL A   1      35.470  33.776  28.160  1.00  0.00     0.014 A 
ATOM     34  C   UNL A   1      35.133  31.726  30.029  1.00  0.00     0.010 A 
ATOM     35  C   UNL A   1      36.585  33.133  28.741  1.00  0.00     0.010 A 
ATOM     36  C   UNL A   1      36.434  32.112  29.697  1.00  0.00    -0.014 A 
BRANCH  36  37
ATOM     37  C   UNL A   1      37.626  31.521  30.386  1.00  0.00     0.031 A 
ATOM     38  C   UNL A   1      38.460  30.477  29.690  1.00  0.00     0.074 A 
ATOM     39  C   UNL A   1      37.974  31.887  31.638  1.00  0.00     0.049 A 
ATOM     40  N   UNL A   1      39.490  29.802  30.140  1.00  0.00    -0.248 NA
ATOM     41  C   UNL A   1      38.091  30.156  28.304  1.00  0.00     0.031 C 
ATOM     42  C   UNL A   1      37.312  32.919  32.423  1.00  0.00     0.029 A 
ATOM     43  N   UNL A   1      38.958  31.422  32.481  1.00  0.00    -0.354 N 
ATOM     44  C   UNL A   1      39.891  28.980  29.095  1.00  0.00     0.074 A 
ATOM     45  C   UNL A   1      38.964  29.205  28.006  1.00  0.00     0.031 C 
ATOM     46  C   UNL A   1      37.857  32.977  33.647  1.00  0.00     0.029 A 
ATOM     47  C   UNL A   1      38.923  31.987  33.736  1.00  0.00     0.049 A 
ATOM     48  H   UNL A   1      39.622  30.746  32.212  1.00  0.00     0.167 HD
ATOM     49  C   UNL A   1      40.949  28.134  29.036  1.00  0.00     0.037 A 
ATOM     50  C   UNL A   1      39.660  31.745  34.839  1.00  0.00     0.037 A 
ATOM     51  C   UNL A   1      41.881  27.909  30.111  1.00  0.00     0.049 A 
ATOM     52  C   UNL A   1      40.776  30.739  34.776  1.00  0.00     0.074 A 
ATOM     53  C   UNL A   1      43.002  27.094  30.120  1.00  0.00     0.029 A 
ATOM     54  N   UNL A   1      41.799  28.485  31.369  1.00  0.00    -0.354 N 
ATOM     55  N   UNL A   1      41.173  30.011  33.762  1.00  0.00    -0.248 NA
ATOM     56  C   UNL A   1      41.561  30.539  36.004  1.00  0.00     0.031 C 
ATOM     57  C   UNL A   1      43.565  27.136  31.401  1.00  0.00     0.029 A 
ATOM     58  C   UNL A   1      42.830  28.020  32.172  1.00  0.00     0.049 A 
ATOM     59  H   UNL A   1      41.110  29.130  31.650  1.00  0.00     0.167 HD
ATOM     60  C   UNL A   1      42.277  29.300  34.215  1.00  0.00     0.074 A 
ATOM     61  C   UNL A   1      42.491  29.688  35.593  1.00  0.00     0.031 C 
ATOM     62  C   UNL A   1      43.047  28.411  33.542  1.00  0.00     0.037 A 
BRANCH  49  63
ATOM     63  C   UNL A   1      41.149  27.374  27.755  1.00  0.00     0.057 A 
ATOM     64  C   UNL A   1      41.922  27.885  26.704  1.00  0.00     0.134 A 
ATOM     65  C   UNL A   1      40.591  26.100  27.588  1.00  0.00     0.134 A 
ATOM     66  F   UNL A   1      42.476  29.103  26.798  1.00  0.00    -0.206 F 
ATOM     67  C   UNL A   1      42.107  27.169  25.520  1.00  0.00     0.040 A 
ATOM     68  C   UNL A   1      40.794  25.363  26.420  1.00  0.00     0.040 A 
ATOM     69  F   UNL A   1      39.850  25.548  28.559  1.00  0.00    -0.206 F 
ATOM     70  C   UNL A   1      41.547  25.901  25.378  1.00  0.00     0.006 A 
ENDBRANCH  49  63
BRANCH  50  71
ATOM     71  C   UNL A   1      39.382  32.480  36.100  1.00  0.00     0.057 A 
ATOM     72  C   UNL A   1      38.444  32.008  37.026  1.00  0.00     0.134 A 
ATOM     73  C   UNL A   1      40.028  33.686  36.398  1.00  0.00     0.134 A 
ATOM     74  F   UNL A   1      37.776  30.869  36.787  1.00  0.00    -0.206 F 
ATOM     75  C   UNL A   1      38.140  32.718  38.188  1.00  0.00     0.040 A 
ATOM     76  C   UNL A   1      39.752  34.396  37.569  1.00  0.00     0.040 A 
ATOM     77  F   UNL A   1      40.940  34.193  35.556  1.00  0.00    -0.206 F 
ATOM     78  C   UNL A   1      38.798  33.915  38.464  1.00  0.00     0.006 A 
ENDBRANCH  50  71
BRANCH  62  79
ATOM     79  C   UNL A   1      44.221  27.823  34.269  1.00  0.00     0.057 A 
ATOM     80  C   UNL A   1      45.474  28.451  34.291  1.00  0.00     0.134 A 
ATOM     81  C   UNL A   1      44.088  26.626  34.986  1.00  0.00     0.134 A 
ATOM     82  F   UNL A   1      45.674  29.592  33.614  1.00  0.00    -0.206 F 
ATOM     83  C   UNL A   1      46.555  27.898  34.979  1.00  0.00     0.040 A 
ATOM     84  C   UNL A   1      45.155  26.079  35.701  1.00  0.00     0.040 A 
ATOM     85  F   UNL A   1      42.916  25.974  35.013  1.00  0.00    -0.206 F 
ATOM     86  C   UNL A   1      46.395  26.713  35.693  1.00  0.00     0.006 A 
ENDBRANCH  62  79
ENDBRANCH  36  37
ENDBRANCH  28  31
ENDBRANCH  26  27
ENDBRANCH   1  26
TORSDOF 14
ENDMDL
MODEL 2
REMARK VINA RESULT:     -11.2      2.490      7.025
REMARK SMILES CC(C)[NH2+][C@@]1(C(=O)NCCCNC(=O)c2ccc(-c3c4nc(c(-c5c(F)cccc5F)c5ccc([nH]5)c(-c5c(F)cccc5F)c5nc(c(-c6c(F)cccc6F)c6ccc3[nH]6)C=C5)C=C4)cc2)CCC[C@H](SC2CCCCC2)C1
REMARK SMILES IDX 10 1 9 2 8 3 6 4 7 5 5 7 69 8 80 9 70 10 72 11 71 12 4 13
REMARK SMILES IDX 2 16 1 17 3 18 73 19 74 20 75 21 79 22 76 23 78 24 77 25
REMARK SMILES IDX 11 26 12 27 13 28 14 30 15 31 16 32 68 33 17 34 67 35 18 36
REMARK SMILES IDX 19 37 20 38 61 39 21 40 66 41 60 42 62 43 22 44 65 45 59 46
REMARK SMILES IDX 58 47 23 49 49 50 32 51 48 52 33 53 36 54 47 55 63 56 34 57
REMARK SMILES IDX 35 58 46 60 64 61 37 62 24 63 25 64 30 65 26 66 27 67 29 68
REMARK SMILES IDX 31 69 28 70 50 71 51 72 56 73 52 74 53 75 55 76 57 77 54 78
REMARK SMILES IDX 38 79 39 80 44 81 40 82 41 83 43 84 45 85 42 86
REMARK H PARENT 8 6 4 14 4 15 12 29 62 48 36 59
REMARK Flexibility Score: inf
ROOT
ATOM      1  C   UNL A   1      33.094  28.141  26.897  1.00  0.00     0.042 C 
ENDROOT
BRANCH   1   2
ATOM      2  C   UNL A   1      31.625  28.115  27.293  1.00  0.00     0.118 C 
BRANCH   2   3
ATOM      3  N   UNL A   1      31.101  26.761  27.165  1.00  0.00    -0.351 N 
ATOM      4  C   UNL A   1      30.671  25.991  26.130  1.00  0.00     0.281 C 
ATOM      5  O   UNL A   1      29.836  25.135  26.487  1.00  0.00    -0.268 OA
ATOM      6  H   UNL A   1      31.045  26.293  28.029  1.00  0.00     0.163 HD
BRANCH   4   7
ATOM      7  C   UNL A   1      31.136  25.986  24.581  1.00  0.00     0.176 C 
ATOM      8  C   UNL A   1      30.297  25.065  23.681  1.00  0.00     0.079 C 
ATOM      9  C   UNL A   1      32.675  25.803  24.450  1.00  0.00     0.093 C 
ATOM     10  C   UNL A   1      30.902  23.694  23.389  1.00  0.00     0.008 C 
ATOM     11  C   UNL A   1      33.279  24.437  24.028  1.00  0.00     0.053 C 
ATOM     12  C   UNL A   1      32.367  23.768  23.006  1.00  0.00     0.015 C 
BRANCH   7  13
ATOM     13  N   UNL A   1      30.775  27.418  24.218  1.00  0.00    -0.332 N 
ATOM     14  H   UNL A   1      30.049  27.690  24.881  1.00  0.00     0.347 HD
ATOM     15  H   UNL A   1      31.701  27.847  24.227  1.00  0.00     0.347 HD
BRANCH  13  16
ATOM     16  C   UNL A   1      30.292  27.859  22.908  1.00  0.00     0.176 C 
ATOM     17  C   UNL A   1      28.818  28.244  23.124  1.00  0.00     0.075 C 
ATOM     18  C   UNL A   1      30.977  29.101  22.310  1.00  0.00     0.075 C 
ENDBRANCH  13  16
ENDBRANCH   7  13
BRANCH  11  19
ATOM     19  S   UNL A   1      33.927  23.688  25.559  1.00  0.00    -0.155 SA
BRANCH  19  20
ATOM     20  C   UNL A   1      35.670  23.175  25.386  1.00  0.00     0.047 C 
ATOM     21  C   UNL A   1      36.777  23.846  26.199  1.00  0.00     0.014 C 
ATOM     22  C   UNL A   1      35.780  21.652  25.426  1.00  0.00     0.014 C 
ATOM     23  C   UNL A   1      38.162  23.401  25.726  1.00  0.00     0.001 C 
ATOM     24  C   UNL A   1      37.165  21.229  24.948  1.00  0.00     0.001 C 
ATOM     25  C   UNL A   1      38.284  21.880  25.749  1.00  0.00     0.000 C 
ENDBRANCH  19  20
ENDBRANCH  11  19
ENDBRANCH   4   7
ENDBRANCH   2   3
ENDBRANCH   1   2
BRANCH   1  26
ATOM     26  C   UNL A   1      33.650  29.215  25.968  1.00  0.00     0.118 C 
BRANCH  26  27
ATOM     27  N   UNL A   1      33.690  30.535  26.577  1.00  0.00    -0.352 N 
ATOM     28  C   UNL A   1      34.470  31.140  27.533  1.00  0.00     0.251 C 
ATOM     29  H   UNL A   1      32.996  31.135  26.221  1.00  0.00     0.163 HD
ATOM     30  O   UNL A   1      34.119  32.283  27.857  1.00  0.00    -0.269 OA
BRANCH  28  31
ATOM     31  C   UNL A   1      35.672  30.560  28.223  1.00  0.00     0.039 A 
ATOM     32  C   UNL A   1      36.926  30.809  27.627  1.00  0.00     0.014 A 
ATOM     33  C   UNL A   1      35.659  29.733  29.347  1.00  0.00     0.014 A 
ATOM     34  C   UNL A   1      38.121  30.273  28.139  1.00  0.00     0.010 A 
ATOM     35  C   UNL A   1      36.862  29.239  29.897  1.00  0.00     0.010 A 
ATOM     36  C   UNL A   1      38.108  29.484  29.293  1.00  0.00    -0.014 A 
BRANCH  36  37
ATOM     37  C   UNL A   1      39.359  28.857  29.827  1.00  0.00     0.031 A 
ATOM     38  C   UNL A   1      40.058  29.461  31.017  1.00  0.00     0.074 A 
ATOM     39  C   UNL A   1      39.899  27.759  29.257  1.00  0.00     0.049 A 
ATOM     40  N   UNL A   1      41.183  29.103  31.588  1.00  0.00    -0.248 NA
ATOM     41  C   UNL A   1      39.403  30.613  31.652  1.00  0.00     0.031 C 
ATOM     42  C   UNL A   1      39.320  27.023  28.143  1.00  0.00     0.029 A 
ATOM     43  N   UNL A   1      41.067  27.078  29.521  1.00  0.00    -0.354 N 
ATOM     44  C   UNL A   1      41.368  29.983  32.647  1.00  0.00     0.074 A 
ATOM     45  C   UNL A   1      40.266  30.921  32.608  1.00  0.00     0.031 C 
ATOM     46  C   UNL A   1      40.147  26.033  27.774  1.00  0.00     0.029 A 
ATOM     47  C   UNL A   1      41.321  26.055  28.636  1.00  0.00     0.049 A 
ATOM     48  H   UNL A   1      41.664  27.304  30.270  1.00  0.00     0.167 HD
ATOM     49  C   UNL A   1      42.350  29.995  33.581  1.00  0.00     0.037 A 
ATOM     50  C   UNL A   1      42.377  25.223  28.522  1.00  0.00     0.037 A 
ATOM     51  C   UNL A   1      43.447  29.062  33.633  1.00  0.00     0.049 A 
ATOM     52  C   UNL A   1      43.498  25.310  29.520  1.00  0.00     0.074 A 
ATOM     53  C   UNL A   1      44.465  28.983  34.568  1.00  0.00     0.029 A 
ATOM     54  N   UNL A   1      43.678  28.056  32.708  1.00  0.00    -0.354 N 
ATOM     55  N   UNL A   1      43.628  26.114  30.545  1.00  0.00    -0.248 NA
ATOM     56  C   UNL A   1      44.607  24.357  29.359  1.00  0.00     0.031 C 
ATOM     57  C   UNL A   1      45.342  27.965  34.178  1.00  0.00     0.029 A 
ATOM     58  C   UNL A   1      44.840  27.372  33.033  1.00  0.00     0.049 A 
ATOM     59  H   UNL A   1      43.102  27.856  31.935  1.00  0.00     0.167 HD
ATOM     60  C   UNL A   1      44.808  25.738  31.175  1.00  0.00     0.074 A 
ATOM     61  C   UNL A   1      45.353  24.630  30.420  1.00  0.00     0.031 C 
ATOM     62  C   UNL A   1      45.380  26.264  32.285  1.00  0.00     0.037 A 
BRANCH  49  63
ATOM     63  C   UNL A   1      42.287  31.070  34.629  1.00  0.00     0.057 A 
ATOM     64  C   UNL A   1      41.592  30.890  35.832  1.00  0.00     0.134 A 
ATOM     65  C   UNL A   1      42.960  32.285  34.446  1.00  0.00     0.134 A 
ATOM     66  F   UNL A   1      40.919  29.753  36.066  1.00  0.00    -0.206 F 
ATOM     67  C   UNL A   1      41.543  31.892  36.804  1.00  0.00     0.040 A 
ATOM     68  C   UNL A   1      42.942  33.282  35.423  1.00  0.00     0.040 A 
ATOM     69  F   UNL A   1      43.652  32.518  33.322  1.00  0.00    -0.206 F 
ATOM     70  C   UNL A   1      42.225  33.090  36.602  1.00  0.00     0.006 A 
ENDBRANCH  49  63
BRANCH  50  71
ATOM     71  C   UNL A   1      42.421  24.217  27.429  1.00  0.00     0.057 A 
ATOM     72  C   UNL A   1      41.937  22.917  27.617  1.00  0.00     0.134 A 
ATOM     73  C   UNL A   1      42.974  24.522  26.179  1.00  0.00     0.134 A 
ATOM     74  F   UNL A   1      41.416  22.556  28.800  1.00  0.00    -0.206 F 
ATOM     75  C   UNL A   1      42.022  21.950  26.614  1.00  0.00     0.040 A 
ATOM     76  C   UNL A   1      43.043  23.572  25.157  1.00  0.00     0.040 A 
ATOM     77  F   UNL A   1      43.454  25.749  25.931  1.00  0.00    -0.206 F 
ATOM     78  C   UNL A   1      42.573  22.279  25.377  1.00  0.00     0.006 A 
ENDBRANCH  50  71
BRANCH  62  79
ATOM     79  C   UNL A   1      46.644  25.623  32.781  1.00  0.00     0.057 A 
ATOM     80  C   UNL A   1      47.904  25.977  32.281  1.00  0.00     0.134 A 
ATOM     81  C   UNL A   1      46.601  24.659  33.798  1.00  0.00     0.134 A 
ATOM     82  F   UNL A   1      48.016  26.881  31.296  1.00  0.00    -0.206 F 
ATOM     83  C   UNL A   1      49.072  25.380  32.758  1.00  0.00     0.040 A 
ATOM     84  C   UNL A   1      47.765  24.077  34.303  1.00  0.00     0.040 A 
ATOM     85  F   UNL A   1      45.429  24.278  34.327  1.00  0.00    -0.206 F 
ATOM     86  C   UNL A   1      49.005  24.433  33.778  1.00  0.00     0.006 A 
ENDBRANCH  62  79
ENDBRANCH  36  37
ENDBRANCH  28  31
ENDBRANCH  26  27
ENDBRANCH   1  26
TORSDOF 14
ENDMDL
MODEL 3
REMARK VINA RESULT:     -11.2      3.613      7.383
REMARK SMILES CC(C)[NH2+][C@@]1(C(=O)NCCCNC(=O)c2ccc(-c3c4nc(c(-c5c(F)cccc5F)c5ccc([nH]5)c(-c5c(F)cccc5F)c5nc(c(-c6c(F)cccc6F)c6ccc3[nH]6)C=C5)C=C4)cc2)CCC[C@H](SC2CCCCC2)C1
REMARK SMILES IDX 10 1 9 2 8 3 6 4 7 5 5 7 69 8 80 9 70 10 72 11 71 12 4 13
REMARK SMILES IDX 2 16 1 17 3 18 73 19 74 20 75 21 79 22 76 23 78 24 77 25
REMARK SMILES IDX 11 26 12 27 13 28 14 30 15 31 16 32 68 33 17 34 67 35 18 36
REMARK SMILES IDX 19 37 20 38 61 39 21 40 66 41 60 42 62 43 22 44 65 45 59 46
REMARK SMILES IDX 58 47 23 49 49 50 32 51 48 52 33 53 36 54 47 55 63 56 34 57
REMARK SMILES IDX 35 58 46 60 64 61 37 62 24 63 25 64 30 65 26 66 27 67 29 68
REMARK SMILES IDX 31 69 28 70 50 71 51 72 56 73 52 74 53 75 55 76 57 77 54 78
REMARK SMILES IDX 38 79 39 80 44 81 40 82 41 83 43 84 45 85 42 86
REMARK H PARENT 8 6 4 14 4 15 12 29 62 48 36 59
REMARK Flexibility Score: inf
ROOT
ATOM      1  C   UNL A   1      33.007  28.209  26.987  1.00  0.00     0.042 C 
ENDROOT
BRANCH   1   2
ATOM      2  C   UNL A   1      31.508  28.030  27.173  1.00  0.00     0.118 C 
BRANCH   2   3
ATOM      3  N   UNL A   1      31.162  26.617  27.081  1.00  0.00    -0.351 N 
ATOM      4  C   UNL A   1      30.845  25.770  26.066  1.00  0.00     0.281 C 
ATOM      5  O   UNL A   1      30.121  24.825  26.442  1.00  0.00    -0.268 OA
ATOM      6  H   UNL A   1      31.156  26.171  27.958  1.00  0.00     0.163 HD
BRANCH   4   7
ATOM      7  C   UNL A   1      31.323  25.780  24.521  1.00  0.00     0.176 C 
ATOM      8  C   UNL A   1      30.478  24.886  23.600  1.00  0.00     0.079 C 
ATOM      9  C   UNL A   1      32.861  25.574  24.402  1.00  0.00     0.093 C 
ATOM     10  C   UNL A   1      31.064  23.510  23.293  1.00  0.00     0.008 C 
ATOM     11  C   UNL A   1      33.447  24.205  23.965  1.00  0.00     0.053 C 
ATOM     12  C   UNL A   1      32.534  23.566  22.925  1.00  0.00     0.015 C 
BRANCH   7  13
ATOM     13  N   UNL A   1      30.990  27.223  24.177  1.00  0.00    -0.332 N 
ATOM     14  H   UNL A   1      29.995  27.326  24.378  1.00  0.00     0.347 HD
ATOM     15  H   UNL A   1      31.702  27.710  24.720  1.00  0.00     0.347 HD
BRANCH  13  16
ATOM     16  C   UNL A   1      31.189  27.844  22.865  1.00  0.00     0.176 C 
ATOM     17  C   UNL A   1      29.916  28.670  22.608  1.00  0.00     0.075 C 
ATOM     18  C   UNL A   1      32.370  28.823  22.744  1.00  0.00     0.075 C 
ENDBRANCH  13  16
ENDBRANCH   7  13
BRANCH  11  19
ATOM     19  S   UNL A   1      34.068  23.423  25.490  1.00  0.00    -0.155 SA
BRANCH  19  20
ATOM     20  C   UNL A   1      35.844  23.017  25.377  1.00  0.00     0.047 C 
ATOM     21  C   UNL A   1      36.883  23.771  26.207  1.00  0.00     0.014 C 
ATOM     22  C   UNL A   1      36.046  21.505  25.453  1.00  0.00     0.014 C 
ATOM     23  C   UNL A   1      38.306  23.404  25.782  1.00  0.00     0.001 C 
ATOM     24  C   UNL A   1      37.469  21.160  25.023  1.00  0.00     0.001 C 
ATOM     25  C   UNL A   1      38.521  21.895  25.841  1.00  0.00     0.000 C 
ENDBRANCH  19  20
ENDBRANCH  11  19
ENDBRANCH   4   7
ENDBRANCH   2   3
ENDBRANCH   1   2
BRANCH   1  26
ATOM     26  C   UNL A   1      33.597  29.520  26.477  1.00  0.00     0.118 C 
BRANCH  26  27
ATOM     27  N   UNL A   1      33.728  30.531  27.513  1.00  0.00    -0.352 N 
ATOM     28  C   UNL A   1      34.717  30.897  28.394  1.00  0.00     0.251 C 
ATOM     29  H   UNL A   1      32.917  31.082  27.606  1.00  0.00     0.163 HD
ATOM     30  O   UNL A   1      34.402  31.774  29.210  1.00  0.00    -0.269 OA
BRANCH  28  31
ATOM     31  C   UNL A   1      36.110  30.340  28.475  1.00  0.00     0.039 A 
ATOM     32  C   UNL A   1      36.525  29.854  29.733  1.00  0.00     0.014 A 
ATOM     33  C   UNL A   1      37.058  30.334  27.451  1.00  0.00     0.014 A 
ATOM     34  C   UNL A   1      37.824  29.362  29.958  1.00  0.00     0.010 A 
ATOM     35  C   UNL A   1      38.345  29.790  27.658  1.00  0.00     0.010 A 
ATOM     36  C   UNL A   1      38.754  29.314  28.915  1.00  0.00    -0.014 A 
BRANCH  36  37
ATOM     37  C   UNL A   1      40.159  28.847  29.142  1.00  0.00     0.031 A 
ATOM     38  C   UNL A   1      41.178  29.783  29.739  1.00  0.00     0.074 A 
ATOM     39  C   UNL A   1      40.554  27.601  28.808  1.00  0.00     0.049 A 
ATOM     40  N   UNL A   1      42.457  29.589  29.955  1.00  0.00    -0.248 NA
ATOM     41  C   UNL A   1      40.694  31.107  30.154  1.00  0.00     0.031 C 
ATOM     42  C   UNL A   1      39.685  26.561  28.277  1.00  0.00     0.029 A 
ATOM     43  N   UNL A   1      41.792  26.998  28.844  1.00  0.00    -0.354 N 
ATOM     44  C   UNL A   1      42.927  30.762  30.531  1.00  0.00     0.074 A 
ATOM     45  C   UNL A   1      41.809  31.680  30.583  1.00  0.00     0.031 C 
ATOM     46  C   UNL A   1      40.409  25.471  27.982  1.00  0.00     0.029 A 
ATOM     47  C   UNL A   1      41.805  25.729  28.312  1.00  0.00     0.049 A 
ATOM     48  H   UNL A   1      42.593  27.435  29.215  1.00  0.00     0.167 HD
ATOM     49  C   UNL A   1      44.169  31.044  30.996  1.00  0.00     0.037 A 
ATOM     50  C   UNL A   1      42.818  24.863  28.107  1.00  0.00     0.037 A 
ATOM     51  C   UNL A   1      45.287  30.136  30.954  1.00  0.00     0.049 A 
ATOM     52  C   UNL A   1      44.205  25.229  28.554  1.00  0.00     0.074 A 
ATOM     53  C   UNL A   1      46.571  30.329  31.437  1.00  0.00     0.029 A 
ATOM     54  N   UNL A   1      45.262  28.870  30.389  1.00  0.00    -0.354 N 
ATOM     55  N   UNL A   1      44.619  26.323  29.144  1.00  0.00    -0.248 NA
ATOM     56  C   UNL A   1      45.263  24.232  28.329  1.00  0.00     0.031 C 
ATOM     57  C   UNL A   1      47.336  29.204  31.115  1.00  0.00     0.029 A 
ATOM     58  C   UNL A   1      46.517  28.285  30.483  1.00  0.00     0.049 A 
ATOM     59  H   UNL A   1      44.471  28.449  29.982  1.00  0.00     0.167 HD
ATOM     60  C   UNL A   1      45.971  26.129  29.398  1.00  0.00     0.074 A 
ATOM     61  C   UNL A   1      46.307  24.811  28.904  1.00  0.00     0.031 C 
ATOM     62  C   UNL A   1      46.850  26.969  29.996  1.00  0.00     0.037 A 
BRANCH  49  63
ATOM     63  C   UNL A   1      44.388  32.407  31.587  1.00  0.00     0.057 A 
ATOM     64  C   UNL A   1      44.187  32.665  32.949  1.00  0.00     0.134 A 
ATOM     65  C   UNL A   1      44.840  33.466  30.789  1.00  0.00     0.134 A 
ATOM     66  F   UNL A   1      43.746  31.696  33.766  1.00  0.00    -0.206 F 
ATOM     67  C   UNL A   1      44.398  33.934  33.491  1.00  0.00     0.040 A 
ATOM     68  C   UNL A   1      45.083  34.732  31.325  1.00  0.00     0.040 A 
ATOM     69  F   UNL A   1      45.063  33.285  29.479  1.00  0.00    -0.206 F 
ATOM     70  C   UNL A   1      44.854  34.970  32.679  1.00  0.00     0.006 A 
ENDBRANCH  49  63
BRANCH  50  71
ATOM     71  C   UNL A   1      42.560  23.549  27.462  1.00  0.00     0.057 A 
ATOM     72  C   UNL A   1      42.279  22.408  28.222  1.00  0.00     0.134 A 
ATOM     73  C   UNL A   1      42.616  23.397  26.070  1.00  0.00     0.134 A 
ATOM     74  F   UNL A   1      42.234  22.484  29.561  1.00  0.00    -0.206 F 
ATOM     75  C   UNL A   1      42.087  21.159  27.627  1.00  0.00     0.040 A 
ATOM     76  C   UNL A   1      42.401  22.159  25.460  1.00  0.00     0.040 A 
ATOM     77  F   UNL A   1      42.877  24.450  25.283  1.00  0.00    -0.206 F 
ATOM     78  C   UNL A   1      42.144  21.034  26.240  1.00  0.00     0.006 A 
ENDBRANCH  50  71
BRANCH  62  79
ATOM     79  C   UNL A   1      48.255  26.478  30.190  1.00  0.00     0.057 A 
ATOM     80  C   UNL A   1      48.646  25.771  31.335  1.00  0.00     0.134 A 
ATOM     81  C   UNL A   1      49.225  26.686  29.199  1.00  0.00     0.134 A 
ATOM     82  F   UNL A   1      47.772  25.551  32.329  1.00  0.00    -0.206 F 
ATOM     83  C   UNL A   1      49.954  25.311  31.498  1.00  0.00     0.040 A 
ATOM     84  C   UNL A   1      50.528  26.205  29.339  1.00  0.00     0.040 A 
ATOM     85  F   UNL A   1      48.919  27.348  28.074  1.00  0.00    -0.206 F 
ATOM     86  C   UNL A   1      50.897  25.521  30.494  1.00  0.00     0.006 A 
ENDBRANCH  62  79
ENDBRANCH  36  37
ENDBRANCH  28  31
ENDBRANCH  26  27
ENDBRANCH   1  26
TORSDOF 14
ENDMDL
