MODEL 1
REMARK VINA RESULT:     -12.7      0.000      0.000
REMARK SMILES CN1C(=O)/C(=C\c2ccc(-c3ccccc3C(=O)NCCCNC(=O)c3ccc(-c4c5nc(c(-c6c(F)cccc6F)c6ccc([nH]6)c(-c6c(F)cccc6F)c6nc(c(-c7c(F)cccc7F)c7ccc4[nH]7)C=C6)C=C5)cc3)o2)C(=O)[NH+]=C1S
REMARK SMILES IDX 20 1 19 2 17 3 18 4 16 6 11 7 12 8 13 9 15 10 14 11 10 12
REMARK SMILES IDX 7 13 8 14 80 15 9 16 6 17 1 18 2 19 3 20 84 21 4 22 5 23
REMARK SMILES IDX 83 24 81 25 82 27 85 28 21 30 22 31 23 32 24 33 25 35 26 36
REMARK SMILES IDX 27 37 79 38 28 39 78 40 29 41 30 42 31 43 72 44 32 45 77 46
REMARK SMILES IDX 71 47 73 48 33 49 76 50 70 51 69 52 34 54 60 55 43 56 59 57
REMARK SMILES IDX 44 58 47 59 58 60 74 61 45 62 46 63 57 65 75 66 48 67 35 68
REMARK SMILES IDX 36 69 41 70 37 71 38 72 40 73 42 74 39 75 61 76 62 77 67 78
REMARK SMILES IDX 63 79 64 80 66 81 68 82 65 83 49 84 50 85 55 86 51 87 52 88
REMARK SMILES IDX 54 89 56 90 53 91
REMARK H PARENT 19 5 83 26 85 29 23 34 73 53 47 64
REMARK Flexibility Score: inf
ROOT
ATOM      1  C   UNL A   1      33.785  26.680  25.850  1.00  0.00     0.118 C 
ENDROOT
BRANCH   1   2
ATOM      2  N   UNL A   1      34.027  26.163  24.538  1.00  0.00    -0.352 N 
ATOM      3  C   UNL A   1      33.214  26.270  23.429  1.00  0.00     0.252 C 
ATOM      4  O   UNL A   1      33.719  25.913  22.359  1.00  0.00    -0.269 OA
ATOM      5  H   UNL A   1      34.873  25.675  24.412  1.00  0.00     0.163 HD
BRANCH   3   6
ATOM      6  C   UNL A   1      31.754  26.676  23.430  1.00  0.00     0.050 A 
ATOM      7  C   UNL A   1      30.635  26.107  24.085  1.00  0.00     0.030 A 
ATOM      8  C   UNL A   1      29.356  26.684  23.898  1.00  0.00     0.013 A 
ATOM      9  C   UNL A   1      29.170  27.828  23.127  1.00  0.00     0.001 A 
ATOM     10  C   UNL A   1      31.528  27.844  22.658  1.00  0.00     0.014 A 
ATOM     11  C   UNL A   1      30.262  28.417  22.513  1.00  0.00     0.001 A 
BRANCH   7  12
ATOM     12  C   UNL A   1      30.650  24.971  24.992  1.00  0.00     0.135 A 
ATOM     13  C   UNL A   1      31.271  22.884  25.481  1.00  0.00     0.128 A 
ATOM     14  C   UNL A   1      30.687  23.447  26.615  1.00  0.00     0.051 A 
ATOM     15  O   UNL A   1      31.219  23.832  24.485  1.00  0.00    -0.457 OA
ATOM     16  C   UNL A   1      30.249  24.754  26.287  1.00  0.00     0.051 A 
BRANCH  13  17
ATOM     17  C   UNL A   1      31.884  21.607  25.326  1.00  0.00     0.071 C 
ATOM     18  C   UNL A   1      36.189  23.602  25.669  1.00  0.00     0.301 C 
ATOM     19  N   UNL A   1      35.397  22.389  25.520  1.00  0.00    -0.189 N 
ATOM     20  C   UNL A   1      34.103  22.475  25.969  1.00  0.00     0.349 C 
ATOM     21  C   UNL A   1      35.884  21.157  25.171  1.00  0.00     0.318 C 
ATOM     22  O   UNL A   1      33.737  23.326  26.774  1.00  0.00    -0.240 OA
ATOM     23  C   UNL A   1      33.210  21.420  25.462  1.00  0.00     0.157 C 
ATOM     24  N   UNL A   1      35.180  20.100  24.983  1.00  0.00    -0.200 N 
ATOM     25  C   UNL A   1      33.810  20.137  25.026  1.00  0.00     0.347 C 
ATOM     26  H   UNL A   1      35.633  19.245  24.803  1.00  0.00     0.316 HD
ATOM     27  O   UNL A   1      33.120  19.190  24.689  1.00  0.00    -0.241 OA
BRANCH  21  28
ATOM     28  S   UNL A   1      37.616  20.972  25.022  1.00  0.00    -0.055 SA
ATOM     29  H   UNL A   1      38.230  21.605  26.057  1.00  0.00     0.116 HD
ENDBRANCH  21  28
ENDBRANCH  13  17
ENDBRANCH   7  12
ENDBRANCH   3   6
ENDBRANCH   1   2
BRANCH   1  30
ATOM     30  C   UNL A   1      33.782  28.170  26.077  1.00  0.00     0.042 C 
BRANCH  30  31
ATOM     31  C   UNL A   1      33.246  28.640  27.419  1.00  0.00     0.118 C 
BRANCH  31  32
ATOM     32  N   UNL A   1      33.534  30.037  27.762  1.00  0.00    -0.352 N 
ATOM     33  C   UNL A   1      34.671  30.706  28.161  1.00  0.00     0.251 C 
ATOM     34  H   UNL A   1      32.745  30.622  27.691  1.00  0.00     0.163 HD
ATOM     35  O   UNL A   1      34.576  31.891  28.478  1.00  0.00    -0.269 OA
BRANCH  33  36
ATOM     36  C   UNL A   1      35.985  30.028  28.280  1.00  0.00     0.039 A 
ATOM     37  C   UNL A   1      36.888  30.080  27.212  1.00  0.00     0.014 A 
ATOM     38  C   UNL A   1      36.357  29.355  29.437  1.00  0.00     0.014 A 
ATOM     39  C   UNL A   1      38.186  29.578  27.364  1.00  0.00     0.010 A 
ATOM     40  C   UNL A   1      37.686  29.024  29.652  1.00  0.00     0.010 A 
ATOM     41  C   UNL A   1      38.622  29.115  28.615  1.00  0.00    -0.014 A 
BRANCH  41  42
ATOM     42  C   UNL A   1      40.025  28.695  28.876  1.00  0.00     0.031 A 
ATOM     43  C   UNL A   1      40.999  29.670  29.494  1.00  0.00     0.074 A 
ATOM     44  C   UNL A   1      40.454  27.484  28.466  1.00  0.00     0.049 A 
ATOM     45  N   UNL A   1      42.295  29.561  29.657  1.00  0.00    -0.248 NA
ATOM     46  C   UNL A   1      40.454  30.963  29.943  1.00  0.00     0.031 C 
ATOM     47  C   UNL A   1      39.634  26.468  27.800  1.00  0.00     0.029 A 
ATOM     48  N   UNL A   1      41.697  26.905  28.538  1.00  0.00    -0.354 N 
ATOM     49  C   UNL A   1      42.711  30.775  30.190  1.00  0.00     0.074 A 
ATOM     50  C   UNL A   1      41.552  31.634  30.249  1.00  0.00     0.031 C 
ATOM     51  C   UNL A   1      40.384  25.380  27.561  1.00  0.00     0.029 A 
ATOM     52  C   UNL A   1      41.748  25.638  28.007  1.00  0.00     0.049 A 
ATOM     53  H   UNL A   1      42.478  27.354  28.935  1.00  0.00     0.167 HD
ATOM     54  C   UNL A   1      43.941  31.132  30.632  1.00  0.00     0.037 A 
ATOM     55  C   UNL A   1      42.783  24.784  27.884  1.00  0.00     0.037 A 
ATOM     56  C   UNL A   1      45.082  30.258  30.620  1.00  0.00     0.049 A 
ATOM     57  C   UNL A   1      44.138  25.202  28.386  1.00  0.00     0.074 A 
ATOM     58  C   UNL A   1      46.357  30.497  31.100  1.00  0.00     0.029 A 
ATOM     59  N   UNL A   1      45.079  28.969  30.109  1.00  0.00    -0.354 N 
ATOM     60  N   UNL A   1      44.502  26.331  28.947  1.00  0.00    -0.248 NA
ATOM     61  C   UNL A   1      45.226  24.225  28.245  1.00  0.00     0.031 C 
ATOM     62  C   UNL A   1      47.138  29.368  30.839  1.00  0.00     0.029 A 
ATOM     63  C   UNL A   1      46.336  28.406  30.248  1.00  0.00     0.049 A 
ATOM     64  H   UNL A   1      44.300  28.522  29.706  1.00  0.00     0.167 HD
ATOM     65  C   UNL A   1      45.847  26.184  29.260  1.00  0.00     0.074 A 
ATOM     66  C   UNL A   1      46.231  24.853  28.837  1.00  0.00     0.031 C 
ATOM     67  C   UNL A   1      46.691  27.070  29.844  1.00  0.00     0.037 A 
BRANCH  54  68
ATOM     68  C   UNL A   1      44.106  32.520  31.187  1.00  0.00     0.057 A 
ATOM     69  C   UNL A   1      44.408  33.615  30.364  1.00  0.00     0.134 A 
ATOM     70  C   UNL A   1      43.928  32.772  32.553  1.00  0.00     0.134 A 
ATOM     71  F   UNL A   1      44.605  33.442  29.048  1.00  0.00    -0.206 F 
ATOM     72  C   UNL A   1      44.556  34.902  30.883  1.00  0.00     0.040 A 
ATOM     73  C   UNL A   1      44.041  34.061  33.079  1.00  0.00     0.040 A 
ATOM     74  F   UNL A   1      43.631  31.773  33.399  1.00  0.00    -0.206 F 
ATOM     75  C   UNL A   1      44.365  35.128  32.244  1.00  0.00     0.006 A 
ENDBRANCH  54  68
BRANCH  55  76
ATOM     76  C   UNL A   1      42.580  23.438  27.288  1.00  0.00     0.057 A 
ATOM     77  C   UNL A   1      42.185  22.352  28.079  1.00  0.00     0.134 A 
ATOM     78  C   UNL A   1      42.798  23.193  25.927  1.00  0.00     0.134 A 
ATOM     79  F   UNL A   1      41.978  22.516  29.395  1.00  0.00    -0.206 F 
ATOM     80  C   UNL A   1      42.044  21.068  27.549  1.00  0.00     0.040 A 
ATOM     81  C   UNL A   1      42.632  21.921  25.376  1.00  0.00     0.040 A 
ATOM     82  F   UNL A   1      43.172  24.189  25.111  1.00  0.00    -0.206 F 
ATOM     83  C   UNL A   1      42.266  20.851  26.191  1.00  0.00     0.006 A 
ENDBRANCH  55  76
BRANCH  67  84
ATOM     84  C   UNL A   1      48.093  26.610  30.115  1.00  0.00     0.057 A 
ATOM     85  C   UNL A   1      49.142  26.853  29.220  1.00  0.00     0.134 A 
ATOM     86  C   UNL A   1      48.401  25.952  31.313  1.00  0.00     0.134 A 
ATOM     87  F   UNL A   1      48.912  27.467  28.051  1.00  0.00    -0.206 F 
ATOM     88  C   UNL A   1      50.445  26.434  29.497  1.00  0.00     0.040 A 
ATOM     89  C   UNL A   1      49.705  25.558  31.614  1.00  0.00     0.040 A 
ATOM     90  F   UNL A   1      47.444  25.700  32.218  1.00  0.00    -0.206 F 
ATOM     91  C   UNL A   1      50.730  25.792  30.701  1.00  0.00     0.006 A 
ENDBRANCH  67  84
ENDBRANCH  41  42
ENDBRANCH  33  36
ENDBRANCH  31  32
ENDBRANCH  30  31
ENDBRANCH   1  30
TORSDOF 13
ENDMDL
MODEL 2
REMARK VINA RESULT:     -12.6      2.248      7.321
REMARK SMILES CN1C(=O)/C(=C\c2ccc(-c3ccccc3C(=O)NCCCNC(=O)c3ccc(-c4c5nc(c(-c6c(F)cccc6F)c6ccc([nH]6)c(-c6c(F)cccc6F)c6nc(c(-c7c(F)cccc7F)c7ccc4[nH]7)C=C6)C=C5)cc3)o2)C(=O)[NH+]=C1S
REMARK SMILES IDX 20 1 19 2 17 3 18 4 16 6 11 7 12 8 13 9 15 10 14 11 10 12
REMARK SMILES IDX 7 13 8 14 80 15 9 16 6 17 1 18 2 19 3 20 84 21 4 22 5 23
REMARK SMILES IDX 83 24 81 25 82 27 85 28 21 30 22 31 23 32 24 33 25 35 26 36
REMARK SMILES IDX 27 37 79 38 28 39 78 40 29 41 30 42 31 43 72 44 32 45 77 46
REMARK SMILES IDX 71 47 73 48 33 49 76 50 70 51 69 52 34 54 60 55 43 56 59 57
REMARK SMILES IDX 44 58 47 59 58 60 74 61 45 62 46 63 57 65 75 66 48 67 35 68
REMARK SMILES IDX 36 69 41 70 37 71 38 72 40 73 42 74 39 75 61 76 62 77 67 78
REMARK SMILES IDX 63 79 64 80 66 81 68 82 65 83 49 84 50 85 55 86 51 87 52 88
REMARK SMILES IDX 54 89 56 90 53 91
REMARK H PARENT 19 5 83 26 85 29 23 34 73 53 47 64
REMARK Flexibility Score: inf
ROOT
ATOM      1  C   UNL A   1      36.562  22.376  24.467  1.00  0.00     0.118 C 
ENDROOT
BRANCH   1   2
ATOM      2  N   UNL A   1      35.724  22.513  25.619  1.00  0.00    -0.352 N 
ATOM      3  C   UNL A   1      34.568  21.816  25.905  1.00  0.00     0.252 C 
ATOM      4  O   UNL A   1      34.121  21.969  27.048  1.00  0.00    -0.269 OA
ATOM      5  H   UNL A   1      36.005  23.182  26.283  1.00  0.00     0.163 HD
BRANCH   3   6
ATOM      6  C   UNL A   1      33.763  20.985  24.928  1.00  0.00     0.050 A 
ATOM      7  C   UNL A   1      32.745  21.357  24.017  1.00  0.00     0.030 A 
ATOM      8  C   UNL A   1      32.134  20.360  23.218  1.00  0.00     0.013 A 
ATOM      9  C   UNL A   1      32.538  19.029  23.264  1.00  0.00     0.001 A 
ATOM     10  C   UNL A   1      34.154  19.622  24.943  1.00  0.00     0.014 A 
ATOM     11  C   UNL A   1      33.560  18.660  24.121  1.00  0.00     0.001 A 
BRANCH   7  12
ATOM     12  C   UNL A   1      32.254  22.702  23.770  1.00  0.00     0.135 A 
ATOM     13  C   UNL A   1      32.632  24.873  23.421  1.00  0.00     0.128 A 
ATOM     14  C   UNL A   1      31.276  24.625  23.219  1.00  0.00     0.051 A 
ATOM     15  O   UNL A   1      33.214  23.680  23.781  1.00  0.00    -0.457 OA
ATOM     16  C   UNL A   1      31.029  23.256  23.490  1.00  0.00     0.051 A 
BRANCH  13  17
ATOM     17  C   UNL A   1      33.360  26.086  23.244  1.00  0.00     0.071 C 
ATOM     18  C   UNL A   1      31.582  27.782  27.317  1.00  0.00     0.301 C 
ATOM     19  N   UNL A   1      32.457  27.985  26.171  1.00  0.00    -0.189 N 
ATOM     20  C   UNL A   1      32.877  26.839  25.544  1.00  0.00     0.349 C 
ATOM     21  C   UNL A   1      33.036  29.173  25.811  1.00  0.00     0.318 C 
ATOM     22  O   UNL A   1      32.867  25.741  26.094  1.00  0.00    -0.240 OA
ATOM     23  C   UNL A   1      33.408  27.046  24.186  1.00  0.00     0.157 C 
ATOM     24  N   UNL A   1      33.760  29.367  24.769  1.00  0.00    -0.200 N 
ATOM     25  C   UNL A   1      33.948  28.380  23.836  1.00  0.00     0.347 C 
ATOM     26  H   UNL A   1      34.189  30.243  24.637  1.00  0.00     0.316 HD
ATOM     27  O   UNL A   1      34.490  28.589  22.764  1.00  0.00    -0.241 OA
BRANCH  21  28
ATOM     28  S   UNL A   1      32.833  30.542  26.880  1.00  0.00    -0.055 SA
ATOM     29  H   UNL A   1      31.727  30.354  27.650  1.00  0.00     0.116 HD
ENDBRANCH  21  28
ENDBRANCH  13  17
ENDBRANCH   7  12
ENDBRANCH   3   6
ENDBRANCH   1   2
BRANCH   1  30
ATOM     30  C   UNL A   1      37.574  21.261  24.409  1.00  0.00     0.042 C 
BRANCH  30  31
ATOM     31  C   UNL A   1      38.230  20.884  25.728  1.00  0.00     0.118 C 
BRANCH  31  32
ATOM     32  N   UNL A   1      39.276  19.860  25.646  1.00  0.00    -0.352 N 
ATOM     33  C   UNL A   1      40.618  19.841  25.962  1.00  0.00     0.251 C 
ATOM     34  H   UNL A   1      38.950  19.002  25.291  1.00  0.00     0.163 HD
ATOM     35  O   UNL A   1      41.274  18.837  25.685  1.00  0.00    -0.269 OA
BRANCH  33  36
ATOM     36  C   UNL A   1      41.305  21.010  26.563  1.00  0.00     0.039 A 
ATOM     37  C   UNL A   1      41.940  21.941  25.732  1.00  0.00     0.014 A 
ATOM     38  C   UNL A   1      41.321  21.220  27.936  1.00  0.00     0.014 A 
ATOM     39  C   UNL A   1      42.459  23.124  26.271  1.00  0.00     0.010 A 
ATOM     40  C   UNL A   1      41.668  22.462  28.445  1.00  0.00     0.010 A 
ATOM     41  C   UNL A   1      42.257  23.431  27.624  1.00  0.00    -0.014 A 
BRANCH  41  42
ATOM     42  C   UNL A   1      42.665  24.729  28.227  1.00  0.00     0.031 A 
ATOM     43  C   UNL A   1      41.634  25.808  28.457  1.00  0.00     0.074 A 
ATOM     44  C   UNL A   1      43.968  24.981  28.468  1.00  0.00     0.049 A 
ATOM     45  N   UNL A   1      41.802  27.057  28.818  1.00  0.00    -0.248 NA
ATOM     46  C   UNL A   1      40.227  25.453  28.198  1.00  0.00     0.031 C 
ATOM     47  C   UNL A   1      45.075  24.050  28.234  1.00  0.00     0.029 A 
ATOM     48  N   UNL A   1      44.585  26.108  28.955  1.00  0.00    -0.354 N 
ATOM     49  C   UNL A   1      40.536  27.630  28.794  1.00  0.00     0.074 A 
ATOM     50  C   UNL A   1      39.622  26.624  28.307  1.00  0.00     0.031 C 
ATOM     51  C   UNL A   1      46.226  24.628  28.613  1.00  0.00     0.029 A 
ATOM     52  C   UNL A   1      45.950  25.986  29.066  1.00  0.00     0.049 A 
ATOM     53  H   UNL A   1      44.095  26.925  29.203  1.00  0.00     0.167 HD
ATOM     54  C   UNL A   1      40.158  28.872  29.181  1.00  0.00     0.037 A 
ATOM     55  C   UNL A   1      46.874  26.874  29.478  1.00  0.00     0.037 A 
ATOM     56  C   UNL A   1      41.062  29.855  29.713  1.00  0.00     0.049 A 
ATOM     57  C   UNL A   1      46.429  28.246  29.907  1.00  0.00     0.074 A 
ATOM     58  C   UNL A   1      40.774  31.121  30.194  1.00  0.00     0.029 A 
ATOM     59  N   UNL A   1      42.430  29.676  29.845  1.00  0.00    -0.354 N 
ATOM     60  N   UNL A   1      45.220  28.752  29.938  1.00  0.00    -0.248 NA
ATOM     61  C   UNL A   1      47.477  29.168  30.365  1.00  0.00     0.031 C 
ATOM     62  C   UNL A   1      41.976  31.723  30.575  1.00  0.00     0.029 A 
ATOM     63  C   UNL A   1      43.003  30.814  30.386  1.00  0.00     0.049 A 
ATOM     64  H   UNL A   1      42.921  28.861  29.591  1.00  0.00     0.167 HD
ATOM     65  C   UNL A   1      45.357  30.034  30.455  1.00  0.00     0.074 A 
ATOM     66  C   UNL A   1      46.766  30.223  30.734  1.00  0.00     0.031 C 
ATOM     67  C   UNL A   1      44.404  30.972  30.679  1.00  0.00     0.037 A 
BRANCH  54  68
ATOM     68  C   UNL A   1      38.701  29.225  29.065  1.00  0.00     0.057 A 
ATOM     69  C   UNL A   1      37.839  29.181  30.170  1.00  0.00     0.134 A 
ATOM     70  C   UNL A   1      38.160  29.646  27.844  1.00  0.00     0.134 A 
ATOM     71  F   UNL A   1      38.288  28.773  31.367  1.00  0.00    -0.206 F 
ATOM     72  C   UNL A   1      36.488  29.513  30.058  1.00  0.00     0.040 A 
ATOM     73  C   UNL A   1      36.817  30.013  27.727  1.00  0.00     0.040 A 
ATOM     74  F   UNL A   1      38.927  29.719  26.745  1.00  0.00    -0.206 F 
ATOM     75  C   UNL A   1      35.976  29.938  28.835  1.00  0.00     0.006 A 
ENDBRANCH  54  68
BRANCH  55  76
ATOM     76  C   UNL A   1      48.310  26.493  29.534  1.00  0.00     0.057 A 
ATOM     77  C   UNL A   1      48.848  25.878  30.672  1.00  0.00     0.134 A 
ATOM     78  C   UNL A   1      49.185  26.754  28.473  1.00  0.00     0.134 A 
ATOM     79  F   UNL A   1      48.066  25.618  31.731  1.00  0.00    -0.206 F 
ATOM     80  C   UNL A   1      50.205  25.565  30.766  1.00  0.00     0.040 A 
ATOM     81  C   UNL A   1      50.538  26.419  28.541  1.00  0.00     0.040 A 
ATOM     82  F   UNL A   1      48.736  27.336  27.351  1.00  0.00    -0.206 F 
ATOM     83  C   UNL A   1      51.054  25.834  29.695  1.00  0.00     0.006 A 
ENDBRANCH  55  76
BRANCH  67  84
ATOM     84  C   UNL A   1      44.842  32.262  31.308  1.00  0.00     0.057 A 
ATOM     85  C   UNL A   1      45.229  33.370  30.543  1.00  0.00     0.134 A 
ATOM     86  C   UNL A   1      44.833  32.407  32.701  1.00  0.00     0.134 A 
ATOM     87  F   UNL A   1      45.270  33.292  29.205  1.00  0.00    -0.206 F 
ATOM     88  C   UNL A   1      45.616  34.568  31.145  1.00  0.00     0.040 A 
ATOM     89  C   UNL A   1      45.187  33.611  33.311  1.00  0.00     0.040 A 
ATOM     90  F   UNL A   1      44.461  31.389  33.491  1.00  0.00    -0.206 F 
ATOM     91  C   UNL A   1      45.588  34.694  32.533  1.00  0.00     0.006 A 
ENDBRANCH  67  84
ENDBRANCH  41  42
ENDBRANCH  33  36
ENDBRANCH  31  32
ENDBRANCH  30  31
ENDBRANCH   1  30
TORSDOF 13
ENDMDL
MODEL 3
REMARK VINA RESULT:     -12.5      3.560      4.831
REMARK SMILES CN1C(=O)/C(=C\c2ccc(-c3ccccc3C(=O)NCCCNC(=O)c3ccc(-c4c5nc(c(-c6c(F)cccc6F)c6ccc([nH]6)c(-c6c(F)cccc6F)c6nc(c(-c7c(F)cccc7F)c7ccc4[nH]7)C=C6)C=C5)cc3)o2)C(=O)[NH+]=C1S
REMARK SMILES IDX 20 1 19 2 17 3 18 4 16 6 11 7 12 8 13 9 15 10 14 11 10 12
REMARK SMILES IDX 7 13 8 14 80 15 9 16 6 17 1 18 2 19 3 20 84 21 4 22 5 23
REMARK SMILES IDX 83 24 81 25 82 27 85 28 21 30 22 31 23 32 24 33 25 35 26 36
REMARK SMILES IDX 27 37 79 38 28 39 78 40 29 41 30 42 31 43 72 44 32 45 77 46
REMARK SMILES IDX 71 47 73 48 33 49 76 50 70 51 69 52 34 54 60 55 43 56 59 57
REMARK SMILES IDX 44 58 47 59 58 60 74 61 45 62 46 63 57 65 75 66 48 67 35 68
REMARK SMILES IDX 36 69 41 70 37 71 38 72 40 73 42 74 39 75 61 76 62 77 67 78
REMARK SMILES IDX 63 79 64 80 66 81 68 82 65 83 49 84 50 85 55 86 51 87 52 88
REMARK SMILES IDX 54 89 56 90 53 91
REMARK H PARENT 19 5 83 26 85 29 23 34 73 53 47 64
REMARK Flexibility Score: inf
ROOT
ATOM      1  C   UNL A   1      31.782  30.139  26.833  1.00  0.00     0.118 C 
ENDROOT
BRANCH   1   2
ATOM      2  N   UNL A   1      32.713  29.765  25.813  1.00  0.00    -0.352 N 
ATOM      3  C   UNL A   1      32.430  29.275  24.555  1.00  0.00     0.252 C 
ATOM      4  O   UNL A   1      33.390  29.205  23.779  1.00  0.00    -0.269 OA
ATOM      5  H   UNL A   1      33.666  29.870  26.035  1.00  0.00     0.163 HD
BRANCH   3   6
ATOM      6  C   UNL A   1      31.095  28.728  24.091  1.00  0.00     0.050 A 
ATOM      7  C   UNL A   1      30.492  27.463  24.295  1.00  0.00     0.030 A 
ATOM      8  C   UNL A   1      29.222  27.202  23.726  1.00  0.00     0.013 A 
ATOM      9  C   UNL A   1      28.523  28.171  23.011  1.00  0.00     0.001 A 
ATOM     10  C   UNL A   1      30.351  29.692  23.364  1.00  0.00     0.014 A 
ATOM     11  C   UNL A   1      29.084  29.423  22.839  1.00  0.00     0.001 A 
BRANCH   7  12
ATOM     12  C   UNL A   1      31.031  26.365  25.080  1.00  0.00     0.135 A 
ATOM     13  C   UNL A   1      32.737  25.054  25.670  1.00  0.00     0.128 A 
ATOM     14  C   UNL A   1      31.661  24.781  26.512  1.00  0.00     0.051 A 
ATOM     15  O   UNL A   1      32.322  26.017  24.780  1.00  0.00    -0.457 OA
ATOM     16  C   UNL A   1      30.563  25.578  26.104  1.00  0.00     0.051 A 
BRANCH  13  17
ATOM     17  C   UNL A   1      34.061  24.527  25.705  1.00  0.00     0.071 C 
ATOM     18  C   UNL A   1      32.424  20.254  24.405  1.00  0.00     0.301 C 
ATOM     19  N   UNL A   1      33.569  21.089  24.740  1.00  0.00    -0.189 N 
ATOM     20  C   UNL A   1      33.376  22.439  24.582  1.00  0.00     0.349 C 
ATOM     21  C   UNL A   1      34.838  20.639  24.991  1.00  0.00     0.318 C 
ATOM     22  O   UNL A   1      32.493  22.902  23.864  1.00  0.00    -0.240 OA
ATOM     23  C   UNL A   1      34.356  23.282  25.286  1.00  0.00     0.157 C 
ATOM     24  N   UNL A   1      35.834  21.368  25.342  1.00  0.00    -0.200 N 
ATOM     25  C   UNL A   1      35.685  22.707  25.598  1.00  0.00     0.347 C 
ATOM     26  H   UNL A   1      36.724  20.958  25.431  1.00  0.00     0.316 HD
ATOM     27  O   UNL A   1      36.574  23.382  26.090  1.00  0.00    -0.241 OA
BRANCH  21  28
ATOM     28  S   UNL A   1      35.165  18.937  24.762  1.00  0.00    -0.055 SA
ATOM     29  H   UNL A   1      34.764  18.247  25.863  1.00  0.00     0.116 HD
ENDBRANCH  21  28
ENDBRANCH  13  17
ENDBRANCH   7  12
ENDBRANCH   3   6
ENDBRANCH   1   2
BRANCH   1  30
ATOM     30  C   UNL A   1      31.181  31.521  26.826  1.00  0.00     0.042 C 
BRANCH  30  31
ATOM     31  C   UNL A   1      32.090  32.642  26.349  1.00  0.00     0.118 C 
BRANCH  31  32
ATOM     32  N   UNL A   1      32.162  33.816  27.225  1.00  0.00    -0.352 N 
ATOM     33  C   UNL A   1      33.035  34.216  28.214  1.00  0.00     0.251 C 
ATOM     34  H   UNL A   1      31.429  34.456  27.073  1.00  0.00     0.163 HD
ATOM     35  O   UNL A   1      32.772  35.233  28.856  1.00  0.00    -0.269 OA
BRANCH  33  36
ATOM     36  C   UNL A   1      34.241  33.429  28.569  1.00  0.00     0.039 A 
ATOM     37  C   UNL A   1      35.482  34.070  28.663  1.00  0.00     0.014 A 
ATOM     38  C   UNL A   1      34.172  32.067  28.832  1.00  0.00     0.014 A 
ATOM     39  C   UNL A   1      36.598  33.375  29.143  1.00  0.00     0.010 A 
ATOM     40  C   UNL A   1      35.222  31.428  29.474  1.00  0.00     0.010 A 
ATOM     41  C   UNL A   1      36.459  32.066  29.628  1.00  0.00    -0.014 A 
BRANCH  41  42
ATOM     42  C   UNL A   1      37.574  31.322  30.273  1.00  0.00     0.031 A 
ATOM     43  C   UNL A   1      37.919  31.589  31.719  1.00  0.00     0.074 A 
ATOM     44  C   UNL A   1      38.342  30.489  29.541  1.00  0.00     0.049 A 
ATOM     45  N   UNL A   1      38.944  31.172  32.421  1.00  0.00    -0.248 NA
ATOM     46  C   UNL A   1      37.020  32.487  32.464  1.00  0.00     0.031 C 
ATOM     47  C   UNL A   1      38.158  30.187  28.118  1.00  0.00     0.029 A 
ATOM     48  N   UNL A   1      39.445  29.750  29.892  1.00  0.00    -0.354 N 
ATOM     49  C   UNL A   1      38.824  31.781  33.663  1.00  0.00     0.074 A 
ATOM     50  C   UNL A   1      37.678  32.659  33.599  1.00  0.00     0.031 C 
ATOM     51  C   UNL A   1      39.088  29.300  27.731  1.00  0.00     0.029 A 
ATOM     52  C   UNL A   1      39.966  29.010  28.858  1.00  0.00     0.049 A 
ATOM     53  H   UNL A   1      39.826  29.750  30.800  1.00  0.00     0.167 HD
ATOM     54  C   UNL A   1      39.574  31.599  34.776  1.00  0.00     0.037 A 
ATOM     55  C   UNL A   1      41.038  28.195  28.821  1.00  0.00     0.037 A 
ATOM     56  C   UNL A   1      40.683  30.687  34.854  1.00  0.00     0.049 A 
ATOM     57  C   UNL A   1      41.854  28.005  30.071  1.00  0.00     0.074 A 
ATOM     58  C   UNL A   1      41.471  30.379  35.949  1.00  0.00     0.029 A 
ATOM     59  N   UNL A   1      41.152  29.927  33.794  1.00  0.00    -0.354 N 
ATOM     60  N   UNL A   1      41.690  28.542  31.257  1.00  0.00    -0.248 NA
ATOM     61  C   UNL A   1      43.001  27.091  29.980  1.00  0.00     0.031 C 
ATOM     62  C   UNL A   1      42.446  29.465  35.539  1.00  0.00     0.029 A 
ATOM     63  C   UNL A   1      42.229  29.162  34.204  1.00  0.00     0.049 A 
ATOM     64  H   UNL A   1      40.775  29.932  32.883  1.00  0.00     0.167 HD
ATOM     65  C   UNL A   1      42.685  28.001  32.061  1.00  0.00     0.074 A 
ATOM     66  C   UNL A   1      43.441  27.086  31.230  1.00  0.00     0.031 C 
ATOM     67  C   UNL A   1      42.952  28.238  33.368  1.00  0.00     0.037 A 
BRANCH  54  68
ATOM     68  C   UNL A   1      39.204  32.385  36.003  1.00  0.00     0.057 A 
ATOM     69  C   UNL A   1      38.318  31.878  36.966  1.00  0.00     0.134 A 
ATOM     70  C   UNL A   1      39.763  33.646  36.244  1.00  0.00     0.134 A 
ATOM     71  F   UNL A   1      37.735  30.682  36.792  1.00  0.00    -0.206 F 
ATOM     72  C   UNL A   1      37.980  32.609  38.106  1.00  0.00     0.040 A 
ATOM     73  C   UNL A   1      39.457  34.372  37.398  1.00  0.00     0.040 A 
ATOM     74  F   UNL A   1      40.622  34.190  35.370  1.00  0.00    -0.206 F 
ATOM     75  C   UNL A   1      38.557  33.857  38.328  1.00  0.00     0.006 A 
ENDBRANCH  54  68
BRANCH  55  76
ATOM     76  C   UNL A   1      41.392  27.474  27.571  1.00  0.00     0.057 A 
ATOM     77  C   UNL A   1      40.939  26.168  27.341  1.00  0.00     0.134 A 
ATOM     78  C   UNL A   1      42.206  28.051  26.590  1.00  0.00     0.134 A 
ATOM     79  F   UNL A   1      40.170  25.550  28.251  1.00  0.00    -0.206 F 
ATOM     80  C   UNL A   1      41.307  25.453  26.200  1.00  0.00     0.040 A 
ATOM     81  C   UNL A   1      42.558  27.359  25.430  1.00  0.00     0.040 A 
ATOM     82  F   UNL A   1      42.669  29.300  26.743  1.00  0.00    -0.206 F 
ATOM     83  C   UNL A   1      42.118  26.051  25.238  1.00  0.00     0.006 A 
ENDBRANCH  55  76
BRANCH  67  84
ATOM     84  C   UNL A   1      44.067  27.456  33.997  1.00  0.00     0.057 A 
ATOM     85  C   UNL A   1      43.862  26.194  34.568  1.00  0.00     0.134 A 
ATOM     86  C   UNL A   1      45.375  27.959  33.989  1.00  0.00     0.134 A 
ATOM     87  F   UNL A   1      42.632  25.661  34.617  1.00  0.00    -0.206 F 
ATOM     88  C   UNL A   1      44.914  25.472  35.132  1.00  0.00     0.040 A 
ATOM     89  C   UNL A   1      46.439  27.232  34.522  1.00  0.00     0.040 A 
ATOM     90  F   UNL A   1      45.642  29.157  33.447  1.00  0.00    -0.206 F 
ATOM     91  C   UNL A   1      46.209  25.987  35.102  1.00  0.00     0.006 A 
ENDBRANCH  67  84
ENDBRANCH  41  42
ENDBRANCH  33  36
ENDBRANCH  31  32
ENDBRANCH  30  31
ENDBRANCH   1  30
TORSDOF 13
ENDMDL
