MODEL 1
REMARK VINA RESULT:     -13.2      0.000      0.000
REMARK SMILES O=C(NCCCNC(=O)c1ccc(-c2c3nc(c(-c4c(F)cccc4F)c4ccc([nH]4)c(-c4c(F)cccc4F)c4nc(c(-c5c(F)cccc5F)c5ccc2[nH]5)C=C4)C=C3)cc1)C1=Cc2cc(S(F)(F)(F)(F)F)ccc2O[C@@H]1C(F)(F)F
REMARK SMILES IDX 5 1 4 2 3 3 1 4 2 5 64 7 65 8 79 9 66 10 78 11 67 12 77 13
REMARK SMILES IDX 68 14 76 15 75 16 80 17 81 18 82 19 83 20 69 21 70 22 71 23
REMARK SMILES IDX 72 24 73 25 74 26 6 27 7 28 8 29 9 31 10 32 11 33 63 34
REMARK SMILES IDX 12 35 62 36 13 37 14 38 15 39 56 40 16 41 61 42 55 43 57 44
REMARK SMILES IDX 17 45 60 46 54 47 53 48 18 50 44 51 27 52 43 53 28 54 31 55
REMARK SMILES IDX 42 56 58 57 29 58 30 59 41 61 59 62 32 63 19 64 20 65 25 66
REMARK SMILES IDX 21 67 22 68 24 69 26 70 23 71 45 72 46 73 51 74 47 75 48 76
REMARK SMILES IDX 50 77 52 78 49 79 33 80 34 81 39 82 35 83 36 84 38 85 40 86
REMARK SMILES IDX 37 87
REMARK H PARENT 3 6 7 30 57 49 31 60
REMARK Flexibility Score: inf
ROOT
ATOM      1  C   UNL A   1      34.059  29.872  27.017  1.00  0.00     0.042 C 
ENDROOT
BRANCH   1   2
ATOM      2  C   UNL A   1      33.990  28.380  26.736  1.00  0.00     0.118 C 
BRANCH   2   3
ATOM      3  N   UNL A   1      32.747  27.832  27.300  1.00  0.00    -0.352 N 
ATOM      4  O   UNL A   1      30.671  26.748  26.903  1.00  0.00    -0.270 OA
ATOM      5  C   UNL A   1      31.745  27.221  26.415  1.00  0.00     0.251 C 
ATOM      6  H   UNL A   1      32.587  27.874  28.271  1.00  0.00     0.163 HD
BRANCH   5   7
ATOM      7  C   UNL A   1      31.991  27.156  24.917  1.00  0.00     0.067 C 
ATOM      8  C   UNL A   1      32.811  26.199  24.404  1.00  0.00     0.025 C 
ATOM      9  C   UNL A   1      31.322  28.159  23.992  1.00  0.00     0.314 C 
ATOM     10  C   UNL A   1      33.480  25.196  25.328  1.00  0.00     0.019 A 
ATOM     11  O   UNL A   1      31.453  25.144  26.568  1.00  0.00    -0.475 OA
ATOM     12  C   UNL A   1      34.799  24.823  25.124  1.00  0.00     0.036 A 
ATOM     13  C   UNL A   1      32.745  24.629  26.278  1.00  0.00     0.128 A 
ATOM     14  C   UNL A   1      35.167  23.629  25.787  1.00  0.00     0.107 A 
ATOM     15  C   UNL A   1      33.221  23.550  26.982  1.00  0.00     0.048 A 
ATOM     16  C   UNL A   1      34.494  23.090  26.788  1.00  0.00     0.028 A 
BRANCH   9  17
ATOM     17  C   UNL A   1      30.445  27.421  22.994  1.00  0.00     0.429 C 
ATOM     18  F   UNL A   1      29.588  28.275  22.440  1.00  0.00    -0.167 F 
ATOM     19  F   UNL A   1      31.207  26.881  22.047  1.00  0.00    -0.167 F 
ATOM     20  F   UNL A   1      29.772  26.461  23.620  1.00  0.00    -0.167 F 
ENDBRANCH   9  17
BRANCH  14  21
ATOM     21  S   UNL A   1      36.664  22.782  25.227  1.00  0.00     0.310 S 
ATOM     22  F   UNL A   1      36.825  23.754  23.984  1.00  0.00    -0.094 F 
ATOM     23  F   UNL A   1      35.768  21.867  24.310  1.00  0.00    -0.094 F 
ATOM     24  F   UNL A   1      37.951  22.052  24.744  1.00  0.00    -0.094 F 
ATOM     25  F   UNL A   1      37.558  23.798  26.043  1.00  0.00    -0.094 F 
ATOM     26  F   UNL A   1      35.379  23.604  25.637  1.00  0.00    -0.094 F 
ENDBRANCH  14  21
ENDBRANCH   5   7
ENDBRANCH   2   3
ENDBRANCH   1   2
BRANCH   1  27
ATOM     27  C   UNL A   1      35.363  30.193  27.728  1.00  0.00     0.118 C 
BRANCH  27  28
ATOM     28  N   UNL A   1      35.076  30.700  29.078  1.00  0.00    -0.352 N 
ATOM     29  C   UNL A   1      36.137  30.726  30.095  1.00  0.00     0.251 C 
ATOM     30  H   UNL A   1      34.172  31.020  29.300  1.00  0.00     0.163 HD
ATOM     31  O   UNL A   1      35.887  31.164  31.261  1.00  0.00    -0.269 OA
BRANCH  29  32
ATOM     32  C   UNL A   1      37.532  30.231  29.751  1.00  0.00     0.039 A 
ATOM     33  C   UNL A   1      37.992  30.405  28.456  1.00  0.00     0.014 A 
ATOM     34  C   UNL A   1      38.286  29.651  30.677  1.00  0.00     0.014 A 
ATOM     35  C   UNL A   1      39.162  29.667  28.159  1.00  0.00     0.010 A 
ATOM     36  C   UNL A   1      39.484  29.069  30.340  1.00  0.00     0.010 A 
ATOM     37  C   UNL A   1      39.972  29.151  29.066  1.00  0.00    -0.014 A 
BRANCH  37  38
ATOM     38  C   UNL A   1      41.370  28.672  28.711  1.00  0.00     0.031 A 
ATOM     39  C   UNL A   1      41.531  27.324  28.388  1.00  0.00     0.074 A 
ATOM     40  C   UNL A   1      42.403  29.593  28.727  1.00  0.00     0.049 A 
ATOM     41  N   UNL A   1      42.653  26.704  28.019  1.00  0.00    -0.248 NA
ATOM     42  C   UNL A   1      40.442  26.336  28.405  1.00  0.00     0.031 C 
ATOM     43  C   UNL A   1      42.246  30.957  29.042  1.00  0.00     0.029 A 
ATOM     44  N   UNL A   1      43.734  29.374  28.449  1.00  0.00    -0.354 N 
ATOM     45  C   UNL A   1      42.408  25.414  27.774  1.00  0.00     0.074 A 
ATOM     46  C   UNL A   1      40.984  25.158  28.025  1.00  0.00     0.031 C 
ATOM     47  C   UNL A   1      43.467  31.549  28.968  1.00  0.00     0.029 A 
ATOM     48  C   UNL A   1      44.407  30.567  28.603  1.00  0.00     0.049 A 
ATOM     49  H   UNL A   1      44.136  28.515  28.186  1.00  0.00     0.167 HD
ATOM     50  C   UNL A   1      43.317  24.444  27.351  1.00  0.00     0.037 A 
ATOM     51  C   UNL A   1      45.764  30.803  28.443  1.00  0.00     0.037 A 
ATOM     52  C   UNL A   1      44.667  24.690  27.147  1.00  0.00     0.049 A 
ATOM     53  C   UNL A   1      46.684  29.818  28.076  1.00  0.00     0.074 A 
ATOM     54  C   UNL A   1      45.595  23.724  26.712  1.00  0.00     0.029 A 
ATOM     55  N   UNL A   1      45.343  25.876  27.326  1.00  0.00    -0.354 N 
ATOM     56  N   UNL A   1      46.432  28.538  27.793  1.00  0.00    -0.248 NA
ATOM     57  C   UNL A   1      48.126  30.049  27.934  1.00  0.00     0.031 C 
ATOM     58  C   UNL A   1      46.816  24.318  26.639  1.00  0.00     0.029 A 
ATOM     59  C   UNL A   1      46.671  25.663  27.027  1.00  0.00     0.049 A 
ATOM     60  H   UNL A   1      44.947  26.728  27.616  1.00  0.00     0.167 HD
ATOM     61  C   UNL A   1      47.562  27.910  27.463  1.00  0.00     0.074 A 
ATOM     62  C   UNL A   1      48.670  28.870  27.556  1.00  0.00     0.031 C 
ATOM     63  C   UNL A   1      47.713  26.575  27.085  1.00  0.00     0.037 A 
BRANCH  50  64
ATOM     64  C   UNL A   1      42.799  23.038  27.096  1.00  0.00     0.057 A 
ATOM     65  C   UNL A   1      42.461  22.669  25.805  1.00  0.00     0.134 A 
ATOM     66  C   UNL A   1      42.649  22.198  28.114  1.00  0.00     0.134 A 
ATOM     67  F   UNL A   1      42.823  23.368  24.732  1.00  0.00    -0.206 F 
ATOM     68  C   UNL A   1      41.695  21.482  25.730  1.00  0.00     0.040 A 
ATOM     69  C   UNL A   1      42.009  20.994  27.939  1.00  0.00     0.040 A 
ATOM     70  F   UNL A   1      43.121  22.526  29.314  1.00  0.00    -0.206 F 
ATOM     71  C   UNL A   1      41.596  20.592  26.700  1.00  0.00     0.006 A 
ENDBRANCH  50  64
BRANCH  51  72
ATOM     72  C   UNL A   1      46.278  32.212  28.681  1.00  0.00     0.057 A 
ATOM     73  C   UNL A   1      46.708  32.562  29.952  1.00  0.00     0.134 A 
ATOM     74  C   UNL A   1      46.337  33.075  27.672  1.00  0.00     0.134 A 
ATOM     75  F   UNL A   1      46.905  31.672  30.921  1.00  0.00    -0.206 F 
ATOM     76  C   UNL A   1      46.918  33.950  30.124  1.00  0.00     0.040 A 
ATOM     77  C   UNL A   1      46.682  34.386  27.893  1.00  0.00     0.040 A 
ATOM     78  F   UNL A   1      46.060  32.664  26.439  1.00  0.00    -0.206 F 
ATOM     79  C   UNL A   1      47.060  34.814  29.136  1.00  0.00     0.006 A 
ENDBRANCH  51  72
BRANCH  63  80
ATOM     80  C   UNL A   1      49.106  26.092  26.712  1.00  0.00     0.057 A 
ATOM     81  C   UNL A   1      49.841  25.407  27.666  1.00  0.00     0.134 A 
ATOM     82  C   UNL A   1      49.595  26.323  25.499  1.00  0.00     0.134 A 
ATOM     83  F   UNL A   1      49.310  24.934  28.791  1.00  0.00    -0.206 F 
ATOM     84  C   UNL A   1      51.208  25.254  27.334  1.00  0.00     0.040 A 
ATOM     85  C   UNL A   1      50.903  26.022  25.204  1.00  0.00     0.040 A 
ATOM     86  F   UNL A   1      48.811  26.848  24.562  1.00  0.00    -0.206 F 
ATOM     87  C   UNL A   1      51.704  25.399  26.118  1.00  0.00     0.006 A 
ENDBRANCH  63  80
ENDBRANCH  37  38
ENDBRANCH  29  32
ENDBRANCH  27  28
ENDBRANCH   1  27
TORSDOF 12
ENDMDL
MODEL 2
REMARK VINA RESULT:     -13.1      0.668      6.146
REMARK SMILES O=C(NCCCNC(=O)c1ccc(-c2c3nc(c(-c4c(F)cccc4F)c4ccc([nH]4)c(-c4c(F)cccc4F)c4nc(c(-c5c(F)cccc5F)c5ccc2[nH]5)C=C4)C=C3)cc1)C1=Cc2cc(S(F)(F)(F)(F)F)ccc2O[C@@H]1C(F)(F)F
REMARK SMILES IDX 5 1 4 2 3 3 1 4 2 5 64 7 65 8 79 9 66 10 78 11 67 12 77 13
REMARK SMILES IDX 68 14 76 15 75 16 80 17 81 18 82 19 83 20 69 21 70 22 71 23
REMARK SMILES IDX 72 24 73 25 74 26 6 27 7 28 8 29 9 31 10 32 11 33 63 34
REMARK SMILES IDX 12 35 62 36 13 37 14 38 15 39 56 40 16 41 61 42 55 43 57 44
REMARK SMILES IDX 17 45 60 46 54 47 53 48 18 50 44 51 27 52 43 53 28 54 31 55
REMARK SMILES IDX 42 56 58 57 29 58 30 59 41 61 59 62 32 63 19 64 20 65 25 66
REMARK SMILES IDX 21 67 22 68 24 69 26 70 23 71 45 72 46 73 51 74 47 75 48 76
REMARK SMILES IDX 50 77 52 78 49 79 33 80 34 81 39 82 35 83 36 84 38 85 40 86
REMARK SMILES IDX 37 87
REMARK H PARENT 3 6 7 30 57 49 31 60
REMARK Flexibility Score: inf
ROOT
ATOM      1  C   UNL A   1      34.361  30.459  27.191  1.00  0.00     0.042 C 
ENDROOT
BRANCH   1   2
ATOM      2  C   UNL A   1      34.382  28.947  27.035  1.00  0.00     0.118 C 
BRANCH   2   3
ATOM      3  N   UNL A   1      33.190  28.371  27.676  1.00  0.00    -0.352 N 
ATOM      4  O   UNL A   1      30.989  27.516  27.417  1.00  0.00    -0.270 OA
ATOM      5  C   UNL A   1      32.019  28.013  26.862  1.00  0.00     0.251 C 
ATOM      6  H   UNL A   1      33.177  28.226  28.650  1.00  0.00     0.163 HD
BRANCH   5   7
ATOM      7  C   UNL A   1      32.039  28.237  25.360  1.00  0.00     0.067 C 
ATOM      8  C   UNL A   1      32.612  27.313  24.542  1.00  0.00     0.025 C 
ATOM      9  C   UNL A   1      31.420  29.493  24.770  1.00  0.00     0.314 C 
ATOM     10  C   UNL A   1      33.231  26.056  25.131  1.00  0.00     0.019 A 
ATOM     11  O   UNL A   1      31.416  26.008  26.666  1.00  0.00    -0.475 OA
ATOM     12  C   UNL A   1      34.429  25.566  24.637  1.00  0.00     0.036 A 
ATOM     13  C   UNL A   1      32.553  25.402  26.067  1.00  0.00     0.128 A 
ATOM     14  C   UNL A   1      34.686  24.220  24.989  1.00  0.00     0.107 A 
ATOM     15  C   UNL A   1      32.940  24.144  26.462  1.00  0.00     0.048 A 
ATOM     16  C   UNL A   1      34.081  23.573  25.970  1.00  0.00     0.028 A 
BRANCH   9  17
ATOM     17  C   UNL A   1      30.303  29.107  23.815  1.00  0.00     0.429 C 
ATOM     18  F   UNL A   1      29.373  30.058  23.812  1.00  0.00    -0.167 F 
ATOM     19  F   UNL A   1      30.796  28.967  22.588  1.00  0.00    -0.167 F 
ATOM     20  F   UNL A   1      29.761  27.958  24.208  1.00  0.00    -0.167 F 
ENDBRANCH   9  17
BRANCH  14  21
ATOM     21  S   UNL A   1      35.931  23.322  24.031  1.00  0.00     0.310 S 
ATOM     22  F   UNL A   1      35.685  21.984  24.846  1.00  0.00    -0.094 F 
ATOM     23  F   UNL A   1      37.003  23.707  25.120  1.00  0.00    -0.094 F 
ATOM     24  F   UNL A   1      37.003  22.551  23.209  1.00  0.00    -0.094 F 
ATOM     25  F   UNL A   1      34.817  22.828  23.025  1.00  0.00    -0.094 F 
ATOM     26  F   UNL A   1      34.812  24.004  24.915  1.00  0.00    -0.094 F 
ENDBRANCH  14  21
ENDBRANCH   5   7
ENDBRANCH   2   3
ENDBRANCH   1   2
BRANCH   1  27
ATOM     27  C   UNL A   1      35.573  30.902  27.993  1.00  0.00     0.118 C 
BRANCH  27  28
ATOM     28  N   UNL A   1      35.213  31.000  29.415  1.00  0.00    -0.352 N 
ATOM     29  C   UNL A   1      36.194  30.641  30.448  1.00  0.00     0.251 C 
ATOM     30  H   UNL A   1      34.314  31.306  29.675  1.00  0.00     0.163 HD
ATOM     31  O   UNL A   1      35.882  30.726  31.677  1.00  0.00    -0.269 OA
BRANCH  29  32
ATOM     32  C   UNL A   1      37.582  30.170  30.047  1.00  0.00     0.039 A 
ATOM     33  C   UNL A   1      37.972  30.316  28.727  1.00  0.00     0.014 A 
ATOM     34  C   UNL A   1      38.397  29.636  30.950  1.00  0.00     0.014 A 
ATOM     35  C   UNL A   1      39.144  29.599  28.391  1.00  0.00     0.010 A 
ATOM     36  C   UNL A   1      39.591  29.073  30.568  1.00  0.00     0.010 A 
ATOM     37  C   UNL A   1      40.011  29.129  29.269  1.00  0.00    -0.014 A 
BRANCH  37  38
ATOM     38  C   UNL A   1      41.401  28.674  28.856  1.00  0.00     0.031 A 
ATOM     39  C   UNL A   1      42.423  29.625  28.858  1.00  0.00     0.074 A 
ATOM     40  C   UNL A   1      41.580  27.348  28.501  1.00  0.00     0.049 A 
ATOM     41  N   UNL A   1      43.711  29.437  28.566  1.00  0.00    -0.248 NA
ATOM     42  C   UNL A   1      42.230  31.042  29.200  1.00  0.00     0.031 C 
ATOM     43  C   UNL A   1      40.555  26.380  28.505  1.00  0.00     0.029 A 
ATOM     44  N   UNL A   1      42.741  26.731  28.091  1.00  0.00    -0.354 N 
ATOM     45  C   UNL A   1      44.385  30.581  28.697  1.00  0.00     0.074 A 
ATOM     46  C   UNL A   1      43.441  31.631  29.102  1.00  0.00     0.031 C 
ATOM     47  C   UNL A   1      41.089  25.201  28.092  1.00  0.00     0.029 A 
ATOM     48  C   UNL A   1      42.455  25.410  27.824  1.00  0.00     0.049 A 
ATOM     49  H   UNL A   1      43.623  27.160  28.003  1.00  0.00     0.167 HD
ATOM     50  C   UNL A   1      45.751  30.789  28.497  1.00  0.00     0.037 A 
ATOM     51  C   UNL A   1      43.323  24.429  27.368  1.00  0.00     0.037 A 
ATOM     52  C   UNL A   1      46.628  29.797  28.085  1.00  0.00     0.049 A 
ATOM     53  C   UNL A   1      44.678  24.652  27.112  1.00  0.00     0.074 A 
ATOM     54  C   UNL A   1      48.009  29.988  27.886  1.00  0.00     0.029 A 
ATOM     55  N   UNL A   1      46.336  28.483  27.794  1.00  0.00    -0.354 N 
ATOM     56  N   UNL A   1      45.360  25.786  27.282  1.00  0.00    -0.248 NA
ATOM     57  C   UNL A   1      45.599  23.629  26.600  1.00  0.00     0.031 C 
ATOM     58  C   UNL A   1      48.542  28.808  27.473  1.00  0.00     0.029 A 
ATOM     59  C   UNL A   1      47.502  27.860  27.405  1.00  0.00     0.049 A 
ATOM     60  H   UNL A   1      45.450  28.061  27.854  1.00  0.00     0.167 HD
ATOM     61  C   UNL A   1      46.640  25.606  26.950  1.00  0.00     0.074 A 
ATOM     62  C   UNL A   1      46.811  24.218  26.499  1.00  0.00     0.031 C 
ATOM     63  C   UNL A   1      47.673  26.543  27.008  1.00  0.00     0.037 A 
BRANCH  50  64
ATOM     64  C   UNL A   1      46.309  32.180  28.748  1.00  0.00     0.057 A 
ATOM     65  C   UNL A   1      46.755  32.508  30.017  1.00  0.00     0.134 A 
ATOM     66  C   UNL A   1      46.332  33.068  27.760  1.00  0.00     0.134 A 
ATOM     67  F   UNL A   1      46.988  31.600  30.961  1.00  0.00    -0.206 F 
ATOM     68  C   UNL A   1      46.940  33.895  30.220  1.00  0.00     0.040 A 
ATOM     69  C   UNL A   1      46.654  34.381  28.006  1.00  0.00     0.040 A 
ATOM     70  F   UNL A   1      46.040  32.681  26.521  1.00  0.00    -0.206 F 
ATOM     71  C   UNL A   1      47.048  34.786  29.251  1.00  0.00     0.006 A 
ENDBRANCH  50  64
BRANCH  51  72
ATOM     72  C   UNL A   1      42.768  23.035  27.135  1.00  0.00     0.057 A 
ATOM     73  C   UNL A   1      42.407  22.665  25.849  1.00  0.00     0.134 A 
ATOM     74  C   UNL A   1      42.663  22.185  28.150  1.00  0.00     0.134 A 
ATOM     75  F   UNL A   1      42.725  23.380  24.773  1.00  0.00    -0.206 F 
ATOM     76  C   UNL A   1      41.670  21.460  25.785  1.00  0.00     0.040 A 
ATOM     77  C   UNL A   1      42.050  20.966  27.983  1.00  0.00     0.040 A 
ATOM     78  F   UNL A   1      43.157  22.517  29.340  1.00  0.00    -0.206 F 
ATOM     79  C   UNL A   1      41.617  20.561  26.750  1.00  0.00     0.006 A 
ENDBRANCH  51  72
BRANCH  63  80
ATOM     80  C   UNL A   1      49.069  26.092  26.612  1.00  0.00     0.057 A 
ATOM     81  C   UNL A   1      49.834  25.421  27.553  1.00  0.00     0.134 A 
ATOM     82  C   UNL A   1      49.534  26.336  25.393  1.00  0.00     0.134 A 
ATOM     83  F   UNL A   1      49.331  24.935  28.685  1.00  0.00    -0.206 F 
ATOM     84  C   UNL A   1      51.199  25.299  27.199  1.00  0.00     0.040 A 
ATOM     85  C   UNL A   1      50.844  26.064  25.077  1.00  0.00     0.040 A 
ATOM     86  F   UNL A   1      48.725  26.845  24.469  1.00  0.00    -0.206 F 
ATOM     87  C   UNL A   1      51.673  25.457  25.977  1.00  0.00     0.006 A 
ENDBRANCH  63  80
ENDBRANCH  37  38
ENDBRANCH  29  32
ENDBRANCH  27  28
ENDBRANCH   1  27
TORSDOF 12
ENDMDL
MODEL 3
REMARK VINA RESULT:     -13.1      5.294      9.947
REMARK SMILES O=C(NCCCNC(=O)c1ccc(-c2c3nc(c(-c4c(F)cccc4F)c4ccc([nH]4)c(-c4c(F)cccc4F)c4nc(c(-c5c(F)cccc5F)c5ccc2[nH]5)C=C4)C=C3)cc1)C1=Cc2cc(S(F)(F)(F)(F)F)ccc2O[C@@H]1C(F)(F)F
REMARK SMILES IDX 5 1 4 2 3 3 1 4 2 5 64 7 65 8 79 9 66 10 78 11 67 12 77 13
REMARK SMILES IDX 68 14 76 15 75 16 80 17 81 18 82 19 83 20 69 21 70 22 71 23
REMARK SMILES IDX 72 24 73 25 74 26 6 27 7 28 8 29 9 31 10 32 11 33 63 34
REMARK SMILES IDX 12 35 62 36 13 37 14 38 15 39 56 40 16 41 61 42 55 43 57 44
REMARK SMILES IDX 17 45 60 46 54 47 53 48 18 50 44 51 27 52 43 53 28 54 31 55
REMARK SMILES IDX 42 56 58 57 29 58 30 59 41 61 59 62 32 63 19 64 20 65 25 66
REMARK SMILES IDX 21 67 22 68 24 69 26 70 23 71 45 72 46 73 51 74 47 75 48 76
REMARK SMILES IDX 50 77 52 78 49 79 33 80 34 81 39 82 35 83 36 84 38 85 40 86
REMARK SMILES IDX 37 87
REMARK H PARENT 3 6 7 30 57 49 31 60
REMARK Flexibility Score: inf
ROOT
ATOM      1  C   UNL A   1      38.450  22.730  26.163  1.00  0.00     0.042 C 
ENDROOT
BRANCH   1   2
ATOM      2  C   UNL A   1      37.395  23.757  25.787  1.00  0.00     0.118 C 
BRANCH   2   3
ATOM      3  N   UNL A   1      37.156  23.706  24.336  1.00  0.00    -0.352 N 
ATOM      4  O   UNL A   1      35.777  22.949  22.557  1.00  0.00    -0.270 OA
ATOM      5  C   UNL A   1      35.983  22.994  23.810  1.00  0.00     0.251 C 
ATOM      6  H   UNL A   1      37.783  24.148  23.719  1.00  0.00     0.163 HD
BRANCH   5   7
ATOM      7  C   UNL A   1      35.017  22.310  24.763  1.00  0.00     0.067 C 
ATOM      8  C   UNL A   1      34.035  23.032  25.368  1.00  0.00     0.025 C 
ATOM      9  C   UNL A   1      35.146  20.822  25.039  1.00  0.00     0.314 C 
ATOM     10  C   UNL A   1      33.904  24.520  25.092  1.00  0.00     0.019 A 
ATOM     11  O   UNL A   1      34.446  24.041  22.827  1.00  0.00    -0.475 OA
ATOM     12  C   UNL A   1      33.615  25.402  26.120  1.00  0.00     0.036 A 
ATOM     13  C   UNL A   1      33.991  24.935  23.833  1.00  0.00     0.128 A 
ATOM     14  C   UNL A   1      33.144  26.662  25.679  1.00  0.00     0.107 A 
ATOM     15  C   UNL A   1      33.645  26.220  23.494  1.00  0.00     0.048 A 
ATOM     16  C   UNL A   1      33.291  27.129  24.453  1.00  0.00     0.028 A 
BRANCH   9  17
ATOM     17  C   UNL A   1      33.865  20.116  24.626  1.00  0.00     0.429 C 
ATOM     18  F   UNL A   1      33.302  20.775  23.616  1.00  0.00    -0.167 F 
ATOM     19  F   UNL A   1      34.146  18.874  24.242  1.00  0.00    -0.167 F 
ATOM     20  F   UNL A   1      33.026  20.082  25.656  1.00  0.00    -0.167 F 
ENDBRANCH   9  17
BRANCH  14  21
ATOM     21  S   UNL A   1      32.283  27.706  26.881  1.00  0.00     0.310 S 
ATOM     22  F   UNL A   1      32.066  28.861  25.816  1.00  0.00    -0.094 F 
ATOM     23  F   UNL A   1      33.660  28.383  27.234  1.00  0.00    -0.094 F 
ATOM     24  F   UNL A   1      31.544  28.604  27.914  1.00  0.00    -0.094 F 
ATOM     25  F   UNL A   1      30.894  27.115  26.413  1.00  0.00    -0.094 F 
ATOM     26  F   UNL A   1      33.003  26.870  25.749  1.00  0.00    -0.094 F 
ENDBRANCH  14  21
ENDBRANCH   5   7
ENDBRANCH   2   3
ENDBRANCH   1   2
BRANCH   1  27
ATOM     27  C   UNL A   1      39.589  23.418  26.896  1.00  0.00     0.118 C 
BRANCH  27  28
ATOM     28  N   UNL A   1      40.745  23.546  25.997  1.00  0.00    -0.352 N 
ATOM     29  C   UNL A   1      41.688  24.661  26.165  1.00  0.00     0.251 C 
ATOM     30  H   UNL A   1      40.888  22.885  25.282  1.00  0.00     0.163 HD
ATOM     31  O   UNL A   1      42.687  24.770  25.387  1.00  0.00    -0.269 OA
BRANCH  29  32
ATOM     32  C   UNL A   1      41.469  25.682  27.269  1.00  0.00     0.039 A 
ATOM     33  C   UNL A   1      40.586  25.369  28.289  1.00  0.00     0.014 A 
ATOM     34  C   UNL A   1      42.116  26.842  27.250  1.00  0.00     0.014 A 
ATOM     35  C   UNL A   1      40.232  26.473  29.100  1.00  0.00     0.010 A 
ATOM     36  C   UNL A   1      41.812  27.827  28.159  1.00  0.00     0.010 A 
ATOM     37  C   UNL A   1      40.907  27.606  29.158  1.00  0.00    -0.014 A 
BRANCH  37  38
ATOM     38  C   UNL A   1      40.687  28.613  30.276  1.00  0.00     0.031 A 
ATOM     39  C   UNL A   1      41.513  28.526  31.398  1.00  0.00     0.074 A 
ATOM     40  C   UNL A   1      39.684  29.555  30.123  1.00  0.00     0.049 A 
ATOM     41  N   UNL A   1      41.515  29.320  32.470  1.00  0.00    -0.248 NA
ATOM     42  C   UNL A   1      42.554  27.505  31.579  1.00  0.00     0.031 C 
ATOM     43  C   UNL A   1      38.853  29.654  28.990  1.00  0.00     0.029 A 
ATOM     44  N   UNL A   1      39.312  30.544  31.007  1.00  0.00    -0.354 N 
ATOM     45  C   UNL A   1      42.462  28.935  33.327  1.00  0.00     0.074 A 
ATOM     46  C   UNL A   1      43.141  27.758  32.769  1.00  0.00     0.031 C 
ATOM     47  C   UNL A   1      37.985  30.679  29.193  1.00  0.00     0.029 A 
ATOM     48  C   UNL A   1      38.259  31.240  30.455  1.00  0.00     0.049 A 
ATOM     49  H   UNL A   1      39.727  30.723  31.881  1.00  0.00     0.167 HD
ATOM     50  C   UNL A   1      42.787  29.521  34.552  1.00  0.00     0.037 A 
ATOM     51  C   UNL A   1      37.562  32.304  31.007  1.00  0.00     0.037 A 
ATOM     52  C   UNL A   1      42.119  30.613  35.084  1.00  0.00     0.049 A 
ATOM     53  C   UNL A   1      37.850  32.853  32.258  1.00  0.00     0.074 A 
ATOM     54  C   UNL A   1      42.440  31.220  36.313  1.00  0.00     0.029 A 
ATOM     55  N   UNL A   1      41.050  31.292  34.543  1.00  0.00    -0.354 N 
ATOM     56  N   UNL A   1      38.823  32.492  33.097  1.00  0.00    -0.248 NA
ATOM     57  C   UNL A   1      37.099  33.958  32.866  1.00  0.00     0.031 C 
ATOM     58  C   UNL A   1      41.571  32.246  36.515  1.00  0.00     0.029 A 
ATOM     59  C   UNL A   1      40.692  32.296  35.416  1.00  0.00     0.049 A 
ATOM     60  H   UNL A   1      40.618  31.095  33.682  1.00  0.00     0.167 HD
ATOM     61  C   UNL A   1      38.798  33.262  34.188  1.00  0.00     0.074 A 
ATOM     62  C   UNL A   1      37.684  34.211  34.059  1.00  0.00     0.031 C 
ATOM     63  C   UNL A   1      39.661  33.212  35.283  1.00  0.00     0.037 A 
BRANCH  50  64
ATOM     64  C   UNL A   1      43.940  28.929  35.346  1.00  0.00     0.057 A 
ATOM     65  C   UNL A   1      43.675  27.949  36.288  1.00  0.00     0.134 A 
ATOM     66  C   UNL A   1      45.174  29.378  35.149  1.00  0.00     0.134 A 
ATOM     67  F   UNL A   1      42.519  27.293  36.347  1.00  0.00    -0.206 F 
ATOM     68  C   UNL A   1      44.744  27.710  37.183  1.00  0.00     0.040 A 
ATOM     69  C   UNL A   1      46.199  28.997  35.982  1.00  0.00     0.040 A 
ATOM     70  F   UNL A   1      45.420  30.207  34.138  1.00  0.00    -0.206 F 
ATOM     71  C   UNL A   1      45.994  28.076  36.971  1.00  0.00     0.006 A 
ENDBRANCH  50  64
BRANCH  51  72
ATOM     72  C   UNL A   1      36.421  32.905  30.205  1.00  0.00     0.057 A 
ATOM     73  C   UNL A   1      35.125  32.499  30.477  1.00  0.00     0.134 A 
ATOM     74  C   UNL A   1      36.674  33.827  29.281  1.00  0.00     0.134 A 
ATOM     75  F   UNL A   1      34.800  31.780  31.548  1.00  0.00    -0.206 F 
ATOM     76  C   UNL A   1      34.178  32.917  29.513  1.00  0.00     0.040 A 
ATOM     77  C   UNL A   1      35.673  34.290  28.463  1.00  0.00     0.040 A 
ATOM     78  F   UNL A   1      37.909  34.303  29.148  1.00  0.00    -0.206 F 
ATOM     79  C   UNL A   1      34.378  33.886  28.638  1.00  0.00     0.006 A 
ENDBRANCH  51  72
BRANCH  63  80
ATOM     80  C   UNL A   1      39.458  34.226  36.398  1.00  0.00     0.057 A 
ATOM     81  C   UNL A   1      40.009  35.488  36.247  1.00  0.00     0.134 A 
ATOM     82  C   UNL A   1      38.766  33.901  37.483  1.00  0.00     0.134 A 
ATOM     83  F   UNL A   1      40.486  35.938  35.089  1.00  0.00    -0.206 F 
ATOM     84  C   UNL A   1      40.019  36.255  37.437  1.00  0.00     0.040 A 
ATOM     85  C   UNL A   1      38.705  34.758  38.556  1.00  0.00     0.040 A 
ATOM     86  F   UNL A   1      38.124  32.737  37.532  1.00  0.00    -0.206 F 
ATOM     87  C   UNL A   1      39.278  35.998  38.499  1.00  0.00     0.006 A 
ENDBRANCH  63  80
ENDBRANCH  37  38
ENDBRANCH  29  32
ENDBRANCH  27  28
ENDBRANCH   1  27
TORSDOF 12
ENDMDL
