MODEL 1
REMARK VINA RESULT:     -11.4      0.000      0.000
REMARK SMILES CCOC(=O)c1sc(NC(=O)CCC(=O)NCCCNC(=O)c2ccc(-c3c4nc(c(-c5c(F)cccc5F)c5ccc([nH]5)c(-c5c(F)cccc5F)c5nc(c(-c6c(F)cccc6F)c6ccc3[nH]6)C=C5)C=C4)cc2)c(C#N)c1C
REMARK SMILES IDX 14 1 15 2 16 3 13 5 12 6 10 7 9 8 11 10 8 11 6 12 7 13 80 14
REMARK SMILES IDX 77 15 81 16 4 17 5 18 3 19 2 20 1 21 78 22 79 23 17 24 18 25
REMARK SMILES IDX 19 26 20 27 21 28 22 30 23 31 24 32 76 33 25 34 75 35 26 36
REMARK SMILES IDX 27 37 28 38 69 39 29 40 74 41 68 42 70 43 30 44 73 45 67 46
REMARK SMILES IDX 66 47 31 49 57 50 40 51 56 52 41 53 44 54 55 55 71 56 42 57
REMARK SMILES IDX 43 58 54 60 72 61 45 62 32 63 33 64 38 65 34 66 35 67 37 68
REMARK SMILES IDX 39 69 36 70 58 71 59 72 64 73 60 74 61 75 63 76 65 77 62 78
REMARK SMILES IDX 46 79 47 80 52 81 48 82 49 83 51 84 53 85 50 86
REMARK H PARENT 16 4 9 9 20 29 70 48 44 59
REMARK Flexibility Score: inf
ROOT
ATOM      1  C   UNL A   1      33.178  21.550  24.514  1.00  0.00     0.220 C 
ATOM      2  O   UNL A   1      32.668  21.530  23.392  1.00  0.00    -0.275 OA
ATOM      3  N   UNL A   1      34.454  21.082  24.644  1.00  0.00    -0.356 N 
ATOM      4  H   UNL A   1      34.755  20.494  23.913  1.00  0.00     0.163 HD
ENDROOT
BRANCH   1   5
ATOM      5  C   UNL A   1      32.378  22.010  25.714  1.00  0.00     0.110 C 
BRANCH   5   6
ATOM      6  C   UNL A   1      31.931  23.472  25.707  1.00  0.00     0.110 C 
BRANCH   6   7
ATOM      7  C   UNL A   1      30.752  23.809  26.603  1.00  0.00     0.225 C 
ATOM      8  N   UNL A   1      29.940  24.890  26.398  1.00  0.00    -0.317 N 
ATOM      9  H   UNL A   1      29.081  24.867  26.879  1.00  0.00     0.170 HD
ATOM     10  O   UNL A   1      30.433  23.021  27.501  1.00  0.00    -0.275 OA
BRANCH   8  11
ATOM     11  C   UNL A   1      30.144  26.009  25.616  1.00  0.00     0.114 A 
ATOM     12  C   UNL A   1      30.033  27.649  23.801  1.00  0.00     0.118 A 
ATOM     13  S   UNL A   1      29.453  26.076  24.061  1.00  0.00    -0.109 S 
ATOM     14  C   UNL A   1      30.942  28.039  24.759  1.00  0.00    -0.006 A 
ATOM     15  C   UNL A   1      30.904  27.136  25.866  1.00  0.00     0.091 A 
ATOM     16  C   UNL A   1      31.748  29.292  24.761  1.00  0.00     0.048 C 
BRANCH  12  17
ATOM     17  C   UNL A   1      29.550  28.411  22.689  1.00  0.00     0.348 C 
ATOM     18  O   UNL A   1      30.161  28.641  21.655  1.00  0.00    -0.245 OA
BRANCH  17  19
ATOM     19  O   UNL A   1      28.268  28.775  22.949  1.00  0.00    -0.462 OA
BRANCH  19  20
ATOM     20  C   UNL A   1      27.928  30.097  22.545  1.00  0.00     0.230 C 
ATOM     21  C   UNL A   1      28.396  31.100  23.576  1.00  0.00     0.049 C 
ENDBRANCH  19  20
ENDBRANCH  17  19
ENDBRANCH  12  17
BRANCH  15  22
ATOM     22  C   UNL A   1      31.412  27.567  27.117  1.00  0.00     0.103 C 
ATOM     23  N   UNL A   1      31.641  27.902  28.221  1.00  0.00    -0.192 NA
ENDBRANCH  15  22
ENDBRANCH   8  11
ENDBRANCH   6   7
ENDBRANCH   5   6
ENDBRANCH   1   5
BRANCH   3  24
ATOM     24  C   UNL A   1      35.441  21.312  25.687  1.00  0.00     0.117 C 
BRANCH  24  25
ATOM     25  C   UNL A   1      36.202  22.640  25.645  1.00  0.00     0.042 C 
BRANCH  25  26
ATOM     26  C   UNL A   1      37.693  22.620  25.326  1.00  0.00     0.118 C 
BRANCH  26  27
ATOM     27  N   UNL A   1      38.554  21.831  26.187  1.00  0.00    -0.352 N 
ATOM     28  C   UNL A   1      39.689  22.187  26.905  1.00  0.00     0.251 C 
ATOM     29  H   UNL A   1      38.290  20.887  26.278  1.00  0.00     0.163 HD
ATOM     30  O   UNL A   1      40.336  21.279  27.430  1.00  0.00    -0.269 OA
BRANCH  28  31
ATOM     31  C   UNL A   1      40.091  23.605  27.172  1.00  0.00     0.039 A 
ATOM     32  C   UNL A   1      41.309  23.844  27.836  1.00  0.00     0.014 A 
ATOM     33  C   UNL A   1      39.258  24.689  26.942  1.00  0.00     0.014 A 
ATOM     34  C   UNL A   1      41.562  25.077  28.455  1.00  0.00     0.010 A 
ATOM     35  C   UNL A   1      39.450  25.868  27.643  1.00  0.00     0.010 A 
ATOM     36  C   UNL A   1      40.571  26.056  28.451  1.00  0.00    -0.014 A 
BRANCH  36  37
ATOM     37  C   UNL A   1      40.750  27.368  29.080  1.00  0.00     0.031 A 
ATOM     38  C   UNL A   1      41.882  28.132  28.484  1.00  0.00     0.074 A 
ATOM     39  C   UNL A   1      39.902  27.980  29.937  1.00  0.00     0.049 A 
ATOM     40  N   UNL A   1      43.091  28.217  28.936  1.00  0.00    -0.248 NA
ATOM     41  C   UNL A   1      41.721  28.676  27.123  1.00  0.00     0.031 C 
ATOM     42  C   UNL A   1      38.586  27.553  30.408  1.00  0.00     0.029 A 
ATOM     43  N   UNL A   1      40.036  29.210  30.519  1.00  0.00    -0.354 N 
ATOM     44  C   UNL A   1      43.775  28.986  28.000  1.00  0.00     0.074 A 
ATOM     45  C   UNL A   1      42.987  28.939  26.803  1.00  0.00     0.031 C 
ATOM     46  C   UNL A   1      37.967  28.592  31.032  1.00  0.00     0.029 A 
ATOM     47  C   UNL A   1      38.886  29.713  31.124  1.00  0.00     0.049 A 
ATOM     48  H   UNL A   1      40.888  29.707  30.510  1.00  0.00     0.167 HD
ATOM     49  C   UNL A   1      44.746  29.869  28.363  1.00  0.00     0.037 A 
ATOM     50  C   UNL A   1      38.723  30.964  31.634  1.00  0.00     0.037 A 
ATOM     51  C   UNL A   1      45.135  29.662  29.736  1.00  0.00     0.049 A 
ATOM     52  C   UNL A   1      40.073  31.530  31.862  1.00  0.00     0.074 A 
ATOM     53  C   UNL A   1      45.647  28.606  30.465  1.00  0.00     0.029 A 
ATOM     54  N   UNL A   1      44.645  30.551  30.661  1.00  0.00    -0.354 N 
ATOM     55  N   UNL A   1      40.882  31.103  32.787  1.00  0.00    -0.248 NA
ATOM     56  C   UNL A   1      40.692  32.273  30.776  1.00  0.00     0.031 C 
ATOM     57  C   UNL A   1      45.015  28.696  31.741  1.00  0.00     0.029 A 
ATOM     58  C   UNL A   1      44.208  29.833  31.740  1.00  0.00     0.049 A 
ATOM     59  H   UNL A   1      44.616  31.531  30.566  1.00  0.00     0.167 HD
ATOM     60  C   UNL A   1      42.131  31.121  32.188  1.00  0.00     0.074 A 
ATOM     61  C   UNL A   1      41.968  31.940  30.987  1.00  0.00     0.031 C 
ATOM     62  C   UNL A   1      43.091  30.228  32.562  1.00  0.00     0.037 A 
BRANCH  49  63
ATOM     63  C   UNL A   1      45.043  31.175  27.646  1.00  0.00     0.057 A 
ATOM     64  C   UNL A   1      46.300  31.321  27.029  1.00  0.00     0.134 A 
ATOM     65  C   UNL A   1      44.304  32.371  27.760  1.00  0.00     0.134 A 
ATOM     66  F   UNL A   1      47.106  30.265  26.843  1.00  0.00    -0.206 F 
ATOM     67  C   UNL A   1      46.820  32.568  26.659  1.00  0.00     0.040 A 
ATOM     68  C   UNL A   1      44.790  33.612  27.342  1.00  0.00     0.040 A 
ATOM     69  F   UNL A   1      43.114  32.446  28.364  1.00  0.00    -0.206 F 
ATOM     70  C   UNL A   1      46.069  33.722  26.827  1.00  0.00     0.006 A 
ENDBRANCH  49  63
BRANCH  50  71
ATOM     71  C   UNL A   1      37.540  31.856  31.706  1.00  0.00     0.057 A 
ATOM     72  C   UNL A   1      36.922  32.363  30.550  1.00  0.00     0.134 A 
ATOM     73  C   UNL A   1      36.785  31.924  32.885  1.00  0.00     0.134 A 
ATOM     74  F   UNL A   1      37.532  32.273  29.359  1.00  0.00    -0.206 F 
ATOM     75  C   UNL A   1      35.627  32.905  30.565  1.00  0.00     0.040 A 
ATOM     76  C   UNL A   1      35.476  32.427  32.903  1.00  0.00     0.040 A 
ATOM     77  F   UNL A   1      37.256  31.402  34.028  1.00  0.00    -0.206 F 
ATOM     78  C   UNL A   1      34.894  32.929  31.745  1.00  0.00     0.006 A 
ENDBRANCH  50  71
BRANCH  62  79
ATOM     79  C   UNL A   1      42.851  29.420  33.806  1.00  0.00     0.057 A 
ATOM     80  C   UNL A   1      43.100  29.880  35.109  1.00  0.00     0.134 A 
ATOM     81  C   UNL A   1      42.188  28.195  33.683  1.00  0.00     0.134 A 
ATOM     82  F   UNL A   1      43.653  31.080  35.328  1.00  0.00    -0.206 F 
ATOM     83  C   UNL A   1      42.728  29.140  36.235  1.00  0.00     0.040 A 
ATOM     84  C   UNL A   1      41.782  27.462  34.799  1.00  0.00     0.040 A 
ATOM     85  F   UNL A   1      41.877  27.716  32.467  1.00  0.00    -0.206 F 
ATOM     86  C   UNL A   1      42.057  27.930  36.081  1.00  0.00     0.006 A 
ENDBRANCH  62  79
ENDBRANCH  36  37
ENDBRANCH  28  31
ENDBRANCH  26  27
ENDBRANCH  25  26
ENDBRANCH  24  25
ENDBRANCH   3  24
TORSDOF 17
ENDMDL
MODEL 2
REMARK VINA RESULT:     -11.4      2.924      8.097
REMARK SMILES CCOC(=O)c1sc(NC(=O)CCC(=O)NCCCNC(=O)c2ccc(-c3c4nc(c(-c5c(F)cccc5F)c5ccc([nH]5)c(-c5c(F)cccc5F)c5nc(c(-c6c(F)cccc6F)c6ccc3[nH]6)C=C5)C=C4)cc2)c(C#N)c1C
REMARK SMILES IDX 14 1 15 2 16 3 13 5 12 6 10 7 9 8 11 10 8 11 6 12 7 13 80 14
REMARK SMILES IDX 77 15 81 16 4 17 5 18 3 19 2 20 1 21 78 22 79 23 17 24 18 25
REMARK SMILES IDX 19 26 20 27 21 28 22 30 23 31 24 32 76 33 25 34 75 35 26 36
REMARK SMILES IDX 27 37 28 38 69 39 29 40 74 41 68 42 70 43 30 44 73 45 67 46
REMARK SMILES IDX 66 47 31 49 57 50 40 51 56 52 41 53 44 54 55 55 71 56 42 57
REMARK SMILES IDX 43 58 54 60 72 61 45 62 32 63 33 64 38 65 34 66 35 67 37 68
REMARK SMILES IDX 39 69 36 70 58 71 59 72 64 73 60 74 61 75 63 76 65 77 62 78
REMARK SMILES IDX 46 79 47 80 52 81 48 82 49 83 51 84 53 85 50 86
REMARK H PARENT 16 4 9 9 20 29 70 48 44 59
REMARK Flexibility Score: inf
ROOT
ATOM      1  C   UNL A   1      33.567  28.605  23.607  1.00  0.00     0.220 C 
ATOM      2  O   UNL A   1      34.374  28.878  22.717  1.00  0.00    -0.275 OA
ATOM      3  N   UNL A   1      33.078  29.631  24.364  1.00  0.00    -0.356 N 
ATOM      4  H   UNL A   1      33.624  30.451  24.349  1.00  0.00     0.163 HD
ENDROOT
BRANCH   1   5
ATOM      5  C   UNL A   1      33.194  27.165  23.892  1.00  0.00     0.110 C 
BRANCH   5   6
ATOM      6  C   UNL A   1      33.887  26.107  23.034  1.00  0.00     0.110 C 
BRANCH   6   7
ATOM      7  C   UNL A   1      33.053  25.511  21.915  1.00  0.00     0.225 C 
ATOM      8  N   UNL A   1      32.124  24.527  22.115  1.00  0.00    -0.317 N 
ATOM      9  H   UNL A   1      31.483  24.399  21.378  1.00  0.00     0.170 HD
ATOM     10  O   UNL A   1      33.129  25.998  20.781  1.00  0.00    -0.275 OA
BRANCH   8  11
ATOM     11  C   UNL A   1      31.950  23.686  23.195  1.00  0.00     0.114 A 
ATOM     12  C   UNL A   1      32.169  21.831  24.778  1.00  0.00     0.118 A 
ATOM     13  S   UNL A   1      32.792  22.208  23.246  1.00  0.00    -0.109 S 
ATOM     14  C   UNL A   1      31.149  22.676  25.153  1.00  0.00    -0.006 A 
ATOM     15  C   UNL A   1      31.116  23.815  24.291  1.00  0.00     0.091 A 
ATOM     16  C   UNL A   1      30.289  22.549  26.363  1.00  0.00     0.048 C 
BRANCH  12  17
ATOM     17  C   UNL A   1      32.727  20.745  25.526  1.00  0.00     0.348 C 
ATOM     18  O   UNL A   1      33.603  20.831  26.375  1.00  0.00    -0.245 OA
BRANCH  17  19
ATOM     19  O   UNL A   1      32.067  19.609  25.182  1.00  0.00    -0.462 OA
BRANCH  19  20
ATOM     20  C   UNL A   1      32.877  18.605  24.582  1.00  0.00     0.230 C 
ATOM     21  C   UNL A   1      32.429  18.345  23.161  1.00  0.00     0.049 C 
ENDBRANCH  19  20
ENDBRANCH  17  19
ENDBRANCH  12  17
BRANCH  15  22
ATOM     22  C   UNL A   1      30.462  24.991  24.736  1.00  0.00     0.103 C 
ATOM     23  N   UNL A   1      30.108  26.035  25.147  1.00  0.00    -0.192 NA
ENDBRANCH  15  22
ENDBRANCH   8  11
ENDBRANCH   6   7
ENDBRANCH   5   6
ENDBRANCH   1   5
BRANCH   3  24
ATOM     24  C   UNL A   1      31.883  29.709  25.190  1.00  0.00     0.117 C 
BRANCH  24  25
ATOM     25  C   UNL A   1      32.085  29.698  26.708  1.00  0.00     0.042 C 
BRANCH  25  26
ATOM     26  C   UNL A   1      33.476  29.981  27.264  1.00  0.00     0.118 C 
BRANCH  26  27
ATOM     27  N   UNL A   1      33.971  31.342  27.176  1.00  0.00    -0.352 N 
ATOM     28  C   UNL A   1      35.092  31.938  27.739  1.00  0.00     0.251 C 
ATOM     29  H   UNL A   1      33.421  31.944  26.623  1.00  0.00     0.163 HD
ATOM     30  O   UNL A   1      35.194  33.162  27.642  1.00  0.00    -0.269 OA
BRANCH  28  31
ATOM     31  C   UNL A   1      36.226  31.166  28.343  1.00  0.00     0.039 A 
ATOM     32  C   UNL A   1      37.244  31.877  29.005  1.00  0.00     0.014 A 
ATOM     33  C   UNL A   1      36.408  29.805  28.151  1.00  0.00     0.014 A 
ATOM     34  C   UNL A   1      38.495  31.288  29.243  1.00  0.00     0.010 A 
ATOM     35  C   UNL A   1      37.672  29.253  28.280  1.00  0.00     0.010 A 
ATOM     36  C   UNL A   1      38.742  30.001  28.772  1.00  0.00    -0.014 A 
BRANCH  36  37
ATOM     37  C   UNL A   1      40.022  29.315  28.972  1.00  0.00     0.031 A 
ATOM     38  C   UNL A   1      40.279  29.002  30.405  1.00  0.00     0.074 A 
ATOM     39  C   UNL A   1      40.820  28.790  28.014  1.00  0.00     0.049 A 
ATOM     40  N   UNL A   1      40.994  29.687  31.239  1.00  0.00    -0.248 NA
ATOM     41  C   UNL A   1      39.479  27.943  31.047  1.00  0.00     0.031 C 
ATOM     42  C   UNL A   1      40.607  28.702  26.571  1.00  0.00     0.029 A 
ATOM     43  N   UNL A   1      42.005  28.128  28.177  1.00  0.00    -0.354 N 
ATOM     44  C   UNL A   1      40.873  29.021  32.454  1.00  0.00     0.074 A 
ATOM     45  C   UNL A   1      39.705  28.198  32.335  1.00  0.00     0.031 C 
ATOM     46  C   UNL A   1      41.523  27.855  26.027  1.00  0.00     0.029 A 
ATOM     47  C   UNL A   1      42.465  27.445  27.053  1.00  0.00     0.049 A 
ATOM     48  H   UNL A   1      42.500  28.134  29.029  1.00  0.00     0.167 HD
ATOM     49  C   UNL A   1      41.907  28.933  33.335  1.00  0.00     0.037 A 
ATOM     50  C   UNL A   1      43.530  26.598  27.003  1.00  0.00     0.037 A 
ATOM     51  C   UNL A   1      42.967  29.840  32.968  1.00  0.00     0.049 A 
ATOM     52  C   UNL A   1      44.378  26.880  28.185  1.00  0.00     0.074 A 
ATOM     53  C   UNL A   1      43.074  31.205  32.785  1.00  0.00     0.029 A 
ATOM     54  N   UNL A   1      44.068  29.294  32.354  1.00  0.00    -0.354 N 
ATOM     55  N   UNL A   1      45.071  27.972  28.326  1.00  0.00    -0.248 NA
ATOM     56  C   UNL A   1      44.107  26.142  29.408  1.00  0.00     0.031 C 
ATOM     57  C   UNL A   1      43.961  31.362  31.679  1.00  0.00     0.029 A 
ATOM     58  C   UNL A   1      44.394  30.094  31.294  1.00  0.00     0.049 A 
ATOM     59  H   UNL A   1      44.539  28.474  32.629  1.00  0.00     0.167 HD
ATOM     60  C   UNL A   1      44.934  28.297  29.665  1.00  0.00     0.074 A 
ATOM     61  C   UNL A   1      44.414  27.087  30.301  1.00  0.00     0.031 C 
ATOM     62  C   UNL A   1      44.972  29.599  30.069  1.00  0.00     0.037 A 
BRANCH  49  63
ATOM     63  C   UNL A   1      42.160  27.755  34.261  1.00  0.00     0.057 A 
ATOM     64  C   UNL A   1      41.816  27.894  35.619  1.00  0.00     0.134 A 
ATOM     65  C   UNL A   1      42.957  26.628  33.971  1.00  0.00     0.134 A 
ATOM     66  F   UNL A   1      41.051  28.915  36.037  1.00  0.00    -0.206 F 
ATOM     67  C   UNL A   1      42.315  27.046  36.616  1.00  0.00     0.040 A 
ATOM     68  C   UNL A   1      43.413  25.743  34.952  1.00  0.00     0.040 A 
ATOM     69  F   UNL A   1      43.430  26.355  32.752  1.00  0.00    -0.206 F 
ATOM     70  C   UNL A   1      43.128  25.972  36.285  1.00  0.00     0.006 A 
ENDBRANCH  49  63
BRANCH  50  71
ATOM     71  C   UNL A   1      43.784  25.376  26.202  1.00  0.00     0.057 A 
ATOM     72  C   UNL A   1      44.887  25.273  25.336  1.00  0.00     0.134 A 
ATOM     73  C   UNL A   1      43.163  24.169  26.550  1.00  0.00     0.134 A 
ATOM     74  F   UNL A   1      45.595  26.363  25.006  1.00  0.00    -0.206 F 
ATOM     75  C   UNL A   1      45.345  24.040  24.845  1.00  0.00     0.040 A 
ATOM     76  C   UNL A   1      43.637  22.929  26.097  1.00  0.00     0.040 A 
ATOM     77  F   UNL A   1      42.147  24.152  27.426  1.00  0.00    -0.206 F 
ATOM     78  C   UNL A   1      44.725  22.859  25.235  1.00  0.00     0.006 A 
ENDBRANCH  50  71
BRANCH  62  79
ATOM     79  C   UNL A   1      45.428  30.629  29.075  1.00  0.00     0.057 A 
ATOM     80  C   UNL A   1      44.572  31.323  28.205  1.00  0.00     0.134 A 
ATOM     81  C   UNL A   1      46.762  31.047  29.119  1.00  0.00     0.134 A 
ATOM     82  F   UNL A   1      43.262  31.051  28.156  1.00  0.00    -0.206 F 
ATOM     83  C   UNL A   1      45.032  32.369  27.399  1.00  0.00     0.040 A 
ATOM     84  C   UNL A   1      47.225  32.111  28.344  1.00  0.00     0.040 A 
ATOM     85  F   UNL A   1      47.626  30.458  29.962  1.00  0.00    -0.206 F 
ATOM     86  C   UNL A   1      46.361  32.773  27.475  1.00  0.00     0.006 A 
ENDBRANCH  62  79
ENDBRANCH  36  37
ENDBRANCH  28  31
ENDBRANCH  26  27
ENDBRANCH  25  26
ENDBRANCH  24  25
ENDBRANCH   3  24
TORSDOF 17
ENDMDL
MODEL 3
REMARK VINA RESULT:     -11.3      2.603      4.120
REMARK SMILES CCOC(=O)c1sc(NC(=O)CCC(=O)NCCCNC(=O)c2ccc(-c3c4nc(c(-c5c(F)cccc5F)c5ccc([nH]5)c(-c5c(F)cccc5F)c5nc(c(-c6c(F)cccc6F)c6ccc3[nH]6)C=C5)C=C4)cc2)c(C#N)c1C
REMARK SMILES IDX 14 1 15 2 16 3 13 5 12 6 10 7 9 8 11 10 8 11 6 12 7 13 80 14
REMARK SMILES IDX 77 15 81 16 4 17 5 18 3 19 2 20 1 21 78 22 79 23 17 24 18 25
REMARK SMILES IDX 19 26 20 27 21 28 22 30 23 31 24 32 76 33 25 34 75 35 26 36
REMARK SMILES IDX 27 37 28 38 69 39 29 40 74 41 68 42 70 43 30 44 73 45 67 46
REMARK SMILES IDX 66 47 31 49 57 50 40 51 56 52 41 53 44 54 55 55 71 56 42 57
REMARK SMILES IDX 43 58 54 60 72 61 45 62 32 63 33 64 38 65 34 66 35 67 37 68
REMARK SMILES IDX 39 69 36 70 58 71 59 72 64 73 60 74 61 75 63 76 65 77 62 78
REMARK SMILES IDX 46 79 47 80 52 81 48 82 49 83 51 84 53 85 50 86
REMARK H PARENT 16 4 9 9 20 29 70 48 44 59
REMARK Flexibility Score: inf
ROOT
ATOM      1  C   UNL A   1      38.857  22.571  26.104  1.00  0.00     0.220 C 
ATOM      2  O   UNL A   1      38.575  23.769  26.181  1.00  0.00    -0.275 OA
ATOM      3  N   UNL A   1      40.050  22.160  26.625  1.00  0.00    -0.356 N 
ATOM      4  H   UNL A   1      40.717  22.875  26.743  1.00  0.00     0.163 HD
ENDROOT
BRANCH   1   5
ATOM      5  C   UNL A   1      37.935  21.610  25.383  1.00  0.00     0.110 C 
BRANCH   5   6
ATOM      6  C   UNL A   1      36.741  22.234  24.660  1.00  0.00     0.110 C 
BRANCH   6   7
ATOM      7  C   UNL A   1      35.426  21.484  24.783  1.00  0.00     0.225 C 
ATOM      8  N   UNL A   1      34.206  22.086  24.646  1.00  0.00    -0.317 N 
ATOM      9  H   UNL A   1      33.450  21.472  24.499  1.00  0.00     0.170 HD
ATOM     10  O   UNL A   1      35.443  20.254  24.907  1.00  0.00    -0.275 OA
BRANCH   8  11
ATOM     11  C   UNL A   1      33.874  23.425  24.682  1.00  0.00     0.114 A 
ATOM     12  C   UNL A   1      33.565  25.777  24.078  1.00  0.00     0.118 A 
ATOM     13  S   UNL A   1      34.345  24.435  23.396  1.00  0.00    -0.109 S 
ATOM     14  C   UNL A   1      33.161  25.548  25.374  1.00  0.00    -0.006 A 
ATOM     15  C   UNL A   1      33.232  24.151  25.669  1.00  0.00     0.091 A 
ATOM     16  C   UNL A   1      32.576  26.546  26.313  1.00  0.00     0.048 C 
BRANCH  12  17
ATOM     17  C   UNL A   1      33.379  26.965  23.300  1.00  0.00     0.348 C 
ATOM     18  O   UNL A   1      33.986  28.017  23.437  1.00  0.00    -0.245 OA
BRANCH  17  19
ATOM     19  O   UNL A   1      32.462  26.699  22.334  1.00  0.00    -0.462 OA
BRANCH  19  20
ATOM     20  C   UNL A   1      31.137  26.487  22.809  1.00  0.00     0.230 C 
ATOM     21  C   UNL A   1      30.328  27.760  22.700  1.00  0.00     0.049 C 
ENDBRANCH  19  20
ENDBRANCH  17  19
ENDBRANCH  12  17
BRANCH  15  22
ATOM     22  C   UNL A   1      32.476  23.641  26.753  1.00  0.00     0.103 C 
ATOM     23  N   UNL A   1      31.898  23.034  27.578  1.00  0.00    -0.192 NA
ENDBRANCH  15  22
ENDBRANCH   8  11
ENDBRANCH   6   7
ENDBRANCH   5   6
ENDBRANCH   1   5
BRANCH   3  24
ATOM     24  C   UNL A   1      40.496  20.837  27.031  1.00  0.00     0.117 C 
BRANCH  24  25
ATOM     25  C   UNL A   1      41.420  20.087  26.067  1.00  0.00     0.042 C 
BRANCH  25  26
ATOM     26  C   UNL A   1      42.785  19.630  26.569  1.00  0.00     0.118 C 
BRANCH  26  27
ATOM     27  N   UNL A   1      43.872  19.581  25.609  1.00  0.00    -0.352 N 
ATOM     28  C   UNL A   1      44.546  20.601  24.949  1.00  0.00     0.251 C 
ATOM     29  H   UNL A   1      44.186  18.674  25.390  1.00  0.00     0.163 HD
ATOM     30  O   UNL A   1      45.326  20.278  24.052  1.00  0.00    -0.269 OA
BRANCH  28  31
ATOM     31  C   UNL A   1      44.465  22.043  25.348  1.00  0.00     0.039 A 
ATOM     32  C   UNL A   1      45.295  22.498  26.391  1.00  0.00     0.014 A 
ATOM     33  C   UNL A   1      43.509  22.917  24.856  1.00  0.00     0.014 A 
ATOM     34  C   UNL A   1      45.009  23.692  27.068  1.00  0.00     0.010 A 
ATOM     35  C   UNL A   1      43.154  24.037  25.590  1.00  0.00     0.010 A 
ATOM     36  C   UNL A   1      43.861  24.406  26.734  1.00  0.00    -0.014 A 
BRANCH  36  37
ATOM     37  C   UNL A   1      43.485  25.659  27.397  1.00  0.00     0.031 A 
ATOM     38  C   UNL A   1      44.410  26.777  27.060  1.00  0.00     0.074 A 
ATOM     39  C   UNL A   1      42.334  25.913  28.059  1.00  0.00     0.049 A 
ATOM     40  N   UNL A   1      45.414  27.199  27.758  1.00  0.00    -0.248 NA
ATOM     41  C   UNL A   1      44.357  27.346  25.700  1.00  0.00     0.031 C 
ATOM     42  C   UNL A   1      41.156  25.067  28.238  1.00  0.00     0.029 A 
ATOM     43  N   UNL A   1      41.952  27.078  28.666  1.00  0.00    -0.354 N 
ATOM     44  C   UNL A   1      45.990  28.209  26.994  1.00  0.00     0.074 A 
ATOM     45  C   UNL A   1      45.511  28.010  25.657  1.00  0.00     0.031 C 
ATOM     46  C   UNL A   1      40.128  25.813  28.725  1.00  0.00     0.029 A 
ATOM     47  C   UNL A   1      40.606  27.153  29.017  1.00  0.00     0.049 A 
ATOM     48  H   UNL A   1      42.585  27.813  28.842  1.00  0.00     0.167 HD
ATOM     49  C   UNL A   1      46.537  29.319  27.562  1.00  0.00     0.037 A 
ATOM     50  C   UNL A   1      39.955  28.251  29.491  1.00  0.00     0.037 A 
ATOM     51  C   UNL A   1      46.691  29.141  28.985  1.00  0.00     0.049 A 
ATOM     52  C   UNL A   1      40.982  29.188  30.005  1.00  0.00     0.074 A 
ATOM     53  C   UNL A   1      47.356  28.244  29.797  1.00  0.00     0.029 A 
ATOM     54  N   UNL A   1      45.771  29.764  29.792  1.00  0.00    -0.354 N 
ATOM     55  N   UNL A   1      41.685  28.965  31.077  1.00  0.00    -0.248 NA
ATOM     56  C   UNL A   1      41.535  30.165  29.080  1.00  0.00     0.031 C 
ATOM     57  C   UNL A   1      46.489  28.038  30.911  1.00  0.00     0.029 A 
ATOM     58  C   UNL A   1      45.380  28.867  30.748  1.00  0.00     0.049 A 
ATOM     59  H   UNL A   1      45.451  30.690  29.700  1.00  0.00     0.167 HD
ATOM     60  C   UNL A   1      42.956  29.412  30.755  1.00  0.00     0.074 A 
ATOM     61  C   UNL A   1      42.782  30.227  29.553  1.00  0.00     0.031 C 
ATOM     62  C   UNL A   1      44.056  28.835  31.318  1.00  0.00     0.037 A 
BRANCH  49  63
ATOM     63  C   UNL A   1      46.539  30.702  26.934  1.00  0.00     0.057 A 
ATOM     64  C   UNL A   1      47.748  31.425  26.925  1.00  0.00     0.134 A 
ATOM     65  C   UNL A   1      45.400  31.464  26.600  1.00  0.00     0.134 A 
ATOM     66  F   UNL A   1      48.913  30.825  27.212  1.00  0.00    -0.206 F 
ATOM     67  C   UNL A   1      47.800  32.808  26.711  1.00  0.00     0.040 A 
ATOM     68  C   UNL A   1      45.449  32.834  26.329  1.00  0.00     0.040 A 
ATOM     69  F   UNL A   1      44.158  30.971  26.606  1.00  0.00    -0.206 F 
ATOM     70  C   UNL A   1      46.645  33.520  26.424  1.00  0.00     0.006 A 
ENDBRANCH  49  63
BRANCH  50  71
ATOM     71  C   UNL A   1      38.561  28.725  29.318  1.00  0.00     0.057 A 
ATOM     72  C   UNL A   1      37.685  28.865  30.408  1.00  0.00     0.134 A 
ATOM     73  C   UNL A   1      38.189  29.393  28.143  1.00  0.00     0.134 A 
ATOM     74  F   UNL A   1      37.991  28.329  31.598  1.00  0.00    -0.206 F 
ATOM     75  C   UNL A   1      36.506  29.625  30.334  1.00  0.00     0.040 A 
ATOM     76  C   UNL A   1      37.035  30.186  28.070  1.00  0.00     0.040 A 
ATOM     77  F   UNL A   1      38.992  29.381  27.068  1.00  0.00    -0.206 F 
ATOM     78  C   UNL A   1      36.183  30.299  29.162  1.00  0.00     0.006 A 
ENDBRANCH  50  71
BRANCH  62  79
ATOM     79  C   UNL A   1      43.843  27.902  32.476  1.00  0.00     0.057 A 
ATOM     80  C   UNL A   1      43.793  26.503  32.368  1.00  0.00     0.134 A 
ATOM     81  C   UNL A   1      43.855  28.437  33.769  1.00  0.00     0.134 A 
ATOM     82  F   UNL A   1      43.862  25.897  31.176  1.00  0.00    -0.206 F 
ATOM     83  C   UNL A   1      43.732  25.679  33.495  1.00  0.00     0.040 A 
ATOM     84  C   UNL A   1      43.828  27.623  34.902  1.00  0.00     0.040 A 
ATOM     85  F   UNL A   1      43.948  29.765  33.948  1.00  0.00    -0.206 F 
ATOM     86  C   UNL A   1      43.760  26.239  34.769  1.00  0.00     0.006 A 
ENDBRANCH  62  79
ENDBRANCH  36  37
ENDBRANCH  28  31
ENDBRANCH  26  27
ENDBRANCH  25  26
ENDBRANCH  24  25
ENDBRANCH   3  24
TORSDOF 17
ENDMDL
