MODEL 1
REMARK VINA RESULT:     -11.9      0.000      0.000
REMARK SMILES COc1ccc(C[N@@H+]2C[C@@H](C(=O)NCCCNC(=O)c3ccc(-c4c5nc(c(-c6c(F)cccc6F)c6ccc([nH]6)c(-c6c(F)cccc6F)c6nc(c(-c7c(F)cccc7F)c7ccc4[nH]7)C=C6)C=C5)cc3)[C@H](c3ccccc3OC)C2)c(OC)c1
REMARK SMILES IDX 14 1 13 2 11 3 12 4 10 6 8 7 9 8 83 9 74 11 7 12 6 13 3 14
REMARK SMILES IDX 4 15 87 16 5 17 84 18 2 19 1 20 85 21 86 22 75 23 76 24
REMARK SMILES IDX 80 25 77 26 79 27 78 28 81 29 82 30 15 31 16 32 17 33 18 34
REMARK SMILES IDX 19 36 20 37 21 38 73 39 22 40 72 41 23 42 24 43 25 44 66 45
REMARK SMILES IDX 26 46 71 47 65 48 67 49 27 50 70 51 64 52 63 53 28 55 54 56
REMARK SMILES IDX 37 57 53 58 38 59 41 60 52 61 68 62 39 63 40 64 51 66 69 67
REMARK SMILES IDX 42 68 29 69 30 70 35 71 31 72 32 73 34 74 36 75 33 76 55 77
REMARK SMILES IDX 56 78 61 79 57 80 58 81 60 82 62 83 59 84 43 85 44 86 49 87
REMARK SMILES IDX 45 88 46 89 48 90 50 91 47 92
REMARK H PARENT 13 5 8 10 17 35 67 54 41 65
REMARK Flexibility Score: inf
ROOT
ATOM      1  C   UNL A   1      36.682  20.800  24.776  1.00  0.00     0.117 C 
ENDROOT
BRANCH   1   2
ATOM      2  N   UNL A   1      36.068  21.095  26.057  1.00  0.00    -0.356 N 
ATOM      3  C   UNL A   1      34.962  21.792  26.409  1.00  0.00     0.229 C 
ATOM      4  O   UNL A   1      34.710  21.823  27.618  1.00  0.00    -0.275 OA
ATOM      5  H   UNL A   1      36.552  20.711  26.824  1.00  0.00     0.163 HD
BRANCH   3   6
ATOM      6  C   UNL A   1      33.994  22.379  25.407  1.00  0.00     0.146 C 
ATOM      7  N   UNL A   1      32.636  24.318  25.093  1.00  0.00    -0.330 N 
ATOM      8  C   UNL A   1      33.816  23.851  25.793  1.00  0.00     0.276 C 
ATOM      9  C   UNL A   1      31.742  23.153  25.025  1.00  0.00     0.272 C 
ATOM     10  H   UNL A   1      32.162  25.071  25.592  1.00  0.00     0.348 HD
ATOM     11  C   UNL A   1      32.572  21.828  25.172  1.00  0.00     0.096 C 
BRANCH   7  12
ATOM     12  C   UNL A   1      32.918  25.033  23.830  1.00  0.00     0.303 C 
BRANCH  12  13
ATOM     13  C   UNL A   1      32.261  26.385  23.612  1.00  0.00     0.048 A 
ATOM     14  C   UNL A   1      30.692  28.709  23.483  1.00  0.00     0.122 A 
ATOM     15  C   UNL A   1      30.445  27.660  22.609  1.00  0.00     0.047 A 
ATOM     16  C   UNL A   1      31.782  28.649  24.352  1.00  0.00     0.093 A 
ATOM     17  C   UNL A   1      31.257  26.529  22.635  1.00  0.00     0.017 A 
ATOM     18  C   UNL A   1      32.582  27.497  24.405  1.00  0.00     0.131 A 
BRANCH  14  19
ATOM     19  O   UNL A   1      29.755  29.704  23.495  1.00  0.00    -0.497 OA
ATOM     20  C   UNL A   1      29.518  30.301  22.228  1.00  0.00     0.278 C 
ENDBRANCH  14  19
BRANCH  18  21
ATOM     21  O   UNL A   1      33.649  27.350  25.254  1.00  0.00    -0.496 OA
ATOM     22  C   UNL A   1      33.557  28.029  26.501  1.00  0.00     0.278 C 
ENDBRANCH  18  21
ENDBRANCH  12  13
ENDBRANCH   7  12
BRANCH  11  23
ATOM     23  C   UNL A   1      32.409  20.787  24.040  1.00  0.00     0.004 A 
ATOM     24  C   UNL A   1      32.155  21.185  22.709  1.00  0.00     0.008 A 
ATOM     25  C   UNL A   1      32.480  19.392  24.247  1.00  0.00     0.122 A 
ATOM     26  C   UNL A   1      32.048  20.283  21.642  1.00  0.00     0.001 A 
ATOM     27  C   UNL A   1      32.362  18.482  23.175  1.00  0.00     0.047 A 
ATOM     28  C   UNL A   1      32.154  18.925  21.873  1.00  0.00     0.004 A 
BRANCH  25  29
ATOM     29  O   UNL A   1      32.811  18.816  25.443  1.00  0.00    -0.496 OA
ATOM     30  C   UNL A   1      32.793  17.396  25.443  1.00  0.00     0.278 C 
ENDBRANCH  25  29
ENDBRANCH  11  23
ENDBRANCH   3   6
ENDBRANCH   1   2
BRANCH   1  31
ATOM     31  C   UNL A   1      37.795  19.773  24.903  1.00  0.00     0.042 C 
BRANCH  31  32
ATOM     32  C   UNL A   1      38.891  20.156  25.889  1.00  0.00     0.118 C 
BRANCH  32  33
ATOM     33  N   UNL A   1      40.014  19.228  25.880  1.00  0.00    -0.352 N 
ATOM     34  C   UNL A   1      41.354  19.459  26.060  1.00  0.00     0.251 C 
ATOM     35  H   UNL A   1      39.774  18.287  25.719  1.00  0.00     0.163 HD
ATOM     36  O   UNL A   1      42.166  18.563  25.824  1.00  0.00    -0.269 OA
BRANCH  34  37
ATOM     37  C   UNL A   1      41.830  20.785  26.501  1.00  0.00     0.039 A 
ATOM     38  C   UNL A   1      42.207  21.723  25.538  1.00  0.00     0.014 A 
ATOM     39  C   UNL A   1      41.905  21.106  27.858  1.00  0.00     0.014 A 
ATOM     40  C   UNL A   1      42.586  23.007  25.935  1.00  0.00     0.010 A 
ATOM     41  C   UNL A   1      42.178  22.413  28.244  1.00  0.00     0.010 A 
ATOM     42  C   UNL A   1      42.530  23.376  27.289  1.00  0.00    -0.014 A 
BRANCH  42  43
ATOM     43  C   UNL A   1      42.850  24.758  27.727  1.00  0.00     0.031 A 
ATOM     44  C   UNL A   1      44.282  25.170  27.941  1.00  0.00     0.074 A 
ATOM     45  C   UNL A   1      41.851  25.623  27.996  1.00  0.00     0.049 A 
ATOM     46  N   UNL A   1      44.759  26.302  28.392  1.00  0.00    -0.248 NA
ATOM     47  C   UNL A   1      45.314  24.165  27.636  1.00  0.00     0.031 C 
ATOM     48  C   UNL A   1      40.421  25.330  27.876  1.00  0.00     0.029 A 
ATOM     49  N   UNL A   1      41.888  26.922  28.435  1.00  0.00    -0.354 N 
ATOM     50  C   UNL A   1      46.137  26.140  28.439  1.00  0.00     0.074 A 
ATOM     51  C   UNL A   1      46.418  24.782  28.030  1.00  0.00     0.031 C 
ATOM     52  C   UNL A   1      39.719  26.426  28.206  1.00  0.00     0.029 A 
ATOM     53  C   UNL A   1      40.644  27.482  28.603  1.00  0.00     0.049 A 
ATOM     54  H   UNL A   1      42.725  27.408  28.614  1.00  0.00     0.167 HD
ATOM     55  C   UNL A   1      47.086  27.048  28.764  1.00  0.00     0.037 A 
ATOM     56  C   UNL A   1      40.289  28.706  29.037  1.00  0.00     0.037 A 
ATOM     57  C   UNL A   1      46.807  28.407  29.146  1.00  0.00     0.049 A 
ATOM     58  C   UNL A   1      41.362  29.691  29.410  1.00  0.00     0.074 A 
ATOM     59  C   UNL A   1      47.701  29.422  29.437  1.00  0.00     0.029 A 
ATOM     60  N   UNL A   1      45.534  28.939  29.294  1.00  0.00    -0.354 N 
ATOM     61  N   UNL A   1      42.665  29.546  29.380  1.00  0.00    -0.248 NA
ATOM     62  C   UNL A   1      40.916  31.013  29.874  1.00  0.00     0.031 C 
ATOM     63  C   UNL A   1      46.969  30.554  29.812  1.00  0.00     0.029 A 
ATOM     64  C   UNL A   1      45.620  30.260  29.698  1.00  0.00     0.049 A 
ATOM     65  H   UNL A   1      44.695  28.449  29.134  1.00  0.00     0.167 HD
ATOM     66  C   UNL A   1      43.193  30.763  29.791  1.00  0.00     0.074 A 
ATOM     67  C   UNL A   1      42.071  31.641  30.048  1.00  0.00     0.031 C 
ATOM     68  C   UNL A   1      44.492  31.123  29.944  1.00  0.00     0.037 A 
BRANCH  55  69
ATOM     69  C   UNL A   1      48.520  26.601  28.718  1.00  0.00     0.057 A 
ATOM     70  C   UNL A   1      49.149  26.013  29.825  1.00  0.00     0.134 A 
ATOM     71  C   UNL A   1      49.272  26.727  27.544  1.00  0.00     0.134 A 
ATOM     72  F   UNL A   1      48.490  25.873  30.986  1.00  0.00    -0.206 F 
ATOM     73  C   UNL A   1      50.479  25.595  29.774  1.00  0.00     0.040 A 
ATOM     74  C   UNL A   1      50.594  26.284  27.471  1.00  0.00     0.040 A 
ATOM     75  F   UNL A   1      48.733  27.275  26.444  1.00  0.00    -0.206 F 
ATOM     76  C   UNL A   1      51.203  25.723  28.591  1.00  0.00     0.006 A 
ENDBRANCH  55  69
BRANCH  56  77
ATOM     77  C   UNL A   1      38.853  29.078  29.132  1.00  0.00     0.057 A 
ATOM     78  C   UNL A   1      38.158  29.564  28.018  1.00  0.00     0.134 A 
ATOM     79  C   UNL A   1      38.147  28.975  30.336  1.00  0.00     0.134 A 
ATOM     80  F   UNL A   1      38.784  29.704  26.840  1.00  0.00    -0.206 F 
ATOM     81  C   UNL A   1      36.822  29.958  28.103  1.00  0.00     0.040 A 
ATOM     82  C   UNL A   1      36.803  29.338  30.429  1.00  0.00     0.040 A 
ATOM     83  F   UNL A   1      38.752  28.508  31.439  1.00  0.00    -0.206 F 
ATOM     84  C   UNL A   1      36.139  29.840  29.312  1.00  0.00     0.006 A 
ENDBRANCH  56  77
BRANCH  68  85
ATOM     85  C   UNL A   1      44.768  32.534  30.377  1.00  0.00     0.057 A 
ATOM     86  C   UNL A   1      44.919  33.576  29.452  1.00  0.00     0.134 A 
ATOM     87  C   UNL A   1      44.846  32.860  31.737  1.00  0.00     0.134 A 
ATOM     88  F   UNL A   1      44.869  33.330  28.135  1.00  0.00    -0.206 F 
ATOM     89  C   UNL A   1      45.163  34.887  29.867  1.00  0.00     0.040 A 
ATOM     90  C   UNL A   1      45.058  34.171  32.163  1.00  0.00     0.040 A 
ATOM     91  F   UNL A   1      44.699  31.911  32.674  1.00  0.00    -0.206 F 
ATOM     92  C   UNL A   1      45.225  35.188  31.226  1.00  0.00     0.006 A 
ENDBRANCH  68  85
ENDBRANCH  42  43
ENDBRANCH  34  37
ENDBRANCH  32  33
ENDBRANCH  31  32
ENDBRANCH   1  31
TORSDOF 16
ENDMDL
MODEL 2
REMARK VINA RESULT:     -11.9      1.016      6.083
REMARK SMILES COc1ccc(C[N@@H+]2C[C@@H](C(=O)NCCCNC(=O)c3ccc(-c4c5nc(c(-c6c(F)cccc6F)c6ccc([nH]6)c(-c6c(F)cccc6F)c6nc(c(-c7c(F)cccc7F)c7ccc4[nH]7)C=C6)C=C5)cc3)[C@H](c3ccccc3OC)C2)c(OC)c1
REMARK SMILES IDX 14 1 13 2 11 3 12 4 10 6 8 7 9 8 83 9 74 11 7 12 6 13 3 14
REMARK SMILES IDX 4 15 87 16 5 17 84 18 2 19 1 20 85 21 86 22 75 23 76 24
REMARK SMILES IDX 80 25 77 26 79 27 78 28 81 29 82 30 15 31 16 32 17 33 18 34
REMARK SMILES IDX 19 36 20 37 21 38 73 39 22 40 72 41 23 42 24 43 25 44 66 45
REMARK SMILES IDX 26 46 71 47 65 48 67 49 27 50 70 51 64 52 63 53 28 55 54 56
REMARK SMILES IDX 37 57 53 58 38 59 41 60 52 61 68 62 39 63 40 64 51 66 69 67
REMARK SMILES IDX 42 68 29 69 30 70 35 71 31 72 32 73 34 74 36 75 33 76 55 77
REMARK SMILES IDX 56 78 61 79 57 80 58 81 60 82 62 83 59 84 43 85 44 86 49 87
REMARK SMILES IDX 45 88 46 89 48 90 50 91 47 92
REMARK H PARENT 13 5 8 10 17 35 67 54 41 65
REMARK Flexibility Score: inf
ROOT
ATOM      1  C   UNL A   1      36.700  20.931  24.899  1.00  0.00     0.117 C 
ENDROOT
BRANCH   1   2
ATOM      2  N   UNL A   1      35.980  21.090  26.149  1.00  0.00    -0.356 N 
ATOM      3  C   UNL A   1      34.805  21.686  26.465  1.00  0.00     0.229 C 
ATOM      4  O   UNL A   1      34.469  21.611  27.651  1.00  0.00    -0.275 OA
ATOM      5  H   UNL A   1      36.436  20.684  26.921  1.00  0.00     0.163 HD
BRANCH   3   6
ATOM      6  C   UNL A   1      33.870  22.279  25.436  1.00  0.00     0.146 C 
ATOM      7  N   UNL A   1      32.518  24.218  25.094  1.00  0.00    -0.330 N 
ATOM      8  C   UNL A   1      33.676  23.748  25.828  1.00  0.00     0.276 C 
ATOM      9  C   UNL A   1      31.630  23.052  24.986  1.00  0.00     0.272 C 
ATOM     10  H   UNL A   1      32.026  24.966  25.583  1.00  0.00     0.348 HD
ATOM     11  C   UNL A   1      32.458  21.728  25.149  1.00  0.00     0.096 C 
BRANCH   7  12
ATOM     12  C   UNL A   1      32.841  24.946  23.847  1.00  0.00     0.303 C 
BRANCH  12  13
ATOM     13  C   UNL A   1      32.199  26.304  23.626  1.00  0.00     0.048 A 
ATOM     14  C   UNL A   1      30.615  28.609  23.388  1.00  0.00     0.122 A 
ATOM     15  C   UNL A   1      30.602  27.655  22.380  1.00  0.00     0.047 A 
ATOM     16  C   UNL A   1      31.489  28.471  24.466  1.00  0.00     0.093 A 
ATOM     17  C   UNL A   1      31.428  26.538  22.471  1.00  0.00     0.017 A 
ATOM     18  C   UNL A   1      32.299  27.330  24.579  1.00  0.00     0.131 A 
BRANCH  14  19
ATOM     19  O   UNL A   1      29.662  29.585  23.292  1.00  0.00    -0.497 OA
ATOM     20  C   UNL A   1      29.545  30.164  22.001  1.00  0.00     0.278 C 
ENDBRANCH  14  19
BRANCH  18  21
ATOM     21  O   UNL A   1      33.160  27.108  25.624  1.00  0.00    -0.496 OA
ATOM     22  C   UNL A   1      33.830  28.253  26.138  1.00  0.00     0.278 C 
ENDBRANCH  18  21
ENDBRANCH  12  13
ENDBRANCH   7  12
BRANCH  11  23
ATOM     23  C   UNL A   1      32.336  20.696  24.003  1.00  0.00     0.004 A 
ATOM     24  C   UNL A   1      32.148  21.107  22.664  1.00  0.00     0.008 A 
ATOM     25  C   UNL A   1      32.379  19.300  24.203  1.00  0.00     0.122 A 
ATOM     26  C   UNL A   1      32.080  20.213  21.587  1.00  0.00     0.001 A 
ATOM     27  C   UNL A   1      32.300  18.398  23.120  1.00  0.00     0.047 A 
ATOM     28  C   UNL A   1      32.158  18.853  21.813  1.00  0.00     0.004 A 
BRANCH  25  29
ATOM     29  O   UNL A   1      32.647  18.711  25.409  1.00  0.00    -0.496 OA
ATOM     30  C   UNL A   1      32.798  17.300  25.360  1.00  0.00     0.278 C 
ENDBRANCH  25  29
ENDBRANCH  11  23
ENDBRANCH   3   6
ENDBRANCH   1   2
BRANCH   1  31
ATOM     31  C   UNL A   1      37.767  19.852  24.992  1.00  0.00     0.042 C 
BRANCH  31  32
ATOM     32  C   UNL A   1      39.005  20.262  25.778  1.00  0.00     0.118 C 
BRANCH  32  33
ATOM     33  N   UNL A   1      40.003  19.204  25.859  1.00  0.00    -0.352 N 
ATOM     34  C   UNL A   1      41.359  19.279  26.049  1.00  0.00     0.251 C 
ATOM     35  H   UNL A   1      39.648  18.290  25.764  1.00  0.00     0.163 HD
ATOM     36  O   UNL A   1      42.055  18.273  25.897  1.00  0.00    -0.269 OA
BRANCH  34  37
ATOM     37  C   UNL A   1      41.993  20.564  26.400  1.00  0.00     0.039 A 
ATOM     38  C   UNL A   1      42.381  21.430  25.376  1.00  0.00     0.014 A 
ATOM     39  C   UNL A   1      42.206  20.920  27.734  1.00  0.00     0.014 A 
ATOM     40  C   UNL A   1      42.911  22.682  25.692  1.00  0.00     0.010 A 
ATOM     41  C   UNL A   1      42.632  22.205  28.047  1.00  0.00     0.010 A 
ATOM     42  C   UNL A   1      42.999  23.098  27.031  1.00  0.00    -0.014 A 
BRANCH  42  43
ATOM     43  C   UNL A   1      43.483  24.455  27.389  1.00  0.00     0.031 A 
ATOM     44  C   UNL A   1      42.506  25.517  27.816  1.00  0.00     0.074 A 
ATOM     45  C   UNL A   1      44.793  24.751  27.269  1.00  0.00     0.049 A 
ATOM     46  N   UNL A   1      42.723  26.777  28.095  1.00  0.00    -0.248 NA
ATOM     47  C   UNL A   1      41.092  25.118  27.912  1.00  0.00     0.031 C 
ATOM     48  C   UNL A   1      45.834  23.824  26.818  1.00  0.00     0.029 A 
ATOM     49  N   UNL A   1      45.470  25.921  27.505  1.00  0.00    -0.354 N 
ATOM     50  C   UNL A   1      41.478  27.320  28.383  1.00  0.00     0.074 A 
ATOM     51  C   UNL A   1      40.502  26.271  28.186  1.00  0.00     0.031 C 
ATOM     52  C   UNL A   1      47.020  24.453  26.838  1.00  0.00     0.029 A 
ATOM     53  C   UNL A   1      46.820  25.835  27.258  1.00  0.00     0.049 A 
ATOM     54  H   UNL A   1      45.032  26.743  27.821  1.00  0.00     0.167 HD
ATOM     55  C   UNL A   1      41.176  28.571  28.803  1.00  0.00     0.037 A 
ATOM     56  C   UNL A   1      47.785  26.770  27.351  1.00  0.00     0.037 A 
ATOM     57  C   UNL A   1      42.151  29.606  29.022  1.00  0.00     0.049 A 
ATOM     58  C   UNL A   1      47.421  28.158  27.801  1.00  0.00     0.074 A 
ATOM     59  C   UNL A   1      41.953  30.888  29.504  1.00  0.00     0.029 A 
ATOM     60  N   UNL A   1      43.509  29.477  28.771  1.00  0.00    -0.354 N 
ATOM     61  N   UNL A   1      46.248  28.636  28.140  1.00  0.00    -0.248 NA
ATOM     62  C   UNL A   1      48.515  29.134  27.887  1.00  0.00     0.031 C 
ATOM     63  C   UNL A   1      43.184  31.553  29.494  1.00  0.00     0.029 A 
ATOM     64  C   UNL A   1      44.157  30.666  29.061  1.00  0.00     0.049 A 
ATOM     65  H   UNL A   1      43.947  28.662  28.436  1.00  0.00     0.167 HD
ATOM     66  C   UNL A   1      46.468  29.958  28.506  1.00  0.00     0.074 A 
ATOM     67  C   UNL A   1      47.888  30.200  28.365  1.00  0.00     0.031 C 
ATOM     68  C   UNL A   1      45.573  30.890  28.921  1.00  0.00     0.037 A 
BRANCH  55  69
ATOM     69  C   UNL A   1      39.729  28.889  29.055  1.00  0.00     0.057 A 
ATOM     70  C   UNL A   1      38.854  29.232  28.014  1.00  0.00     0.134 A 
ATOM     71  C   UNL A   1      39.195  28.818  30.347  1.00  0.00     0.134 A 
ATOM     72  F   UNL A   1      39.302  29.330  26.754  1.00  0.00    -0.206 F 
ATOM     73  C   UNL A   1      37.509  29.520  28.255  1.00  0.00     0.040 A 
ATOM     74  C   UNL A   1      37.845  29.074  30.595  1.00  0.00     0.040 A 
ATOM     75  F   UNL A   1      39.973  28.490  31.389  1.00  0.00    -0.206 F 
ATOM     76  C   UNL A   1      37.000  29.433  29.548  1.00  0.00     0.006 A 
ENDBRANCH  55  69
BRANCH  56  77
ATOM     77  C   UNL A   1      49.192  26.425  27.023  1.00  0.00     0.057 A 
ATOM     78  C   UNL A   1      49.675  26.532  25.713  1.00  0.00     0.134 A 
ATOM     79  C   UNL A   1      50.082  25.966  28.001  1.00  0.00     0.134 A 
ATOM     80  F   UNL A   1      48.867  26.948  24.727  1.00  0.00    -0.206 F 
ATOM     81  C   UNL A   1      50.982  26.170  25.382  1.00  0.00     0.040 A 
ATOM     82  C   UNL A   1      51.400  25.628  27.690  1.00  0.00     0.040 A 
ATOM     83  F   UNL A   1      49.686  25.850  29.277  1.00  0.00    -0.206 F 
ATOM     84  C   UNL A   1      51.851  25.722  26.375  1.00  0.00     0.006 A 
ENDBRANCH  56  77
BRANCH  68  85
ATOM     85  C   UNL A   1      46.110  32.244  29.284  1.00  0.00     0.057 A 
ATOM     86  C   UNL A   1      46.569  32.537  30.575  1.00  0.00     0.134 A 
ATOM     87  C   UNL A   1      46.203  33.255  28.320  1.00  0.00     0.134 A 
ATOM     88  F   UNL A   1      46.496  31.617  31.549  1.00  0.00    -0.206 F 
ATOM     89  C   UNL A   1      47.079  33.796  30.899  1.00  0.00     0.040 A 
ATOM     90  C   UNL A   1      46.739  34.507  28.624  1.00  0.00     0.040 A 
ATOM     91  F   UNL A   1      45.791  33.037  27.062  1.00  0.00    -0.206 F 
ATOM     92  C   UNL A   1      47.171  34.782  29.919  1.00  0.00     0.006 A 
ENDBRANCH  68  85
ENDBRANCH  42  43
ENDBRANCH  34  37
ENDBRANCH  32  33
ENDBRANCH  31  32
ENDBRANCH   1  31
TORSDOF 16
ENDMDL
MODEL 3
REMARK VINA RESULT:     -11.8      0.615      5.972
REMARK SMILES COc1ccc(C[N@@H+]2C[C@@H](C(=O)NCCCNC(=O)c3ccc(-c4c5nc(c(-c6c(F)cccc6F)c6ccc([nH]6)c(-c6c(F)cccc6F)c6nc(c(-c7c(F)cccc7F)c7ccc4[nH]7)C=C6)C=C5)cc3)[C@H](c3ccccc3OC)C2)c(OC)c1
REMARK SMILES IDX 14 1 13 2 11 3 12 4 10 6 8 7 9 8 83 9 74 11 7 12 6 13 3 14
REMARK SMILES IDX 4 15 87 16 5 17 84 18 2 19 1 20 85 21 86 22 75 23 76 24
REMARK SMILES IDX 80 25 77 26 79 27 78 28 81 29 82 30 15 31 16 32 17 33 18 34
REMARK SMILES IDX 19 36 20 37 21 38 73 39 22 40 72 41 23 42 24 43 25 44 66 45
REMARK SMILES IDX 26 46 71 47 65 48 67 49 27 50 70 51 64 52 63 53 28 55 54 56
REMARK SMILES IDX 37 57 53 58 38 59 41 60 52 61 68 62 39 63 40 64 51 66 69 67
REMARK SMILES IDX 42 68 29 69 30 70 35 71 31 72 32 73 34 74 36 75 33 76 55 77
REMARK SMILES IDX 56 78 61 79 57 80 58 81 60 82 62 83 59 84 43 85 44 86 49 87
REMARK SMILES IDX 45 88 46 89 48 90 50 91 47 92
REMARK H PARENT 13 5 8 10 17 35 67 54 41 65
REMARK Flexibility Score: inf
ROOT
ATOM      1  C   UNL A   1      36.017  20.345  25.000  1.00  0.00     0.117 C 
ENDROOT
BRANCH   1   2
ATOM      2  N   UNL A   1      35.693  21.084  26.205  1.00  0.00    -0.356 N 
ATOM      3  C   UNL A   1      34.827  22.094  26.460  1.00  0.00     0.229 C 
ATOM      4  O   UNL A   1      34.785  22.480  27.632  1.00  0.00    -0.275 OA
ATOM      5  H   UNL A   1      36.203  20.795  26.995  1.00  0.00     0.163 HD
BRANCH   3   6
ATOM      6  C   UNL A   1      33.853  22.634  25.437  1.00  0.00     0.146 C 
ATOM      7  N   UNL A   1      32.442  24.526  25.073  1.00  0.00    -0.330 N 
ATOM      8  C   UNL A   1      33.627  24.106  25.794  1.00  0.00     0.276 C 
ATOM      9  C   UNL A   1      31.584  23.334  25.017  1.00  0.00     0.272 C 
ATOM     10  H   UNL A   1      31.940  25.273  25.554  1.00  0.00     0.348 HD
ATOM     11  C   UNL A   1      32.451  22.037  25.196  1.00  0.00     0.096 C 
BRANCH   7  12
ATOM     12  C   UNL A   1      32.717  25.227  23.801  1.00  0.00     0.303 C 
BRANCH  12  13
ATOM     13  C   UNL A   1      32.084  26.590  23.585  1.00  0.00     0.048 A 
ATOM     14  C   UNL A   1      30.570  28.952  23.480  1.00  0.00     0.122 A 
ATOM     15  C   UNL A   1      30.253  27.891  22.643  1.00  0.00     0.047 A 
ATOM     16  C   UNL A   1      31.699  28.882  24.297  1.00  0.00     0.093 A 
ATOM     17  C   UNL A   1      31.037  26.740  22.655  1.00  0.00     0.017 A 
ATOM     18  C   UNL A   1      32.471  27.711  24.337  1.00  0.00     0.131 A 
BRANCH  14  19
ATOM     19  O   UNL A   1      29.659  29.971  23.515  1.00  0.00    -0.497 OA
ATOM     20  C   UNL A   1      28.598  29.841  22.581  1.00  0.00     0.278 C 
ENDBRANCH  14  19
BRANCH  18  21
ATOM     21  O   UNL A   1      33.575  27.554  25.136  1.00  0.00    -0.496 OA
ATOM     22  C   UNL A   1      33.396  27.847  26.517  1.00  0.00     0.278 C 
ENDBRANCH  18  21
ENDBRANCH  12  13
ENDBRANCH   7  12
BRANCH  11  23
ATOM     23  C   UNL A   1      32.332  20.972  24.082  1.00  0.00     0.004 A 
ATOM     24  C   UNL A   1      31.996  21.331  22.757  1.00  0.00     0.008 A 
ATOM     25  C   UNL A   1      32.523  19.590  24.299  1.00  0.00     0.122 A 
ATOM     26  C   UNL A   1      31.924  20.410  21.704  1.00  0.00     0.001 A 
ATOM     27  C   UNL A   1      32.440  18.660  23.242  1.00  0.00     0.047 A 
ATOM     28  C   UNL A   1      32.148  19.068  21.944  1.00  0.00     0.004 A 
BRANCH  25  29
ATOM     29  O   UNL A   1      32.943  19.058  25.487  1.00  0.00    -0.496 OA
ATOM     30  C   UNL A   1      32.662  17.675  25.651  1.00  0.00     0.278 C 
ENDBRANCH  25  29
ENDBRANCH  11  23
ENDBRANCH   3   6
ENDBRANCH   1   2
BRANCH   1  31
ATOM     31  C   UNL A   1      37.469  20.535  24.589  1.00  0.00     0.042 C 
BRANCH  31  32
ATOM     32  C   UNL A   1      38.438  20.658  25.758  1.00  0.00     0.118 C 
BRANCH  32  33
ATOM     33  N   UNL A   1      39.483  19.644  25.738  1.00  0.00    -0.352 N 
ATOM     34  C   UNL A   1      40.822  19.748  26.015  1.00  0.00     0.251 C 
ATOM     35  H   UNL A   1      39.181  18.741  25.486  1.00  0.00     0.163 HD
ATOM     36  O   UNL A   1      41.576  18.808  25.754  1.00  0.00    -0.269 OA
BRANCH  34  37
ATOM     37  C   UNL A   1      41.371  20.991  26.591  1.00  0.00     0.039 A 
ATOM     38  C   UNL A   1      41.909  21.954  25.734  1.00  0.00     0.014 A 
ATOM     39  C   UNL A   1      41.357  21.211  27.970  1.00  0.00     0.014 A 
ATOM     40  C   UNL A   1      42.361  23.167  26.256  1.00  0.00     0.010 A 
ATOM     41  C   UNL A   1      41.706  22.458  28.474  1.00  0.00     0.010 A 
ATOM     42  C   UNL A   1      42.221  23.447  27.625  1.00  0.00    -0.014 A 
BRANCH  42  43
ATOM     43  C   UNL A   1      42.620  24.761  28.190  1.00  0.00     0.031 A 
ATOM     44  C   UNL A   1      41.588  25.836  28.403  1.00  0.00     0.074 A 
ATOM     45  C   UNL A   1      43.919  25.011  28.451  1.00  0.00     0.049 A 
ATOM     46  N   UNL A   1      41.749  27.068  28.813  1.00  0.00    -0.248 NA
ATOM     47  C   UNL A   1      40.193  25.489  28.084  1.00  0.00     0.031 C 
ATOM     48  C   UNL A   1      45.022  24.070  28.242  1.00  0.00     0.029 A 
ATOM     49  N   UNL A   1      44.532  26.137  28.940  1.00  0.00    -0.354 N 
ATOM     50  C   UNL A   1      40.486  27.644  28.785  1.00  0.00     0.074 A 
ATOM     51  C   UNL A   1      39.578  26.648  28.261  1.00  0.00     0.031 C 
ATOM     52  C   UNL A   1      46.171  24.648  28.626  1.00  0.00     0.029 A 
ATOM     53  C   UNL A   1      45.895  26.011  29.065  1.00  0.00     0.049 A 
ATOM     54  H   UNL A   1      44.043  26.957  29.178  1.00  0.00     0.167 HD
ATOM     55  C   UNL A   1      40.109  28.880  29.188  1.00  0.00     0.037 A 
ATOM     56  C   UNL A   1      46.819  26.899  29.479  1.00  0.00     0.037 A 
ATOM     57  C   UNL A   1      41.010  29.861  29.733  1.00  0.00     0.049 A 
ATOM     58  C   UNL A   1      46.377  28.273  29.903  1.00  0.00     0.074 A 
ATOM     59  C   UNL A   1      40.717  31.120  30.225  1.00  0.00     0.029 A 
ATOM     60  N   UNL A   1      42.381  29.692  29.853  1.00  0.00    -0.354 N 
ATOM     61  N   UNL A   1      45.168  28.778  29.940  1.00  0.00    -0.248 NA
ATOM     62  C   UNL A   1      47.429  29.198  30.348  1.00  0.00     0.031 C 
ATOM     63  C   UNL A   1      41.918  31.734  30.595  1.00  0.00     0.029 A 
ATOM     64  C   UNL A   1      42.952  30.835  30.387  1.00  0.00     0.049 A 
ATOM     65  H   UNL A   1      42.875  28.879  29.598  1.00  0.00     0.167 HD
ATOM     66  C   UNL A   1      45.310  30.067  30.438  1.00  0.00     0.074 A 
ATOM     67  C   UNL A   1      46.719  30.259  30.706  1.00  0.00     0.031 C 
ATOM     68  C   UNL A   1      44.357  31.009  30.653  1.00  0.00     0.037 A 
BRANCH  55  69
ATOM     69  C   UNL A   1      38.656  29.241  29.056  1.00  0.00     0.057 A 
ATOM     70  C   UNL A   1      37.785  29.220  30.155  1.00  0.00     0.134 A 
ATOM     71  C   UNL A   1      38.129  29.647  27.825  1.00  0.00     0.134 A 
ATOM     72  F   UNL A   1      38.223  28.829  31.361  1.00  0.00    -0.206 F 
ATOM     73  C   UNL A   1      36.438  29.563  30.027  1.00  0.00     0.040 A 
ATOM     74  C   UNL A   1      36.790  30.021  27.691  1.00  0.00     0.040 A 
ATOM     75  F   UNL A   1      38.905  29.695  26.732  1.00  0.00    -0.206 F 
ATOM     76  C   UNL A   1      35.940  29.972  28.792  1.00  0.00     0.006 A 
ENDBRANCH  55  69
BRANCH  56  77
ATOM     77  C   UNL A   1      48.254  26.517  29.525  1.00  0.00     0.057 A 
ATOM     78  C   UNL A   1      48.791  25.861  30.640  1.00  0.00     0.134 A 
ATOM     79  C   UNL A   1      49.126  26.811  28.470  1.00  0.00     0.134 A 
ATOM     80  F   UNL A   1      48.011  25.568  31.690  1.00  0.00    -0.206 F 
ATOM     81  C   UNL A   1      50.146  25.535  30.715  1.00  0.00     0.040 A 
ATOM     82  C   UNL A   1      50.477  26.466  28.520  1.00  0.00     0.040 A 
ATOM     83  F   UNL A   1      48.674  27.430  27.369  1.00  0.00    -0.206 F 
ATOM     84  C   UNL A   1      50.993  25.834  29.649  1.00  0.00     0.006 A 
ENDBRANCH  56  77
BRANCH  68  85
ATOM     85  C   UNL A   1      44.805  32.317  31.238  1.00  0.00     0.057 A 
ATOM     86  C   UNL A   1      45.167  33.404  30.431  1.00  0.00     0.134 A 
ATOM     87  C   UNL A   1      44.836  32.504  32.626  1.00  0.00     0.134 A 
ATOM     88  F   UNL A   1      45.171  33.289  29.095  1.00  0.00    -0.206 F 
ATOM     89  C   UNL A   1      45.568  34.621  30.986  1.00  0.00     0.040 A 
ATOM     90  C   UNL A   1      45.206  33.725  33.191  1.00  0.00     0.040 A 
ATOM     91  F   UNL A   1      44.491  31.507  33.455  1.00  0.00    -0.206 F 
ATOM     92  C   UNL A   1      45.581  34.785  32.369  1.00  0.00     0.006 A 
ENDBRANCH  68  85
ENDBRANCH  42  43
ENDBRANCH  34  37
ENDBRANCH  32  33
ENDBRANCH  31  32
ENDBRANCH   1  31
TORSDOF 16
ENDMDL
