MODEL 1
REMARK VINA RESULT:     -12.1      0.000      0.000
REMARK SMILES COc1cccc(N(CC(=O)NCCCNC(=O)c2ccc(-c3c4nc(c(-c5c(F)cccc5F)c5ccc([nH]5)c(-c5c(F)cccc5F)c5nc(c(-c6c(F)cccc6F)c6ccc3[nH]6)C=C5)C=C4)cc2)S(=O)(=O)c2ccc(C)cc2)c1
REMARK SMILES IDX 13 1 12 2 10 3 11 4 9 6 8 7 7 8 3 9 4 10 83 11 5 12 6 13
REMARK SMILES IDX 2 14 1 15 73 16 74 17 75 18 76 19 77 20 82 21 78 22 81 23
REMARK SMILES IDX 79 24 80 25 14 26 15 27 16 28 17 29 18 31 19 32 20 33 72 34
REMARK SMILES IDX 21 35 71 36 22 37 23 38 24 39 65 40 25 41 70 42 64 43 66 44
REMARK SMILES IDX 26 45 69 46 63 47 62 48 27 50 53 51 36 52 52 53 37 54 40 55
REMARK SMILES IDX 51 56 67 57 38 58 39 59 50 61 68 62 41 63 28 64 29 65 34 66
REMARK SMILES IDX 30 67 31 68 33 69 35 70 32 71 54 72 55 73 60 74 56 75 57 76
REMARK SMILES IDX 59 77 61 78 58 79 42 80 43 81 48 82 44 83 45 84 47 85 49 86
REMARK SMILES IDX 46 87
REMARK H PARENT 12 5 16 30 66 49 40 60
REMARK Flexibility Score: inf
ROOT
ATOM      1  C   UNL A   1      37.078  20.939  24.794  1.00  0.00     0.117 C 
ENDROOT
BRANCH   1   2
ATOM      2  N   UNL A   1      37.683  22.232  25.038  1.00  0.00    -0.354 N 
ATOM      3  C   UNL A   1      37.175  23.314  25.681  1.00  0.00     0.240 C 
ATOM      4  O   UNL A   1      37.897  24.307  25.778  1.00  0.00    -0.273 OA
ATOM      5  H   UNL A   1      38.595  22.342  24.685  1.00  0.00     0.163 HD
BRANCH   3   6
ATOM      6  C   UNL A   1      35.825  23.239  26.352  1.00  0.00     0.235 C 
BRANCH   6   7
ATOM      7  N   UNL A   1      34.560  23.279  25.565  1.00  0.00    -0.257 N 
BRANCH   7   8
ATOM      8  C   UNL A   1      34.220  24.557  24.884  1.00  0.00     0.056 A 
ATOM      9  C   UNL A   1      33.770  25.910  22.876  1.00  0.00     0.120 A 
ATOM     10  C   UNL A   1      33.564  27.034  23.668  1.00  0.00     0.046 A 
ATOM     11  C   UNL A   1      34.089  24.687  23.484  1.00  0.00     0.073 A 
ATOM     12  C   UNL A   1      33.720  26.952  25.045  1.00  0.00     0.006 A 
ATOM     13  C   UNL A   1      34.084  25.738  25.638  1.00  0.00     0.027 A 
BRANCH   9  14
ATOM     14  O   UNL A   1      33.652  26.146  21.533  1.00  0.00    -0.497 OA
ATOM     15  C   UNL A   1      32.455  25.731  20.889  1.00  0.00     0.278 C 
ENDBRANCH   9  14
ENDBRANCH   7   8
BRANCH   7  16
ATOM     16  S   UNL A   1      33.227  22.337  26.114  1.00  0.00     0.264 S 
ATOM     17  O   UNL A   1      33.688  21.646  27.304  1.00  0.00    -0.201 OA
ATOM     18  O   UNL A   1      32.071  23.212  26.189  1.00  0.00    -0.201 OA
BRANCH  16  19
ATOM     19  C   UNL A   1      32.789  21.073  24.952  1.00  0.00     0.088 A 
ATOM     20  C   UNL A   1      32.939  19.746  25.383  1.00  0.00     0.022 A 
ATOM     21  C   UNL A   1      32.355  21.345  23.657  1.00  0.00     0.022 A 
ATOM     22  C   UNL A   1      32.744  18.693  24.495  1.00  0.00     0.005 A 
ATOM     23  C   UNL A   1      32.196  20.282  22.757  1.00  0.00     0.005 A 
ATOM     24  C   UNL A   1      32.424  18.955  23.161  1.00  0.00    -0.051 A 
ATOM     25  C   UNL A   1      32.306  17.816  22.192  1.00  0.00     0.044 C 
ENDBRANCH  16  19
ENDBRANCH   7  16
ENDBRANCH   6   7
ENDBRANCH   3   6
ENDBRANCH   1   2
BRANCH   1  26
ATOM     26  C   UNL A   1      38.059  19.805  25.041  1.00  0.00     0.042 C 
BRANCH  26  27
ATOM     27  C   UNL A   1      39.282  20.235  25.841  1.00  0.00     0.118 C 
BRANCH  27  28
ATOM     28  N   UNL A   1      40.270  19.167  25.948  1.00  0.00    -0.352 N 
ATOM     29  C   UNL A   1      41.628  19.253  26.120  1.00  0.00     0.251 C 
ATOM     30  H   UNL A   1      39.909  18.252  25.890  1.00  0.00     0.163 HD
ATOM     31  O   UNL A   1      42.336  18.265  25.959  1.00  0.00    -0.269 OA
BRANCH  29  32
ATOM     32  C   UNL A   1      42.232  20.548  26.489  1.00  0.00     0.039 A 
ATOM     33  C   UNL A   1      42.763  21.361  25.486  1.00  0.00     0.014 A 
ATOM     34  C   UNL A   1      42.262  20.959  27.824  1.00  0.00     0.014 A 
ATOM     35  C   UNL A   1      43.264  22.621  25.818  1.00  0.00     0.010 A 
ATOM     36  C   UNL A   1      42.683  22.245  28.140  1.00  0.00     0.010 A 
ATOM     37  C   UNL A   1      43.192  23.086  27.141  1.00  0.00    -0.014 A 
BRANCH  37  38
ATOM     38  C   UNL A   1      43.641  24.452  27.506  1.00  0.00     0.031 A 
ATOM     39  C   UNL A   1      42.637  25.489  27.921  1.00  0.00     0.074 A 
ATOM     40  C   UNL A   1      44.943  24.777  27.387  1.00  0.00     0.049 A 
ATOM     41  N   UNL A   1      42.819  26.756  28.192  1.00  0.00    -0.248 NA
ATOM     42  C   UNL A   1      41.234  25.051  28.014  1.00  0.00     0.031 C 
ATOM     43  C   UNL A   1      46.006  23.873  26.943  1.00  0.00     0.029 A 
ATOM     44  N   UNL A   1      45.591  25.964  27.616  1.00  0.00    -0.354 N 
ATOM     45  C   UNL A   1      41.558  27.268  28.469  1.00  0.00     0.074 A 
ATOM     46  C   UNL A   1      40.612  26.190  28.280  1.00  0.00     0.031 C 
ATOM     47  C   UNL A   1      47.176  24.531  26.955  1.00  0.00     0.029 A 
ATOM     48  C   UNL A   1      46.941  25.911  27.365  1.00  0.00     0.049 A 
ATOM     49  H   UNL A   1      45.133  26.777  27.931  1.00  0.00     0.167 HD
ATOM     50  C   UNL A   1      41.222  28.517  28.868  1.00  0.00     0.037 A 
ATOM     51  C   UNL A   1      47.881  26.871  27.448  1.00  0.00     0.037 A 
ATOM     52  C   UNL A   1      42.169  29.580  29.077  1.00  0.00     0.049 A 
ATOM     53  C   UNL A   1      47.480  28.253  27.888  1.00  0.00     0.074 A 
ATOM     54  C   UNL A   1      41.937  30.862  29.542  1.00  0.00     0.029 A 
ATOM     55  N   UNL A   1      43.530  29.482  28.831  1.00  0.00    -0.354 N 
ATOM     56  N   UNL A   1      46.295  28.705  28.216  1.00  0.00    -0.248 NA
ATOM     57  C   UNL A   1      48.551  29.256  27.972  1.00  0.00     0.031 C 
ATOM     58  C   UNL A   1      43.152  31.555  29.535  1.00  0.00     0.029 A 
ATOM     59  C   UNL A   1      44.148  30.690  29.113  1.00  0.00     0.049 A 
ATOM     60  H   UNL A   1      43.989  28.675  28.505  1.00  0.00     0.167 HD
ATOM     61  C   UNL A   1      46.478  30.034  28.571  1.00  0.00     0.074 A 
ATOM     62  C   UNL A   1      47.894  30.311  28.433  1.00  0.00     0.031 C 
ATOM     63  C   UNL A   1      45.559  30.945  28.975  1.00  0.00     0.037 A 
BRANCH  50  64
ATOM     64  C   UNL A   1      39.766  28.798  29.108  1.00  0.00     0.057 A 
ATOM     65  C   UNL A   1      38.921  29.248  28.085  1.00  0.00     0.134 A 
ATOM     66  C   UNL A   1      39.196  28.591  30.371  1.00  0.00     0.134 A 
ATOM     67  F   UNL A   1      39.406  29.479  26.855  1.00  0.00    -0.206 F 
ATOM     68  C   UNL A   1      37.568  29.507  28.314  1.00  0.00     0.040 A 
ATOM     69  C   UNL A   1      37.838  28.819  30.606  1.00  0.00     0.040 A 
ATOM     70  F   UNL A   1      39.945  28.156  31.394  1.00  0.00    -0.206 F 
ATOM     71  C   UNL A   1      37.023  29.287  29.577  1.00  0.00     0.006 A 
ENDBRANCH  50  64
BRANCH  51  72
ATOM     72  C   UNL A   1      49.296  26.557  27.128  1.00  0.00     0.057 A 
ATOM     73  C   UNL A   1      49.811  26.782  25.847  1.00  0.00     0.134 A 
ATOM     74  C   UNL A   1      50.163  26.018  28.086  1.00  0.00     0.134 A 
ATOM     75  F   UNL A   1      49.024  27.280  24.881  1.00  0.00    -0.206 F 
ATOM     76  C   UNL A   1      51.131  26.466  25.522  1.00  0.00     0.040 A 
ATOM     77  C   UNL A   1      51.493  25.720  27.783  1.00  0.00     0.040 A 
ATOM     78  F   UNL A   1      49.733  25.785  29.335  1.00  0.00    -0.206 F 
ATOM     79  C   UNL A   1      51.978  25.937  26.495  1.00  0.00     0.006 A 
ENDBRANCH  51  72
BRANCH  63  80
ATOM     80  C   UNL A   1      46.061  32.315  29.326  1.00  0.00     0.057 A 
ATOM     81  C   UNL A   1      46.491  32.637  30.619  1.00  0.00     0.134 A 
ATOM     82  C   UNL A   1      46.152  33.313  28.346  1.00  0.00     0.134 A 
ATOM     83  F   UNL A   1      46.418  31.730  31.606  1.00  0.00    -0.206 F 
ATOM     84  C   UNL A   1      46.972  33.910  30.932  1.00  0.00     0.040 A 
ATOM     85  C   UNL A   1      46.657  34.580  28.641  1.00  0.00     0.040 A 
ATOM     86  F   UNL A   1      45.766  33.066  27.085  1.00  0.00    -0.206 F 
ATOM     87  C   UNL A   1      47.062  34.883  29.938  1.00  0.00     0.006 A 
ENDBRANCH  63  80
ENDBRANCH  37  38
ENDBRANCH  29  32
ENDBRANCH  27  28
ENDBRANCH  26  27
ENDBRANCH   1  26
TORSDOF 15
ENDMDL
MODEL 2
REMARK VINA RESULT:     -12.0      2.707      7.601
REMARK SMILES COc1cccc(N(CC(=O)NCCCNC(=O)c2ccc(-c3c4nc(c(-c5c(F)cccc5F)c5ccc([nH]5)c(-c5c(F)cccc5F)c5nc(c(-c6c(F)cccc6F)c6ccc3[nH]6)C=C5)C=C4)cc2)S(=O)(=O)c2ccc(C)cc2)c1
REMARK SMILES IDX 13 1 12 2 10 3 11 4 9 6 8 7 7 8 3 9 4 10 83 11 5 12 6 13
REMARK SMILES IDX 2 14 1 15 73 16 74 17 75 18 76 19 77 20 82 21 78 22 81 23
REMARK SMILES IDX 79 24 80 25 14 26 15 27 16 28 17 29 18 31 19 32 20 33 72 34
REMARK SMILES IDX 21 35 71 36 22 37 23 38 24 39 65 40 25 41 70 42 64 43 66 44
REMARK SMILES IDX 26 45 69 46 63 47 62 48 27 50 53 51 36 52 52 53 37 54 40 55
REMARK SMILES IDX 51 56 67 57 38 58 39 59 50 61 68 62 41 63 28 64 29 65 34 66
REMARK SMILES IDX 30 67 31 68 33 69 35 70 32 71 54 72 55 73 60 74 56 75 57 76
REMARK SMILES IDX 59 77 61 78 58 79 42 80 43 81 48 82 44 83 45 84 47 85 49 86
REMARK SMILES IDX 46 87
REMARK H PARENT 12 5 16 30 66 49 40 60
REMARK Flexibility Score: inf
ROOT
ATOM      1  C   UNL A   1      31.554  27.389  26.482  1.00  0.00     0.117 C 
ENDROOT
BRANCH   1   2
ATOM      2  N   UNL A   1      31.190  26.032  26.834  1.00  0.00    -0.354 N 
ATOM      3  C   UNL A   1      31.878  24.877  26.642  1.00  0.00     0.240 C 
ATOM      4  O   UNL A   1      31.363  23.836  27.050  1.00  0.00    -0.273 OA
ATOM      5  H   UNL A   1      30.317  25.933  27.277  1.00  0.00     0.163 HD
BRANCH   3   6
ATOM      6  C   UNL A   1      33.271  24.906  26.063  1.00  0.00     0.235 C 
BRANCH   6   7
ATOM      7  N   UNL A   1      33.693  23.952  24.998  1.00  0.00    -0.257 N 
BRANCH   7   8
ATOM      8  C   UNL A   1      35.018  23.295  25.156  1.00  0.00     0.056 A 
ATOM      9  C   UNL A   1      36.497  21.325  25.131  1.00  0.00     0.120 A 
ATOM     10  C   UNL A   1      37.582  22.124  25.474  1.00  0.00     0.046 A 
ATOM     11  C   UNL A   1      35.233  21.912  24.970  1.00  0.00     0.073 A 
ATOM     12  C   UNL A   1      37.402  23.483  25.700  1.00  0.00     0.006 A 
ATOM     13  C   UNL A   1      36.127  24.049  25.582  1.00  0.00     0.027 A 
BRANCH   9  14
ATOM     14  O   UNL A   1      36.801  19.997  25.005  1.00  0.00    -0.497 OA
ATOM     15  C   UNL A   1      38.173  19.626  25.026  1.00  0.00     0.278 C 
ENDBRANCH   9  14
ENDBRANCH   7   8
BRANCH   7  16
ATOM     16  S   UNL A   1      33.190  24.260  23.380  1.00  0.00     0.264 S 
ATOM     17  O   UNL A   1      34.404  24.315  22.586  1.00  0.00    -0.201 OA
ATOM     18  O   UNL A   1      32.156  23.297  23.051  1.00  0.00    -0.201 OA
BRANCH  16  19
ATOM     19  C   UNL A   1      32.426  25.850  23.217  1.00  0.00     0.088 A 
ATOM     20  C   UNL A   1      31.023  25.870  23.172  1.00  0.00     0.022 A 
ATOM     21  C   UNL A   1      33.147  27.034  23.093  1.00  0.00     0.022 A 
ATOM     22  C   UNL A   1      30.345  27.057  22.914  1.00  0.00     0.005 A 
ATOM     23  C   UNL A   1      32.461  28.220  22.795  1.00  0.00     0.005 A 
ATOM     24  C   UNL A   1      31.062  28.231  22.670  1.00  0.00    -0.051 A 
ATOM     25  C   UNL A   1      30.323  29.483  22.303  1.00  0.00     0.044 C 
ENDBRANCH  16  19
ENDBRANCH   7  16
ENDBRANCH   6   7
ENDBRANCH   3   6
ENDBRANCH   1   2
BRANCH   1  26
ATOM     26  C   UNL A   1      32.188  28.121  27.653  1.00  0.00     0.042 C 
BRANCH  26  27
ATOM     27  C   UNL A   1      33.520  28.771  27.302  1.00  0.00     0.118 C 
BRANCH  27  28
ATOM     28  N   UNL A   1      33.555  30.183  27.667  1.00  0.00    -0.352 N 
ATOM     29  C   UNL A   1      34.540  30.892  28.305  1.00  0.00     0.251 C 
ATOM     30  H   UNL A   1      32.754  30.701  27.420  1.00  0.00     0.163 HD
ATOM     31  O   UNL A   1      34.312  32.016  28.740  1.00  0.00    -0.269 OA
BRANCH  29  32
ATOM     32  C   UNL A   1      35.875  30.287  28.476  1.00  0.00     0.039 A 
ATOM     33  C   UNL A   1      36.768  30.293  27.403  1.00  0.00     0.014 A 
ATOM     34  C   UNL A   1      36.243  29.723  29.701  1.00  0.00     0.014 A 
ATOM     35  C   UNL A   1      38.059  29.794  27.582  1.00  0.00     0.010 A 
ATOM     36  C   UNL A   1      37.553  29.305  29.901  1.00  0.00     0.010 A 
ATOM     37  C   UNL A   1      38.472  29.332  28.842  1.00  0.00    -0.014 A 
BRANCH  37  38
ATOM     38  C   UNL A   1      39.863  28.873  29.080  1.00  0.00     0.031 A 
ATOM     39  C   UNL A   1      40.868  29.806  29.694  1.00  0.00     0.074 A 
ATOM     40  C   UNL A   1      40.236  27.645  28.670  1.00  0.00     0.049 A 
ATOM     41  N   UNL A   1      42.147  29.624  29.900  1.00  0.00    -0.248 NA
ATOM     42  C   UNL A   1      40.377  31.132  30.102  1.00  0.00     0.031 C 
ATOM     43  C   UNL A   1      39.365  26.669  28.014  1.00  0.00     0.029 A 
ATOM     44  N   UNL A   1      41.453  27.015  28.734  1.00  0.00    -0.354 N 
ATOM     45  C   UNL A   1      42.615  30.813  30.444  1.00  0.00     0.074 A 
ATOM     46  C   UNL A   1      41.496  31.729  30.485  1.00  0.00     0.031 C 
ATOM     47  C   UNL A   1      40.069  25.555  27.756  1.00  0.00     0.029 A 
ATOM     48  C   UNL A   1      41.448  25.754  28.190  1.00  0.00     0.049 A 
ATOM     49  H   UNL A   1      42.254  27.427  29.132  1.00  0.00     0.167 HD
ATOM     50  C   UNL A   1      43.858  31.107  30.891  1.00  0.00     0.037 A 
ATOM     51  C   UNL A   1      42.446  24.862  28.050  1.00  0.00     0.037 A 
ATOM     52  C   UNL A   1      44.962  30.184  30.871  1.00  0.00     0.049 A 
ATOM     53  C   UNL A   1      43.820  25.215  28.549  1.00  0.00     0.074 A 
ATOM     54  C   UNL A   1      46.244  30.363  31.359  1.00  0.00     0.029 A 
ATOM     55  N   UNL A   1      44.913  28.908  30.330  1.00  0.00    -0.354 N 
ATOM     56  N   UNL A   1      44.232  26.317  29.126  1.00  0.00    -0.248 NA
ATOM     57  C   UNL A   1      44.867  24.197  28.380  1.00  0.00     0.031 C 
ATOM     58  C   UNL A   1      46.985  29.211  31.073  1.00  0.00     0.029 A 
ATOM     59  C   UNL A   1      46.150  28.296  30.451  1.00  0.00     0.049 A 
ATOM     60  H   UNL A   1      44.117  28.498  29.921  1.00  0.00     0.167 HD
ATOM     61  C   UNL A   1      45.576  26.118  29.414  1.00  0.00     0.074 A 
ATOM     62  C   UNL A   1      45.905  24.781  28.961  1.00  0.00     0.031 C 
ATOM     63  C   UNL A   1      46.459  26.964  29.999  1.00  0.00     0.037 A 
BRANCH  50  64
ATOM     64  C   UNL A   1      44.086  32.484  31.444  1.00  0.00     0.057 A 
ATOM     65  C   UNL A   1      44.457  33.558  30.625  1.00  0.00     0.134 A 
ATOM     66  C   UNL A   1      43.907  32.746  32.809  1.00  0.00     0.134 A 
ATOM     67  F   UNL A   1      44.658  33.374  29.311  1.00  0.00    -0.206 F 
ATOM     68  C   UNL A   1      44.668  34.837  31.146  1.00  0.00     0.040 A 
ATOM     69  C   UNL A   1      44.087  34.026  33.337  1.00  0.00     0.040 A 
ATOM     70  F   UNL A   1      43.548  31.765  33.650  1.00  0.00    -0.206 F 
ATOM     71  C   UNL A   1      44.477  35.074  32.505  1.00  0.00     0.006 A 
ENDBRANCH  50  64
BRANCH  51  72
ATOM     72  C   UNL A   1      42.181  23.541  27.427  1.00  0.00     0.057 A 
ATOM     73  C   UNL A   1      41.770  22.449  28.201  1.00  0.00     0.134 A 
ATOM     74  C   UNL A   1      42.337  23.333  26.051  1.00  0.00     0.134 A 
ATOM     75  F   UNL A   1      41.621  22.581  29.527  1.00  0.00    -0.206 F 
ATOM     76  C   UNL A   1      41.544  21.194  27.635  1.00  0.00     0.040 A 
ATOM     77  C   UNL A   1      42.090  22.089  25.467  1.00  0.00     0.040 A 
ATOM     78  F   UNL A   1      42.721  24.340  25.252  1.00  0.00    -0.206 F 
ATOM     79  C   UNL A   1      41.699  21.013  26.262  1.00  0.00     0.006 A 
ENDBRANCH  51  72
BRANCH  63  80
ATOM     80  C   UNL A   1      47.854  26.457  30.212  1.00  0.00     0.057 A 
ATOM     81  C   UNL A   1      48.246  25.848  31.411  1.00  0.00     0.134 A 
ATOM     82  C   UNL A   1      48.808  26.544  29.188  1.00  0.00     0.134 A 
ATOM     83  F   UNL A   1      47.386  25.745  32.435  1.00  0.00    -0.206 F 
ATOM     84  C   UNL A   1      49.544  25.365  31.592  1.00  0.00     0.040 A 
ATOM     85  C   UNL A   1      50.099  26.040  29.349  1.00  0.00     0.040 A 
ATOM     86  F   UNL A   1      48.493  27.108  28.012  1.00  0.00    -0.206 F 
ATOM     87  C   UNL A   1      50.471  25.455  30.556  1.00  0.00     0.006 A 
ENDBRANCH  63  80
ENDBRANCH  37  38
ENDBRANCH  29  32
ENDBRANCH  27  28
ENDBRANCH  26  27
ENDBRANCH   1  26
TORSDOF 15
ENDMDL
MODEL 3
REMARK VINA RESULT:     -12.0      1.492      6.219
REMARK SMILES COc1cccc(N(CC(=O)NCCCNC(=O)c2ccc(-c3c4nc(c(-c5c(F)cccc5F)c5ccc([nH]5)c(-c5c(F)cccc5F)c5nc(c(-c6c(F)cccc6F)c6ccc3[nH]6)C=C5)C=C4)cc2)S(=O)(=O)c2ccc(C)cc2)c1
REMARK SMILES IDX 13 1 12 2 10 3 11 4 9 6 8 7 7 8 3 9 4 10 83 11 5 12 6 13
REMARK SMILES IDX 2 14 1 15 73 16 74 17 75 18 76 19 77 20 82 21 78 22 81 23
REMARK SMILES IDX 79 24 80 25 14 26 15 27 16 28 17 29 18 31 19 32 20 33 72 34
REMARK SMILES IDX 21 35 71 36 22 37 23 38 24 39 65 40 25 41 70 42 64 43 66 44
REMARK SMILES IDX 26 45 69 46 63 47 62 48 27 50 53 51 36 52 52 53 37 54 40 55
REMARK SMILES IDX 51 56 67 57 38 58 39 59 50 61 68 62 41 63 28 64 29 65 34 66
REMARK SMILES IDX 30 67 31 68 33 69 35 70 32 71 54 72 55 73 60 74 56 75 57 76
REMARK SMILES IDX 59 77 61 78 58 79 42 80 43 81 48 82 44 83 45 84 47 85 49 86
REMARK SMILES IDX 46 87
REMARK H PARENT 12 5 16 30 66 49 40 60
REMARK Flexibility Score: inf
ROOT
ATOM      1  C   UNL A   1      36.847  20.717  24.624  1.00  0.00     0.117 C 
ENDROOT
BRANCH   1   2
ATOM      2  N   UNL A   1      37.316  22.053  24.929  1.00  0.00    -0.354 N 
ATOM      3  C   UNL A   1      36.658  23.085  25.517  1.00  0.00     0.240 C 
ATOM      4  O   UNL A   1      37.282  24.132  25.687  1.00  0.00    -0.273 OA
ATOM      5  H   UNL A   1      38.247  22.240  24.671  1.00  0.00     0.163 HD
BRANCH   3   6
ATOM      6  C   UNL A   1      35.257  22.894  26.045  1.00  0.00     0.235 C 
BRANCH   6   7
ATOM      7  N   UNL A   1      34.061  23.111  25.182  1.00  0.00    -0.257 N 
BRANCH   7   8
ATOM      8  C   UNL A   1      33.885  24.463  24.588  1.00  0.00     0.056 A 
ATOM      9  C   UNL A   1      33.628  25.990  22.673  1.00  0.00     0.120 A 
ATOM     10  C   UNL A   1      33.544  27.075  23.538  1.00  0.00     0.046 A 
ATOM     11  C   UNL A   1      33.791  24.700  23.198  1.00  0.00     0.073 A 
ATOM     12  C   UNL A   1      33.669  26.884  24.908  1.00  0.00     0.006 A 
ATOM     13  C   UNL A   1      33.878  25.598  25.419  1.00  0.00     0.027 A 
BRANCH   9  14
ATOM     14  O   UNL A   1      33.560  26.328  21.348  1.00  0.00    -0.497 OA
ATOM     15  C   UNL A   1      32.604  25.654  20.540  1.00  0.00     0.278 C 
ENDBRANCH   9  14
ENDBRANCH   7   8
BRANCH   7  16
ATOM     16  S   UNL A   1      32.615  22.257  25.561  1.00  0.00     0.264 S 
ATOM     17  O   UNL A   1      32.587  22.137  27.008  1.00  0.00    -0.201 OA
ATOM     18  O   UNL A   1      31.521  22.917  24.872  1.00  0.00    -0.201 OA
BRANCH  16  19
ATOM     19  C   UNL A   1      32.640  20.601  24.932  1.00  0.00     0.088 A 
ATOM     20  C   UNL A   1      32.992  19.590  25.841  1.00  0.00     0.022 A 
ATOM     21  C   UNL A   1      32.373  20.286  23.603  1.00  0.00     0.022 A 
ATOM     22  C   UNL A   1      33.165  18.281  25.402  1.00  0.00     0.005 A 
ATOM     23  C   UNL A   1      32.585  18.973  23.160  1.00  0.00     0.005 A 
ATOM     24  C   UNL A   1      33.015  17.973  24.048  1.00  0.00    -0.051 A 
ATOM     25  C   UNL A   1      33.293  16.578  23.574  1.00  0.00     0.044 C 
ENDBRANCH  16  19
ENDBRANCH   7  16
ENDBRANCH   6   7
ENDBRANCH   3   6
ENDBRANCH   1   2
BRANCH   1  26
ATOM     26  C   UNL A   1      37.872  19.662  25.008  1.00  0.00     0.042 C 
BRANCH  26  27
ATOM     27  C   UNL A   1      39.078  20.237  25.739  1.00  0.00     0.118 C 
BRANCH  27  28
ATOM     28  N   UNL A   1      40.167  19.272  25.843  1.00  0.00    -0.352 N 
ATOM     29  C   UNL A   1      41.493  19.484  26.119  1.00  0.00     0.251 C 
ATOM     30  H   UNL A   1      39.912  18.331  25.694  1.00  0.00     0.163 HD
ATOM     31  O   UNL A   1      42.314  18.590  25.940  1.00  0.00    -0.269 OA
BRANCH  29  32
ATOM     32  C   UNL A   1      41.928  20.802  26.620  1.00  0.00     0.039 A 
ATOM     33  C   UNL A   1      42.390  21.757  25.712  1.00  0.00     0.014 A 
ATOM     34  C   UNL A   1      41.868  21.094  27.985  1.00  0.00     0.014 A 
ATOM     35  C   UNL A   1      42.729  23.031  26.170  1.00  0.00     0.010 A 
ATOM     36  C   UNL A   1      42.123  22.386  28.426  1.00  0.00     0.010 A 
ATOM     37  C   UNL A   1      42.560  23.366  27.523  1.00  0.00    -0.014 A 
BRANCH  37  38
ATOM     38  C   UNL A   1      42.833  24.737  28.021  1.00  0.00     0.031 A 
ATOM     39  C   UNL A   1      44.226  25.125  28.428  1.00  0.00     0.074 A 
ATOM     40  C   UNL A   1      41.813  25.602  28.178  1.00  0.00     0.049 A 
ATOM     41  N   UNL A   1      44.650  26.240  28.967  1.00  0.00    -0.248 NA
ATOM     42  C   UNL A   1      45.279  24.115  28.233  1.00  0.00     0.031 C 
ATOM     43  C   UNL A   1      40.410  25.324  27.868  1.00  0.00     0.029 A 
ATOM     44  N   UNL A   1      41.799  26.889  28.653  1.00  0.00    -0.354 N 
ATOM     45  C   UNL A   1      46.008  26.059  29.191  1.00  0.00     0.074 A 
ATOM     46  C   UNL A   1      46.329  24.709  28.780  1.00  0.00     0.031 C 
ATOM     47  C   UNL A   1      39.674  26.414  28.138  1.00  0.00     0.029 A 
ATOM     48  C   UNL A   1      40.546  27.452  28.680  1.00  0.00     0.049 A 
ATOM     49  H   UNL A   1      42.610  27.364  28.947  1.00  0.00     0.167 HD
ATOM     50  C   UNL A   1      46.912  26.945  29.671  1.00  0.00     0.037 A 
ATOM     51  C   UNL A   1      40.146  28.666  29.101  1.00  0.00     0.037 A 
ATOM     52  C   UNL A   1      46.593  28.294  30.055  1.00  0.00     0.049 A 
ATOM     53  C   UNL A   1      41.168  29.630  29.637  1.00  0.00     0.074 A 
ATOM     54  C   UNL A   1      47.447  29.291  30.493  1.00  0.00     0.029 A 
ATOM     55  N   UNL A   1      45.315  28.835  30.049  1.00  0.00    -0.354 N 
ATOM     56  N   UNL A   1      42.461  29.471  29.775  1.00  0.00    -0.248 NA
ATOM     57  C   UNL A   1      40.674  30.944  30.070  1.00  0.00     0.031 C 
ATOM     58  C   UNL A   1      46.680  30.422  30.795  1.00  0.00     0.029 A 
ATOM     59  C   UNL A   1      45.355  30.145  30.498  1.00  0.00     0.049 A 
ATOM     60  H   UNL A   1      44.502  28.359  29.767  1.00  0.00     0.167 HD
ATOM     61  C   UNL A   1      42.940  30.670  30.286  1.00  0.00     0.074 A 
ATOM     62  C   UNL A   1      41.799  31.553  30.417  1.00  0.00     0.031 C 
ATOM     63  C   UNL A   1      44.210  31.011  30.617  1.00  0.00     0.037 A 
BRANCH  50  64
ATOM     64  C   UNL A   1      48.334  26.480  29.803  1.00  0.00     0.057 A 
ATOM     65  C   UNL A   1      49.274  26.678  28.784  1.00  0.00     0.134 A 
ATOM     66  C   UNL A   1      48.775  25.850  30.974  1.00  0.00     0.134 A 
ATOM     67  F   UNL A   1      48.915  27.263  27.631  1.00  0.00    -0.206 F 
ATOM     68  C   UNL A   1      50.595  26.242  28.912  1.00  0.00     0.040 A 
ATOM     69  C   UNL A   1      50.100  25.436  31.126  1.00  0.00     0.040 A 
ATOM     70  F   UNL A   1      47.929  25.633  31.992  1.00  0.00    -0.206 F 
ATOM     71  C   UNL A   1      51.011  25.625  30.089  1.00  0.00     0.006 A 
ENDBRANCH  50  64
BRANCH  51  72
ATOM     72  C   UNL A   1      38.713  29.047  29.016  1.00  0.00     0.057 A 
ATOM     73  C   UNL A   1      38.171  29.548  27.828  1.00  0.00     0.134 A 
ATOM     74  C   UNL A   1      37.855  28.929  30.117  1.00  0.00     0.134 A 
ATOM     75  F   UNL A   1      38.947  29.702  26.744  1.00  0.00    -0.206 F 
ATOM     76  C   UNL A   1      36.833  29.938  27.740  1.00  0.00     0.040 A 
ATOM     77  C   UNL A   1      36.510  29.290  30.037  1.00  0.00     0.040 A 
ATOM     78  F   UNL A   1      38.311  28.448  31.283  1.00  0.00    -0.206 F 
ATOM     79  C   UNL A   1      35.997  29.803  28.847  1.00  0.00     0.006 A 
ENDBRANCH  51  72
BRANCH  63  80
ATOM     80  C   UNL A   1      44.435  32.405  31.122  1.00  0.00     0.057 A 
ATOM     81  C   UNL A   1      44.663  33.479  30.253  1.00  0.00     0.134 A 
ATOM     82  C   UNL A   1      44.383  32.683  32.495  1.00  0.00     0.134 A 
ATOM     83  F   UNL A   1      44.738  33.279  28.929  1.00  0.00    -0.206 F 
ATOM     84  C   UNL A   1      44.855  34.777  30.733  1.00  0.00     0.040 A 
ATOM     85  C   UNL A   1      44.546  33.979  32.983  1.00  0.00     0.040 A 
ATOM     86  F   UNL A   1      44.159  31.700  33.380  1.00  0.00    -0.206 F 
ATOM     87  C   UNL A   1      44.790  35.029  32.102  1.00  0.00     0.006 A 
ENDBRANCH  63  80
ENDBRANCH  37  38
ENDBRANCH  29  32
ENDBRANCH  27  28
ENDBRANCH  26  27
ENDBRANCH   1  26
TORSDOF 15
ENDMDL
