MODEL 1
REMARK VINA RESULT:     -10.9      0.000      0.000
REMARK SMILES CCCOc1ccc(N[C@H](C)[C@H](C)C(=O)NCCCNC(=O)c2ccc(-c3c4nc(c(-c5c(F)cccc5F)c5ccc([nH]5)c(-c5c(F)cccc5F)c5nc(c(-c6c(F)cccc6F)c6ccc3[nH]6)C=C5)C=C4)cc2)cc1
REMARK SMILES IDX 14 1 15 2 16 3 12 5 13 6 10 7 11 8 9 9 8 11 5 12 6 13 78 14
REMARK SMILES IDX 7 15 77 16 4 17 3 18 2 19 1 20 17 21 18 22 19 23 20 24 21 25
REMARK SMILES IDX 22 27 23 28 24 29 76 30 25 31 75 32 26 33 27 34 28 35 69 36
REMARK SMILES IDX 29 37 74 38 68 39 70 40 30 41 73 42 67 43 66 44 31 46 57 47
REMARK SMILES IDX 40 48 56 49 41 50 44 51 55 52 71 53 42 54 43 55 54 57 72 58
REMARK SMILES IDX 45 59 32 60 33 61 38 62 34 63 35 64 37 65 39 66 36 67 58 68
REMARK SMILES IDX 59 69 64 70 60 71 61 72 63 73 65 74 62 75 46 76 47 77 52 78
REMARK SMILES IDX 48 79 49 80 51 81 53 82 50 83
REMARK H PARENT 16 4 9 10 20 26 70 45 44 56
REMARK Flexibility Score: inf
ROOT
ATOM      1  C   UNL A   1      37.416  23.236  25.436  1.00  0.00     0.224 C 
ATOM      2  O   UNL A   1      37.936  24.036  26.222  1.00  0.00    -0.275 OA
ATOM      3  N   UNL A   1      37.865  21.960  25.499  1.00  0.00    -0.356 N 
ATOM      4  H   UNL A   1      38.643  21.827  26.087  1.00  0.00     0.163 HD
ENDROOT
BRANCH   1   5
ATOM      5  C   UNL A   1      36.324  23.707  24.479  1.00  0.00     0.097 C 
ATOM      6  C   UNL A   1      36.408  23.033  23.112  1.00  0.00     0.020 C 
BRANCH   5   7
ATOM      7  C   UNL A   1      34.897  23.829  25.074  1.00  0.00     0.088 C 
ATOM      8  C   UNL A   1      34.379  25.239  25.376  1.00  0.00     0.031 C 
BRANCH   7   9
ATOM      9  N   UNL A   1      33.937  23.152  24.208  1.00  0.00    -0.382 N 
ATOM     10  H   UNL A   1      33.569  23.660  23.449  1.00  0.00     0.160 HD
BRANCH   9  11
ATOM     11  C   UNL A   1      33.508  21.852  24.378  1.00  0.00     0.034 A 
ATOM     12  C   UNL A   1      32.595  19.218  24.598  1.00  0.00     0.119 A 
ATOM     13  C   UNL A   1      33.310  19.783  25.646  1.00  0.00     0.048 A 
ATOM     14  C   UNL A   1      32.233  19.981  23.496  1.00  0.00     0.048 A 
ATOM     15  C   UNL A   1      33.757  21.101  25.534  1.00  0.00     0.029 A 
ATOM     16  C   UNL A   1      32.718  21.280  23.374  1.00  0.00     0.029 A 
BRANCH  12  17
ATOM     17  O   UNL A   1      32.232  17.902  24.644  1.00  0.00    -0.494 OA
BRANCH  17  18
ATOM     18  C   UNL A   1      32.886  17.163  23.596  1.00  0.00     0.229 C 
BRANCH  18  19
ATOM     19  C   UNL A   1      34.399  17.064  23.828  1.00  0.00     0.038 C 
ATOM     20  C   UNL A   1      34.768  16.161  25.001  1.00  0.00     0.007 C 
ENDBRANCH  18  19
ENDBRANCH  17  18
ENDBRANCH  12  17
ENDBRANCH   9  11
ENDBRANCH   7   9
ENDBRANCH   5   7
ENDBRANCH   1   5
BRANCH   3  21
ATOM     21  C   UNL A   1      37.392  20.761  24.847  1.00  0.00     0.117 C 
BRANCH  21  22
ATOM     22  C   UNL A   1      38.316  19.578  25.036  1.00  0.00     0.042 C 
BRANCH  22  23
ATOM     23  C   UNL A   1      39.375  19.809  26.096  1.00  0.00     0.118 C 
BRANCH  23  24
ATOM     24  N   UNL A   1      40.472  18.851  26.019  1.00  0.00    -0.352 N 
ATOM     25  C   UNL A   1      41.835  19.046  26.034  1.00  0.00     0.251 C 
ATOM     26  H   UNL A   1      40.193  17.909  25.944  1.00  0.00     0.163 HD
ATOM     27  O   UNL A   1      42.590  18.125  25.758  1.00  0.00    -0.269 OA
BRANCH  25  28
ATOM     28  C   UNL A   1      42.381  20.381  26.354  1.00  0.00     0.039 A 
ATOM     29  C   UNL A   1      42.847  21.198  25.322  1.00  0.00     0.014 A 
ATOM     30  C   UNL A   1      42.415  20.833  27.673  1.00  0.00     0.014 A 
ATOM     31  C   UNL A   1      43.258  22.501  25.607  1.00  0.00     0.010 A 
ATOM     32  C   UNL A   1      42.695  22.166  27.936  1.00  0.00     0.010 A 
ATOM     33  C   UNL A   1      43.134  23.011  26.910  1.00  0.00    -0.014 A 
BRANCH  33  34
ATOM     34  C   UNL A   1      43.468  24.420  27.234  1.00  0.00     0.031 A 
ATOM     35  C   UNL A   1      44.897  24.887  27.162  1.00  0.00     0.074 A 
ATOM     36  C   UNL A   1      42.505  25.249  27.678  1.00  0.00     0.049 A 
ATOM     37  N   UNL A   1      45.406  26.047  27.487  1.00  0.00    -0.248 NA
ATOM     38  C   UNL A   1      45.893  23.903  26.705  1.00  0.00     0.031 C 
ATOM     39  C   UNL A   1      41.094  24.899  27.846  1.00  0.00     0.029 A 
ATOM     40  N   UNL A   1      42.570  26.560  28.075  1.00  0.00    -0.354 N 
ATOM     41  C   UNL A   1      46.777  25.922  27.300  1.00  0.00     0.074 A 
ATOM     42  C   UNL A   1      47.027  24.555  26.902  1.00  0.00     0.031 C 
ATOM     43  C   UNL A   1      40.419  25.981  28.267  1.00  0.00     0.029 A 
ATOM     44  C   UNL A   1      41.356  27.085  28.445  1.00  0.00     0.049 A 
ATOM     45  H   UNL A   1      43.408  27.078  28.095  1.00  0.00     0.167 HD
ATOM     46  C   UNL A   1      47.739  26.867  27.421  1.00  0.00     0.037 A 
ATOM     47  C   UNL A   1      41.034  28.317  28.878  1.00  0.00     0.037 A 
ATOM     48  C   UNL A   1      47.477  28.234  27.785  1.00  0.00     0.049 A 
ATOM     49  C   UNL A   1      42.118  29.350  29.013  1.00  0.00     0.074 A 
ATOM     50  C   UNL A   1      48.364  29.293  27.856  1.00  0.00     0.029 A 
ATOM     51  N   UNL A   1      46.232  28.727  28.149  1.00  0.00    -0.354 N 
ATOM     52  N   UNL A   1      43.399  29.244  28.752  1.00  0.00    -0.248 NA
ATOM     53  C   UNL A   1      41.711  30.674  29.500  1.00  0.00     0.031 C 
ATOM     54  C   UNL A   1      47.666  30.414  28.319  1.00  0.00     0.029 A 
ATOM     55  C   UNL A   1      46.334  30.069  28.480  1.00  0.00     0.049 A 
ATOM     56  H   UNL A   1      45.400  28.203  28.169  1.00  0.00     0.167 HD
ATOM     57  C   UNL A   1      43.946  30.492  29.015  1.00  0.00     0.074 A 
ATOM     58  C   UNL A   1      42.855  31.343  29.445  1.00  0.00     0.031 C 
ATOM     59  C   UNL A   1      45.236  30.900  28.907  1.00  0.00     0.037 A 
BRANCH  46  60
ATOM     60  C   UNL A   1      49.157  26.443  27.162  1.00  0.00     0.057 A 
ATOM     61  C   UNL A   1      49.711  26.437  25.873  1.00  0.00     0.134 A 
ATOM     62  C   UNL A   1      49.979  26.026  28.217  1.00  0.00     0.134 A 
ATOM     63  F   UNL A   1      48.977  26.811  24.815  1.00  0.00    -0.206 F 
ATOM     64  C   UNL A   1      51.013  25.989  25.639  1.00  0.00     0.040 A 
ATOM     65  C   UNL A   1      51.293  25.609  27.999  1.00  0.00     0.040 A 
ATOM     66  F   UNL A   1      49.519  26.013  29.476  1.00  0.00    -0.206 F 
ATOM     67  C   UNL A   1      51.809  25.577  26.704  1.00  0.00     0.006 A 
ENDBRANCH  46  60
BRANCH  47  68
ATOM     68  C   UNL A   1      39.618  28.655  29.165  1.00  0.00     0.057 A 
ATOM     69  C   UNL A   1      39.093  28.495  30.454  1.00  0.00     0.134 A 
ATOM     70  C   UNL A   1      38.762  29.159  28.179  1.00  0.00     0.134 A 
ATOM     71  F   UNL A   1      39.859  28.000  31.438  1.00  0.00    -0.206 F 
ATOM     72  C   UNL A   1      37.767  28.813  30.749  1.00  0.00     0.040 A 
ATOM     73  C   UNL A   1      37.440  29.505  28.465  1.00  0.00     0.040 A 
ATOM     74  F   UNL A   1      39.207  29.346  26.928  1.00  0.00    -0.206 F 
ATOM     75  C   UNL A   1      36.938  29.325  29.753  1.00  0.00     0.006 A 
ENDBRANCH  47  68
BRANCH  59  76
ATOM     76  C   UNL A   1      45.530  32.336  29.228  1.00  0.00     0.057 A 
ATOM     77  C   UNL A   1      45.943  32.742  30.504  1.00  0.00     0.134 A 
ATOM     78  C   UNL A   1      45.441  33.320  28.234  1.00  0.00     0.134 A 
ATOM     79  F   UNL A   1      46.035  31.852  31.504  1.00  0.00    -0.206 F 
ATOM     80  C   UNL A   1      46.233  34.078  30.785  1.00  0.00     0.040 A 
ATOM     81  C   UNL A   1      45.759  34.653  28.495  1.00  0.00     0.040 A 
ATOM     82  F   UNL A   1      45.061  32.997  26.989  1.00  0.00    -0.206 F 
ATOM     83  C   UNL A   1      46.149  35.036  29.776  1.00  0.00     0.006 A 
ENDBRANCH  59  76
ENDBRANCH  33  34
ENDBRANCH  25  28
ENDBRANCH  23  24
ENDBRANCH  22  23
ENDBRANCH  21  22
ENDBRANCH   3  21
TORSDOF 16
ENDMDL
MODEL 2
REMARK VINA RESULT:     -10.9      0.637      6.411
REMARK SMILES CCCOc1ccc(N[C@H](C)[C@H](C)C(=O)NCCCNC(=O)c2ccc(-c3c4nc(c(-c5c(F)cccc5F)c5ccc([nH]5)c(-c5c(F)cccc5F)c5nc(c(-c6c(F)cccc6F)c6ccc3[nH]6)C=C5)C=C4)cc2)cc1
REMARK SMILES IDX 14 1 15 2 16 3 12 5 13 6 10 7 11 8 9 9 8 11 5 12 6 13 78 14
REMARK SMILES IDX 7 15 77 16 4 17 3 18 2 19 1 20 17 21 18 22 19 23 20 24 21 25
REMARK SMILES IDX 22 27 23 28 24 29 76 30 25 31 75 32 26 33 27 34 28 35 69 36
REMARK SMILES IDX 29 37 74 38 68 39 70 40 30 41 73 42 67 43 66 44 31 46 57 47
REMARK SMILES IDX 40 48 56 49 41 50 44 51 55 52 71 53 42 54 43 55 54 57 72 58
REMARK SMILES IDX 45 59 32 60 33 61 38 62 34 63 35 64 37 65 39 66 36 67 58 68
REMARK SMILES IDX 59 69 64 70 60 71 61 72 63 73 65 74 62 75 46 76 47 77 52 78
REMARK SMILES IDX 48 79 49 80 51 81 53 82 50 83
REMARK H PARENT 16 4 9 10 20 26 70 45 44 56
REMARK Flexibility Score: inf
ROOT
ATOM      1  C   UNL A   1      37.100  23.319  25.527  1.00  0.00     0.224 C 
ATOM      2  O   UNL A   1      37.590  24.156  26.293  1.00  0.00    -0.275 OA
ATOM      3  N   UNL A   1      37.576  22.056  25.640  1.00  0.00    -0.356 N 
ATOM      4  H   UNL A   1      38.348  21.961  26.244  1.00  0.00     0.163 HD
ENDROOT
BRANCH   1   5
ATOM      5  C   UNL A   1      36.013  23.733  24.539  1.00  0.00     0.097 C 
ATOM      6  C   UNL A   1      36.244  23.170  23.139  1.00  0.00     0.020 C 
BRANCH   5   7
ATOM      7  C   UNL A   1      34.552  23.655  25.055  1.00  0.00     0.088 C 
ATOM      8  C   UNL A   1      33.874  24.971  25.447  1.00  0.00     0.031 C 
BRANCH   7   9
ATOM      9  N   UNL A   1      33.715  22.969  24.076  1.00  0.00    -0.382 N 
ATOM     10  H   UNL A   1      33.436  23.475  23.279  1.00  0.00     0.160 HD
BRANCH   9  11
ATOM     11  C   UNL A   1      33.286  21.663  24.188  1.00  0.00     0.034 A 
ATOM     12  C   UNL A   1      32.455  19.016  24.543  1.00  0.00     0.119 A 
ATOM     13  C   UNL A   1      32.194  19.659  23.340  1.00  0.00     0.048 A 
ATOM     14  C   UNL A   1      33.220  19.634  25.523  1.00  0.00     0.048 A 
ATOM     15  C   UNL A   1      32.619  20.978  23.165  1.00  0.00     0.029 A 
ATOM     16  C   UNL A   1      33.602  20.962  25.358  1.00  0.00     0.029 A 
BRANCH  12  17
ATOM     17  O   UNL A   1      31.966  17.762  24.772  1.00  0.00    -0.494 OA
BRANCH  17  18
ATOM     18  C   UNL A   1      32.843  17.033  25.649  1.00  0.00     0.229 C 
BRANCH  18  19
ATOM     19  C   UNL A   1      33.664  15.983  24.891  1.00  0.00     0.038 C 
ATOM     20  C   UNL A   1      35.143  15.991  25.265  1.00  0.00     0.007 C 
ENDBRANCH  18  19
ENDBRANCH  17  18
ENDBRANCH  12  17
ENDBRANCH   9  11
ENDBRANCH   7   9
ENDBRANCH   5   7
ENDBRANCH   1   5
BRANCH   3  21
ATOM     21  C   UNL A   1      37.140  20.825  25.023  1.00  0.00     0.117 C 
BRANCH  21  22
ATOM     22  C   UNL A   1      38.188  19.736  25.062  1.00  0.00     0.042 C 
BRANCH  22  23
ATOM     23  C   UNL A   1      39.416  20.116  25.867  1.00  0.00     0.118 C 
BRANCH  23  24
ATOM     24  N   UNL A   1      40.402  19.043  25.938  1.00  0.00    -0.352 N 
ATOM     25  C   UNL A   1      41.769  19.091  26.085  1.00  0.00     0.251 C 
ATOM     26  H   UNL A   1      40.027  18.134  25.868  1.00  0.00     0.163 HD
ATOM     27  O   UNL A   1      42.440  18.082  25.921  1.00  0.00    -0.269 OA
BRANCH  25  28
ATOM     28  C   UNL A   1      42.427  20.373  26.413  1.00  0.00     0.039 A 
ATOM     29  C   UNL A   1      43.138  21.052  25.421  1.00  0.00     0.014 A 
ATOM     30  C   UNL A   1      42.325  20.913  27.694  1.00  0.00     0.014 A 
ATOM     31  C   UNL A   1      43.664  22.316  25.694  1.00  0.00     0.010 A 
ATOM     32  C   UNL A   1      42.730  22.219  27.924  1.00  0.00     0.010 A 
ATOM     33  C   UNL A   1      43.417  22.930  26.933  1.00  0.00    -0.014 A 
BRANCH  33  34
ATOM     34  C   UNL A   1      43.876  24.310  27.227  1.00  0.00     0.031 A 
ATOM     35  C   UNL A   1      42.886  25.347  27.687  1.00  0.00     0.074 A 
ATOM     36  C   UNL A   1      45.157  24.652  26.995  1.00  0.00     0.049 A 
ATOM     37  N   UNL A   1      43.068  26.623  27.912  1.00  0.00    -0.248 NA
ATOM     38  C   UNL A   1      41.497  24.898  27.876  1.00  0.00     0.031 C 
ATOM     39  C   UNL A   1      46.199  23.752  26.495  1.00  0.00     0.029 A 
ATOM     40  N   UNL A   1      45.802  25.853  27.145  1.00  0.00    -0.354 N 
ATOM     41  C   UNL A   1      41.817  27.129  28.241  1.00  0.00     0.074 A 
ATOM     42  C   UNL A   1      40.874  26.040  28.117  1.00  0.00     0.031 C 
ATOM     43  C   UNL A   1      47.361  24.421  26.425  1.00  0.00     0.029 A 
ATOM     44  C   UNL A   1      47.137  25.805  26.826  1.00  0.00     0.049 A 
ATOM     45  H   UNL A   1      45.350  26.673  27.452  1.00  0.00     0.167 HD
ATOM     46  C   UNL A   1      41.486  28.380  28.638  1.00  0.00     0.037 A 
ATOM     47  C   UNL A   1      48.074  26.769  26.856  1.00  0.00     0.037 A 
ATOM     48  C   UNL A   1      42.437  29.450  28.790  1.00  0.00     0.049 A 
ATOM     49  C   UNL A   1      47.685  28.155  27.292  1.00  0.00     0.074 A 
ATOM     50  C   UNL A   1      42.225  30.731  29.264  1.00  0.00     0.029 A 
ATOM     51  N   UNL A   1      43.781  29.361  28.459  1.00  0.00    -0.354 N 
ATOM     52  N   UNL A   1      46.515  28.601  27.681  1.00  0.00    -0.248 NA
ATOM     53  C   UNL A   1      48.747  29.169  27.293  1.00  0.00     0.031 C 
ATOM     54  C   UNL A   1      43.429  31.435  29.166  1.00  0.00     0.029 A 
ATOM     55  C   UNL A   1      44.405  30.577  28.687  1.00  0.00     0.049 A 
ATOM     56  H   UNL A   1      44.226  28.554  28.115  1.00  0.00     0.167 HD
ATOM     57  C   UNL A   1      46.705  29.938  28.002  1.00  0.00     0.074 A 
ATOM     58  C   UNL A   1      48.106  30.226  27.772  1.00  0.00     0.031 C 
ATOM     59  C   UNL A   1      45.802  30.845  28.451  1.00  0.00     0.037 A 
BRANCH  46  60
ATOM     60  C   UNL A   1      40.036  28.651  28.924  1.00  0.00     0.057 A 
ATOM     61  C   UNL A   1      39.472  28.433  30.190  1.00  0.00     0.134 A 
ATOM     62  C   UNL A   1      39.188  29.128  27.917  1.00  0.00     0.134 A 
ATOM     63  F   UNL A   1      40.223  27.965  31.198  1.00  0.00    -0.206 F 
ATOM     64  C   UNL A   1      38.111  28.637  30.430  1.00  0.00     0.040 A 
ATOM     65  C   UNL A   1      37.833  29.368  28.154  1.00  0.00     0.040 A 
ATOM     66  F   UNL A   1      39.660  29.365  26.684  1.00  0.00    -0.206 F 
ATOM     67  C   UNL A   1      37.289  29.110  29.411  1.00  0.00     0.006 A 
ENDBRANCH  46  60
BRANCH  47  68
ATOM     68  C   UNL A   1      49.481  26.445  26.510  1.00  0.00     0.057 A 
ATOM     69  C   UNL A   1      50.345  25.900  27.468  1.00  0.00     0.134 A 
ATOM     70  C   UNL A   1      49.993  26.651  25.224  1.00  0.00     0.134 A 
ATOM     71  F   UNL A   1      49.917  25.695  28.723  1.00  0.00    -0.206 F 
ATOM     72  C   UNL A   1      51.669  25.581  27.163  1.00  0.00     0.040 A 
ATOM     73  C   UNL A   1      51.308  26.314  24.898  1.00  0.00     0.040 A 
ATOM     74  F   UNL A   1      49.213  27.161  24.258  1.00  0.00    -0.206 F 
ATOM     75  C   UNL A   1      52.151  25.782  25.872  1.00  0.00     0.006 A 
ENDBRANCH  47  68
BRANCH  59  76
ATOM     76  C   UNL A   1      46.308  32.225  28.752  1.00  0.00     0.057 A 
ATOM     77  C   UNL A   1      46.293  33.248  27.796  1.00  0.00     0.134 A 
ATOM     78  C   UNL A   1      46.778  32.546  30.033  1.00  0.00     0.134 A 
ATOM     79  F   UNL A   1      45.867  33.003  26.547  1.00  0.00    -0.206 F 
ATOM     80  C   UNL A   1      46.748  34.533  28.094  1.00  0.00     0.040 A 
ATOM     81  C   UNL A   1      47.207  33.835  30.353  1.00  0.00     0.040 A 
ATOM     82  F   UNL A   1      46.812  31.616  31.000  1.00  0.00    -0.206 F 
ATOM     83  C   UNL A   1      47.199  34.831  29.379  1.00  0.00     0.006 A 
ENDBRANCH  59  76
ENDBRANCH  33  34
ENDBRANCH  25  28
ENDBRANCH  23  24
ENDBRANCH  22  23
ENDBRANCH  21  22
ENDBRANCH   3  21
TORSDOF 16
ENDMDL
MODEL 3
REMARK VINA RESULT:     -10.8      2.181      4.033
REMARK SMILES CCCOc1ccc(N[C@H](C)[C@H](C)C(=O)NCCCNC(=O)c2ccc(-c3c4nc(c(-c5c(F)cccc5F)c5ccc([nH]5)c(-c5c(F)cccc5F)c5nc(c(-c6c(F)cccc6F)c6ccc3[nH]6)C=C5)C=C4)cc2)cc1
REMARK SMILES IDX 14 1 15 2 16 3 12 5 13 6 10 7 11 8 9 9 8 11 5 12 6 13 78 14
REMARK SMILES IDX 7 15 77 16 4 17 3 18 2 19 1 20 17 21 18 22 19 23 20 24 21 25
REMARK SMILES IDX 22 27 23 28 24 29 76 30 25 31 75 32 26 33 27 34 28 35 69 36
REMARK SMILES IDX 29 37 74 38 68 39 70 40 30 41 73 42 67 43 66 44 31 46 57 47
REMARK SMILES IDX 40 48 56 49 41 50 44 51 55 52 71 53 42 54 43 55 54 57 72 58
REMARK SMILES IDX 45 59 32 60 33 61 38 62 34 63 35 64 37 65 39 66 36 67 58 68
REMARK SMILES IDX 59 69 64 70 60 71 61 72 63 73 65 74 62 75 46 76 47 77 52 78
REMARK SMILES IDX 48 79 49 80 51 81 53 82 50 83
REMARK H PARENT 16 4 9 10 20 26 70 45 44 56
REMARK Flexibility Score: inf
ROOT
ATOM      1  C   UNL A   1      34.063  20.280  24.985  1.00  0.00     0.224 C 
ATOM      2  O   UNL A   1      33.243  19.370  25.156  1.00  0.00    -0.275 OA
ATOM      3  N   UNL A   1      35.360  19.966  25.215  1.00  0.00    -0.356 N 
ATOM      4  H   UNL A   1      35.502  19.074  25.608  1.00  0.00     0.163 HD
ENDROOT
BRANCH   1   5
ATOM      5  C   UNL A   1      33.590  21.656  24.525  1.00  0.00     0.097 C 
ATOM      6  C   UNL A   1      32.526  21.579  23.433  1.00  0.00     0.020 C 
BRANCH   5   7
ATOM      7  C   UNL A   1      33.323  22.699  25.642  1.00  0.00     0.088 C 
ATOM      8  C   UNL A   1      33.476  22.232  27.092  1.00  0.00     0.031 C 
BRANCH   7   9
ATOM      9  N   UNL A   1      34.163  23.874  25.436  1.00  0.00    -0.382 N 
ATOM     10  H   UNL A   1      35.128  23.783  25.612  1.00  0.00     0.160 HD
BRANCH   9  11
ATOM     11  C   UNL A   1      33.703  25.104  25.012  1.00  0.00     0.034 A 
ATOM     12  C   UNL A   1      32.817  27.649  24.266  1.00  0.00     0.119 A 
ATOM     13  C   UNL A   1      32.693  26.593  23.372  1.00  0.00     0.048 A 
ATOM     14  C   UNL A   1      33.269  27.431  25.560  1.00  0.00     0.048 A 
ATOM     15  C   UNL A   1      33.130  25.322  23.753  1.00  0.00     0.029 A 
ATOM     16  C   UNL A   1      33.741  26.171  25.917  1.00  0.00     0.029 A 
BRANCH  12  17
ATOM     17  O   UNL A   1      32.487  28.917  23.881  1.00  0.00    -0.494 OA
BRANCH  17  18
ATOM     18  C   UNL A   1      31.242  29.317  24.484  1.00  0.00     0.229 C 
BRANCH  18  19
ATOM     19  C   UNL A   1      30.136  29.502  23.439  1.00  0.00     0.038 C 
ATOM     20  C   UNL A   1      29.352  28.222  23.161  1.00  0.00     0.007 C 
ENDBRANCH  18  19
ENDBRANCH  17  18
ENDBRANCH  12  17
ENDBRANCH   9  11
ENDBRANCH   7   9
ENDBRANCH   5   7
ENDBRANCH   1   5
BRANCH   3  21
ATOM     21  C   UNL A   1      36.569  20.720  24.980  1.00  0.00     0.117 C 
BRANCH  21  22
ATOM     22  C   UNL A   1      37.799  19.849  24.857  1.00  0.00     0.042 C 
BRANCH  22  23
ATOM     23  C   UNL A   1      38.960  20.330  25.705  1.00  0.00     0.118 C 
BRANCH  23  24
ATOM     24  N   UNL A   1      40.041  19.353  25.793  1.00  0.00    -0.352 N 
ATOM     25  C   UNL A   1      41.375  19.517  26.089  1.00  0.00     0.251 C 
ATOM     26  H   UNL A   1      39.771  18.424  25.609  1.00  0.00     0.163 HD
ATOM     27  O   UNL A   1      42.159  18.596  25.916  1.00  0.00    -0.269 OA
BRANCH  25  28
ATOM     28  C   UNL A   1      41.860  20.820  26.588  1.00  0.00     0.039 A 
ATOM     29  C   UNL A   1      42.323  21.775  25.680  1.00  0.00     0.014 A 
ATOM     30  C   UNL A   1      41.841  21.106  27.953  1.00  0.00     0.014 A 
ATOM     31  C   UNL A   1      42.675  23.046  26.136  1.00  0.00     0.010 A 
ATOM     32  C   UNL A   1      42.063  22.405  28.387  1.00  0.00     0.010 A 
ATOM     33  C   UNL A   1      42.496  23.386  27.487  1.00  0.00    -0.014 A 
BRANCH  33  34
ATOM     34  C   UNL A   1      42.767  24.754  27.992  1.00  0.00     0.031 A 
ATOM     35  C   UNL A   1      44.168  25.145  28.381  1.00  0.00     0.074 A 
ATOM     36  C   UNL A   1      41.745  25.608  28.187  1.00  0.00     0.049 A 
ATOM     37  N   UNL A   1      44.596  26.257  28.922  1.00  0.00    -0.248 NA
ATOM     38  C   UNL A   1      45.219  24.136  28.174  1.00  0.00     0.031 C 
ATOM     39  C   UNL A   1      40.337  25.327  27.903  1.00  0.00     0.029 A 
ATOM     40  N   UNL A   1      41.735  26.890  28.675  1.00  0.00    -0.354 N 
ATOM     41  C   UNL A   1      45.955  26.068  29.142  1.00  0.00     0.074 A 
ATOM     42  C   UNL A   1      46.264  24.713  28.743  1.00  0.00     0.031 C 
ATOM     43  C   UNL A   1      39.606  26.418  28.178  1.00  0.00     0.029 A 
ATOM     44  C   UNL A   1      40.484  27.458  28.702  1.00  0.00     0.049 A 
ATOM     45  H   UNL A   1      42.546  27.359  28.979  1.00  0.00     0.167 HD
ATOM     46  C   UNL A   1      46.869  26.951  29.609  1.00  0.00     0.037 A 
ATOM     47  C   UNL A   1      40.092  28.681  29.104  1.00  0.00     0.037 A 
ATOM     48  C   UNL A   1      46.559  28.308  29.973  1.00  0.00     0.049 A 
ATOM     49  C   UNL A   1      41.121  29.644  29.626  1.00  0.00     0.074 A 
ATOM     50  C   UNL A   1      47.420  29.311  30.377  1.00  0.00     0.029 A 
ATOM     51  N   UNL A   1      45.280  28.847  29.984  1.00  0.00    -0.354 N 
ATOM     52  N   UNL A   1      42.417  29.482  29.752  1.00  0.00    -0.248 NA
ATOM     53  C   UNL A   1      40.634  30.959  30.061  1.00  0.00     0.031 C 
ATOM     54  C   UNL A   1      46.656  30.441  30.688  1.00  0.00     0.029 A 
ATOM     55  C   UNL A   1      45.325  30.161  30.422  1.00  0.00     0.049 A 
ATOM     56  H   UNL A   1      44.462  28.368  29.719  1.00  0.00     0.167 HD
ATOM     57  C   UNL A   1      42.903  30.683  30.251  1.00  0.00     0.074 A 
ATOM     58  C   UNL A   1      41.764  31.567  30.395  1.00  0.00     0.031 C 
ATOM     59  C   UNL A   1      44.179  31.025  30.559  1.00  0.00     0.037 A 
BRANCH  46  60
ATOM     60  C   UNL A   1      48.284  26.465  29.755  1.00  0.00     0.057 A 
ATOM     61  C   UNL A   1      48.743  25.846  30.927  1.00  0.00     0.134 A 
ATOM     62  C   UNL A   1      49.204  26.626  28.711  1.00  0.00     0.134 A 
ATOM     63  F   UNL A   1      47.920  25.672  31.972  1.00  0.00    -0.206 F 
ATOM     64  C   UNL A   1      50.074  25.448  31.071  1.00  0.00     0.040 A 
ATOM     65  C   UNL A   1      50.527  26.200  28.831  1.00  0.00     0.040 A 
ATOM     66  F   UNL A   1      48.833  27.203  27.558  1.00  0.00    -0.206 F 
ATOM     67  C   UNL A   1      50.969  25.621  30.019  1.00  0.00     0.006 A 
ENDBRANCH  46  60
BRANCH  47  68
ATOM     68  C   UNL A   1      38.667  29.078  28.981  1.00  0.00     0.057 A 
ATOM     69  C   UNL A   1      37.806  29.002  30.083  1.00  0.00     0.134 A 
ATOM     70  C   UNL A   1      38.134  29.559  27.779  1.00  0.00     0.134 A 
ATOM     71  F   UNL A   1      38.254  28.534  31.257  1.00  0.00    -0.206 F 
ATOM     72  C   UNL A   1      36.465  29.377  29.991  1.00  0.00     0.040 A 
ATOM     73  C   UNL A   1      36.801  29.961  27.679  1.00  0.00     0.040 A 
ATOM     74  F   UNL A   1      38.910  29.666  26.690  1.00  0.00    -0.206 F 
ATOM     75  C   UNL A   1      35.962  29.864  28.787  1.00  0.00     0.006 A 
ENDBRANCH  47  68
BRANCH  59  76
ATOM     76  C   UNL A   1      44.415  32.423  31.052  1.00  0.00     0.057 A 
ATOM     77  C   UNL A   1      44.405  32.741  32.416  1.00  0.00     0.134 A 
ATOM     78  C   UNL A   1      44.697  33.457  30.149  1.00  0.00     0.134 A 
ATOM     79  F   UNL A   1      44.128  31.800  33.331  1.00  0.00    -0.206 F 
ATOM     80  C   UNL A   1      44.645  34.041  32.863  1.00  0.00     0.040 A 
ATOM     81  C   UNL A   1      44.969  34.754  30.586  1.00  0.00     0.040 A 
ATOM     82  F   UNL A   1      44.731  33.219  28.830  1.00  0.00    -0.206 F 
ATOM     83  C   UNL A   1      44.936  35.050  31.947  1.00  0.00     0.006 A 
ENDBRANCH  59  76
ENDBRANCH  33  34
ENDBRANCH  25  28
ENDBRANCH  23  24
ENDBRANCH  22  23
ENDBRANCH  21  22
ENDBRANCH   3  21
TORSDOF 16
ENDMDL
