MODEL 1
REMARK VINA RESULT:     -13.6      0.000      0.000
REMARK SMILES O=C(NCCCNC(=O)c1cccc2c1N[C@H](c1ccccc1Br)[C@H]1CC=C[C@H]21)c1ccc(-c2c3nc(c(-c4c(F)cccc4F)c4ccc([nH]4)c(-c4c(F)cccc4F)c4nc(c(-c5c(F)cccc5F)c5ccc2[nH]5)C=C4)C=C3)cc1
REMARK SMILES IDX 4 1 3 2 1 3 2 4 30 6 31 7 83 8 32 9 82 10 33 11 34 12 35 13
REMARK SMILES IDX 76 14 36 15 81 16 75 17 77 18 37 19 80 20 74 21 73 22 38 24
REMARK SMILES IDX 64 25 47 26 63 27 48 28 51 29 62 30 78 31 49 32 50 33 61 35
REMARK SMILES IDX 79 36 52 37 39 38 40 39 45 40 41 41 42 42 44 43 46 44 43 45
REMARK SMILES IDX 65 46 66 47 71 48 67 49 68 50 70 51 72 52 69 53 53 54 54 55
REMARK SMILES IDX 59 56 55 57 56 58 58 59 60 60 57 61 5 62 6 63 7 64 8 65 9 67
REMARK SMILES IDX 10 68 11 69 15 70 12 71 14 72 16 73 13 74 29 75 17 76 25 78
REMARK SMILES IDX 28 79 26 80 27 81 18 82 19 83 23 84 20 85 22 86 24 87 21 88
REMARK H PARENT 3 5 77 23 51 34 7 66 16 77
REMARK Flexibility Score: inf
ROOT
ATOM      1  C   UNL A   1      39.866  23.422  27.003  1.00  0.00     0.118 C 
ENDROOT
BRANCH   1   2
ATOM      2  N   UNL A   1      40.636  24.162  26.011  1.00  0.00    -0.352 N 
ATOM      3  O   UNL A   1      41.552  25.943  24.984  1.00  0.00    -0.269 OA
ATOM      4  C   UNL A   1      41.038  25.474  25.994  1.00  0.00     0.251 C 
ATOM      5  H   UNL A   1      40.911  23.636  25.225  1.00  0.00     0.163 HD
BRANCH   4   6
ATOM      6  C   UNL A   1      40.842  26.332  27.183  1.00  0.00     0.039 A 
ATOM      7  C   UNL A   1      39.836  25.997  28.095  1.00  0.00     0.014 A 
ATOM      8  C   UNL A   1      41.611  27.480  27.385  1.00  0.00     0.014 A 
ATOM      9  C   UNL A   1      39.635  26.785  29.230  1.00  0.00     0.010 A 
ATOM     10  C   UNL A   1      41.477  28.208  28.560  1.00  0.00     0.010 A 
ATOM     11  C   UNL A   1      40.469  27.884  29.480  1.00  0.00    -0.014 A 
BRANCH  11  12
ATOM     12  C   UNL A   1      40.263  28.767  30.654  1.00  0.00     0.031 A 
ATOM     13  C   UNL A   1      39.218  29.846  30.590  1.00  0.00     0.074 A 
ATOM     14  C   UNL A   1      41.054  28.655  31.736  1.00  0.00     0.049 A 
ATOM     15  N   UNL A   1      38.965  30.810  31.438  1.00  0.00    -0.248 NA
ATOM     16  C   UNL A   1      38.366  29.862  29.390  1.00  0.00     0.031 C 
ATOM     17  C   UNL A   1      42.125  27.672  31.906  1.00  0.00     0.029 A 
ATOM     18  N   UNL A   1      41.092  29.394  32.891  1.00  0.00    -0.354 N 
ATOM     19  C   UNL A   1      37.948  31.559  30.860  1.00  0.00     0.074 A 
ATOM     20  C   UNL A   1      37.671  30.974  29.567  1.00  0.00     0.031 C 
ATOM     21  C   UNL A   1      42.710  27.865  33.099  1.00  0.00     0.029 A 
ATOM     22  C   UNL A   1      42.085  29.009  33.756  1.00  0.00     0.049 A 
ATOM     23  H   UNL A   1      40.466  30.129  33.081  1.00  0.00     0.167 HD
ATOM     24  C   UNL A   1      37.287  32.626  31.368  1.00  0.00     0.037 A 
ATOM     25  C   UNL A   1      42.462  29.536  34.936  1.00  0.00     0.037 A 
ATOM     26  C   UNL A   1      37.545  33.187  32.667  1.00  0.00     0.049 A 
ATOM     27  C   UNL A   1      41.733  30.734  35.475  1.00  0.00     0.074 A 
ATOM     28  C   UNL A   1      36.878  34.212  33.316  1.00  0.00     0.029 A 
ATOM     29  N   UNL A   1      38.561  32.770  33.515  1.00  0.00    -0.354 N 
ATOM     30  N   UNL A   1      40.730  31.396  34.950  1.00  0.00    -0.248 NA
ATOM     31  C   UNL A   1      42.191  31.261  36.767  1.00  0.00     0.031 C 
ATOM     32  C   UNL A   1      37.522  34.447  34.537  1.00  0.00     0.029 A 
ATOM     33  C   UNL A   1      38.564  33.542  34.666  1.00  0.00     0.049 A 
ATOM     34  H   UNL A   1      39.187  32.035  33.326  1.00  0.00     0.167 HD
ATOM     35  C   UNL A   1      40.438  32.417  35.845  1.00  0.00     0.074 A 
ATOM     36  C   UNL A   1      41.350  32.268  36.960  1.00  0.00     0.031 C 
ATOM     37  C   UNL A   1      39.502  33.394  35.751  1.00  0.00     0.037 A 
BRANCH  24  38
ATOM     38  C   UNL A   1      36.233  33.250  30.501  1.00  0.00     0.057 A 
ATOM     39  C   UNL A   1      36.591  34.032  29.394  1.00  0.00     0.134 A 
ATOM     40  C   UNL A   1      34.864  33.058  30.738  1.00  0.00     0.134 A 
ATOM     41  F   UNL A   1      37.882  34.261  29.111  1.00  0.00    -0.206 F 
ATOM     42  C   UNL A   1      35.627  34.583  28.548  1.00  0.00     0.040 A 
ATOM     43  C   UNL A   1      33.893  33.578  29.881  1.00  0.00     0.040 A 
ATOM     44  F   UNL A   1      34.453  32.306  31.772  1.00  0.00    -0.206 F 
ATOM     45  C   UNL A   1      34.274  34.345  28.783  1.00  0.00     0.006 A 
ENDBRANCH  24  38
BRANCH  25  46
ATOM     46  C   UNL A   1      43.595  28.933  35.681  1.00  0.00     0.057 A 
ATOM     47  C   UNL A   1      44.907  29.393  35.509  1.00  0.00     0.134 A 
ATOM     48  C   UNL A   1      43.393  27.872  36.569  1.00  0.00     0.134 A 
ATOM     49  F   UNL A   1      45.166  30.405  34.667  1.00  0.00    -0.206 F 
ATOM     50  C   UNL A   1      45.979  28.808  36.183  1.00  0.00     0.040 A 
ATOM     51  C   UNL A   1      44.454  27.292  37.266  1.00  0.00     0.040 A 
ATOM     52  F   UNL A   1      42.156  27.404  36.790  1.00  0.00    -0.206 F 
ATOM     53  C   UNL A   1      45.753  27.756  37.069  1.00  0.00     0.006 A 
ENDBRANCH  25  46
BRANCH  37  54
ATOM     54  C   UNL A   1      39.438  34.382  36.877  1.00  0.00     0.057 A 
ATOM     55  C   UNL A   1      40.087  35.619  36.788  1.00  0.00     0.134 A 
ATOM     56  C   UNL A   1      38.749  34.095  38.063  1.00  0.00     0.134 A 
ATOM     57  F   UNL A   1      40.769  35.953  35.681  1.00  0.00    -0.206 F 
ATOM     58  C   UNL A   1      40.057  36.536  37.840  1.00  0.00     0.040 A 
ATOM     59  C   UNL A   1      38.691  35.014  39.112  1.00  0.00     0.040 A 
ATOM     60  F   UNL A   1      38.093  32.934  38.204  1.00  0.00    -0.206 F 
ATOM     61  C   UNL A   1      39.351  36.237  39.004  1.00  0.00     0.006 A 
ENDBRANCH  37  54
ENDBRANCH  11  12
ENDBRANCH   4   6
ENDBRANCH   1   2
BRANCH   1  62
ATOM     62  C   UNL A   1      38.679  22.682  26.411  1.00  0.00     0.042 C 
BRANCH  62  63
ATOM     63  C   UNL A   1      37.581  23.588  25.889  1.00  0.00     0.118 C 
BRANCH  63  64
ATOM     64  N   UNL A   1      37.455  23.564  24.441  1.00  0.00    -0.352 N 
ATOM     65  C   UNL A   1      36.503  22.947  23.671  1.00  0.00     0.253 C 
ATOM     66  H   UNL A   1      38.148  24.057  23.946  1.00  0.00     0.163 HD
ATOM     67  O   UNL A   1      36.614  22.962  22.447  1.00  0.00    -0.269 OA
BRANCH  65  68
ATOM     68  C   UNL A   1      35.365  22.237  24.298  1.00  0.00     0.063 A 
ATOM     69  C   UNL A   1      35.603  20.902  24.661  1.00  0.00     0.016 A 
ATOM     70  C   UNL A   1      34.100  22.829  24.497  1.00  0.00     0.051 A 
ATOM     71  C   UNL A   1      34.599  20.151  25.262  1.00  0.00     0.001 A 
ATOM     72  C   UNL A   1      33.094  22.050  25.119  1.00  0.00    -0.017 A 
ATOM     73  N   UNL A   1      33.842  24.159  24.165  1.00  0.00    -0.377 N 
ATOM     74  C   UNL A   1      33.348  20.720  25.487  1.00  0.00     0.006 A 
ATOM     75  C   UNL A   1      31.743  22.694  25.249  1.00  0.00     0.049 C 
ATOM     76  C   UNL A   1      32.682  24.933  24.637  1.00  0.00     0.115 C 
ATOM     77  H   UNL A   1      34.483  24.614  23.572  1.00  0.00     0.161 HD
ATOM     78  C   UNL A   1      31.959  24.141  25.720  1.00  0.00     0.031 C 
ATOM     79  C   UNL A   1      30.749  22.246  26.281  1.00  0.00    -0.023 C 
ATOM     80  C   UNL A   1      30.559  24.582  26.138  1.00  0.00     0.034 C 
ATOM     81  C   UNL A   1      30.060  23.300  26.745  1.00  0.00    -0.030 C 
BRANCH  76  82
ATOM     82  C   UNL A   1      33.140  26.376  24.897  1.00  0.00    -0.011 A 
ATOM     83  C   UNL A   1      33.201  26.737  26.273  1.00  0.00     0.007 A 
ATOM     84  C   UNL A   1      33.463  27.394  23.976  1.00  0.00     0.023 A 
ATOM     85  C   UNL A   1      33.580  28.011  26.704  1.00  0.00     0.000 A 
ATOM     86  C   UNL A   1      33.889  28.661  24.422  1.00  0.00     0.016 A 
ATOM     87  Br  UNL A   1      33.295  27.308  22.084  1.00  0.00    -0.050 Br
ATOM     88  C   UNL A   1      33.944  28.971  25.775  1.00  0.00     0.001 A 
ENDBRANCH  76  82
ENDBRANCH  65  68
ENDBRANCH  63  64
ENDBRANCH  62  63
ENDBRANCH   1  62
TORSDOF 11
ENDMDL
MODEL 2
REMARK VINA RESULT:     -13.5      4.380      8.749
REMARK SMILES O=C(NCCCNC(=O)c1cccc2c1N[C@H](c1ccccc1Br)[C@H]1CC=C[C@H]21)c1ccc(-c2c3nc(c(-c4c(F)cccc4F)c4ccc([nH]4)c(-c4c(F)cccc4F)c4nc(c(-c5c(F)cccc5F)c5ccc2[nH]5)C=C4)C=C3)cc1
REMARK SMILES IDX 4 1 3 2 1 3 2 4 30 6 31 7 83 8 32 9 82 10 33 11 34 12 35 13
REMARK SMILES IDX 76 14 36 15 81 16 75 17 77 18 37 19 80 20 74 21 73 22 38 24
REMARK SMILES IDX 64 25 47 26 63 27 48 28 51 29 62 30 78 31 49 32 50 33 61 35
REMARK SMILES IDX 79 36 52 37 39 38 40 39 45 40 41 41 42 42 44 43 46 44 43 45
REMARK SMILES IDX 65 46 66 47 71 48 67 49 68 50 70 51 72 52 69 53 53 54 54 55
REMARK SMILES IDX 59 56 55 57 56 58 58 59 60 60 57 61 5 62 6 63 7 64 8 65 9 67
REMARK SMILES IDX 10 68 11 69 15 70 12 71 14 72 16 73 13 74 29 75 17 76 25 78
REMARK SMILES IDX 28 79 26 80 27 81 18 82 19 83 23 84 20 85 22 86 24 87 21 88
REMARK H PARENT 3 5 77 23 51 34 7 66 16 77
REMARK Flexibility Score: inf
ROOT
ATOM      1  C   UNL A   1      33.805  28.682  27.223  1.00  0.00     0.118 C 
ENDROOT
BRANCH   1   2
ATOM      2  N   UNL A   1      33.727  30.049  27.722  1.00  0.00    -0.352 N 
ATOM      3  O   UNL A   1      34.327  31.888  28.872  1.00  0.00    -0.269 OA
ATOM      4  C   UNL A   1      34.650  30.801  28.405  1.00  0.00     0.251 C 
ATOM      5  H   UNL A   1      32.874  30.507  27.541  1.00  0.00     0.163 HD
BRANCH   4   6
ATOM      6  C   UNL A   1      36.029  30.301  28.595  1.00  0.00     0.039 A 
ATOM      7  C   UNL A   1      36.361  29.691  29.809  1.00  0.00     0.014 A 
ATOM      8  C   UNL A   1      37.002  30.463  27.608  1.00  0.00     0.014 A 
ATOM      9  C   UNL A   1      37.654  29.203  30.012  1.00  0.00     0.010 A 
ATOM     10  C   UNL A   1      38.259  29.892  27.770  1.00  0.00     0.010 A 
ATOM     11  C   UNL A   1      38.605  29.282  28.985  1.00  0.00    -0.014 A 
BRANCH  11  12
ATOM     12  C   UNL A   1      39.998  28.809  29.175  1.00  0.00     0.031 A 
ATOM     13  C   UNL A   1      41.031  29.759  29.715  1.00  0.00     0.074 A 
ATOM     14  C   UNL A   1      40.352  27.568  28.796  1.00  0.00     0.049 A 
ATOM     15  N   UNL A   1      42.324  29.602  29.831  1.00  0.00    -0.248 NA
ATOM     16  C   UNL A   1      40.543  31.078  30.150  1.00  0.00     0.031 C 
ATOM     17  C   UNL A   1      39.452  26.565  28.228  1.00  0.00     0.029 A 
ATOM     18  N   UNL A   1      41.575  26.948  28.813  1.00  0.00    -0.354 N 
ATOM     19  C   UNL A   1      42.805  30.809  30.324  1.00  0.00     0.074 A 
ATOM     20  C   UNL A   1      41.675  31.705  30.429  1.00  0.00     0.031 C 
ATOM     21  C   UNL A   1      40.152  25.452  27.956  1.00  0.00     0.029 A 
ATOM     22  C   UNL A   1      41.555  25.679  28.292  1.00  0.00     0.049 A 
ATOM     23  H   UNL A   1      42.390  27.373  29.167  1.00  0.00     0.167 HD
ATOM     24  C   UNL A   1      44.071  31.137  30.678  1.00  0.00     0.037 A 
ATOM     25  C   UNL A   1      42.559  24.807  28.086  1.00  0.00     0.037 A 
ATOM     26  C   UNL A   1      45.186  30.233  30.599  1.00  0.00     0.049 A 
ATOM     27  C   UNL A   1      43.961  25.196  28.463  1.00  0.00     0.074 A 
ATOM     28  C   UNL A   1      46.492  30.433  31.011  1.00  0.00     0.029 A 
ATOM     29  N   UNL A   1      45.126  28.955  30.063  1.00  0.00    -0.354 N 
ATOM     30  N   UNL A   1      44.395  26.316  28.988  1.00  0.00    -0.248 NA
ATOM     31  C   UNL A   1      45.012  24.200  28.215  1.00  0.00     0.031 C 
ATOM     32  C   UNL A   1      47.233  29.291  30.679  1.00  0.00     0.029 A 
ATOM     33  C   UNL A   1      46.380  28.366  30.099  1.00  0.00     0.049 A 
ATOM     34  H   UNL A   1      44.312  28.529  29.709  1.00  0.00     0.167 HD
ATOM     35  C   UNL A   1      45.767  26.163  29.131  1.00  0.00     0.074 A 
ATOM     36  C   UNL A   1      46.089  24.829  28.666  1.00  0.00     0.031 C 
ATOM     37  C   UNL A   1      46.682  27.047  29.602  1.00  0.00     0.037 A 
BRANCH  24  38
ATOM     38  C   UNL A   1      44.298  32.536  31.169  1.00  0.00     0.057 A 
ATOM     39  C   UNL A   1      44.603  33.567  30.271  1.00  0.00     0.134 A 
ATOM     40  C   UNL A   1      44.189  32.875  32.526  1.00  0.00     0.134 A 
ATOM     41  F   UNL A   1      44.727  33.314  28.960  1.00  0.00    -0.206 F 
ATOM     42  C   UNL A   1      44.773  34.884  30.702  1.00  0.00     0.040 A 
ATOM     43  C   UNL A   1      44.327  34.193  32.964  1.00  0.00     0.040 A 
ATOM     44  F   UNL A   1      43.883  31.938  33.438  1.00  0.00    -0.206 F 
ATOM     45  C   UNL A   1      44.622  35.202  32.050  1.00  0.00     0.006 A 
ENDBRANCH  24  38
BRANCH  25  46
ATOM     46  C   UNL A   1      42.270  23.483  27.482  1.00  0.00     0.057 A 
ATOM     47  C   UNL A   1      42.328  23.285  26.097  1.00  0.00     0.134 A 
ATOM     48  C   UNL A   1      41.913  22.389  28.277  1.00  0.00     0.134 A 
ATOM     49  F   UNL A   1      42.661  24.296  25.281  1.00  0.00    -0.206 F 
ATOM     50  C   UNL A   1      42.027  22.049  25.523  1.00  0.00     0.040 A 
ATOM     51  C   UNL A   1      41.630  21.142  27.718  1.00  0.00     0.040 A 
ATOM     52  F   UNL A   1      41.862  22.514  29.611  1.00  0.00    -0.206 F 
ATOM     53  C   UNL A   1      41.679  20.972  26.336  1.00  0.00     0.006 A 
ENDBRANCH  25  46
BRANCH  37  54
ATOM     54  C   UNL A   1      48.113  26.600  29.615  1.00  0.00     0.057 A 
ATOM     55  C   UNL A   1      48.637  25.893  30.704  1.00  0.00     0.134 A 
ATOM     56  C   UNL A   1      48.980  26.890  28.553  1.00  0.00     0.134 A 
ATOM     57  F   UNL A   1      47.861  25.588  31.756  1.00  0.00    -0.206 F 
ATOM     58  C   UNL A   1      49.974  25.494  30.739  1.00  0.00     0.040 A 
ATOM     59  C   UNL A   1      50.312  26.474  28.565  1.00  0.00     0.040 A 
ATOM     60  F   UNL A   1      48.535  27.550  27.473  1.00  0.00    -0.206 F 
ATOM     61  C   UNL A   1      50.814  25.779  29.663  1.00  0.00     0.006 A 
ENDBRANCH  37  54
ENDBRANCH  11  12
ENDBRANCH   4   6
ENDBRANCH   1   2
BRANCH   1  62
ATOM     62  C   UNL A   1      34.407  28.586  25.831  1.00  0.00     0.042 C 
BRANCH  62  63
ATOM     63  C   UNL A   1      33.653  29.370  24.774  1.00  0.00     0.118 C 
BRANCH  63  64
ATOM     64  N   UNL A   1      33.816  28.831  23.434  1.00  0.00    -0.352 N 
ATOM     65  C   UNL A   1      33.092  27.849  22.808  1.00  0.00     0.253 C 
ATOM     66  H   UNL A   1      34.546  29.225  22.904  1.00  0.00     0.163 HD
ATOM     67  O   UNL A   1      33.439  27.460  21.695  1.00  0.00    -0.269 OA
BRANCH  65  68
ATOM     68  C   UNL A   1      31.922  27.231  23.472  1.00  0.00     0.063 A 
ATOM     69  C   UNL A   1      30.666  27.709  23.067  1.00  0.00     0.016 A 
ATOM     70  C   UNL A   1      32.034  26.248  24.477  1.00  0.00     0.051 A 
ATOM     71  C   UNL A   1      29.505  27.189  23.628  1.00  0.00     0.001 A 
ATOM     72  C   UNL A   1      30.840  25.724  25.029  1.00  0.00    -0.017 A 
ATOM     73  N   UNL A   1      33.268  25.739  24.884  1.00  0.00    -0.377 N 
ATOM     74  C   UNL A   1      29.590  26.203  24.608  1.00  0.00     0.006 A 
ATOM     75  C   UNL A   1      31.005  24.730  26.144  1.00  0.00     0.049 C 
ATOM     76  C   UNL A   1      33.452  24.505  25.665  1.00  0.00     0.115 C 
ATOM     77  H   UNL A   1      34.076  26.243  24.630  1.00  0.00     0.161 HD
ATOM     78  C   UNL A   1      32.125  23.758  25.742  1.00  0.00     0.031 C 
ATOM     79  C   UNL A   1      29.931  23.740  26.485  1.00  0.00    -0.023 C 
ATOM     80  C   UNL A   1      31.981  22.625  26.752  1.00  0.00     0.034 C 
ATOM     81  C   UNL A   1      30.482  22.576  26.865  1.00  0.00    -0.030 C 
BRANCH  76  82
ATOM     82  C   UNL A   1      34.718  23.798  25.157  1.00  0.00    -0.011 A 
ATOM     83  C   UNL A   1      35.796  23.779  26.086  1.00  0.00     0.007 A 
ATOM     84  C   UNL A   1      34.974  23.211  23.900  1.00  0.00     0.023 A 
ATOM     85  C   UNL A   1      37.033  23.197  25.796  1.00  0.00     0.000 A 
ATOM     86  C   UNL A   1      36.209  22.585  23.635  1.00  0.00     0.016 A 
ATOM     87  Br  UNL A   1      33.832  23.240  22.381  1.00  0.00    -0.050 Br
ATOM     88  C   UNL A   1      37.233  22.580  24.573  1.00  0.00     0.001 A 
ENDBRANCH  76  82
ENDBRANCH  65  68
ENDBRANCH  63  64
ENDBRANCH  62  63
ENDBRANCH   1  62
TORSDOF 11
ENDMDL
MODEL 3
REMARK VINA RESULT:     -13.3      4.438      6.157
REMARK SMILES O=C(NCCCNC(=O)c1cccc2c1N[C@H](c1ccccc1Br)[C@H]1CC=C[C@H]21)c1ccc(-c2c3nc(c(-c4c(F)cccc4F)c4ccc([nH]4)c(-c4c(F)cccc4F)c4nc(c(-c5c(F)cccc5F)c5ccc2[nH]5)C=C4)C=C3)cc1
REMARK SMILES IDX 4 1 3 2 1 3 2 4 30 6 31 7 83 8 32 9 82 10 33 11 34 12 35 13
REMARK SMILES IDX 76 14 36 15 81 16 75 17 77 18 37 19 80 20 74 21 73 22 38 24
REMARK SMILES IDX 64 25 47 26 63 27 48 28 51 29 62 30 78 31 49 32 50 33 61 35
REMARK SMILES IDX 79 36 52 37 39 38 40 39 45 40 41 41 42 42 44 43 46 44 43 45
REMARK SMILES IDX 65 46 66 47 71 48 67 49 68 50 70 51 72 52 69 53 53 54 54 55
REMARK SMILES IDX 59 56 55 57 56 58 58 59 60 60 57 61 5 62 6 63 7 64 8 65 9 67
REMARK SMILES IDX 10 68 11 69 15 70 12 71 14 72 16 73 13 74 29 75 17 76 25 78
REMARK SMILES IDX 28 79 26 80 27 81 18 82 19 83 23 84 20 85 22 86 24 87 21 88
REMARK H PARENT 3 5 77 23 51 34 7 66 16 77
REMARK Flexibility Score: inf
ROOT
ATOM      1  C   UNL A   1      39.194  19.917  26.242  1.00  0.00     0.118 C 
ENDROOT
BRANCH   1   2
ATOM      2  N   UNL A   1      40.420  19.203  25.909  1.00  0.00    -0.352 N 
ATOM      3  O   UNL A   1      42.606  18.905  25.461  1.00  0.00    -0.269 OA
ATOM      4  C   UNL A   1      41.727  19.621  25.929  1.00  0.00     0.251 C 
ATOM      5  H   UNL A   1      40.290  18.269  25.623  1.00  0.00     0.163 HD
BRANCH   4   6
ATOM      6  C   UNL A   1      42.082  20.940  26.497  1.00  0.00     0.039 A 
ATOM      7  C   UNL A   1      42.351  21.998  25.623  1.00  0.00     0.014 A 
ATOM      8  C   UNL A   1      42.189  21.131  27.876  1.00  0.00     0.014 A 
ATOM      9  C   UNL A   1      42.681  23.256  26.133  1.00  0.00     0.010 A 
ATOM     10  C   UNL A   1      42.420  22.403  28.385  1.00  0.00     0.010 A 
ATOM     11  C   UNL A   1      42.696  23.471  27.519  1.00  0.00    -0.014 A 
BRANCH  11  12
ATOM     12  C   UNL A   1      43.077  24.781  28.100  1.00  0.00     0.031 A 
ATOM     13  C   UNL A   1      42.011  25.810  28.357  1.00  0.00     0.074 A 
ATOM     14  C   UNL A   1      44.370  25.077  28.322  1.00  0.00     0.049 A 
ATOM     15  N   UNL A   1      42.133  27.059  28.726  1.00  0.00    -0.248 NA
ATOM     16  C   UNL A   1      40.621  25.383  28.133  1.00  0.00     0.031 C 
ATOM     17  C   UNL A   1      45.499  24.178  28.082  1.00  0.00     0.029 A 
ATOM     18  N   UNL A   1      44.953  26.230  28.781  1.00  0.00    -0.354 N 
ATOM     19  C   UNL A   1      40.841  27.571  28.750  1.00  0.00     0.074 A 
ATOM     20  C   UNL A   1      39.959  26.516  28.303  1.00  0.00     0.031 C 
ATOM     21  C   UNL A   1      46.639  24.812  28.402  1.00  0.00     0.029 A 
ATOM     22  C   UNL A   1      46.323  26.172  28.829  1.00  0.00     0.049 A 
ATOM     23  H   UNL A   1      44.437  27.024  29.052  1.00  0.00     0.167 HD
ATOM     24  C   UNL A   1      40.424  28.801  29.131  1.00  0.00     0.037 A 
ATOM     25  C   UNL A   1      47.223  27.118  29.156  1.00  0.00     0.037 A 
ATOM     26  C   UNL A   1      41.301  29.837  29.604  1.00  0.00     0.049 A 
ATOM     27  C   UNL A   1      46.743  28.485  29.554  1.00  0.00     0.074 A 
ATOM     28  C   UNL A   1      40.977  31.090  30.095  1.00  0.00     0.029 A 
ATOM     29  N   UNL A   1      42.686  29.741  29.635  1.00  0.00    -0.354 N 
ATOM     30  N   UNL A   1      45.515  28.939  29.634  1.00  0.00    -0.248 NA
ATOM     31  C   UNL A   1      47.773  29.472  29.901  1.00  0.00     0.031 C 
ATOM     32  C   UNL A   1      42.168  31.769  30.379  1.00  0.00     0.029 A 
ATOM     33  C   UNL A   1      43.232  30.925  30.103  1.00  0.00     0.049 A 
ATOM     34  H   UNL A   1      43.202  28.948  29.365  1.00  0.00     0.167 HD
ATOM     35  C   UNL A   1      45.624  30.262  30.040  1.00  0.00     0.074 A 
ATOM     36  C   UNL A   1      47.038  30.529  30.217  1.00  0.00     0.031 C 
ATOM     37  C   UNL A   1      44.644  31.178  30.243  1.00  0.00     0.037 A 
BRANCH  24  38
ATOM     38  C   UNL A   1      38.952  29.079  29.036  1.00  0.00     0.057 A 
ATOM     39  C   UNL A   1      38.125  28.940  30.158  1.00  0.00     0.134 A 
ATOM     40  C   UNL A   1      38.352  29.513  27.843  1.00  0.00     0.134 A 
ATOM     41  F   UNL A   1      38.631  28.525  31.329  1.00  0.00    -0.206 F 
ATOM     42  C   UNL A   1      36.762  29.237  30.102  1.00  0.00     0.040 A 
ATOM     43  C   UNL A   1      36.998  29.842  27.784  1.00  0.00     0.040 A 
ATOM     44  F   UNL A   1      39.090  29.683  26.735  1.00  0.00    -0.206 F 
ATOM     45  C   UNL A   1      36.198  29.703  28.916  1.00  0.00     0.006 A 
ENDBRANCH  24  38
BRANCH  25  46
ATOM     46  C   UNL A   1      48.671  26.801  29.110  1.00  0.00     0.057 A 
ATOM     47  C   UNL A   1      49.321  26.199  30.195  1.00  0.00     0.134 A 
ATOM     48  C   UNL A   1      49.443  27.109  27.985  1.00  0.00     0.134 A 
ATOM     49  F   UNL A   1      48.637  25.883  31.305  1.00  0.00    -0.206 F 
ATOM     50  C   UNL A   1      50.690  25.928  30.168  1.00  0.00     0.040 A 
ATOM     51  C   UNL A   1      50.808  26.824  27.936  1.00  0.00     0.040 A 
ATOM     52  F   UNL A   1      48.871  27.667  26.909  1.00  0.00    -0.206 F 
ATOM     53  C   UNL A   1      51.436  26.239  29.033  1.00  0.00     0.006 A 
ENDBRANCH  25  46
BRANCH  37  54
ATOM     54  C   UNL A   1      45.077  32.552  30.660  1.00  0.00     0.057 A 
ATOM     55  C   UNL A   1      45.252  32.873  32.011  1.00  0.00     0.134 A 
ATOM     56  C   UNL A   1      45.298  33.566  29.719  1.00  0.00     0.134 A 
ATOM     57  F   UNL A   1      45.051  31.948  32.963  1.00  0.00    -0.206 F 
ATOM     58  C   UNL A   1      45.629  34.155  32.413  1.00  0.00     0.040 A 
ATOM     59  C   UNL A   1      45.699  34.846  30.107  1.00  0.00     0.040 A 
ATOM     60  F   UNL A   1      45.162  33.318  28.408  1.00  0.00    -0.206 F 
ATOM     61  C   UNL A   1      45.861  35.144  31.459  1.00  0.00     0.006 A 
ENDBRANCH  37  54
ENDBRANCH  11  12
ENDBRANCH   4   6
ENDBRANCH   1   2
BRANCH   1  62
ATOM     62  C   UNL A   1      38.542  20.580  25.040  1.00  0.00     0.042 C 
BRANCH  62  63
ATOM     63  C   UNL A   1      37.759  21.835  25.373  1.00  0.00     0.118 C 
BRANCH  63  64
ATOM     64  N   UNL A   1      37.343  22.581  24.197  1.00  0.00    -0.352 N 
ATOM     65  C   UNL A   1      36.092  22.691  23.646  1.00  0.00     0.253 C 
ATOM     66  H   UNL A   1      38.057  23.075  23.733  1.00  0.00     0.163 HD
ATOM     67  O   UNL A   1      35.950  23.300  22.588  1.00  0.00    -0.269 OA
BRANCH  65  68
ATOM     68  C   UNL A   1      34.921  22.057  24.294  1.00  0.00     0.063 A 
ATOM     69  C   UNL A   1      35.073  20.707  24.645  1.00  0.00     0.016 A 
ATOM     70  C   UNL A   1      33.704  22.734  24.524  1.00  0.00     0.051 A 
ATOM     71  C   UNL A   1      34.032  20.023  25.263  1.00  0.00     0.001 A 
ATOM     72  C   UNL A   1      32.660  22.023  25.163  1.00  0.00    -0.017 A 
ATOM     73  N   UNL A   1      33.533  24.081  24.205  1.00  0.00    -0.377 N 
ATOM     74  C   UNL A   1      32.829  20.676  25.518  1.00  0.00     0.006 A 
ATOM     75  C   UNL A   1      31.360  22.758  25.326  1.00  0.00     0.049 C 
ATOM     76  C   UNL A   1      32.439  24.930  24.706  1.00  0.00     0.115 C 
ATOM     77  H   UNL A   1      34.192  24.495  23.600  1.00  0.00     0.161 HD
ATOM     78  C   UNL A   1      31.686  24.183  25.800  1.00  0.00     0.031 C 
ATOM     79  C   UNL A   1      30.360  22.372  26.376  1.00  0.00    -0.023 C 
ATOM     80  C   UNL A   1      30.330  24.718  26.250  1.00  0.00     0.034 C 
ATOM     81  C   UNL A   1      29.756  23.469  26.861  1.00  0.00    -0.030 C 
BRANCH  76  82
ATOM     82  C   UNL A   1      33.002  26.336  24.964  1.00  0.00    -0.011 A 
ATOM     83  C   UNL A   1      33.059  26.706  26.337  1.00  0.00     0.007 A 
ATOM     84  C   UNL A   1      33.425  27.316  24.042  1.00  0.00     0.023 A 
ATOM     85  C   UNL A   1      33.524  27.952  26.766  1.00  0.00     0.000 A 
ATOM     86  C   UNL A   1      33.938  28.551  24.487  1.00  0.00     0.016 A 
ATOM     87  Br  UNL A   1      33.297  27.222  22.148  1.00  0.00    -0.050 Br
ATOM     88  C   UNL A   1      33.985  28.870  25.838  1.00  0.00     0.001 A 
ENDBRANCH  76  82
ENDBRANCH  65  68
ENDBRANCH  63  64
ENDBRANCH  62  63
ENDBRANCH   1  62
TORSDOF 11
ENDMDL
