MODEL 1
REMARK VINA RESULT:     -12.5      0.000      0.000
REMARK SMILES Cc1noc(C[N@H+]2CCC[C@@H](c3ccc(C(=O)NCCCNC(=O)c4ccc(-c5c6nc(c(-c7c(F)cccc7F)c7ccc([nH]7)c(-c7c(F)cccc7F)c7nc(c(-c8c(F)cccc8F)c8ccc5[nH]8)C=C7)C=C6)cc4)cc3)C2)n1
REMARK SMILES IDX 19 1 18 2 16 3 17 4 15 6 12 7 13 8 80 9 14 10 79 11 11 12
REMARK SMILES IDX 7 13 8 14 81 15 9 17 10 18 6 19 5 20 1 21 2 22 3 23 82 24
REMARK SMILES IDX 4 25 20 26 21 27 22 28 23 29 24 31 25 32 26 33 78 34 27 35
REMARK SMILES IDX 77 36 28 37 29 38 30 39 71 40 31 41 76 42 70 43 72 44 32 45
REMARK SMILES IDX 75 46 69 47 68 48 33 50 59 51 42 52 58 53 43 54 46 55 57 56
REMARK SMILES IDX 73 57 44 58 45 59 56 61 74 62 47 63 34 64 35 65 40 66 36 67
REMARK SMILES IDX 37 68 39 69 41 70 38 71 60 72 61 73 66 74 62 75 63 76 65 77
REMARK SMILES IDX 67 78 64 79 48 80 49 81 54 82 50 83 51 84 53 85 55 86 52 87
REMARK H PARENT 18 5 7 16 22 30 72 49 46 60
REMARK Flexibility Score: inf
ROOT
ATOM      1  C   UNL A   1      37.244  20.651  24.933  1.00  0.00     0.118 C 
ENDROOT
BRANCH   1   2
ATOM      2  N   UNL A   1      35.939  20.024  25.023  1.00  0.00    -0.352 N 
ATOM      3  C   UNL A   1      34.672  20.540  24.955  1.00  0.00     0.251 C 
ATOM      4  O   UNL A   1      33.728  19.752  25.003  1.00  0.00    -0.269 OA
ATOM      5  H   UNL A   1      35.970  19.049  25.158  1.00  0.00     0.163 HD
BRANCH   3   6
ATOM      6  C   UNL A   1      34.399  21.989  24.766  1.00  0.00     0.039 A 
ATOM      7  C   UNL A   1      33.823  24.752  24.596  1.00  0.00    -0.039 A 
ATOM      8  C   UNL A   1      34.005  24.128  25.840  1.00  0.00     0.005 A 
ATOM      9  C   UNL A   1      34.001  23.987  23.438  1.00  0.00     0.005 A 
ATOM     10  C   UNL A   1      34.277  22.763  25.924  1.00  0.00     0.014 A 
ATOM     11  C   UNL A   1      34.307  22.624  23.525  1.00  0.00     0.014 A 
BRANCH   7  12
ATOM     12  C   UNL A   1      33.457  26.225  24.483  1.00  0.00     0.074 C 
ATOM     13  N   UNL A   1      31.501  27.817  24.232  1.00  0.00    -0.327 N 
ATOM     14  C   UNL A   1      31.899  28.499  25.472  1.00  0.00     0.262 C 
ATOM     15  C   UNL A   1      31.947  26.412  24.218  1.00  0.00     0.270 C 
ATOM     16  H   UNL A   1      31.963  28.299  23.461  1.00  0.00     0.348 HD
ATOM     17  C   UNL A   1      33.413  28.434  25.679  1.00  0.00     0.062 C 
ATOM     18  C   UNL A   1      33.895  26.989  25.738  1.00  0.00     0.020 C 
BRANCH  13  19
ATOM     19  C   UNL A   1      30.028  27.907  24.013  1.00  0.00     0.364 C 
BRANCH  19  20
ATOM     20  C   UNL A   1      29.574  29.039  23.142  1.00  0.00     0.281 A 
ATOM     21  C   UNL A   1      28.778  32.330  22.235  1.00  0.00     0.093 C 
ATOM     22  C   UNL A   1      29.095  30.892  22.305  1.00  0.00     0.169 A 
ATOM     23  N   UNL A   1      29.526  30.187  21.251  1.00  0.00    -0.063 NA
ATOM     24  N   UNL A   1      29.065  30.204  23.486  1.00  0.00    -0.191 NA
ATOM     25  O   UNL A   1      29.845  28.944  21.806  1.00  0.00    -0.333 OA
ENDBRANCH  19  20
ENDBRANCH  13  19
ENDBRANCH   7  12
ENDBRANCH   3   6
ENDBRANCH   1   2
BRANCH   1  26
ATOM     26  C   UNL A   1      38.360  19.608  24.970  1.00  0.00     0.042 C 
BRANCH  26  27
ATOM     27  C   UNL A   1      39.334  19.804  26.126  1.00  0.00     0.118 C 
BRANCH  27  28
ATOM     28  N   UNL A   1      40.589  19.102  25.906  1.00  0.00    -0.352 N 
ATOM     29  C   UNL A   1      41.876  19.580  25.924  1.00  0.00     0.251 C 
ATOM     30  H   UNL A   1      40.503  18.140  25.716  1.00  0.00     0.163 HD
ATOM     31  O   UNL A   1      42.788  18.877  25.501  1.00  0.00    -0.269 OA
BRANCH  29  32
ATOM     32  C   UNL A   1      42.170  20.937  26.435  1.00  0.00     0.039 A 
ATOM     33  C   UNL A   1      42.463  21.950  25.517  1.00  0.00     0.014 A 
ATOM     34  C   UNL A   1      42.212  21.206  27.806  1.00  0.00     0.014 A 
ATOM     35  C   UNL A   1      42.751  23.239  25.969  1.00  0.00     0.010 A 
ATOM     36  C   UNL A   1      42.435  22.506  28.255  1.00  0.00     0.010 A 
ATOM     37  C   UNL A   1      42.715  23.533  27.341  1.00  0.00    -0.014 A 
BRANCH  37  38
ATOM     38  C   UNL A   1      42.978  24.906  27.839  1.00  0.00     0.031 A 
ATOM     39  C   UNL A   1      44.380  25.332  28.179  1.00  0.00     0.074 A 
ATOM     40  C   UNL A   1      41.949  25.749  28.040  1.00  0.00     0.049 A 
ATOM     41  N   UNL A   1      44.800  26.460  28.692  1.00  0.00    -0.248 NA
ATOM     42  C   UNL A   1      45.448  24.350  27.932  1.00  0.00     0.031 C 
ATOM     43  C   UNL A   1      40.539  25.439  27.789  1.00  0.00     0.029 A 
ATOM     44  N   UNL A   1      41.926  27.036  28.516  1.00  0.00    -0.354 N 
ATOM     45  C   UNL A   1      46.172  26.318  28.847  1.00  0.00     0.074 A 
ATOM     46  C   UNL A   1      46.510  24.979  28.413  1.00  0.00     0.031 C 
ATOM     47  C   UNL A   1      39.793  26.511  28.097  1.00  0.00     0.029 A 
ATOM     48  C   UNL A   1      40.663  27.570  28.598  1.00  0.00     0.049 A 
ATOM     49  H   UNL A   1      42.738  27.529  28.775  1.00  0.00     0.167 HD
ATOM     50  C   UNL A   1      47.073  27.228  29.291  1.00  0.00     0.037 A 
ATOM     51  C   UNL A   1      40.253  28.777  29.032  1.00  0.00     0.037 A 
ATOM     52  C   UNL A   1      46.738  28.568  29.694  1.00  0.00     0.049 A 
ATOM     53  C   UNL A   1      41.273  29.770  29.514  1.00  0.00     0.074 A 
ATOM     54  C   UNL A   1      47.586  29.583  30.102  1.00  0.00     0.029 A 
ATOM     55  N   UNL A   1      45.451  29.080  29.738  1.00  0.00    -0.354 N 
ATOM     56  N   UNL A   1      42.574  29.642  29.597  1.00  0.00    -0.248 NA
ATOM     57  C   UNL A   1      40.766  31.077  29.955  1.00  0.00     0.031 C 
ATOM     58  C   UNL A   1      46.807  30.700  30.426  1.00  0.00     0.029 A 
ATOM     59  C   UNL A   1      45.479  30.392  30.182  1.00  0.00     0.049 A 
ATOM     60  H   UNL A   1      44.637  28.584  29.491  1.00  0.00     0.167 HD
ATOM     61  C   UNL A   1      43.046  30.857  30.076  1.00  0.00     0.074 A 
ATOM     62  C   UNL A   1      41.891  31.714  30.252  1.00  0.00     0.031 C 
ATOM     63  C   UNL A   1      44.320  31.231  30.345  1.00  0.00     0.037 A 
BRANCH  50  64
ATOM     64  C   UNL A   1      48.509  26.801  29.361  1.00  0.00     0.057 A 
ATOM     65  C   UNL A   1      49.398  27.024  28.300  1.00  0.00     0.134 A 
ATOM     66  C   UNL A   1      49.020  26.187  30.511  1.00  0.00     0.134 A 
ATOM     67  F   UNL A   1      48.970  27.597  27.165  1.00  0.00    -0.206 F 
ATOM     68  C   UNL A   1      50.736  26.631  28.372  1.00  0.00     0.040 A 
ATOM     69  C   UNL A   1      50.361  25.812  30.606  1.00  0.00     0.040 A 
ATOM     70  F   UNL A   1      48.225  25.948  31.566  1.00  0.00    -0.206 F 
ATOM     71  C   UNL A   1      51.222  26.029  29.531  1.00  0.00     0.006 A 
ENDBRANCH  50  64
BRANCH  51  72
ATOM     72  C   UNL A   1      38.810  29.120  29.009  1.00  0.00     0.057 A 
ATOM     73  C   UNL A   1      38.195  29.564  27.832  1.00  0.00     0.134 A 
ATOM     74  C   UNL A   1      38.013  29.012  30.154  1.00  0.00     0.134 A 
ATOM     75  F   UNL A   1      38.913  29.703  26.708  1.00  0.00    -0.206 F 
ATOM     76  C   UNL A   1      36.843  29.904  27.798  1.00  0.00     0.040 A 
ATOM     77  C   UNL A   1      36.654  29.328  30.129  1.00  0.00     0.040 A 
ATOM     78  F   UNL A   1      38.542  28.585  31.310  1.00  0.00    -0.206 F 
ATOM     79  C   UNL A   1      36.066  29.781  28.949  1.00  0.00     0.006 A 
ENDBRANCH  51  72
BRANCH  63  80
ATOM     80  C   UNL A   1      44.534  32.635  30.827  1.00  0.00     0.057 A 
ATOM     81  C   UNL A   1      44.596  32.944  32.190  1.00  0.00     0.134 A 
ATOM     82  C   UNL A   1      44.716  33.680  29.913  1.00  0.00     0.134 A 
ATOM     83  F   UNL A   1      44.415  31.989  33.114  1.00  0.00    -0.206 F 
ATOM     84  C   UNL A   1      44.813  34.252  32.630  1.00  0.00     0.040 A 
ATOM     85  C   UNL A   1      44.957  34.987  30.341  1.00  0.00     0.040 A 
ATOM     86  F   UNL A   1      44.675  33.448  28.593  1.00  0.00    -0.206 F 
ATOM     87  C   UNL A   1      45.001  35.276  31.703  1.00  0.00     0.006 A 
ENDBRANCH  63  80
ENDBRANCH  37  38
ENDBRANCH  29  32
ENDBRANCH  27  28
ENDBRANCH  26  27
ENDBRANCH   1  26
TORSDOF 13
ENDMDL
MODEL 2
REMARK VINA RESULT:     -12.5      5.482     10.591
REMARK SMILES Cc1noc(C[N@H+]2CCC[C@@H](c3ccc(C(=O)NCCCNC(=O)c4ccc(-c5c6nc(c(-c7c(F)cccc7F)c7ccc([nH]7)c(-c7c(F)cccc7F)c7nc(c(-c8c(F)cccc8F)c8ccc5[nH]8)C=C7)C=C6)cc4)cc3)C2)n1
REMARK SMILES IDX 19 1 18 2 16 3 17 4 15 6 12 7 13 8 80 9 14 10 79 11 11 12
REMARK SMILES IDX 7 13 8 14 81 15 9 17 10 18 6 19 5 20 1 21 2 22 3 23 82 24
REMARK SMILES IDX 4 25 20 26 21 27 22 28 23 29 24 31 25 32 26 33 78 34 27 35
REMARK SMILES IDX 77 36 28 37 29 38 30 39 71 40 31 41 76 42 70 43 72 44 32 45
REMARK SMILES IDX 75 46 69 47 68 48 33 50 59 51 42 52 58 53 43 54 46 55 57 56
REMARK SMILES IDX 73 57 44 58 45 59 56 61 74 62 47 63 34 64 35 65 40 66 36 67
REMARK SMILES IDX 37 68 39 69 41 70 38 71 60 72 61 73 66 74 62 75 63 76 65 77
REMARK SMILES IDX 67 78 64 79 48 80 49 81 54 82 50 83 51 84 53 85 55 86 52 87
REMARK H PARENT 18 5 7 16 22 30 72 49 46 60
REMARK Flexibility Score: inf
ROOT
ATOM      1  C   UNL A   1      34.407  35.567  28.001  1.00  0.00     0.118 C 
ENDROOT
BRANCH   1   2
ATOM      2  N   UNL A   1      35.587  34.985  28.613  1.00  0.00    -0.352 N 
ATOM      3  C   UNL A   1      36.013  33.687  28.719  1.00  0.00     0.251 C 
ATOM      4  O   UNL A   1      37.105  33.484  29.249  1.00  0.00    -0.269 OA
ATOM      5  H   UNL A   1      36.191  35.643  29.026  1.00  0.00     0.163 HD
BRANCH   3   6
ATOM      6  C   UNL A   1      35.245  32.537  28.173  1.00  0.00     0.039 A 
ATOM      7  C   UNL A   1      33.956  30.271  27.078  1.00  0.00    -0.039 A 
ATOM      8  C   UNL A   1      35.328  30.248  27.375  1.00  0.00     0.005 A 
ATOM      9  C   UNL A   1      33.227  31.421  27.402  1.00  0.00     0.005 A 
ATOM     10  C   UNL A   1      35.966  31.370  27.904  1.00  0.00     0.014 A 
ATOM     11  C   UNL A   1      33.864  32.534  27.963  1.00  0.00     0.014 A 
BRANCH   7  12
ATOM     12  C   UNL A   1      33.254  29.083  26.438  1.00  0.00     0.074 C 
ATOM     13  N   UNL A   1      32.191  28.274  24.283  1.00  0.00    -0.327 N 
ATOM     14  C   UNL A   1      33.120  27.135  24.254  1.00  0.00     0.262 C 
ATOM     15  C   UNL A   1      32.761  29.421  25.013  1.00  0.00     0.270 C 
ATOM     16  H   UNL A   1      31.356  27.969  24.783  1.00  0.00     0.348 HD
ATOM     17  C   UNL A   1      33.515  26.705  25.668  1.00  0.00     0.062 C 
ATOM     18  C   UNL A   1      34.171  27.854  26.426  1.00  0.00     0.020 C 
BRANCH  13  19
ATOM     19  C   UNL A   1      31.781  28.674  22.905  1.00  0.00     0.364 C 
BRANCH  19  20
ATOM     20  C   UNL A   1      30.396  29.230  22.781  1.00  0.00     0.281 A 
ATOM     21  C   UNL A   1      27.668  31.340  23.409  1.00  0.00     0.093 C 
ATOM     22  C   UNL A   1      28.643  30.361  22.895  1.00  0.00     0.169 A 
ATOM     23  N   UNL A   1      28.629  29.908  21.635  1.00  0.00    -0.063 NA
ATOM     24  N   UNL A   1      29.696  29.926  23.652  1.00  0.00    -0.191 NA
ATOM     25  O   UNL A   1      29.799  29.147  21.555  1.00  0.00    -0.333 OA
ENDBRANCH  19  20
ENDBRANCH  13  19
ENDBRANCH   7  12
ENDBRANCH   3   6
ENDBRANCH   1   2
BRANCH   1  26
ATOM     26  C   UNL A   1      33.587  36.351  29.025  1.00  0.00     0.042 C 
BRANCH  26  27
ATOM     27  C   UNL A   1      32.790  35.461  29.972  1.00  0.00     0.118 C 
BRANCH  27  28
ATOM     28  N   UNL A   1      32.391  36.169  31.178  1.00  0.00    -0.352 N 
ATOM     29  C   UNL A   1      32.821  36.011  32.472  1.00  0.00     0.251 C 
ATOM     30  H   UNL A   1      31.709  36.867  31.047  1.00  0.00     0.163 HD
ATOM     31  O   UNL A   1      32.208  36.554  33.385  1.00  0.00    -0.269 OA
BRANCH  29  32
ATOM     32  C   UNL A   1      34.009  35.182  32.776  1.00  0.00     0.039 A 
ATOM     33  C   UNL A   1      35.277  35.700  32.495  1.00  0.00     0.014 A 
ATOM     34  C   UNL A   1      33.882  33.885  33.284  1.00  0.00     0.014 A 
ATOM     35  C   UNL A   1      36.416  34.939  32.765  1.00  0.00     0.010 A 
ATOM     36  C   UNL A   1      35.020  33.152  33.613  1.00  0.00     0.010 A 
ATOM     37  C   UNL A   1      36.297  33.668  33.350  1.00  0.00    -0.014 A 
BRANCH  37  38
ATOM     38  C   UNL A   1      37.497  32.861  33.682  1.00  0.00     0.031 A 
ATOM     39  C   UNL A   1      38.284  33.152  34.929  1.00  0.00     0.074 A 
ATOM     40  C   UNL A   1      37.911  31.905  32.830  1.00  0.00     0.049 A 
ATOM     41  N   UNL A   1      39.396  32.606  35.352  1.00  0.00    -0.248 NA
ATOM     42  C   UNL A   1      37.766  34.214  35.806  1.00  0.00     0.031 C 
ATOM     43  C   UNL A   1      37.257  31.556  31.566  1.00  0.00     0.029 A 
ATOM     44  N   UNL A   1      38.990  31.059  32.890  1.00  0.00    -0.354 N 
ATOM     45  C   UNL A   1      39.720  33.268  36.529  1.00  0.00     0.074 A 
ATOM     46  C   UNL A   1      38.711  34.286  36.733  1.00  0.00     0.031 C 
ATOM     47  C   UNL A   1      37.938  30.559  30.980  1.00  0.00     0.029 A 
ATOM     48  C   UNL A   1      39.092  30.221  31.807  1.00  0.00     0.049 A 
ATOM     49  H   UNL A   1      39.629  31.053  33.639  1.00  0.00     0.167 HD
ATOM     50  C   UNL A   1      40.753  33.037  37.374  1.00  0.00     0.037 A 
ATOM     51  C   UNL A   1      40.017  29.287  31.511  1.00  0.00     0.037 A 
ATOM     52  C   UNL A   1      41.739  32.006  37.184  1.00  0.00     0.049 A 
ATOM     53  C   UNL A   1      41.149  29.045  32.469  1.00  0.00     0.074 A 
ATOM     54  C   UNL A   1      42.789  31.652  38.014  1.00  0.00     0.029 A 
ATOM     55  N   UNL A   1      41.794  31.160  36.087  1.00  0.00    -0.354 N 
ATOM     56  N   UNL A   1      41.408  29.639  33.608  1.00  0.00    -0.248 NA
ATOM     57  C   UNL A   1      42.114  27.999  32.101  1.00  0.00     0.031 C 
ATOM     58  C   UNL A   1      43.500  30.615  37.402  1.00  0.00     0.029 A 
ATOM     59  C   UNL A   1      42.870  30.296  36.210  1.00  0.00     0.049 A 
ATOM     60  H   UNL A   1      41.163  31.172  35.332  1.00  0.00     0.167 HD
ATOM     61  C   UNL A   1      42.549  29.023  34.106  1.00  0.00     0.074 A 
ATOM     62  C   UNL A   1      42.924  28.001  33.151  1.00  0.00     0.031 C 
ATOM     63  C   UNL A   1      43.225  29.281  35.252  1.00  0.00     0.037 A 
BRANCH  50  64
ATOM     64  C   UNL A   1      40.867  33.916  38.584  1.00  0.00     0.057 A 
ATOM     65  C   UNL A   1      40.205  33.612  39.781  1.00  0.00     0.134 A 
ATOM     66  C   UNL A   1      41.670  35.063  38.565  1.00  0.00     0.134 A 
ATOM     67  F   UNL A   1      39.410  32.534  39.863  1.00  0.00    -0.206 F 
ATOM     68  C   UNL A   1      40.319  34.430  40.907  1.00  0.00     0.040 A 
ATOM     69  C   UNL A   1      41.812  35.876  39.691  1.00  0.00     0.040 A 
ATOM     70  F   UNL A   1      42.336  35.409  37.452  1.00  0.00    -0.206 F 
ATOM     71  C   UNL A   1      41.130  35.562  40.865  1.00  0.00     0.006 A 
ENDBRANCH  50  64
BRANCH  51  72
ATOM     72  C   UNL A   1      39.895  28.495  30.263  1.00  0.00     0.057 A 
ATOM     73  C   UNL A   1      39.200  27.281  30.246  1.00  0.00     0.134 A 
ATOM     74  C   UNL A   1      40.465  28.930  29.061  1.00  0.00     0.134 A 
ATOM     75  F   UNL A   1      38.647  26.805  31.372  1.00  0.00    -0.206 F 
ATOM     76  C   UNL A   1      39.089  26.518  29.083  1.00  0.00     0.040 A 
ATOM     77  C   UNL A   1      40.344  28.188  27.885  1.00  0.00     0.040 A 
ATOM     78  F   UNL A   1      41.137  30.090  29.010  1.00  0.00    -0.206 F 
ATOM     79  C   UNL A   1      39.658  26.975  27.896  1.00  0.00     0.006 A 
ENDBRANCH  51  72
BRANCH  63  80
ATOM     80  C   UNL A   1      44.418  28.423  35.550  1.00  0.00     0.057 A 
ATOM     81  C   UNL A   1      45.703  28.774  35.120  1.00  0.00     0.134 A 
ATOM     82  C   UNL A   1      44.283  27.253  36.306  1.00  0.00     0.134 A 
ATOM     83  F   UNL A   1      45.896  29.876  34.380  1.00  0.00    -0.206 F 
ATOM     84  C   UNL A   1      46.812  27.979  35.417  1.00  0.00     0.040 A 
ATOM     85  C   UNL A   1      45.387  26.463  36.629  1.00  0.00     0.040 A 
ATOM     86  F   UNL A   1      43.079  26.865  36.754  1.00  0.00    -0.206 F 
ATOM     87  C   UNL A   1      46.655  26.823  36.179  1.00  0.00     0.006 A 
ENDBRANCH  63  80
ENDBRANCH  37  38
ENDBRANCH  29  32
ENDBRANCH  27  28
ENDBRANCH  26  27
ENDBRANCH   1  26
TORSDOF 13
ENDMDL
MODEL 3
REMARK VINA RESULT:     -12.3      4.167      9.945
REMARK SMILES Cc1noc(C[N@H+]2CCC[C@@H](c3ccc(C(=O)NCCCNC(=O)c4ccc(-c5c6nc(c(-c7c(F)cccc7F)c7ccc([nH]7)c(-c7c(F)cccc7F)c7nc(c(-c8c(F)cccc8F)c8ccc5[nH]8)C=C7)C=C6)cc4)cc3)C2)n1
REMARK SMILES IDX 19 1 18 2 16 3 17 4 15 6 12 7 13 8 80 9 14 10 79 11 11 12
REMARK SMILES IDX 7 13 8 14 81 15 9 17 10 18 6 19 5 20 1 21 2 22 3 23 82 24
REMARK SMILES IDX 4 25 20 26 21 27 22 28 23 29 24 31 25 32 26 33 78 34 27 35
REMARK SMILES IDX 77 36 28 37 29 38 30 39 71 40 31 41 76 42 70 43 72 44 32 45
REMARK SMILES IDX 75 46 69 47 68 48 33 50 59 51 42 52 58 53 43 54 46 55 57 56
REMARK SMILES IDX 73 57 44 58 45 59 56 61 74 62 47 63 34 64 35 65 40 66 36 67
REMARK SMILES IDX 37 68 39 69 41 70 38 71 60 72 61 73 66 74 62 75 63 76 65 77
REMARK SMILES IDX 67 78 64 79 48 80 49 81 54 82 50 83 51 84 53 85 55 86 52 87
REMARK H PARENT 18 5 7 16 22 30 72 49 46 60
REMARK Flexibility Score: inf
ROOT
ATOM      1  C   UNL A   1      31.598  30.722  26.328  1.00  0.00     0.118 C 
ENDROOT
BRANCH   1   2
ATOM      2  N   UNL A   1      31.031  30.494  25.013  1.00  0.00    -0.352 N 
ATOM      3  C   UNL A   1      30.973  29.374  24.226  1.00  0.00     0.251 C 
ATOM      4  O   UNL A   1      30.366  29.453  23.158  1.00  0.00    -0.269 OA
ATOM      5  H   UNL A   1      30.612  31.289  24.612  1.00  0.00     0.163 HD
BRANCH   3   6
ATOM      6  C   UNL A   1      31.556  28.068  24.635  1.00  0.00     0.039 A 
ATOM      7  C   UNL A   1      32.777  25.594  25.254  1.00  0.00    -0.039 A 
ATOM      8  C   UNL A   1      33.382  26.495  24.362  1.00  0.00     0.005 A 
ATOM      9  C   UNL A   1      31.588  25.981  25.882  1.00  0.00     0.005 A 
ATOM     10  C   UNL A   1      32.773  27.710  24.048  1.00  0.00     0.014 A 
ATOM     11  C   UNL A   1      30.996  27.215  25.590  1.00  0.00     0.014 A 
BRANCH   7  12
ATOM     12  C   UNL A   1      33.389  24.235  25.558  1.00  0.00     0.074 C 
ATOM     13  N   UNL A   1      33.442  21.817  24.798  1.00  0.00    -0.327 N 
ATOM     14  C   UNL A   1      34.899  21.905  24.624  1.00  0.00     0.262 C 
ATOM     15  C   UNL A   1      32.797  23.134  24.649  1.00  0.00     0.270 C 
ATOM     16  H   UNL A   1      33.271  21.491  25.749  1.00  0.00     0.348 HD
ATOM     17  C   UNL A   1      35.516  22.898  25.610  1.00  0.00     0.062 C 
ATOM     18  C   UNL A   1      34.917  24.289  25.433  1.00  0.00     0.020 C 
BRANCH  13  19
ATOM     19  C   UNL A   1      32.843  20.825  23.858  1.00  0.00     0.364 C 
BRANCH  19  20
ATOM     20  C   UNL A   1      32.896  19.398  24.308  1.00  0.00     0.281 A 
ATOM     21  C   UNL A   1      34.244  16.210  24.870  1.00  0.00     0.093 C 
ATOM     22  C   UNL A   1      33.447  17.450  24.827  1.00  0.00     0.169 A 
ATOM     23  N   UNL A   1      32.528  17.760  25.751  1.00  0.00    -0.063 NA
ATOM     24  N   UNL A   1      33.671  18.419  23.888  1.00  0.00    -0.191 NA
ATOM     25  O   UNL A   1      32.153  19.062  25.405  1.00  0.00    -0.333 OA
ENDBRANCH  19  20
ENDBRANCH  13  19
ENDBRANCH   7  12
ENDBRANCH   3   6
ENDBRANCH   1   2
BRANCH   1  26
ATOM     26  C   UNL A   1      31.403  32.172  26.767  1.00  0.00     0.042 C 
BRANCH  26  27
ATOM     27  C   UNL A   1      32.711  32.943  26.912  1.00  0.00     0.118 C 
BRANCH  27  28
ATOM     28  N   UNL A   1      32.528  34.197  27.626  1.00  0.00    -0.352 N 
ATOM     29  C   UNL A   1      33.126  34.646  28.777  1.00  0.00     0.251 C 
ATOM     30  H   UNL A   1      31.878  34.817  27.223  1.00  0.00     0.163 HD
ATOM     31  O   UNL A   1      32.681  35.641  29.342  1.00  0.00    -0.269 OA
BRANCH  29  32
ATOM     32  C   UNL A   1      34.292  33.937  29.349  1.00  0.00     0.039 A 
ATOM     33  C   UNL A   1      34.068  32.952  30.316  1.00  0.00     0.014 A 
ATOM     34  C   UNL A   1      35.599  34.267  28.981  1.00  0.00     0.014 A 
ATOM     35  C   UNL A   1      35.148  32.269  30.879  1.00  0.00     0.010 A 
ATOM     36  C   UNL A   1      36.672  33.542  29.494  1.00  0.00     0.010 A 
ATOM     37  C   UNL A   1      36.457  32.541  30.454  1.00  0.00    -0.014 A 
BRANCH  37  38
ATOM     38  C   UNL A   1      37.615  31.799  31.010  1.00  0.00     0.031 A 
ATOM     39  C   UNL A   1      38.136  32.126  32.382  1.00  0.00     0.074 A 
ATOM     40  C   UNL A   1      38.233  30.871  30.256  1.00  0.00     0.049 A 
ATOM     41  N   UNL A   1      39.176  31.639  33.009  1.00  0.00    -0.248 NA
ATOM     42  C   UNL A   1      37.406  33.154  33.139  1.00  0.00     0.031 C 
ATOM     43  C   UNL A   1      37.849  30.493  28.894  1.00  0.00     0.029 A 
ATOM     44  N   UNL A   1      39.325  30.084  30.524  1.00  0.00    -0.354 N 
ATOM     45  C   UNL A   1      39.236  32.312  34.222  1.00  0.00     0.074 A 
ATOM     46  C   UNL A   1      38.153  33.273  34.227  1.00  0.00     0.031 C 
ATOM     47  C   UNL A   1      38.682  29.537  28.453  1.00  0.00     0.029 A 
ATOM     48  C   UNL A   1      39.676  29.257  29.484  1.00  0.00     0.049 A 
ATOM     49  H   UNL A   1      39.812  30.110  31.380  1.00  0.00     0.167 HD
ATOM     50  C   UNL A   1      40.103  32.134  35.248  1.00  0.00     0.037 A 
ATOM     51  C   UNL A   1      40.689  28.377  29.374  1.00  0.00     0.037 A 
ATOM     52  C   UNL A   1      41.161  31.158  35.253  1.00  0.00     0.049 A 
ATOM     53  C   UNL A   1      41.632  28.192  30.528  1.00  0.00     0.074 A 
ATOM     54  C   UNL A   1      42.053  30.859  36.269  1.00  0.00     0.029 A 
ATOM     55  N   UNL A   1      41.467  30.322  34.191  1.00  0.00    -0.354 N 
ATOM     56  N   UNL A   1      41.639  28.793  31.692  1.00  0.00    -0.248 NA
ATOM     57  C   UNL A   1      42.703  27.201  30.356  1.00  0.00     0.031 C 
ATOM     58  C   UNL A   1      42.922  29.864  35.807  1.00  0.00     0.029 A 
ATOM     59  C   UNL A   1      42.546  29.517  34.520  1.00  0.00     0.049 A 
ATOM     60  H   UNL A   1      40.990  30.303  33.331  1.00  0.00     0.167 HD
ATOM     61  C   UNL A   1      42.696  28.238  32.401  1.00  0.00     0.074 A 
ATOM     62  C   UNL A   1      43.300  27.243  31.539  1.00  0.00     0.031 C 
ATOM     63  C   UNL A   1      43.129  28.527  33.652  1.00  0.00     0.037 A 
BRANCH  50  64
ATOM     64  C   UNL A   1      39.938  33.012  36.453  1.00  0.00     0.057 A 
ATOM     65  C   UNL A   1      39.023  32.706  37.470  1.00  0.00     0.134 A 
ATOM     66  C   UNL A   1      40.723  34.160  36.616  1.00  0.00     0.134 A 
ATOM     67  F   UNL A   1      38.232  31.628  37.370  1.00  0.00    -0.206 F 
ATOM     68  C   UNL A   1      38.878  33.523  38.593  1.00  0.00     0.040 A 
ATOM     69  C   UNL A   1      40.606  34.972  37.746  1.00  0.00     0.040 A 
ATOM     70  F   UNL A   1      41.623  34.508  35.683  1.00  0.00    -0.206 F 
ATOM     71  C   UNL A   1      39.677  34.657  38.736  1.00  0.00     0.006 A 
ENDBRANCH  50  64
BRANCH  51  72
ATOM     72  C   UNL A   1      40.847  27.585  28.129  1.00  0.00     0.057 A 
ATOM     73  C   UNL A   1      41.614  28.069  27.062  1.00  0.00     0.134 A 
ATOM     74  C   UNL A   1      40.241  26.334  27.974  1.00  0.00     0.134 A 
ATOM     75  F   UNL A   1      42.204  29.270  27.147  1.00  0.00    -0.206 F 
ATOM     76  C   UNL A   1      41.761  27.343  25.880  1.00  0.00     0.040 A 
ATOM     77  C   UNL A   1      40.396  25.587  26.805  1.00  0.00     0.040 A 
ATOM     78  F   UNL A   1      39.499  25.813  28.963  1.00  0.00    -0.206 F 
ATOM     79  C   UNL A   1      41.154  26.094  25.751  1.00  0.00     0.006 A 
ENDBRANCH  51  72
BRANCH  63  80
ATOM     80  C   UNL A   1      44.290  27.734  34.174  1.00  0.00     0.057 A 
ATOM     81  C   UNL A   1      44.113  26.500  34.811  1.00  0.00     0.134 A 
ATOM     82  C   UNL A   1      45.601  28.194  34.002  1.00  0.00     0.134 A 
ATOM     83  F   UNL A   1      42.880  26.012  35.018  1.00  0.00    -0.206 F 
ATOM     84  C   UNL A   1      45.200  25.760  35.278  1.00  0.00     0.040 A 
ATOM     85  C   UNL A   1      46.697  27.452  34.444  1.00  0.00     0.040 A 
ATOM     86  F   UNL A   1      45.838  29.366  33.392  1.00  0.00    -0.206 F 
ATOM     87  C   UNL A   1      46.497  26.233  35.089  1.00  0.00     0.006 A 
ENDBRANCH  63  80
ENDBRANCH  37  38
ENDBRANCH  29  32
ENDBRANCH  27  28
ENDBRANCH  26  27
ENDBRANCH   1  26
TORSDOF 13
ENDMDL
