MODEL 1
REMARK VINA RESULT:     -11.8      0.000      0.000
REMARK SMILES Cc1nn(C)c(=O)c(C(=O)N2CCCC[C@H]2C(=O)NCCCNC(=O)c2ccc(-c3c4nc(c(-c5c(F)cccc5F)c5ccc([nH]5)c(-c5c(F)cccc5F)c5nc(c(-c6c(F)cccc6F)c6ccc3[nH]6)C=C5)C=C4)cc2)c1C
REMARK SMILES IDX 21 1 20 2 19 3 17 4 18 5 16 7 11 8 12 9 13 10 15 11 14 12
REMARK SMILES IDX 9 13 10 14 8 15 1 16 2 17 3 18 80 19 4 20 81 21 5 22 6 23
REMARK SMILES IDX 7 24 22 25 23 26 24 27 25 29 26 30 27 31 79 32 28 33 78 34
REMARK SMILES IDX 29 35 30 36 31 37 72 38 32 39 77 40 71 41 73 42 33 43 76 44
REMARK SMILES IDX 70 45 69 46 34 48 60 49 43 50 59 51 44 52 47 53 58 54 74 55
REMARK SMILES IDX 45 56 46 57 57 59 75 60 48 61 35 62 36 63 41 64 37 65 38 66
REMARK SMILES IDX 40 67 42 68 39 69 61 70 62 71 67 72 63 73 64 74 66 75 68 76
REMARK SMILES IDX 65 77 49 78 50 79 55 80 51 81 52 82 54 83 56 84 53 85
REMARK H PARENT 19 6 23 28 73 47 47 58
REMARK Flexibility Score: inf
ROOT
ATOM      1  C   UNL A   1      34.210  27.870  25.943  1.00  0.00     0.042 C 
ENDROOT
BRANCH   1   2
ATOM      2  C   UNL A   1      33.272  27.894  24.742  1.00  0.00     0.117 C 
BRANCH   2   3
ATOM      3  N   UNL A   1      33.747  27.145  23.598  1.00  0.00    -0.354 N 
ATOM      4  C   UNL A   1      33.382  25.970  23.024  1.00  0.00     0.242 C 
ATOM      5  O   UNL A   1      33.825  25.808  21.875  1.00  0.00    -0.273 OA
ATOM      6  H   UNL A   1      34.499  27.582  23.137  1.00  0.00     0.163 HD
BRANCH   4   7
ATOM      7  C   UNL A   1      32.392  24.900  23.597  1.00  0.00     0.174 C 
ATOM      8  N   UNL A   1      32.314  24.569  25.041  1.00  0.00    -0.326 N 
ATOM      9  C   UNL A   1      31.401  25.364  25.878  1.00  0.00     0.120 C 
ATOM     10  C   UNL A   1      30.157  25.959  25.215  1.00  0.00     0.022 C 
ATOM     11  C   UNL A   1      31.005  25.196  23.001  1.00  0.00     0.035 C 
ATOM     12  C   UNL A   1      30.291  26.311  23.745  1.00  0.00     0.004 C 
BRANCH   8  13
ATOM     13  C   UNL A   1      33.003  23.559  25.736  1.00  0.00     0.260 C 
ATOM     14  O   UNL A   1      32.825  23.435  26.956  1.00  0.00    -0.269 OA
BRANCH  13  15
ATOM     15  C   UNL A   1      34.002  22.593  25.143  1.00  0.00     0.111 A 
ATOM     16  C   UNL A   1      37.658  21.593  24.942  1.00  0.00     0.069 C 
ATOM     17  C   UNL A   1      36.151  21.468  25.018  1.00  0.00     0.062 A 
ATOM     18  N   UNL A   1      35.664  20.285  24.849  1.00  0.00    -0.175 NA
ATOM     19  C   UNL A   1      35.333  22.679  25.333  1.00  0.00    -0.010 A 
ATOM     20  N   UNL A   1      34.307  20.165  24.814  1.00  0.00    -0.232 N 
ATOM     21  C   UNL A   1      36.078  23.774  26.009  1.00  0.00     0.047 C 
ATOM     22  C   UNL A   1      33.816  18.798  24.745  1.00  0.00     0.178 C 
ATOM     23  C   UNL A   1      33.447  21.256  24.703  1.00  0.00     0.279 A 
ATOM     24  O   UNL A   1      32.285  21.154  24.311  1.00  0.00    -0.267 OA
ENDBRANCH  13  15
ENDBRANCH   8  13
ENDBRANCH   4   7
ENDBRANCH   2   3
ENDBRANCH   1   2
BRANCH   1  25
ATOM     25  C   UNL A   1      33.533  28.283  27.244  1.00  0.00     0.118 C 
BRANCH  25  26
ATOM     26  N   UNL A   1      33.535  29.734  27.414  1.00  0.00    -0.352 N 
ATOM     27  C   UNL A   1      34.456  30.554  28.003  1.00  0.00     0.251 C 
ATOM     28  H   UNL A   1      32.747  30.196  27.045  1.00  0.00     0.163 HD
ATOM     29  O   UNL A   1      34.127  31.711  28.310  1.00  0.00    -0.269 OA
BRANCH  27  30
ATOM     30  C   UNL A   1      35.833  30.098  28.264  1.00  0.00     0.039 A 
ATOM     31  C   UNL A   1      36.159  29.578  29.521  1.00  0.00     0.014 A 
ATOM     32  C   UNL A   1      36.829  30.248  27.294  1.00  0.00     0.014 A 
ATOM     33  C   UNL A   1      37.468  29.175  29.789  1.00  0.00     0.010 A 
ATOM     34  C   UNL A   1      38.108  29.762  27.528  1.00  0.00     0.010 A 
ATOM     35  C   UNL A   1      38.447  29.247  28.787  1.00  0.00    -0.014 A 
BRANCH  35  36
ATOM     36  C   UNL A   1      39.847  28.837  29.043  1.00  0.00     0.031 A 
ATOM     37  C   UNL A   1      40.793  29.790  29.717  1.00  0.00     0.074 A 
ATOM     38  C   UNL A   1      40.280  27.637  28.614  1.00  0.00     0.049 A 
ATOM     39  N   UNL A   1      42.069  29.649  29.971  1.00  0.00    -0.248 NA
ATOM     40  C   UNL A   1      40.240  31.091  30.130  1.00  0.00     0.031 C 
ATOM     41  C   UNL A   1      39.463  26.651  27.906  1.00  0.00     0.029 A 
ATOM     42  N   UNL A   1      41.514  27.048  28.703  1.00  0.00    -0.354 N 
ATOM     43  C   UNL A   1      42.470  30.844  30.555  1.00  0.00     0.074 A 
ATOM     44  C   UNL A   1      41.322  31.721  30.560  1.00  0.00     0.031 C 
ATOM     45  C   UNL A   1      40.211  25.567  27.651  1.00  0.00     0.029 A 
ATOM     46  C   UNL A   1      41.565  25.796  28.144  1.00  0.00     0.049 A 
ATOM     47  H   UNL A   1      42.290  27.482  29.128  1.00  0.00     0.167 HD
ATOM     48  C   UNL A   1      43.681  31.169  31.067  1.00  0.00     0.037 A 
ATOM     49  C   UNL A   1      42.591  24.930  28.040  1.00  0.00     0.037 A 
ATOM     50  C   UNL A   1      44.808  30.275  31.084  1.00  0.00     0.049 A 
ATOM     51  C   UNL A   1      43.927  25.307  28.616  1.00  0.00     0.074 A 
ATOM     52  C   UNL A   1      46.057  30.475  31.645  1.00  0.00     0.029 A 
ATOM     53  N   UNL A   1      44.820  29.011  30.513  1.00  0.00    -0.354 N 
ATOM     54  N   UNL A   1      44.277  26.413  29.227  1.00  0.00    -0.248 NA
ATOM     55  C   UNL A   1      45.006  24.318  28.492  1.00  0.00     0.031 C 
ATOM     56  C   UNL A   1      46.841  29.351  31.368  1.00  0.00     0.029 A 
ATOM     57  C   UNL A   1      46.066  28.430  30.680  1.00  0.00     0.049 A 
ATOM     58  H   UNL A   1      44.056  28.589  30.057  1.00  0.00     0.167 HD
ATOM     59  C   UNL A   1      45.612  26.253  29.572  1.00  0.00     0.074 A 
ATOM     60  C   UNL A   1      46.003  24.933  29.117  1.00  0.00     0.031 C 
ATOM     61  C   UNL A   1      46.438  27.119  30.207  1.00  0.00     0.037 A 
BRANCH  48  62
ATOM     62  C   UNL A   1      43.840  32.545  31.648  1.00  0.00     0.057 A 
ATOM     63  C   UNL A   1      44.255  33.634  30.870  1.00  0.00     0.134 A 
ATOM     64  C   UNL A   1      43.558  32.788  32.998  1.00  0.00     0.134 A 
ATOM     65  F   UNL A   1      44.556  33.469  29.573  1.00  0.00    -0.206 F 
ATOM     66  C   UNL A   1      44.418  34.906  31.420  1.00  0.00     0.040 A 
ATOM     67  C   UNL A   1      43.688  34.063  33.553  1.00  0.00     0.040 A 
ATOM     68  F   UNL A   1      43.151  31.793  33.800  1.00  0.00    -0.206 F 
ATOM     69  C   UNL A   1      44.128  35.125  32.765  1.00  0.00     0.006 A 
ENDBRANCH  48  62
BRANCH  49  70
ATOM     70  C   UNL A   1      42.361  23.610  27.403  1.00  0.00     0.057 A 
ATOM     71  C   UNL A   1      42.527  23.440  26.025  1.00  0.00     0.134 A 
ATOM     72  C   UNL A   1      42.050  22.476  28.162  1.00  0.00     0.134 A 
ATOM     73  F   UNL A   1      42.813  24.493  25.245  1.00  0.00    -0.206 F 
ATOM     74  C   UNL A   1      42.398  22.187  25.423  1.00  0.00     0.040 A 
ATOM     75  C   UNL A   1      41.938  21.213  27.577  1.00  0.00     0.040 A 
ATOM     76  F   UNL A   1      41.889  22.572  29.491  1.00  0.00    -0.206 F 
ATOM     77  C   UNL A   1      42.114  21.068  26.202  1.00  0.00     0.006 A 
ENDBRANCH  49  70
BRANCH  61  78
ATOM     78  C   UNL A   1      47.853  26.677  30.447  1.00  0.00     0.057 A 
ATOM     79  C   UNL A   1      48.208  25.943  31.585  1.00  0.00     0.134 A 
ATOM     80  C   UNL A   1      48.849  26.918  29.492  1.00  0.00     0.134 A 
ATOM     81  F   UNL A   1      47.301  25.689  32.540  1.00  0.00    -0.206 F 
ATOM     82  C   UNL A   1      49.509  25.472  31.770  1.00  0.00     0.040 A 
ATOM     83  C   UNL A   1      50.146  26.430  29.654  1.00  0.00     0.040 A 
ATOM     84  F   UNL A   1      48.570  27.605  28.374  1.00  0.00    -0.206 F 
ATOM     85  C   UNL A   1      50.479  25.706  30.797  1.00  0.00     0.006 A 
ENDBRANCH  61  78
ENDBRANCH  35  36
ENDBRANCH  27  30
ENDBRANCH  25  26
ENDBRANCH   1  25
TORSDOF 12
ENDMDL
MODEL 2
REMARK VINA RESULT:     -11.7      0.872      1.747
REMARK SMILES Cc1nn(C)c(=O)c(C(=O)N2CCCC[C@H]2C(=O)NCCCNC(=O)c2ccc(-c3c4nc(c(-c5c(F)cccc5F)c5ccc([nH]5)c(-c5c(F)cccc5F)c5nc(c(-c6c(F)cccc6F)c6ccc3[nH]6)C=C5)C=C4)cc2)c1C
REMARK SMILES IDX 21 1 20 2 19 3 17 4 18 5 16 7 11 8 12 9 13 10 15 11 14 12
REMARK SMILES IDX 9 13 10 14 8 15 1 16 2 17 3 18 80 19 4 20 81 21 5 22 6 23
REMARK SMILES IDX 7 24 22 25 23 26 24 27 25 29 26 30 27 31 79 32 28 33 78 34
REMARK SMILES IDX 29 35 30 36 31 37 72 38 32 39 77 40 71 41 73 42 33 43 76 44
REMARK SMILES IDX 70 45 69 46 34 48 60 49 43 50 59 51 44 52 47 53 58 54 74 55
REMARK SMILES IDX 45 56 46 57 57 59 75 60 48 61 35 62 36 63 41 64 37 65 38 66
REMARK SMILES IDX 40 67 42 68 39 69 61 70 62 71 67 72 63 73 64 74 66 75 68 76
REMARK SMILES IDX 65 77 49 78 50 79 55 80 51 81 52 82 54 83 56 84 53 85
REMARK H PARENT 19 6 23 28 73 47 47 58
REMARK Flexibility Score: inf
ROOT
ATOM      1  C   UNL A   1      32.896  28.306  25.885  1.00  0.00     0.042 C 
ENDROOT
BRANCH   1   2
ATOM      2  C   UNL A   1      33.569  27.909  24.577  1.00  0.00     0.117 C 
BRANCH   2   3
ATOM      3  N   UNL A   1      32.692  27.924  23.425  1.00  0.00    -0.354 N 
ATOM      4  C   UNL A   1      31.811  27.034  22.901  1.00  0.00     0.242 C 
ATOM      5  O   UNL A   1      31.019  27.527  22.081  1.00  0.00    -0.273 OA
ATOM      6  H   UNL A   1      32.747  28.761  22.910  1.00  0.00     0.163 HD
BRANCH   4   7
ATOM      7  C   UNL A   1      31.619  25.534  23.309  1.00  0.00     0.174 C 
ATOM      8  N   UNL A   1      32.580  24.807  24.174  1.00  0.00    -0.326 N 
ATOM      9  C   UNL A   1      32.378  24.874  25.630  1.00  0.00     0.120 C 
ATOM     10  C   UNL A   1      30.949  25.054  26.147  1.00  0.00     0.022 C 
ATOM     11  C   UNL A   1      30.171  25.377  23.804  1.00  0.00     0.035 C 
ATOM     12  C   UNL A   1      30.008  25.830  25.244  1.00  0.00     0.004 C 
BRANCH   8  13
ATOM     13  C   UNL A   1      33.682  24.028  23.778  1.00  0.00     0.260 C 
ATOM     14  O   UNL A   1      34.318  24.350  22.764  1.00  0.00    -0.269 OA
BRANCH  13  15
ATOM     15  C   UNL A   1      34.176  22.774  24.460  1.00  0.00     0.111 A 
ATOM     16  C   UNL A   1      33.795  19.009  24.759  1.00  0.00     0.069 C 
ATOM     17  C   UNL A   1      34.451  20.372  24.693  1.00  0.00     0.062 A 
ATOM     18  N   UNL A   1      35.711  20.416  24.971  1.00  0.00    -0.175 NA
ATOM     19  C   UNL A   1      33.641  21.553  24.265  1.00  0.00    -0.010 A 
ATOM     20  N   UNL A   1      36.300  21.644  25.015  1.00  0.00    -0.232 N 
ATOM     21  C   UNL A   1      32.416  21.220  23.490  1.00  0.00     0.047 C 
ATOM     22  C   UNL A   1      37.742  21.624  25.211  1.00  0.00     0.178 C 
ATOM     23  C   UNL A   1      35.579  22.837  25.023  1.00  0.00     0.279 A 
ATOM     24  O   UNL A   1      36.052  23.901  25.420  1.00  0.00    -0.267 OA
ENDBRANCH  13  15
ENDBRANCH   8  13
ENDBRANCH   4   7
ENDBRANCH   2   3
ENDBRANCH   1   2
BRANCH   1  25
ATOM     25  C   UNL A   1      33.882  28.533  27.025  1.00  0.00     0.118 C 
BRANCH  25  26
ATOM     26  N   UNL A   1      33.837  29.911  27.507  1.00  0.00    -0.352 N 
ATOM     27  C   UNL A   1      34.717  30.602  28.292  1.00  0.00     0.251 C 
ATOM     28  H   UNL A   1      33.047  30.425  27.222  1.00  0.00     0.163 HD
ATOM     29  O   UNL A   1      34.346  31.656  28.834  1.00  0.00    -0.269 OA
BRANCH  27  30
ATOM     30  C   UNL A   1      36.099  30.130  28.494  1.00  0.00     0.039 A 
ATOM     31  C   UNL A   1      36.474  29.609  29.737  1.00  0.00     0.014 A 
ATOM     32  C   UNL A   1      37.052  30.266  27.481  1.00  0.00     0.014 A 
ATOM     33  C   UNL A   1      37.788  29.192  29.948  1.00  0.00     0.010 A 
ATOM     34  C   UNL A   1      38.335  29.766  27.659  1.00  0.00     0.010 A 
ATOM     35  C   UNL A   1      38.723  29.249  28.903  1.00  0.00    -0.014 A 
BRANCH  35  36
ATOM     36  C   UNL A   1      40.128  28.823  29.099  1.00  0.00     0.031 A 
ATOM     37  C   UNL A   1      41.113  29.766  29.730  1.00  0.00     0.074 A 
ATOM     38  C   UNL A   1      40.528  27.619  28.652  1.00  0.00     0.049 A 
ATOM     39  N   UNL A   1      42.397  29.610  29.928  1.00  0.00    -0.248 NA
ATOM     40  C   UNL A   1      40.594  31.073  30.166  1.00  0.00     0.031 C 
ATOM     41  C   UNL A   1      39.670  26.641  27.981  1.00  0.00     0.029 A 
ATOM     42  N   UNL A   1      41.757  27.015  28.688  1.00  0.00    -0.354 N 
ATOM     43  C   UNL A   1      42.837  30.800  30.493  1.00  0.00     0.074 A 
ATOM     44  C   UNL A   1      41.700  31.691  30.548  1.00  0.00     0.031 C 
ATOM     45  C   UNL A   1      40.393  25.548  27.694  1.00  0.00     0.029 A 
ATOM     46  C   UNL A   1      41.770  25.762  28.128  1.00  0.00     0.049 A 
ATOM     47  H   UNL A   1      42.556  27.440  29.078  1.00  0.00     0.167 HD
ATOM     48  C   UNL A   1      44.073  31.112  30.951  1.00  0.00     0.037 A 
ATOM     49  C   UNL A   1      42.780  24.885  27.980  1.00  0.00     0.037 A 
ATOM     50  C   UNL A   1      45.189  30.205  30.920  1.00  0.00     0.049 A 
ATOM     51  C   UNL A   1      44.144  25.246  28.497  1.00  0.00     0.074 A 
ATOM     52  C   UNL A   1      46.463  30.391  31.425  1.00  0.00     0.029 A 
ATOM     53  N   UNL A   1      45.162  28.940  30.350  1.00  0.00    -0.354 N 
ATOM     54  N   UNL A   1      44.533  26.348  29.092  1.00  0.00    -0.248 NA
ATOM     55  C   UNL A   1      45.206  24.245  28.327  1.00  0.00     0.031 C 
ATOM     56  C   UNL A   1      47.222  29.258  31.116  1.00  0.00     0.029 A 
ATOM     57  C   UNL A   1      46.407  28.345  30.463  1.00  0.00     0.049 A 
ATOM     58  H   UNL A   1      44.374  28.527  29.928  1.00  0.00     0.167 HD
ATOM     59  C   UNL A   1      45.880  26.173  29.378  1.00  0.00     0.074 A 
ATOM     60  C   UNL A   1      46.236  24.848  28.908  1.00  0.00     0.031 C 
ATOM     61  C   UNL A   1      46.743  27.030  29.976  1.00  0.00     0.037 A 
BRANCH  48  62
ATOM     62  C   UNL A   1      44.273  32.486  31.523  1.00  0.00     0.057 A 
ATOM     63  C   UNL A   1      44.060  32.761  32.881  1.00  0.00     0.134 A 
ATOM     64  C   UNL A   1      44.699  33.544  30.712  1.00  0.00     0.134 A 
ATOM     65  F   UNL A   1      43.637  31.797  33.712  1.00  0.00    -0.206 F 
ATOM     66  C   UNL A   1      44.231  34.044  33.403  1.00  0.00     0.040 A 
ATOM     67  C   UNL A   1      44.902  34.826  31.228  1.00  0.00     0.040 A 
ATOM     68  F   UNL A   1      44.927  33.352  29.404  1.00  0.00    -0.206 F 
ATOM     69  C   UNL A   1      44.659  35.080  32.576  1.00  0.00     0.006 A 
ENDBRANCH  48  62
BRANCH  49  70
ATOM     70  C   UNL A   1      42.508  23.567  27.355  1.00  0.00     0.057 A 
ATOM     71  C   UNL A   1      42.696  23.371  25.984  1.00  0.00     0.134 A 
ATOM     72  C   UNL A   1      42.131  22.458  28.122  1.00  0.00     0.134 A 
ATOM     73  F   UNL A   1      43.045  24.400  25.197  1.00  0.00    -0.206 F 
ATOM     74  C   UNL A   1      42.527  22.117  25.395  1.00  0.00     0.040 A 
ATOM     75  C   UNL A   1      41.978  21.193  27.550  1.00  0.00     0.040 A 
ATOM     76  F   UNL A   1      41.945  22.579  29.444  1.00  0.00    -0.206 F 
ATOM     77  C   UNL A   1      42.178  21.022  26.181  1.00  0.00     0.006 A 
ENDBRANCH  49  70
BRANCH  61  78
ATOM     78  C   UNL A   1      48.162  26.572  30.154  1.00  0.00     0.057 A 
ATOM     79  C   UNL A   1      48.558  25.833  31.275  1.00  0.00     0.134 A 
ATOM     80  C   UNL A   1      49.118  26.802  29.157  1.00  0.00     0.134 A 
ATOM     81  F   UNL A   1      47.690  25.588  32.269  1.00  0.00    -0.206 F 
ATOM     82  C   UNL A   1      49.860  25.347  31.404  1.00  0.00     0.040 A 
ATOM     83  C   UNL A   1      50.416  26.299  29.263  1.00  0.00     0.040 A 
ATOM     84  F   UNL A   1      48.799  27.493  28.052  1.00  0.00    -0.206 F 
ATOM     85  C   UNL A   1      50.789  25.570  30.390  1.00  0.00     0.006 A 
ENDBRANCH  61  78
ENDBRANCH  35  36
ENDBRANCH  27  30
ENDBRANCH  25  26
ENDBRANCH   1  25
TORSDOF 12
ENDMDL
MODEL 3
REMARK VINA RESULT:     -11.7      1.163      3.412
REMARK SMILES Cc1nn(C)c(=O)c(C(=O)N2CCCC[C@H]2C(=O)NCCCNC(=O)c2ccc(-c3c4nc(c(-c5c(F)cccc5F)c5ccc([nH]5)c(-c5c(F)cccc5F)c5nc(c(-c6c(F)cccc6F)c6ccc3[nH]6)C=C5)C=C4)cc2)c1C
REMARK SMILES IDX 21 1 20 2 19 3 17 4 18 5 16 7 11 8 12 9 13 10 15 11 14 12
REMARK SMILES IDX 9 13 10 14 8 15 1 16 2 17 3 18 80 19 4 20 81 21 5 22 6 23
REMARK SMILES IDX 7 24 22 25 23 26 24 27 25 29 26 30 27 31 79 32 28 33 78 34
REMARK SMILES IDX 29 35 30 36 31 37 72 38 32 39 77 40 71 41 73 42 33 43 76 44
REMARK SMILES IDX 70 45 69 46 34 48 60 49 43 50 59 51 44 52 47 53 58 54 74 55
REMARK SMILES IDX 45 56 46 57 57 59 75 60 48 61 35 62 36 63 41 64 37 65 38 66
REMARK SMILES IDX 40 67 42 68 39 69 61 70 62 71 67 72 63 73 64 74 66 75 68 76
REMARK SMILES IDX 65 77 49 78 50 79 55 80 51 81 52 82 54 83 56 84 53 85
REMARK H PARENT 19 6 23 28 73 47 47 58
REMARK Flexibility Score: inf
ROOT
ATOM      1  C   UNL A   1      32.516  27.847  26.840  1.00  0.00     0.042 C 
ENDROOT
BRANCH   1   2
ATOM      2  C   UNL A   1      32.517  26.508  26.112  1.00  0.00     0.117 C 
BRANCH   2   3
ATOM      3  N   UNL A   1      31.741  25.473  26.763  1.00  0.00    -0.354 N 
ATOM      4  C   UNL A   1      31.658  24.127  26.617  1.00  0.00     0.242 C 
ATOM      5  O   UNL A   1      31.105  23.547  27.566  1.00  0.00    -0.273 OA
ATOM      6  H   UNL A   1      31.143  25.824  27.463  1.00  0.00     0.163 HD
BRANCH   4   7
ATOM      7  C   UNL A   1      32.280  23.254  25.475  1.00  0.00     0.174 C 
ATOM      8  N   UNL A   1      33.056  23.834  24.352  1.00  0.00    -0.326 N 
ATOM      9  C   UNL A   1      34.505  24.012  24.539  1.00  0.00     0.120 C 
ATOM     10  C   UNL A   1      35.228  23.048  25.481  1.00  0.00     0.022 C 
ATOM     11  C   UNL A   1      33.029  22.089  26.146  1.00  0.00     0.035 C 
ATOM     12  C   UNL A   1      34.406  22.502  26.634  1.00  0.00     0.004 C 
BRANCH   8  13
ATOM     13  C   UNL A   1      32.582  24.237  23.090  1.00  0.00     0.260 C 
ATOM     14  O   UNL A   1      32.617  23.432  22.147  1.00  0.00    -0.269 OA
BRANCH  13  15
ATOM     15  C   UNL A   1      32.047  25.604  22.734  1.00  0.00     0.111 A 
ATOM     16  C   UNL A   1      29.155  28.033  23.108  1.00  0.00     0.069 C 
ATOM     17  C   UNL A   1      30.574  27.515  23.002  1.00  0.00     0.062 A 
ATOM     18  N   UNL A   1      31.502  28.406  22.895  1.00  0.00    -0.175 NA
ATOM     19  C   UNL A   1      30.822  26.044  23.083  1.00  0.00    -0.010 A 
ATOM     20  N   UNL A   1      32.776  27.962  22.699  1.00  0.00    -0.232 N 
ATOM     21  C   UNL A   1      29.736  25.264  23.732  1.00  0.00     0.047 C 
ATOM     22  C   UNL A   1      33.794  29.001  22.709  1.00  0.00     0.178 C 
ATOM     23  C   UNL A   1      33.082  26.644  22.366  1.00  0.00     0.279 A 
ATOM     24  O   UNL A   1      34.146  26.317  21.842  1.00  0.00    -0.267 OA
ENDBRANCH  13  15
ENDBRANCH   8  13
ENDBRANCH   4   7
ENDBRANCH   2   3
ENDBRANCH   1   2
BRANCH   1  25
ATOM     25  C   UNL A   1      33.910  28.435  27.021  1.00  0.00     0.118 C 
BRANCH  25  26
ATOM     26  N   UNL A   1      33.853  29.814  27.500  1.00  0.00    -0.352 N 
ATOM     27  C   UNL A   1      34.730  30.516  28.278  1.00  0.00     0.251 C 
ATOM     28  H   UNL A   1      33.056  30.319  27.217  1.00  0.00     0.163 HD
ATOM     29  O   UNL A   1      34.351  31.568  28.819  1.00  0.00    -0.269 OA
BRANCH  27  30
ATOM     30  C   UNL A   1      36.118  30.059  28.474  1.00  0.00     0.039 A 
ATOM     31  C   UNL A   1      36.497  29.521  29.709  1.00  0.00     0.014 A 
ATOM     32  C   UNL A   1      37.071  30.226  27.466  1.00  0.00     0.014 A 
ATOM     33  C   UNL A   1      37.817  29.117  29.915  1.00  0.00     0.010 A 
ATOM     34  C   UNL A   1      38.360  29.739  27.638  1.00  0.00     0.010 A 
ATOM     35  C   UNL A   1      38.753  29.206  28.874  1.00  0.00    -0.014 A 
BRANCH  35  36
ATOM     36  C   UNL A   1      40.163  28.795  29.065  1.00  0.00     0.031 A 
ATOM     37  C   UNL A   1      41.141  29.749  29.688  1.00  0.00     0.074 A 
ATOM     38  C   UNL A   1      40.573  27.593  28.620  1.00  0.00     0.049 A 
ATOM     39  N   UNL A   1      42.427  29.608  29.882  1.00  0.00    -0.248 NA
ATOM     40  C   UNL A   1      40.610  31.052  30.123  1.00  0.00     0.031 C 
ATOM     41  C   UNL A   1      39.722  26.605  27.955  1.00  0.00     0.029 A 
ATOM     42  N   UNL A   1      41.809  27.003  28.652  1.00  0.00    -0.354 N 
ATOM     43  C   UNL A   1      42.858  30.804  30.442  1.00  0.00     0.074 A 
ATOM     44  C   UNL A   1      41.712  31.683  30.498  1.00  0.00     0.031 C 
ATOM     45  C   UNL A   1      40.456  25.519  27.669  1.00  0.00     0.029 A 
ATOM     46  C   UNL A   1      41.832  25.748  28.096  1.00  0.00     0.049 A 
ATOM     47  H   UNL A   1      42.605  27.437  29.038  1.00  0.00     0.167 HD
ATOM     48  C   UNL A   1      44.091  31.130  30.893  1.00  0.00     0.037 A 
ATOM     49  C   UNL A   1      42.851  24.880  27.947  1.00  0.00     0.037 A 
ATOM     50  C   UNL A   1      45.217  30.234  30.860  1.00  0.00     0.049 A 
ATOM     51  C   UNL A   1      44.213  25.257  28.456  1.00  0.00     0.074 A 
ATOM     52  C   UNL A   1      46.491  30.435  31.359  1.00  0.00     0.029 A 
ATOM     53  N   UNL A   1      45.201  28.967  30.294  1.00  0.00    -0.354 N 
ATOM     54  N   UNL A   1      44.594  26.366  29.046  1.00  0.00    -0.248 NA
ATOM     55  C   UNL A   1      45.284  24.267  28.285  1.00  0.00     0.031 C 
ATOM     56  C   UNL A   1      47.260  29.309  31.050  1.00  0.00     0.029 A 
ATOM     57  C   UNL A   1      46.453  28.386  30.403  1.00  0.00     0.049 A 
ATOM     58  H   UNL A   1      44.415  28.545  29.877  1.00  0.00     0.167 HD
ATOM     59  C   UNL A   1      45.943  26.205  29.328  1.00  0.00     0.074 A 
ATOM     60  C   UNL A   1      46.311  24.883  28.859  1.00  0.00     0.031 C 
ATOM     61  C   UNL A   1      46.800  27.073  29.919  1.00  0.00     0.037 A 
BRANCH  48  62
ATOM     62  C   UNL A   1      44.280  32.507  31.460  1.00  0.00     0.057 A 
ATOM     63  C   UNL A   1      44.072  32.784  32.819  1.00  0.00     0.134 A 
ATOM     64  C   UNL A   1      44.689  33.568  30.643  1.00  0.00     0.134 A 
ATOM     65  F   UNL A   1      43.665  31.817  33.655  1.00  0.00    -0.206 F 
ATOM     66  C   UNL A   1      44.232  34.070  33.336  1.00  0.00     0.040 A 
ATOM     67  C   UNL A   1      44.881  34.853  31.155  1.00  0.00     0.040 A 
ATOM     68  F   UNL A   1      44.910  33.375  29.334  1.00  0.00    -0.206 F 
ATOM     69  C   UNL A   1      44.644  35.109  32.504  1.00  0.00     0.006 A 
ENDBRANCH  48  62
BRANCH  49  70
ATOM     70  C   UNL A   1      42.590  23.558  27.327  1.00  0.00     0.057 A 
ATOM     71  C   UNL A   1      42.803  23.352  25.960  1.00  0.00     0.134 A 
ATOM     72  C   UNL A   1      42.199  22.455  28.094  1.00  0.00     0.134 A 
ATOM     73  F   UNL A   1      43.165  24.375  25.172  1.00  0.00    -0.206 F 
ATOM     74  C   UNL A   1      42.644  22.094  25.377  1.00  0.00     0.040 A 
ATOM     75  C   UNL A   1      42.056  21.186  27.529  1.00  0.00     0.040 A 
ATOM     76  F   UNL A   1      41.989  22.586  29.413  1.00  0.00    -0.206 F 
ATOM     77  C   UNL A   1      42.280  21.004  26.166  1.00  0.00     0.006 A 
ENDBRANCH  49  70
BRANCH  61  78
ATOM     78  C   UNL A   1      48.224  26.630  30.092  1.00  0.00     0.057 A 
ATOM     79  C   UNL A   1      48.633  25.901  31.215  1.00  0.00     0.134 A 
ATOM     80  C   UNL A   1      49.173  26.865  29.089  1.00  0.00     0.134 A 
ATOM     81  F   UNL A   1      47.772  25.652  32.214  1.00  0.00    -0.206 F 
ATOM     82  C   UNL A   1      49.940  25.429  31.340  1.00  0.00     0.040 A 
ATOM     83  C   UNL A   1      50.476  26.375  29.191  1.00  0.00     0.040 A 
ATOM     84  F   UNL A   1      48.842  27.547  27.982  1.00  0.00    -0.206 F 
ATOM     85  C   UNL A   1      50.863  25.656  30.320  1.00  0.00     0.006 A 
ENDBRANCH  61  78
ENDBRANCH  35  36
ENDBRANCH  27  30
ENDBRANCH  25  26
ENDBRANCH   1  25
TORSDOF 12
ENDMDL
