MODEL 1
REMARK VINA RESULT:     -12.1      0.000      0.000
REMARK SMILES O=C(NCCCNC(=O)c1csc(CNc2ccc(-n3cccn3)nc2)c1)c1ccc(-c2c3nc(c(-c4c(F)cccc4F)c4ccc([nH]4)c(-c4c(F)cccc4F)c4nc(c(-c5c(F)cccc5F)c5ccc2[nH]5)C=C4)C=C3)cc1
REMARK SMILES IDX 6 1 5 2 4 3 3 4 1 5 2 6 28 8 29 9 81 10 30 11 80 12 31 13
REMARK SMILES IDX 32 14 33 15 74 16 34 17 79 18 73 19 75 20 35 21 78 22 72 23
REMARK SMILES IDX 71 24 36 26 62 27 45 28 61 29 46 30 49 31 60 32 76 33 47 34
REMARK SMILES IDX 48 35 59 37 77 38 50 39 37 40 38 41 43 42 39 43 40 44 42 45
REMARK SMILES IDX 44 46 41 47 63 48 64 49 69 50 65 51 66 52 68 53 70 54 67 55
REMARK SMILES IDX 51 56 52 57 57 58 53 59 54 60 56 61 58 62 55 63 7 64 8 65
REMARK SMILES IDX 9 67 10 68 11 69 27 70 12 71 13 72 14 73 15 74 16 76 17 77
REMARK SMILES IDX 26 78 18 79 25 80 19 81 20 82 21 83 24 84 22 85 23 86
REMARK H PARENT 3 7 75 25 49 36 7 66 15 75
REMARK Flexibility Score: inf
ROOT
ATOM      1  C   UNL A   1      37.737  21.956  25.700  1.00  0.00     0.118 C 
ENDROOT
BRANCH   1   2
ATOM      2  C   UNL A   1      38.906  22.613  26.440  1.00  0.00     0.042 C 
BRANCH   2   3
ATOM      3  C   UNL A   1      40.133  21.720  26.631  1.00  0.00     0.118 C 
BRANCH   3   4
ATOM      4  N   UNL A   1      41.274  22.084  25.813  1.00  0.00    -0.352 N 
ATOM      5  O   UNL A   1      43.078  23.023  24.969  1.00  0.00    -0.269 OA
ATOM      6  C   UNL A   1      42.143  23.137  25.767  1.00  0.00     0.251 C 
ATOM      7  H   UNL A   1      41.470  21.407  25.125  1.00  0.00     0.163 HD
BRANCH   6   8
ATOM      8  C   UNL A   1      42.031  24.399  26.552  1.00  0.00     0.039 A 
ATOM      9  C   UNL A   1      42.491  24.602  27.854  1.00  0.00     0.014 A 
ATOM     10  C   UNL A   1      41.392  25.472  25.899  1.00  0.00     0.014 A 
ATOM     11  C   UNL A   1      42.270  25.820  28.502  1.00  0.00     0.010 A 
ATOM     12  C   UNL A   1      41.183  26.693  26.536  1.00  0.00     0.010 A 
ATOM     13  C   UNL A   1      41.599  26.861  27.853  1.00  0.00    -0.014 A 
BRANCH  13  14
ATOM     14  C   UNL A   1      41.436  28.133  28.559  1.00  0.00     0.031 A 
ATOM     15  C   UNL A   1      42.484  29.174  28.323  1.00  0.00     0.074 A 
ATOM     16  C   UNL A   1      40.336  28.467  29.266  1.00  0.00     0.049 A 
ATOM     17  N   UNL A   1      43.227  29.790  29.189  1.00  0.00    -0.248 NA
ATOM     18  C   UNL A   1      42.748  29.559  26.929  1.00  0.00     0.031 C 
ATOM     19  C   UNL A   1      39.060  27.755  29.358  1.00  0.00     0.029 A 
ATOM     20  N   UNL A   1      40.113  29.602  29.993  1.00  0.00    -0.354 N 
ATOM     21  C   UNL A   1      43.955  30.742  28.473  1.00  0.00     0.074 A 
ATOM     22  C   UNL A   1      43.678  30.504  27.078  1.00  0.00     0.031 C 
ATOM     23  C   UNL A   1      38.140  28.564  29.930  1.00  0.00     0.029 A 
ATOM     24  C   UNL A   1      38.793  29.788  30.368  1.00  0.00     0.049 A 
ATOM     25  H   UNL A   1      40.830  30.234  30.231  1.00  0.00     0.167 HD
ATOM     26  C   UNL A   1      44.642  31.757  29.069  1.00  0.00     0.037 A 
ATOM     27  C   UNL A   1      38.262  30.888  30.952  1.00  0.00     0.037 A 
ATOM     28  C   UNL A   1      44.888  31.505  30.460  1.00  0.00     0.049 A 
ATOM     29  C   UNL A   1      39.364  31.674  31.552  1.00  0.00     0.074 A 
ATOM     30  C   UNL A   1      45.585  30.545  31.168  1.00  0.00     0.029 A 
ATOM     31  N   UNL A   1      44.130  32.164  31.394  1.00  0.00    -0.354 N 
ATOM     32  N   UNL A   1      40.048  31.307  32.599  1.00  0.00    -0.248 NA
ATOM     33  C   UNL A   1      39.963  32.731  30.755  1.00  0.00     0.031 C 
ATOM     34  C   UNL A   1      44.833  30.350  32.364  1.00  0.00     0.029 A 
ATOM     35  C   UNL A   1      43.744  31.219  32.311  1.00  0.00     0.049 A 
ATOM     36  H   UNL A   1      43.907  33.122  31.404  1.00  0.00     0.167 HD
ATOM     37  C   UNL A   1      41.330  31.780  32.367  1.00  0.00     0.074 A 
ATOM     38  C   UNL A   1      41.189  32.743  31.280  1.00  0.00     0.031 C 
ATOM     39  C   UNL A   1      42.423  31.151  32.890  1.00  0.00     0.037 A 
BRANCH  26  40
ATOM     40  C   UNL A   1      44.889  33.104  28.443  1.00  0.00     0.057 A 
ATOM     41  C   UNL A   1      43.828  34.011  28.267  1.00  0.00     0.134 A 
ATOM     42  C   UNL A   1      46.081  33.436  27.770  1.00  0.00     0.134 A 
ATOM     43  F   UNL A   1      42.630  33.788  28.828  1.00  0.00    -0.206 F 
ATOM     44  C   UNL A   1      43.937  35.147  27.453  1.00  0.00     0.040 A 
ATOM     45  C   UNL A   1      46.216  34.591  26.993  1.00  0.00     0.040 A 
ATOM     46  F   UNL A   1      47.137  32.611  27.757  1.00  0.00    -0.206 F 
ATOM     47  C   UNL A   1      45.136  35.440  26.813  1.00  0.00     0.006 A 
ENDBRANCH  26  40
BRANCH  27  48
ATOM     48  C   UNL A   1      36.900  31.440  30.803  1.00  0.00     0.057 A 
ATOM     49  C   UNL A   1      36.083  31.682  31.916  1.00  0.00     0.134 A 
ATOM     50  C   UNL A   1      36.472  31.999  29.586  1.00  0.00     0.134 A 
ATOM     51  F   UNL A   1      36.432  31.228  33.128  1.00  0.00    -0.206 F 
ATOM     52  C   UNL A   1      34.915  32.450  31.826  1.00  0.00     0.040 A 
ATOM     53  C   UNL A   1      35.306  32.760  29.481  1.00  0.00     0.040 A 
ATOM     54  F   UNL A   1      37.222  31.897  28.479  1.00  0.00    -0.206 F 
ATOM     55  C   UNL A   1      34.529  33.000  30.607  1.00  0.00     0.006 A 
ENDBRANCH  27  48
BRANCH  39  56
ATOM     56  C   UNL A   1      42.192  30.096  33.936  1.00  0.00     0.057 A 
ATOM     57  C   UNL A   1      41.916  28.753  33.635  1.00  0.00     0.134 A 
ATOM     58  C   UNL A   1      42.395  30.412  35.283  1.00  0.00     0.134 A 
ATOM     59  F   UNL A   1      41.815  28.333  32.368  1.00  0.00    -0.206 F 
ATOM     60  C   UNL A   1      41.795  27.783  34.634  1.00  0.00     0.040 A 
ATOM     61  C   UNL A   1      42.313  29.445  36.288  1.00  0.00     0.040 A 
ATOM     62  F   UNL A   1      42.727  31.662  35.642  1.00  0.00    -0.206 F 
ATOM     63  C   UNL A   1      41.999  28.126  35.966  1.00  0.00     0.006 A 
ENDBRANCH  39  56
ENDBRANCH  13  14
ENDBRANCH   6   8
ENDBRANCH   3   4
ENDBRANCH   2   3
ENDBRANCH   1   2
BRANCH   1  64
ATOM     64  N   UNL A   1      37.592  22.445  24.339  1.00  0.00    -0.352 N 
ATOM     65  C   UNL A   1      36.495  22.875  23.638  1.00  0.00     0.252 C 
ATOM     66  H   UNL A   1      38.433  22.472  23.828  1.00  0.00     0.163 HD
ATOM     67  O   UNL A   1      36.604  22.996  22.420  1.00  0.00    -0.269 OA
BRANCH  65  68
ATOM     68  C   UNL A   1      35.236  23.167  24.314  1.00  0.00     0.050 A 
ATOM     69  C   UNL A   1      34.324  22.229  24.761  1.00  0.00     0.079 A 
ATOM     70  C   UNL A   1      34.837  24.486  24.733  1.00  0.00     0.031 A 
ATOM     71  S   UNL A   1      32.995  22.924  25.579  1.00  0.00    -0.146 S 
ATOM     72  C   UNL A   1      33.634  24.505  25.412  1.00  0.00     0.024 A 
BRANCH  72  73
ATOM     73  C   UNL A   1      32.893  25.684  25.984  1.00  0.00     0.159 C 
BRANCH  73  74
ATOM     74  N   UNL A   1      31.489  25.708  25.596  1.00  0.00    -0.379 N 
ATOM     75  H   UNL A   1      30.902  24.954  25.834  1.00  0.00     0.160 HD
BRANCH  74  76
ATOM     76  C   UNL A   1      30.976  26.785  24.893  1.00  0.00     0.053 A 
ATOM     77  C   UNL A   1      31.519  28.065  24.977  1.00  0.00     0.031 A 
ATOM     78  C   UNL A   1      29.824  26.657  24.116  1.00  0.00     0.139 A 
ATOM     79  C   UNL A   1      30.952  29.124  24.261  1.00  0.00     0.051 A 
ATOM     80  N   UNL A   1      29.213  27.667  23.453  1.00  0.00    -0.235 NA
ATOM     81  C   UNL A   1      29.799  28.889  23.514  1.00  0.00     0.153 A 
BRANCH  81  82
ATOM     82  N   UNL A   1      29.202  29.970  22.791  1.00  0.00    -0.223 N 
ATOM     83  C   UNL A   1      28.485  31.032  23.315  1.00  0.00     0.117 A 
ATOM     84  N   UNL A   1      29.281  30.058  21.435  1.00  0.00    -0.175 NA
ATOM     85  C   UNL A   1      28.053  31.791  22.254  1.00  0.00     0.042 A 
ATOM     86  C   UNL A   1      28.544  31.123  21.123  1.00  0.00     0.135 A 
ENDBRANCH  81  82
ENDBRANCH  74  76
ENDBRANCH  73  74
ENDBRANCH  72  73
ENDBRANCH  65  68
ENDBRANCH   1  64
TORSDOF 14
ENDMDL
MODEL 2
REMARK VINA RESULT:     -12.0      3.410      8.817
REMARK SMILES O=C(NCCCNC(=O)c1csc(CNc2ccc(-n3cccn3)nc2)c1)c1ccc(-c2c3nc(c(-c4c(F)cccc4F)c4ccc([nH]4)c(-c4c(F)cccc4F)c4nc(c(-c5c(F)cccc5F)c5ccc2[nH]5)C=C4)C=C3)cc1
REMARK SMILES IDX 6 1 5 2 4 3 3 4 1 5 2 6 28 8 29 9 81 10 30 11 80 12 31 13
REMARK SMILES IDX 32 14 33 15 74 16 34 17 79 18 73 19 75 20 35 21 78 22 72 23
REMARK SMILES IDX 71 24 36 26 62 27 45 28 61 29 46 30 49 31 60 32 76 33 47 34
REMARK SMILES IDX 48 35 59 37 77 38 50 39 37 40 38 41 43 42 39 43 40 44 42 45
REMARK SMILES IDX 44 46 41 47 63 48 64 49 69 50 65 51 66 52 68 53 70 54 67 55
REMARK SMILES IDX 51 56 52 57 57 58 53 59 54 60 56 61 58 62 55 63 7 64 8 65
REMARK SMILES IDX 9 67 10 68 11 69 27 70 12 71 13 72 14 73 15 74 16 76 17 77
REMARK SMILES IDX 26 78 18 79 25 80 19 81 20 82 21 83 24 84 22 85 23 86
REMARK H PARENT 3 7 75 25 49 36 7 66 15 75
REMARK Flexibility Score: inf
ROOT
ATOM      1  C   UNL A   1      33.231  30.469  26.864  1.00  0.00     0.118 C 
ENDROOT
BRANCH   1   2
ATOM      2  C   UNL A   1      34.504  30.896  27.601  1.00  0.00     0.042 C 
BRANCH   2   3
ATOM      3  C   UNL A   1      34.478  32.319  28.163  1.00  0.00     0.118 C 
BRANCH   3   4
ATOM      4  N   UNL A   1      34.402  32.393  29.609  1.00  0.00    -0.352 N 
ATOM      5  O   UNL A   1      34.816  32.328  31.771  1.00  0.00    -0.269 OA
ATOM      6  C   UNL A   1      35.179  31.964  30.648  1.00  0.00     0.251 C 
ATOM      7  H   UNL A   1      33.595  32.866  29.915  1.00  0.00     0.163 HD
BRANCH   6   8
ATOM      8  C   UNL A   1      36.374  31.080  30.541  1.00  0.00     0.039 A 
ATOM      9  C   UNL A   1      36.377  29.687  30.626  1.00  0.00     0.014 A 
ATOM     10  C   UNL A   1      37.605  31.736  30.341  1.00  0.00     0.014 A 
ATOM     11  C   UNL A   1      37.578  28.976  30.568  1.00  0.00     0.010 A 
ATOM     12  C   UNL A   1      38.803  31.030  30.267  1.00  0.00     0.010 A 
ATOM     13  C   UNL A   1      38.796  29.646  30.408  1.00  0.00    -0.014 A 
BRANCH  13  14
ATOM     14  C   UNL A   1      40.021  28.851  30.306  1.00  0.00     0.031 A 
ATOM     15  C   UNL A   1      40.775  28.612  31.576  1.00  0.00     0.074 A 
ATOM     16  C   UNL A   1      40.410  28.205  29.187  1.00  0.00     0.049 A 
ATOM     17  N   UNL A   1      42.013  28.883  31.849  1.00  0.00    -0.248 NA
ATOM     18  C   UNL A   1      40.036  28.007  32.693  1.00  0.00     0.031 C 
ATOM     19  C   UNL A   1      39.671  28.021  27.937  1.00  0.00     0.029 A 
ATOM     20  N   UNL A   1      41.553  27.485  28.983  1.00  0.00    -0.354 N 
ATOM     21  C   UNL A   1      42.257  28.360  33.120  1.00  0.00     0.074 A 
ATOM     22  C   UNL A   1      40.987  27.899  33.623  1.00  0.00     0.031 C 
ATOM     23  C   UNL A   1      40.293  27.083  27.187  1.00  0.00     0.029 A 
ATOM     24  C   UNL A   1      41.539  26.708  27.837  1.00  0.00     0.049 A 
ATOM     25  H   UNL A   1      42.321  27.516  29.598  1.00  0.00     0.167 HD
ATOM     26  C   UNL A   1      43.510  28.212  33.636  1.00  0.00     0.037 A 
ATOM     27  C   UNL A   1      42.459  25.785  27.471  1.00  0.00     0.037 A 
ATOM     28  C   UNL A   1      44.481  29.014  32.949  1.00  0.00     0.049 A 
ATOM     29  C   UNL A   1      43.708  26.049  28.222  1.00  0.00     0.074 A 
ATOM     30  C   UNL A   1      44.663  30.370  32.754  1.00  0.00     0.029 A 
ATOM     31  N   UNL A   1      45.335  28.405  32.067  1.00  0.00    -0.354 N 
ATOM     32  N   UNL A   1      44.487  27.074  28.022  1.00  0.00    -0.248 NA
ATOM     33  C   UNL A   1      43.913  25.344  29.477  1.00  0.00     0.031 C 
ATOM     34  C   UNL A   1      45.215  30.484  31.445  1.00  0.00     0.029 A 
ATOM     35  C   UNL A   1      45.351  29.190  30.942  1.00  0.00     0.049 A 
ATOM     36  H   UNL A   1      45.836  27.570  32.211  1.00  0.00     0.167 HD
ATOM     37  C   UNL A   1      44.983  27.391  29.277  1.00  0.00     0.074 A 
ATOM     38  C   UNL A   1      44.689  26.227  30.107  1.00  0.00     0.031 C 
ATOM     39  C   UNL A   1      45.341  28.669  29.595  1.00  0.00     0.037 A 
BRANCH  26  40
ATOM     40  C   UNL A   1      43.906  27.147  34.625  1.00  0.00     0.057 A 
ATOM     41  C   UNL A   1      43.920  25.793  34.243  1.00  0.00     0.134 A 
ATOM     42  C   UNL A   1      44.020  27.382  36.009  1.00  0.00     0.134 A 
ATOM     43  F   UNL A   1      43.782  25.437  32.956  1.00  0.00    -0.206 F 
ATOM     44  C   UNL A   1      44.007  24.750  35.175  1.00  0.00     0.040 A 
ATOM     45  C   UNL A   1      44.155  26.351  36.944  1.00  0.00     0.040 A 
ATOM     46  F   UNL A   1      43.912  28.614  36.526  1.00  0.00    -0.206 F 
ATOM     47  C   UNL A   1      44.126  25.028  36.532  1.00  0.00     0.006 A 
ENDBRANCH  26  40
BRANCH  27  48
ATOM     48  C   UNL A   1      42.255  24.533  26.712  1.00  0.00     0.057 A 
ATOM     49  C   UNL A   1      43.009  24.240  25.568  1.00  0.00     0.134 A 
ATOM     50  C   UNL A   1      41.504  23.473  27.250  1.00  0.00     0.134 A 
ATOM     51  F   UNL A   1      43.792  25.175  25.011  1.00  0.00    -0.206 F 
ATOM     52  C   UNL A   1      43.029  22.960  25.001  1.00  0.00     0.040 A 
ATOM     53  C   UNL A   1      41.508  22.194  26.689  1.00  0.00     0.040 A 
ATOM     54  F   UNL A   1      40.812  23.625  28.389  1.00  0.00    -0.206 F 
ATOM     55  C   UNL A   1      42.284  21.929  25.568  1.00  0.00     0.006 A 
ENDBRANCH  27  48
BRANCH  39  56
ATOM     56  C   UNL A   1      45.436  29.670  28.477  1.00  0.00     0.057 A 
ATOM     57  C   UNL A   1      44.339  30.402  27.996  1.00  0.00     0.134 A 
ATOM     58  C   UNL A   1      46.694  30.012  27.970  1.00  0.00     0.134 A 
ATOM     59  F   UNL A   1      43.112  30.224  28.501  1.00  0.00    -0.206 F 
ATOM     60  C   UNL A   1      44.482  31.388  27.016  1.00  0.00     0.040 A 
ATOM     61  C   UNL A   1      46.855  31.020  27.017  1.00  0.00     0.040 A 
ATOM     62  F   UNL A   1      47.798  29.401  28.430  1.00  0.00    -0.206 F 
ATOM     63  C   UNL A   1      45.745  31.704  26.527  1.00  0.00     0.006 A 
ENDBRANCH  39  56
ENDBRANCH  13  14
ENDBRANCH   6   8
ENDBRANCH   3   4
ENDBRANCH   2   3
ENDBRANCH   1   2
BRANCH   1  64
ATOM     64  N   UNL A   1      32.451  29.498  27.612  1.00  0.00    -0.352 N 
ATOM     65  C   UNL A   1      31.836  28.334  27.229  1.00  0.00     0.252 C 
ATOM     66  H   UNL A   1      32.346  29.714  28.567  1.00  0.00     0.163 HD
ATOM     67  O   UNL A   1      31.028  27.830  28.006  1.00  0.00    -0.269 OA
BRANCH  65  68
ATOM     68  C   UNL A   1      32.122  27.720  25.937  1.00  0.00     0.050 A 
ATOM     69  C   UNL A   1      31.658  28.166  24.713  1.00  0.00     0.079 A 
ATOM     70  C   UNL A   1      33.050  26.635  25.751  1.00  0.00     0.031 A 
ATOM     71  S   UNL A   1      32.255  27.252  23.399  1.00  0.00    -0.146 S 
ATOM     72  C   UNL A   1      33.204  26.266  24.430  1.00  0.00     0.024 A 
BRANCH  72  73
ATOM     73  C   UNL A   1      34.065  25.175  23.849  1.00  0.00     0.159 C 
BRANCH  73  74
ATOM     74  N   UNL A   1      34.687  24.345  24.872  1.00  0.00    -0.379 N 
ATOM     75  H   UNL A   1      35.264  24.759  25.555  1.00  0.00     0.160 HD
BRANCH  74  76
ATOM     76  C   UNL A   1      34.472  22.977  24.889  1.00  0.00     0.053 A 
ATOM     77  C   UNL A   1      35.511  22.052  24.816  1.00  0.00     0.031 A 
ATOM     78  C   UNL A   1      33.180  22.450  24.900  1.00  0.00     0.139 A 
ATOM     79  C   UNL A   1      35.240  20.680  24.817  1.00  0.00     0.051 A 
ATOM     80  N   UNL A   1      32.874  21.132  24.847  1.00  0.00    -0.235 NA
ATOM     81  C   UNL A   1      33.911  20.257  24.829  1.00  0.00     0.153 A 
BRANCH  81  82
ATOM     82  N   UNL A   1      33.624  18.856  24.814  1.00  0.00    -0.223 N 
ATOM     83  C   UNL A   1      34.390  17.851  24.252  1.00  0.00     0.117 A 
ATOM     84  N   UNL A   1      32.495  18.348  25.380  1.00  0.00    -0.175 NA
ATOM     85  C   UNL A   1      33.702  16.673  24.422  1.00  0.00     0.042 A 
ATOM     86  C   UNL A   1      32.528  17.048  25.091  1.00  0.00     0.135 A 
ENDBRANCH  81  82
ENDBRANCH  74  76
ENDBRANCH  73  74
ENDBRANCH  72  73
ENDBRANCH  65  68
ENDBRANCH   1  64
TORSDOF 14
ENDMDL
MODEL 3
REMARK VINA RESULT:     -11.9      3.074      8.703
REMARK SMILES O=C(NCCCNC(=O)c1csc(CNc2ccc(-n3cccn3)nc2)c1)c1ccc(-c2c3nc(c(-c4c(F)cccc4F)c4ccc([nH]4)c(-c4c(F)cccc4F)c4nc(c(-c5c(F)cccc5F)c5ccc2[nH]5)C=C4)C=C3)cc1
REMARK SMILES IDX 6 1 5 2 4 3 3 4 1 5 2 6 28 8 29 9 81 10 30 11 80 12 31 13
REMARK SMILES IDX 32 14 33 15 74 16 34 17 79 18 73 19 75 20 35 21 78 22 72 23
REMARK SMILES IDX 71 24 36 26 62 27 45 28 61 29 46 30 49 31 60 32 76 33 47 34
REMARK SMILES IDX 48 35 59 37 77 38 50 39 37 40 38 41 43 42 39 43 40 44 42 45
REMARK SMILES IDX 44 46 41 47 63 48 64 49 69 50 65 51 66 52 68 53 70 54 67 55
REMARK SMILES IDX 51 56 52 57 57 58 53 59 54 60 56 61 58 62 55 63 7 64 8 65
REMARK SMILES IDX 9 67 10 68 11 69 27 70 12 71 13 72 14 73 15 74 16 76 17 77
REMARK SMILES IDX 26 78 18 79 25 80 19 81 20 82 21 83 24 84 22 85 23 86
REMARK H PARENT 3 7 75 25 49 36 7 66 15 75
REMARK Flexibility Score: inf
ROOT
ATOM      1  C   UNL A   1      32.508  29.875  25.428  1.00  0.00     0.118 C 
ENDROOT
BRANCH   1   2
ATOM      2  C   UNL A   1      32.600  30.441  26.848  1.00  0.00     0.042 C 
BRANCH   2   3
ATOM      3  C   UNL A   1      34.023  30.687  27.354  1.00  0.00     0.118 C 
BRANCH   3   4
ATOM      4  N   UNL A   1      34.103  31.485  28.561  1.00  0.00    -0.352 N 
ATOM      5  O   UNL A   1      34.771  32.594  30.343  1.00  0.00    -0.269 OA
ATOM      6  C   UNL A   1      35.067  31.749  29.492  1.00  0.00     0.251 C 
ATOM      7  H   UNL A   1      33.257  31.950  28.757  1.00  0.00     0.163 HD
BRANCH   6   8
ATOM      8  C   UNL A   1      36.398  31.084  29.586  1.00  0.00     0.039 A 
ATOM      9  C   UNL A   1      37.639  31.701  29.421  1.00  0.00     0.014 A 
ATOM     10  C   UNL A   1      36.374  29.703  29.862  1.00  0.00     0.014 A 
ATOM     11  C   UNL A   1      38.816  30.951  29.476  1.00  0.00     0.010 A 
ATOM     12  C   UNL A   1      37.546  28.953  29.932  1.00  0.00     0.010 A 
ATOM     13  C   UNL A   1      38.772  29.573  29.712  1.00  0.00    -0.014 A 
BRANCH  13  14
ATOM     14  C   UNL A   1      40.037  28.840  29.807  1.00  0.00     0.031 A 
ATOM     15  C   UNL A   1      40.650  28.731  31.167  1.00  0.00     0.074 A 
ATOM     16  C   UNL A   1      40.581  28.141  28.791  1.00  0.00     0.049 A 
ATOM     17  N   UNL A   1      41.835  29.088  31.555  1.00  0.00    -0.248 NA
ATOM     18  C   UNL A   1      39.817  28.166  32.238  1.00  0.00     0.031 C 
ATOM     19  C   UNL A   1      40.000  27.830  27.483  1.00  0.00     0.029 A 
ATOM     20  N   UNL A   1      41.772  27.471  28.769  1.00  0.00    -0.354 N 
ATOM     21  C   UNL A   1      41.955  28.668  32.881  1.00  0.00     0.074 A 
ATOM     22  C   UNL A   1      40.658  28.175  33.273  1.00  0.00     0.031 C 
ATOM     23  C   UNL A   1      40.746  26.877  26.880  1.00  0.00     0.029 A 
ATOM     24  C   UNL A   1      41.925  26.616  27.691  1.00  0.00     0.049 A 
ATOM     25  H   UNL A   1      42.462  27.586  29.462  1.00  0.00     0.167 HD
ATOM     26  C   UNL A   1      43.147  28.625  33.543  1.00  0.00     0.037 A 
ATOM     27  C   UNL A   1      42.923  25.722  27.499  1.00  0.00     0.037 A 
ATOM     28  C   UNL A   1      44.152  29.428  32.909  1.00  0.00     0.049 A 
ATOM     29  C   UNL A   1      44.064  26.105  28.362  1.00  0.00     0.074 A 
ATOM     30  C   UNL A   1      44.292  30.775  32.635  1.00  0.00     0.029 A 
ATOM     31  N   UNL A   1      45.129  28.807  32.176  1.00  0.00    -0.354 N 
ATOM     32  N   UNL A   1      44.813  27.155  28.174  1.00  0.00    -0.248 NA
ATOM     33  C   UNL A   1      44.156  25.501  29.681  1.00  0.00     0.031 C 
ATOM     34  C   UNL A   1      44.985  30.828  31.390  1.00  0.00     0.029 A 
ATOM     35  C   UNL A   1      45.237  29.512  31.004  1.00  0.00     0.049 A 
ATOM     36  H   UNL A   1      45.648  28.013  32.437  1.00  0.00     0.167 HD
ATOM     37  C   UNL A   1      45.146  27.584  29.448  1.00  0.00     0.074 A 
ATOM     38  C   UNL A   1      44.813  26.467  30.325  1.00  0.00     0.031 C 
ATOM     39  C   UNL A   1      45.406  28.899  29.708  1.00  0.00     0.037 A 
BRANCH  26  40
ATOM     40  C   UNL A   1      43.475  27.654  34.647  1.00  0.00     0.057 A 
ATOM     41  C   UNL A   1      43.613  26.282  34.369  1.00  0.00     0.134 A 
ATOM     42  C   UNL A   1      43.402  27.985  36.014  1.00  0.00     0.134 A 
ATOM     43  F   UNL A   1      43.657  25.835  33.104  1.00  0.00    -0.206 F 
ATOM     44  C   UNL A   1      43.642  25.309  35.377  1.00  0.00     0.040 A 
ATOM     45  C   UNL A   1      43.477  27.028  37.031  1.00  0.00     0.040 A 
ATOM     46  F   UNL A   1      43.161  29.239  36.424  1.00  0.00    -0.206 F 
ATOM     47  C   UNL A   1      43.574  25.683  36.715  1.00  0.00     0.006 A 
ENDBRANCH  26  40
BRANCH  27  48
ATOM     48  C   UNL A   1      42.865  24.411  26.818  1.00  0.00     0.057 A 
ATOM     49  C   UNL A   1      43.279  24.259  25.488  1.00  0.00     0.134 A 
ATOM     50  C   UNL A   1      42.657  23.225  27.544  1.00  0.00     0.134 A 
ATOM     51  F   UNL A   1      43.547  25.332  24.732  1.00  0.00    -0.206 F 
ATOM     52  C   UNL A   1      43.492  22.998  24.918  1.00  0.00     0.040 A 
ATOM     53  C   UNL A   1      42.858  21.961  26.985  1.00  0.00     0.040 A 
ATOM     54  F   UNL A   1      42.339  23.260  28.846  1.00  0.00    -0.206 F 
ATOM     55  C   UNL A   1      43.290  21.844  25.670  1.00  0.00     0.006 A 
ENDBRANCH  27  48
BRANCH  39  56
ATOM     56  C   UNL A   1      45.582  29.824  28.535  1.00  0.00     0.057 A 
ATOM     57  C   UNL A   1      44.518  30.482  27.900  1.00  0.00     0.134 A 
ATOM     58  C   UNL A   1      46.873  30.173  28.127  1.00  0.00     0.134 A 
ATOM     59  F   UNL A   1      43.252  30.298  28.296  1.00  0.00    -0.206 F 
ATOM     60  C   UNL A   1      44.728  31.403  26.870  1.00  0.00     0.040 A 
ATOM     61  C   UNL A   1      47.099  31.119  27.124  1.00  0.00     0.040 A 
ATOM     62  F   UNL A   1      47.943  29.634  28.734  1.00  0.00    -0.206 F 
ATOM     63  C   UNL A   1      46.024  31.729  26.482  1.00  0.00     0.006 A 
ENDBRANCH  39  56
ENDBRANCH  13  14
ENDBRANCH   6   8
ENDBRANCH   3   4
ENDBRANCH   2   3
ENDBRANCH   1   2
BRANCH   1  64
ATOM     64  N   UNL A   1      31.219  30.131  24.807  1.00  0.00    -0.352 N 
ATOM     65  C   UNL A   1      30.448  29.375  23.962  1.00  0.00     0.252 C 
ATOM     66  H   UNL A   1      30.828  31.006  25.035  1.00  0.00     0.163 HD
ATOM     67  O   UNL A   1      29.518  29.931  23.382  1.00  0.00    -0.269 OA
BRANCH  65  68
ATOM     68  C   UNL A   1      30.731  27.960  23.748  1.00  0.00     0.050 A 
ATOM     69  C   UNL A   1      30.015  26.905  24.282  1.00  0.00     0.079 A 
ATOM     70  C   UNL A   1      31.725  27.471  22.828  1.00  0.00     0.031 A 
ATOM     71  S   UNL A   1      30.579  25.380  23.757  1.00  0.00    -0.146 S 
ATOM     72  C   UNL A   1      31.766  26.093  22.748  1.00  0.00     0.024 A 
BRANCH  72  73
ATOM     73  C   UNL A   1      32.672  25.223  21.918  1.00  0.00     0.159 C 
BRANCH  73  74
ATOM     74  N   UNL A   1      32.951  23.939  22.547  1.00  0.00    -0.379 N 
ATOM     75  H   UNL A   1      32.304  23.201  22.463  1.00  0.00     0.160 HD
BRANCH  74  76
ATOM     76  C   UNL A   1      34.121  23.751  23.265  1.00  0.00     0.053 A 
ATOM     77  C   UNL A   1      35.215  23.059  22.751  1.00  0.00     0.031 A 
ATOM     78  C   UNL A   1      34.233  24.184  24.586  1.00  0.00     0.139 A 
ATOM     79  C   UNL A   1      36.366  22.880  23.524  1.00  0.00     0.051 A 
ATOM     80  N   UNL A   1      35.308  23.983  25.385  1.00  0.00    -0.235 NA
ATOM     81  C   UNL A   1      36.376  23.351  24.836  1.00  0.00     0.153 A 
BRANCH  81  82
ATOM     82  N   UNL A   1      37.544  23.159  25.640  1.00  0.00    -0.223 N 
ATOM     83  C   UNL A   1      38.148  24.084  26.472  1.00  0.00     0.117 A 
ATOM     84  N   UNL A   1      38.217  21.976  25.656  1.00  0.00    -0.175 NA
ATOM     85  C   UNL A   1      39.270  23.486  26.995  1.00  0.00     0.042 A 
ATOM     86  C   UNL A   1      39.278  22.203  26.430  1.00  0.00     0.135 A 
ENDBRANCH  81  82
ENDBRANCH  74  76
ENDBRANCH  73  74
ENDBRANCH  72  73
ENDBRANCH  65  68
ENDBRANCH   1  64
TORSDOF 14
ENDMDL
