MODEL 1
REMARK VINA RESULT:     -13.2      0.000      0.000
REMARK SMILES O=C(NCCCNC(=O)c1ccc(N2C(=O)/C(=C\C3=Cc4ccccc4OC3)SC2=S)cc1)c1ccc(-c2c3nc(c(-c4c(F)cccc4F)c4ccc([nH]4)c(-c4c(F)cccc4F)c4nc(c(-c5c(F)cccc5F)c5ccc2[nH]5)C=C4)C=C3)cc1
REMARK SMILES IDX 5 1 4 2 3 3 1 4 2 5 34 7 35 8 87 9 36 10 86 11 37 12 38 13
REMARK SMILES IDX 39 14 80 15 40 16 85 17 79 18 81 19 41 20 84 21 78 22 77 23
REMARK SMILES IDX 42 25 68 26 51 27 67 28 52 29 55 30 66 31 82 32 53 33 54 34
REMARK SMILES IDX 65 36 83 37 56 38 43 39 44 40 49 41 45 42 46 43 48 44 50 45
REMARK SMILES IDX 47 46 69 47 70 48 75 49 71 50 72 51 74 52 76 53 73 54 57 55
REMARK SMILES IDX 58 56 63 57 59 58 60 59 62 60 64 61 61 62 6 63 7 64 8 65
REMARK SMILES IDX 9 67 10 68 11 69 33 70 12 71 32 72 13 73 14 74 15 75 30 76
REMARK SMILES IDX 16 77 17 78 29 79 31 80 18 81 19 82 20 83 28 84 21 85 27 86
REMARK SMILES IDX 22 87 26 88 23 89 25 90 24 91
REMARK H PARENT 3 6 81 24 55 35 7 66
REMARK Flexibility Score: inf
ROOT
ATOM      1  C   UNL A   1      40.043  22.442  27.406  1.00  0.00     0.042 C 
ENDROOT
BRANCH   1   2
ATOM      2  C   UNL A   1      41.413  23.092  27.250  1.00  0.00     0.118 C 
BRANCH   2   3
ATOM      3  N   UNL A   1      41.496  24.017  26.129  1.00  0.00    -0.352 N 
ATOM      4  O   UNL A   1      41.359  25.952  24.992  1.00  0.00    -0.269 OA
ATOM      5  C   UNL A   1      41.370  25.387  26.083  1.00  0.00     0.251 C 
ATOM      6  H   UNL A   1      41.671  23.592  25.258  1.00  0.00     0.163 HD
BRANCH   5   7
ATOM      7  C   UNL A   1      41.210  26.187  27.320  1.00  0.00     0.039 A 
ATOM      8  C   UNL A   1      40.172  25.950  28.222  1.00  0.00     0.014 A 
ATOM      9  C   UNL A   1      42.149  27.188  27.599  1.00  0.00     0.014 A 
ATOM     10  C   UNL A   1      39.973  26.812  29.299  1.00  0.00     0.010 A 
ATOM     11  C   UNL A   1      41.998  27.999  28.729  1.00  0.00     0.010 A 
ATOM     12  C   UNL A   1      40.881  27.851  29.563  1.00  0.00    -0.014 A 
BRANCH  12  13
ATOM     13  C   UNL A   1      40.644  28.758  30.716  1.00  0.00     0.031 A 
ATOM     14  C   UNL A   1      41.516  28.697  31.942  1.00  0.00     0.074 A 
ATOM     15  C   UNL A   1      39.658  29.674  30.644  1.00  0.00     0.049 A 
ATOM     16  N   UNL A   1      41.485  29.448  33.016  1.00  0.00    -0.248 NA
ATOM     17  C   UNL A   1      42.551  27.654  31.973  1.00  0.00     0.031 C 
ATOM     18  C   UNL A   1      38.734  29.830  29.519  1.00  0.00     0.029 A 
ATOM     19  N   UNL A   1      39.284  30.660  31.522  1.00  0.00    -0.354 N 
ATOM     20  C   UNL A   1      42.475  28.955  33.856  1.00  0.00     0.074 A 
ATOM     21  C   UNL A   1      43.073  27.823  33.179  1.00  0.00     0.031 C 
ATOM     22  C   UNL A   1      37.935  30.882  29.752  1.00  0.00     0.029 A 
ATOM     23  C   UNL A   1      38.257  31.445  31.058  1.00  0.00     0.049 A 
ATOM     24  H   UNL A   1      39.710  30.791  32.400  1.00  0.00     0.167 HD
ATOM     25  C   UNL A   1      42.859  29.407  35.075  1.00  0.00     0.037 A 
ATOM     26  C   UNL A   1      37.643  32.503  31.620  1.00  0.00     0.037 A 
ATOM     27  C   UNL A   1      42.284  30.549  35.739  1.00  0.00     0.049 A 
ATOM     28  C   UNL A   1      38.085  32.982  32.972  1.00  0.00     0.074 A 
ATOM     29  C   UNL A   1      42.643  31.111  36.953  1.00  0.00     0.029 A 
ATOM     30  N   UNL A   1      41.229  31.301  35.248  1.00  0.00    -0.354 N 
ATOM     31  N   UNL A   1      39.052  32.531  33.733  1.00  0.00    -0.248 NA
ATOM     32  C   UNL A   1      37.347  34.118  33.543  1.00  0.00     0.031 C 
ATOM     33  C   UNL A   1      41.778  32.181  37.213  1.00  0.00     0.029 A 
ATOM     34  C   UNL A   1      40.910  32.310  36.142  1.00  0.00     0.049 A 
ATOM     35  H   UNL A   1      40.773  31.142  34.389  1.00  0.00     0.167 HD
ATOM     36  C   UNL A   1      39.056  33.341  34.860  1.00  0.00     0.074 A 
ATOM     37  C   UNL A   1      38.002  34.318  34.678  1.00  0.00     0.031 C 
ATOM     38  C   UNL A   1      39.862  33.280  35.948  1.00  0.00     0.037 A 
BRANCH  25  39
ATOM     39  C   UNL A   1      43.947  28.651  35.781  1.00  0.00     0.057 A 
ATOM     40  C   UNL A   1      45.301  28.969  35.614  1.00  0.00     0.134 A 
ATOM     41  C   UNL A   1      43.632  27.611  36.665  1.00  0.00     0.134 A 
ATOM     42  F   UNL A   1      45.670  29.947  34.772  1.00  0.00    -0.206 F 
ATOM     43  C   UNL A   1      46.305  28.264  36.281  1.00  0.00     0.040 A 
ATOM     44  C   UNL A   1      44.626  26.914  37.355  1.00  0.00     0.040 A 
ATOM     45  F   UNL A   1      42.355  27.260  36.877  1.00  0.00    -0.206 F 
ATOM     46  C   UNL A   1      45.967  27.236  37.159  1.00  0.00     0.006 A 
ENDBRANCH  25  39
BRANCH  26  47
ATOM     47  C   UNL A   1      36.558  33.196  30.886  1.00  0.00     0.057 A 
ATOM     48  C   UNL A   1      36.841  34.011  29.785  1.00  0.00     0.134 A 
ATOM     49  C   UNL A   1      35.216  33.048  31.254  1.00  0.00     0.134 A 
ATOM     50  F   UNL A   1      38.110  34.205  29.397  1.00  0.00    -0.206 F 
ATOM     51  C   UNL A   1      35.828  34.663  29.080  1.00  0.00     0.040 A 
ATOM     52  C   UNL A   1      34.191  33.674  30.545  1.00  0.00     0.040 A 
ATOM     53  F   UNL A   1      34.882  32.275  32.297  1.00  0.00    -0.206 F 
ATOM     54  C   UNL A   1      34.498  34.489  29.455  1.00  0.00     0.006 A 
ENDBRANCH  26  47
BRANCH  38  55
ATOM     55  C   UNL A   1      39.658  34.321  37.007  1.00  0.00     0.057 A 
ATOM     56  C   UNL A   1      38.886  34.073  38.148  1.00  0.00     0.134 A 
ATOM     57  C   UNL A   1      40.259  35.581  36.892  1.00  0.00     0.134 A 
ATOM     58  F   UNL A   1      38.271  32.892  38.310  1.00  0.00    -0.206 F 
ATOM     59  C   UNL A   1      38.699  35.050  39.128  1.00  0.00     0.040 A 
ATOM     60  C   UNL A   1      40.099  36.558  37.875  1.00  0.00     0.040 A 
ATOM     61  F   UNL A   1      41.018  35.880  35.826  1.00  0.00    -0.206 F 
ATOM     62  C   UNL A   1      39.312  36.295  38.994  1.00  0.00     0.006 A 
ENDBRANCH  38  55
ENDBRANCH  12  13
ENDBRANCH   5   7
ENDBRANCH   2   3
ENDBRANCH   1   2
BRANCH   1  63
ATOM     63  C   UNL A   1      38.953  22.971  26.480  1.00  0.00     0.118 C 
BRANCH  63  64
ATOM     64  N   UNL A   1      38.646  22.060  25.390  1.00  0.00    -0.352 N 
ATOM     65  C   UNL A   1      37.457  21.734  24.789  1.00  0.00     0.251 C 
ATOM     66  H   UNL A   1      39.429  21.595  25.017  1.00  0.00     0.163 HD
ATOM     67  O   UNL A   1      37.438  20.807  23.981  1.00  0.00    -0.269 OA
BRANCH  65  68
ATOM     68  C   UNL A   1      36.195  22.448  25.098  1.00  0.00     0.039 A 
ATOM     69  C   UNL A   1      35.680  23.324  24.142  1.00  0.00     0.016 A 
ATOM     70  C   UNL A   1      35.547  22.335  26.326  1.00  0.00     0.016 A 
ATOM     71  C   UNL A   1      34.495  24.032  24.388  1.00  0.00     0.027 A 
ATOM     72  C   UNL A   1      34.349  23.028  26.559  1.00  0.00     0.027 A 
ATOM     73  C   UNL A   1      33.798  23.896  25.599  1.00  0.00     0.051 A 
BRANCH  73  74
ATOM     74  N   UNL A   1      32.527  24.535  25.819  1.00  0.00    -0.261 N 
ATOM     75  C   UNL A   1      32.443  25.923  25.930  1.00  0.00     0.270 C 
ATOM     76  C   UNL A   1      31.310  23.882  25.987  1.00  0.00     0.152 C 
ATOM     77  O   UNL A   1      33.285  26.702  26.348  1.00  0.00    -0.268 OA
ATOM     78  C   UNL A   1      31.052  26.354  25.614  1.00  0.00     0.081 C 
ATOM     79  S   UNL A   1      29.993  25.068  26.058  1.00  0.00    -0.054 SA
ATOM     80  S   UNL A   1      30.965  22.259  26.211  1.00  0.00    -0.051 S 
ATOM     81  C   UNL A   1      30.618  27.407  24.901  1.00  0.00     0.028 C 
BRANCH  81  82
ATOM     82  C   UNL A   1      31.374  28.350  24.068  1.00  0.00    -0.009 C 
ATOM     83  C   UNL A   1      31.073  28.647  22.787  1.00  0.00     0.019 C 
ATOM     84  C   UNL A   1      31.796  29.578  24.868  1.00  0.00     0.265 C 
ATOM     85  C   UNL A   1      30.132  29.806  22.723  1.00  0.00     0.017 A 
ATOM     86  O   UNL A   1      30.683  30.488  25.007  1.00  0.00    -0.488 OA
ATOM     87  C   UNL A   1      29.349  30.005  21.583  1.00  0.00     0.012 A 
ATOM     88  C   UNL A   1      29.943  30.627  23.851  1.00  0.00     0.127 A 
ATOM     89  C   UNL A   1      28.343  30.973  21.593  1.00  0.00     0.001 A 
ATOM     90  C   UNL A   1      28.928  31.580  23.863  1.00  0.00     0.047 A 
ATOM     91  C   UNL A   1      28.122  31.745  22.736  1.00  0.00     0.004 A 
ENDBRANCH  81  82
ENDBRANCH  73  74
ENDBRANCH  65  68
ENDBRANCH  63  64
ENDBRANCH   1  63
TORSDOF 12
ENDMDL
MODEL 2
REMARK VINA RESULT:     -13.0      5.293     12.206
REMARK SMILES O=C(NCCCNC(=O)c1ccc(N2C(=O)/C(=C\C3=Cc4ccccc4OC3)SC2=S)cc1)c1ccc(-c2c3nc(c(-c4c(F)cccc4F)c4ccc([nH]4)c(-c4c(F)cccc4F)c4nc(c(-c5c(F)cccc5F)c5ccc2[nH]5)C=C4)C=C3)cc1
REMARK SMILES IDX 5 1 4 2 3 3 1 4 2 5 34 7 35 8 87 9 36 10 86 11 37 12 38 13
REMARK SMILES IDX 39 14 80 15 40 16 85 17 79 18 81 19 41 20 84 21 78 22 77 23
REMARK SMILES IDX 42 25 68 26 51 27 67 28 52 29 55 30 66 31 82 32 53 33 54 34
REMARK SMILES IDX 65 36 83 37 56 38 43 39 44 40 49 41 45 42 46 43 48 44 50 45
REMARK SMILES IDX 47 46 69 47 70 48 75 49 71 50 72 51 74 52 76 53 73 54 57 55
REMARK SMILES IDX 58 56 63 57 59 58 60 59 62 60 64 61 61 62 6 63 7 64 8 65
REMARK SMILES IDX 9 67 10 68 11 69 33 70 12 71 32 72 13 73 14 74 15 75 30 76
REMARK SMILES IDX 16 77 17 78 29 79 31 80 18 81 19 82 20 83 28 84 21 85 27 86
REMARK SMILES IDX 22 87 26 88 23 89 25 90 24 91
REMARK H PARENT 3 6 81 24 55 35 7 66
REMARK Flexibility Score: inf
ROOT
ATOM      1  C   UNL A   1      34.225  33.648  29.130  1.00  0.00     0.042 C 
ENDROOT
BRANCH   1   2
ATOM      2  C   UNL A   1      35.143  32.594  28.521  1.00  0.00     0.118 C 
BRANCH   2   3
ATOM      3  N   UNL A   1      34.498  31.305  28.320  1.00  0.00    -0.352 N 
ATOM      4  O   UNL A   1      34.293  29.103  27.916  1.00  0.00    -0.269 OA
ATOM      5  C   UNL A   1      35.031  30.042  28.204  1.00  0.00     0.251 C 
ATOM      6  H   UNL A   1      33.516  31.343  28.255  1.00  0.00     0.163 HD
BRANCH   5   7
ATOM      7  C   UNL A   1      36.482  29.799  28.385  1.00  0.00     0.039 A 
ATOM      8  C   UNL A   1      37.403  30.056  27.368  1.00  0.00     0.014 A 
ATOM      9  C   UNL A   1      36.936  29.328  29.623  1.00  0.00     0.014 A 
ATOM     10  C   UNL A   1      38.737  29.685  27.526  1.00  0.00     0.010 A 
ATOM     11  C   UNL A   1      38.292  29.036  29.810  1.00  0.00     0.010 A 
ATOM     12  C   UNL A   1      39.197  29.165  28.747  1.00  0.00    -0.014 A 
BRANCH  12  13
ATOM     13  C   UNL A   1      40.624  28.773  28.888  1.00  0.00     0.031 A 
ATOM     14  C   UNL A   1      41.106  27.419  28.439  1.00  0.00     0.074 A 
ATOM     15  C   UNL A   1      41.505  29.660  29.391  1.00  0.00     0.049 A 
ATOM     16  N   UNL A   1      42.323  26.933  28.439  1.00  0.00    -0.248 NA
ATOM     17  C   UNL A   1      40.089  26.485  27.931  1.00  0.00     0.031 C 
ATOM     18  C   UNL A   1      41.168  31.000  29.876  1.00  0.00     0.029 A 
ATOM     19  N   UNL A   1      42.865  29.579  29.557  1.00  0.00    -0.354 N 
ATOM     20  C   UNL A   1      42.215  25.635  27.956  1.00  0.00     0.074 A 
ATOM     21  C   UNL A   1      40.811  25.399  27.697  1.00  0.00     0.031 C 
ATOM     22  C   UNL A   1      42.295  31.632  30.235  1.00  0.00     0.029 A 
ATOM     23  C   UNL A   1      43.427  30.730  30.051  1.00  0.00     0.049 A 
ATOM     24  H   UNL A   1      43.387  28.772  29.342  1.00  0.00     0.167 HD
ATOM     25  C   UNL A   1      43.196  24.725  27.739  1.00  0.00     0.037 A 
ATOM     26  C   UNL A   1      44.710  31.030  30.324  1.00  0.00     0.037 A 
ATOM     27  C   UNL A   1      44.598  24.966  27.969  1.00  0.00     0.049 A 
ATOM     28  C   UNL A   1      45.777  30.003  30.077  1.00  0.00     0.074 A 
ATOM     29  C   UNL A   1      45.669  24.122  27.731  1.00  0.00     0.029 A 
ATOM     30  N   UNL A   1      45.123  26.137  28.495  1.00  0.00    -0.354 N 
ATOM     31  N   UNL A   1      45.663  28.797  29.580  1.00  0.00    -0.248 NA
ATOM     32  C   UNL A   1      47.152  30.384  30.432  1.00  0.00     0.031 C 
ATOM     33  C   UNL A   1      46.839  24.768  28.148  1.00  0.00     0.029 A 
ATOM     34  C   UNL A   1      46.499  26.029  28.607  1.00  0.00     0.049 A 
ATOM     35  H   UNL A   1      44.594  26.928  28.751  1.00  0.00     0.167 HD
ATOM     36  C   UNL A   1      46.951  28.280  29.539  1.00  0.00     0.074 A 
ATOM     37  C   UNL A   1      47.832  29.310  30.052  1.00  0.00     0.031 C 
ATOM     38  C   UNL A   1      47.366  27.063  29.113  1.00  0.00     0.037 A 
BRANCH  25  39
ATOM     39  C   UNL A   1      42.784  23.371  27.239  1.00  0.00     0.057 A 
ATOM     40  C   UNL A   1      42.330  22.367  28.103  1.00  0.00     0.134 A 
ATOM     41  C   UNL A   1      42.813  23.079  25.869  1.00  0.00     0.134 A 
ATOM     42  F   UNL A   1      42.290  22.577  29.428  1.00  0.00    -0.206 F 
ATOM     43  C   UNL A   1      41.943  21.112  27.626  1.00  0.00     0.040 A 
ATOM     44  C   UNL A   1      42.407  21.837  25.378  1.00  0.00     0.040 A 
ATOM     45  F   UNL A   1      43.230  23.999  24.985  1.00  0.00    -0.206 F 
ATOM     46  C   UNL A   1      41.976  20.847  26.258  1.00  0.00     0.006 A 
ENDBRANCH  25  39
BRANCH  26  47
ATOM     47  C   UNL A   1      45.055  32.376  30.839  1.00  0.00     0.057 A 
ATOM     48  C   UNL A   1      45.070  32.640  32.213  1.00  0.00     0.134 A 
ATOM     49  C   UNL A   1      45.395  33.423  29.974  1.00  0.00     0.134 A 
ATOM     50  F   UNL A   1      44.736  31.680  33.087  1.00  0.00    -0.206 F 
ATOM     51  C   UNL A   1      45.402  33.901  32.710  1.00  0.00     0.040 A 
ATOM     52  C   UNL A   1      45.751  34.682  30.459  1.00  0.00     0.040 A 
ATOM     53  F   UNL A   1      45.404  33.231  28.648  1.00  0.00    -0.206 F 
ATOM     54  C   UNL A   1      45.751  34.924  31.832  1.00  0.00     0.006 A 
ENDBRANCH  26  47
BRANCH  38  55
ATOM     55  C   UNL A   1      48.840  26.793  29.151  1.00  0.00     0.057 A 
ATOM     56  C   UNL A   1      49.685  27.153  28.094  1.00  0.00     0.134 A 
ATOM     57  C   UNL A   1      49.424  26.184  30.269  1.00  0.00     0.134 A 
ATOM     58  F   UNL A   1      49.186  27.726  26.989  1.00  0.00    -0.206 F 
ATOM     59  C   UNL A   1      51.057  26.895  28.137  1.00  0.00     0.040 A 
ATOM     60  C   UNL A   1      50.796  25.941  30.334  1.00  0.00     0.040 A 
ATOM     61  F   UNL A   1      48.670  25.821  31.318  1.00  0.00    -0.206 F 
ATOM     62  C   UNL A   1      51.616  26.292  29.263  1.00  0.00     0.006 A 
ENDBRANCH  38  55
ENDBRANCH  12  13
ENDBRANCH   5   7
ENDBRANCH   2   3
ENDBRANCH   1   2
BRANCH   1  63
ATOM     63  C   UNL A   1      34.692  34.244  30.454  1.00  0.00     0.118 C 
BRANCH  63  64
ATOM     64  N   UNL A   1      33.796  33.942  31.558  1.00  0.00    -0.352 N 
ATOM     65  C   UNL A   1      34.028  33.373  32.784  1.00  0.00     0.251 C 
ATOM     66  H   UNL A   1      32.856  34.190  31.397  1.00  0.00     0.163 HD
ATOM     67  O   UNL A   1      33.065  33.077  33.489  1.00  0.00    -0.269 OA
BRANCH  65  68
ATOM     68  C   UNL A   1      35.397  33.085  33.273  1.00  0.00     0.039 A 
ATOM     69  C   UNL A   1      36.143  32.107  32.614  1.00  0.00     0.016 A 
ATOM     70  C   UNL A   1      35.937  33.696  34.402  1.00  0.00     0.016 A 
ATOM     71  C   UNL A   1      37.439  31.789  33.043  1.00  0.00     0.027 A 
ATOM     72  C   UNL A   1      37.244  33.391  34.814  1.00  0.00     0.027 A 
ATOM     73  C   UNL A   1      38.023  32.428  34.148  1.00  0.00     0.051 A 
BRANCH  73  74
ATOM     74  N   UNL A   1      39.389  32.185  34.530  1.00  0.00    -0.261 N 
ATOM     75  C   UNL A   1      39.787  30.923  34.974  1.00  0.00     0.270 C 
ATOM     76  C   UNL A   1      40.406  33.135  34.550  1.00  0.00     0.152 C 
ATOM     77  O   UNL A   1      39.123  30.081  35.557  1.00  0.00    -0.268 OA
ATOM     78  C   UNL A   1      41.258  30.782  34.787  1.00  0.00     0.081 C 
ATOM     79  S   UNL A   1      41.955  32.354  34.921  1.00  0.00    -0.054 SA
ATOM     80  S   UNL A   1      40.347  34.800  34.381  1.00  0.00    -0.051 S 
ATOM     81  C   UNL A   1      41.974  29.731  34.353  1.00  0.00     0.028 C 
BRANCH  81  82
ATOM     82  C   UNL A   1      41.519  28.466  33.763  1.00  0.00    -0.009 C 
ATOM     83  C   UNL A   1      41.980  27.957  32.602  1.00  0.00     0.019 C 
ATOM     84  C   UNL A   1      41.324  27.397  34.832  1.00  0.00     0.265 C 
ATOM     85  C   UNL A   1      43.160  27.075  32.847  1.00  0.00     0.017 A 
ATOM     86  O   UNL A   1      42.599  26.837  35.216  1.00  0.00    -0.488 OA
ATOM     87  C   UNL A   1      44.055  26.805  31.808  1.00  0.00     0.012 A 
ATOM     88  C   UNL A   1      43.440  26.611  34.146  1.00  0.00     0.127 A 
ATOM     89  C   UNL A   1      45.249  26.135  32.079  1.00  0.00     0.001 A 
ATOM     90  C   UNL A   1      44.639  25.957  34.415  1.00  0.00     0.047 A 
ATOM     91  C   UNL A   1      45.548  25.728  33.381  1.00  0.00     0.004 A 
ENDBRANCH  81  82
ENDBRANCH  73  74
ENDBRANCH  65  68
ENDBRANCH  63  64
ENDBRANCH   1  63
TORSDOF 12
ENDMDL
MODEL 3
REMARK VINA RESULT:     -13.0      5.317     10.152
REMARK SMILES O=C(NCCCNC(=O)c1ccc(N2C(=O)/C(=C\C3=Cc4ccccc4OC3)SC2=S)cc1)c1ccc(-c2c3nc(c(-c4c(F)cccc4F)c4ccc([nH]4)c(-c4c(F)cccc4F)c4nc(c(-c5c(F)cccc5F)c5ccc2[nH]5)C=C4)C=C3)cc1
REMARK SMILES IDX 5 1 4 2 3 3 1 4 2 5 34 7 35 8 87 9 36 10 86 11 37 12 38 13
REMARK SMILES IDX 39 14 80 15 40 16 85 17 79 18 81 19 41 20 84 21 78 22 77 23
REMARK SMILES IDX 42 25 68 26 51 27 67 28 52 29 55 30 66 31 82 32 53 33 54 34
REMARK SMILES IDX 65 36 83 37 56 38 43 39 44 40 49 41 45 42 46 43 48 44 50 45
REMARK SMILES IDX 47 46 69 47 70 48 75 49 71 50 72 51 74 52 76 53 73 54 57 55
REMARK SMILES IDX 58 56 63 57 59 58 60 59 62 60 64 61 61 62 6 63 7 64 8 65
REMARK SMILES IDX 9 67 10 68 11 69 33 70 12 71 32 72 13 73 14 74 15 75 30 76
REMARK SMILES IDX 16 77 17 78 29 79 31 80 18 81 19 82 20 83 28 84 21 85 27 86
REMARK SMILES IDX 22 87 26 88 23 89 25 90 24 91
REMARK H PARENT 3 6 81 24 55 35 7 66
REMARK Flexibility Score: inf
ROOT
ATOM      1  C   UNL A   1      42.746  21.990  25.773  1.00  0.00     0.042 C 
ENDROOT
BRANCH   1   2
ATOM      2  C   UNL A   1      41.766  21.587  26.869  1.00  0.00     0.118 C 
BRANCH   2   3
ATOM      3  N   UNL A   1      40.378  21.559  26.428  1.00  0.00    -0.352 N 
ATOM      4  O   UNL A   1      38.261  22.248  26.121  1.00  0.00    -0.269 OA
ATOM      5  C   UNL A   1      39.412  22.538  26.437  1.00  0.00     0.251 C 
ATOM      6  H   UNL A   1      40.082  20.693  26.063  1.00  0.00     0.163 HD
BRANCH   5   7
ATOM      7  C   UNL A   1      39.725  23.925  26.856  1.00  0.00     0.039 A 
ATOM      8  C   UNL A   1      40.014  24.926  25.928  1.00  0.00     0.014 A 
ATOM      9  C   UNL A   1      39.699  24.238  28.220  1.00  0.00     0.014 A 
ATOM     10  C   UNL A   1      40.440  26.180  26.364  1.00  0.00     0.010 A 
ATOM     11  C   UNL A   1      40.043  25.522  28.655  1.00  0.00     0.010 A 
ATOM     12  C   UNL A   1      40.465  26.492  27.734  1.00  0.00    -0.014 A 
BRANCH  12  13
ATOM     13  C   UNL A   1      40.926  27.835  28.173  1.00  0.00     0.031 A 
ATOM     14  C   UNL A   1      39.954  28.851  28.711  1.00  0.00     0.074 A 
ATOM     15  C   UNL A   1      42.240  28.130  28.124  1.00  0.00     0.049 A 
ATOM     16  N   UNL A   1      40.190  30.049  29.188  1.00  0.00    -0.248 NA
ATOM     17  C   UNL A   1      38.531  28.480  28.706  1.00  0.00     0.031 C 
ATOM     18  C   UNL A   1      43.285  27.241  27.613  1.00  0.00     0.029 A 
ATOM     19  N   UNL A   1      42.923  29.248  28.530  1.00  0.00    -0.354 N 
ATOM     20  C   UNL A   1      38.950  30.580  29.516  1.00  0.00     0.074 A 
ATOM     21  C   UNL A   1      37.960  29.586  29.160  1.00  0.00     0.031 C 
ATOM     22  C   UNL A   1      44.480  27.826  27.784  1.00  0.00     0.029 A 
ATOM     23  C   UNL A   1      44.284  29.147  28.371  1.00  0.00     0.049 A 
ATOM     24  H   UNL A   1      42.481  30.047  28.899  1.00  0.00     0.167 HD
ATOM     25  C   UNL A   1      38.661  31.783  30.071  1.00  0.00     0.037 A 
ATOM     26  C   UNL A   1      45.266  30.017  28.667  1.00  0.00     0.037 A 
ATOM     27  C   UNL A   1      39.645  32.764  30.451  1.00  0.00     0.049 A 
ATOM     28  C   UNL A   1      44.919  31.343  29.278  1.00  0.00     0.074 A 
ATOM     29  C   UNL A   1      39.449  33.989  31.067  1.00  0.00     0.029 A 
ATOM     30  N   UNL A   1      41.010  32.633  30.250  1.00  0.00    -0.354 N 
ATOM     31  N   UNL A   1      43.745  31.813  29.623  1.00  0.00    -0.248 NA
ATOM     32  C   UNL A   1      46.037  32.261  29.542  1.00  0.00     0.031 C 
ATOM     33  C   UNL A   1      40.694  34.616  31.203  1.00  0.00     0.029 A 
ATOM     34  C   UNL A   1      41.667  33.763  30.710  1.00  0.00     0.049 A 
ATOM     35  H   UNL A   1      41.448  31.852  29.840  1.00  0.00     0.167 HD
ATOM     36  C   UNL A   1      43.982  33.069  30.164  1.00  0.00     0.074 A 
ATOM     37  C   UNL A   1      45.414  33.283  30.113  1.00  0.00     0.031 C 
ATOM     38  C   UNL A   1      43.093  33.963  30.660  1.00  0.00     0.037 A 
BRANCH  25  39
ATOM     39  C   UNL A   1      37.213  32.114  30.287  1.00  0.00     0.057 A 
ATOM     40  C   UNL A   1      36.496  31.630  31.390  1.00  0.00     0.134 A 
ATOM     41  C   UNL A   1      36.534  32.954  29.395  1.00  0.00     0.134 A 
ATOM     42  F   UNL A   1      37.084  30.810  32.274  1.00  0.00    -0.206 F 
ATOM     43  C   UNL A   1      35.151  31.949  31.584  1.00  0.00     0.040 A 
ATOM     44  C   UNL A   1      35.195  33.300  29.592  1.00  0.00     0.040 A 
ATOM     45  F   UNL A   1      37.163  33.460  28.323  1.00  0.00    -0.206 F 
ATOM     46  C   UNL A   1      34.498  32.792  30.686  1.00  0.00     0.006 A 
ENDBRANCH  25  39
BRANCH  26  47
ATOM     47  C   UNL A   1      46.678  29.646  28.410  1.00  0.00     0.057 A 
ATOM     48  C   UNL A   1      47.282  29.921  27.179  1.00  0.00     0.134 A 
ATOM     49  C   UNL A   1      47.460  29.025  29.391  1.00  0.00     0.134 A 
ATOM     50  F   UNL A   1      46.577  30.498  26.195  1.00  0.00    -0.206 F 
ATOM     51  C   UNL A   1      48.613  29.584  26.927  1.00  0.00     0.040 A 
ATOM     52  C   UNL A   1      48.798  28.703  29.162  1.00  0.00     0.040 A 
ATOM     53  F   UNL A   1      46.938  28.741  30.593  1.00  0.00    -0.206 F 
ATOM     54  C   UNL A   1      49.377  28.980  27.924  1.00  0.00     0.006 A 
ENDBRANCH  26  47
BRANCH  38  55
ATOM     55  C   UNL A   1      43.648  35.238  31.220  1.00  0.00     0.057 A 
ATOM     56  C   UNL A   1      43.781  36.392  30.438  1.00  0.00     0.134 A 
ATOM     57  C   UNL A   1      44.035  35.316  32.563  1.00  0.00     0.134 A 
ATOM     58  F   UNL A   1      43.442  36.378  29.141  1.00  0.00    -0.206 F 
ATOM     59  C   UNL A   1      44.301  37.574  30.968  1.00  0.00     0.040 A 
ATOM     60  C   UNL A   1      44.536  36.498  33.110  1.00  0.00     0.040 A 
ATOM     61  F   UNL A   1      43.927  34.247  33.367  1.00  0.00    -0.206 F 
ATOM     62  C   UNL A   1      44.676  37.630  32.310  1.00  0.00     0.006 A 
ENDBRANCH  38  55
ENDBRANCH  12  13
ENDBRANCH   5   7
ENDBRANCH   2   3
ENDBRANCH   1   2
BRANCH   1  63
ATOM     63  C   UNL A   1      43.385  23.366  25.933  1.00  0.00     0.118 C 
BRANCH  63  64
ATOM     64  N   UNL A   1      44.838  23.316  25.948  1.00  0.00    -0.352 N 
ATOM     65  C   UNL A   1      45.748  23.710  26.895  1.00  0.00     0.251 C 
ATOM     66  H   UNL A   1      45.239  22.930  25.136  1.00  0.00     0.163 HD
ATOM     67  O   UNL A   1      46.942  23.706  26.604  1.00  0.00    -0.269 OA
BRANCH  65  68
ATOM     68  C   UNL A   1      45.336  24.159  28.246  1.00  0.00     0.039 A 
ATOM     69  C   UNL A   1      46.240  24.912  28.997  1.00  0.00     0.016 A 
ATOM     70  C   UNL A   1      44.118  23.801  28.821  1.00  0.00     0.016 A 
ATOM     71  C   UNL A   1      45.903  25.353  30.285  1.00  0.00     0.027 A 
ATOM     72  C   UNL A   1      43.777  24.264  30.101  1.00  0.00     0.027 A 
ATOM     73  C   UNL A   1      44.663  25.046  30.864  1.00  0.00     0.051 A 
BRANCH  73  74
ATOM     74  N   UNL A   1      44.267  25.582  32.140  1.00  0.00    -0.261 N 
ATOM     75  C   UNL A   1      43.959  26.937  32.274  1.00  0.00     0.270 C 
ATOM     76  C   UNL A   1      44.197  24.869  33.332  1.00  0.00     0.152 C 
ATOM     77  O   UNL A   1      44.400  27.881  31.637  1.00  0.00    -0.268 OA
ATOM     78  C   UNL A   1      43.097  27.125  33.474  1.00  0.00     0.081 C 
ATOM     79  S   UNL A   1      43.502  25.889  34.607  1.00  0.00    -0.054 SA
ATOM     80  S   UNL A   1      44.732  23.329  33.716  1.00  0.00    -0.051 S 
ATOM     81  C   UNL A   1      42.021  27.910  33.647  1.00  0.00     0.028 C 
BRANCH  81  82
ATOM     82  C   UNL A   1      41.258  28.685  32.660  1.00  0.00    -0.009 C 
ATOM     83  C   UNL A   1      40.011  29.159  32.861  1.00  0.00     0.019 C 
ATOM     84  C   UNL A   1      42.151  29.684  31.932  1.00  0.00     0.265 C 
ATOM     85  C   UNL A   1      40.060  30.528  33.459  1.00  0.00     0.017 A 
ATOM     86  O   UNL A   1      42.384  30.842  32.763  1.00  0.00    -0.488 OA
ATOM     87  C   UNL A   1      38.953  31.026  34.151  1.00  0.00     0.012 A 
ATOM     88  C   UNL A   1      41.256  31.271  33.430  1.00  0.00     0.127 A 
ATOM     89  C   UNL A   1      39.060  32.222  34.862  1.00  0.00     0.001 A 
ATOM     90  C   UNL A   1      41.364  32.456  34.153  1.00  0.00     0.047 A 
ATOM     91  C   UNL A   1      40.267  32.925  34.877  1.00  0.00     0.004 A 
ENDBRANCH  81  82
ENDBRANCH  73  74
ENDBRANCH  65  68
ENDBRANCH  63  64
ENDBRANCH   1  63
TORSDOF 12
ENDMDL
