MODEL 1
REMARK VINA RESULT:     -11.6      0.000      0.000
REMARK SMILES Cc1noc(-c2ccc(CCl)cc2)c1C(=O)NCCCNC(=O)c1ccc(-c2c3nc(c(-c4c(F)cccc4F)c4ccc([nH]4)c(-c4c(F)cccc4F)c4nc(c(-c5c(F)cccc5F)c5ccc2[nH]5)C=C4)C=C3)cc1
REMARK SMILES IDX 19 1 18 2 17 3 15 4 16 5 14 7 1 8 2 9 3 10 4 11 5 12 6 13
REMARK SMILES IDX 7 14 13 15 8 16 12 17 9 18 10 19 11 20 20 21 21 22 22 23
REMARK SMILES IDX 23 25 24 26 25 27 77 28 26 29 76 30 27 31 28 32 29 33 70 34
REMARK SMILES IDX 30 35 75 36 69 37 71 38 31 39 74 40 68 41 67 42 32 44 58 45
REMARK SMILES IDX 41 46 57 47 42 48 45 49 56 50 72 51 43 52 44 53 55 55 73 56
REMARK SMILES IDX 46 57 33 58 34 59 39 60 35 61 36 62 38 63 40 64 37 65 59 66
REMARK SMILES IDX 60 67 65 68 61 69 62 70 64 71 66 72 63 73 47 74 48 75 53 76
REMARK SMILES IDX 49 77 50 78 52 79 54 80 51 81
REMARK H PARENT 17 6 21 24 71 43 45 54
REMARK Flexibility Score: inf
ROOT
ATOM      1  C   UNL A   1      33.347  28.299  27.265  1.00  0.00     0.042 C 
ENDROOT
BRANCH   1   2
ATOM      2  C   UNL A   1      31.818  28.269  27.279  1.00  0.00     0.118 C 
BRANCH   2   3
ATOM      3  N   UNL A   1      31.345  26.914  27.226  1.00  0.00    -0.352 N 
ATOM      4  C   UNL A   1      31.526  25.868  26.376  1.00  0.00     0.257 C 
ATOM      5  O   UNL A   1      30.940  24.854  26.772  1.00  0.00    -0.269 OA
ATOM      6  H   UNL A   1      30.752  26.692  27.980  1.00  0.00     0.163 HD
BRANCH   4   7
ATOM      7  C   UNL A   1      32.329  25.862  25.153  1.00  0.00     0.110 A 
ATOM      8  C   UNL A   1      34.693  24.536  25.269  1.00  0.00     0.071 C 
ATOM      9  C   UNL A   1      33.576  25.311  24.679  1.00  0.00     0.094 A 
ATOM     10  N   UNL A   1      33.789  25.623  23.390  1.00  0.00    -0.084 NA
ATOM     11  O   UNL A   1      32.750  26.414  23.002  1.00  0.00    -0.355 OA
ATOM     12  C   UNL A   1      31.901  26.589  24.040  1.00  0.00     0.179 A 
BRANCH  12  13
ATOM     13  C   UNL A   1      30.793  27.480  23.731  1.00  0.00     0.021 A 
ATOM     14  C   UNL A   1      30.987  28.866  23.698  1.00  0.00     0.012 A 
ATOM     15  C   UNL A   1      29.514  26.971  23.469  1.00  0.00     0.012 A 
ATOM     16  C   UNL A   1      29.934  29.721  23.366  1.00  0.00     0.006 A 
ATOM     17  C   UNL A   1      28.462  27.823  23.131  1.00  0.00     0.006 A 
ATOM     18  C   UNL A   1      28.663  29.207  23.067  1.00  0.00    -0.033 A 
BRANCH  18  19
ATOM     19  C   UNL A   1      27.540  30.121  22.666  1.00  0.00     0.145 C 
ATOM     20  Cl  UNL A   1      27.520  31.586  23.669  1.00  0.00    -0.122 Cl
ENDBRANCH  18  19
ENDBRANCH  12  13
ENDBRANCH   4   7
ENDBRANCH   2   3
ENDBRANCH   1   2
BRANCH   1  21
ATOM     21  C   UNL A   1      33.910  29.346  26.306  1.00  0.00     0.118 C 
BRANCH  21  22
ATOM     22  N   UNL A   1      33.831  30.687  26.877  1.00  0.00    -0.352 N 
ATOM     23  C   UNL A   1      34.537  31.255  27.901  1.00  0.00     0.251 C 
ATOM     24  H   UNL A   1      33.162  31.276  26.458  1.00  0.00     0.163 HD
ATOM     25  O   UNL A   1      34.127  32.300  28.411  1.00  0.00    -0.269 OA
BRANCH  23  26
ATOM     26  C   UNL A   1      35.778  30.633  28.395  1.00  0.00     0.039 A 
ATOM     27  C   UNL A   1      36.975  30.881  27.717  1.00  0.00     0.014 A 
ATOM     28  C   UNL A   1      35.758  29.771  29.493  1.00  0.00     0.014 A 
ATOM     29  C   UNL A   1      38.159  30.302  28.171  1.00  0.00     0.010 A 
ATOM     30  C   UNL A   1      36.950  29.262  29.995  1.00  0.00     0.010 A 
ATOM     31  C   UNL A   1      38.160  29.514  29.333  1.00  0.00    -0.014 A 
BRANCH  31  32
ATOM     32  C   UNL A   1      39.418  28.942  29.871  1.00  0.00     0.031 A 
ATOM     33  C   UNL A   1      40.056  29.539  31.095  1.00  0.00     0.074 A 
ATOM     34  C   UNL A   1      40.015  27.928  29.218  1.00  0.00     0.049 A 
ATOM     35  N   UNL A   1      41.187  29.225  31.674  1.00  0.00    -0.248 NA
ATOM     36  C   UNL A   1      39.345  30.659  31.735  1.00  0.00     0.031 C 
ATOM     37  C   UNL A   1      39.514  27.301  27.993  1.00  0.00     0.029 A 
ATOM     38  N   UNL A   1      41.178  27.253  29.485  1.00  0.00    -0.354 N 
ATOM     39  C   UNL A   1      41.331  30.116  32.729  1.00  0.00     0.074 A 
ATOM     40  C   UNL A   1      40.201  31.018  32.679  1.00  0.00     0.031 C 
ATOM     41  C   UNL A   1      40.349  26.313  27.633  1.00  0.00     0.029 A 
ATOM     42  C   UNL A   1      41.464  26.267  28.573  1.00  0.00     0.049 A 
ATOM     43  H   UNL A   1      41.753  27.456  30.257  1.00  0.00     0.167 HD
ATOM     44  C   UNL A   1      42.305  30.162  33.668  1.00  0.00     0.037 A 
ATOM     45  C   UNL A   1      42.512  25.426  28.499  1.00  0.00     0.037 A 
ATOM     46  C   UNL A   1      43.411  29.242  33.725  1.00  0.00     0.049 A 
ATOM     47  C   UNL A   1      43.581  25.500  29.552  1.00  0.00     0.074 A 
ATOM     48  C   UNL A   1      44.415  29.160  34.674  1.00  0.00     0.029 A 
ATOM     49  N   UNL A   1      43.660  28.247  32.791  1.00  0.00    -0.354 N 
ATOM     50  N   UNL A   1      43.669  26.301  30.587  1.00  0.00    -0.248 NA
ATOM     51  C   UNL A   1      44.694  24.549  29.430  1.00  0.00     0.031 C 
ATOM     52  C   UNL A   1      45.301  28.151  34.284  1.00  0.00     0.029 A 
ATOM     53  C   UNL A   1      44.817  27.565  33.125  1.00  0.00     0.049 A 
ATOM     54  H   UNL A   1      43.097  28.057  32.006  1.00  0.00     0.167 HD
ATOM     55  C   UNL A   1      44.829  25.933  31.256  1.00  0.00     0.074 A 
ATOM     56  C   UNL A   1      45.403  24.827  30.516  1.00  0.00     0.031 C 
ATOM     57  C   UNL A   1      45.371  26.462  32.380  1.00  0.00     0.037 A 
BRANCH  44  58
ATOM     58  C   UNL A   1      42.220  31.243  34.708  1.00  0.00     0.057 A 
ATOM     59  C   UNL A   1      42.872  32.475  34.553  1.00  0.00     0.134 A 
ATOM     60  C   UNL A   1      41.445  31.065  35.861  1.00  0.00     0.134 A 
ATOM     61  F   UNL A   1      43.640  32.707  33.478  1.00  0.00    -0.206 F 
ATOM     62  C   UNL A   1      42.780  33.478  35.521  1.00  0.00     0.040 A 
ATOM     63  C   UNL A   1      41.321  32.072  36.821  1.00  0.00     0.040 A 
ATOM     64  F   UNL A   1      40.791  29.914  36.071  1.00  0.00    -0.206 F 
ATOM     65  C   UNL A   1      41.996  33.280  36.655  1.00  0.00     0.006 A 
ENDBRANCH  44  58
BRANCH  45  66
ATOM     66  C   UNL A   1      42.584  24.426  27.405  1.00  0.00     0.057 A 
ATOM     67  C   UNL A   1      42.109  23.121  27.587  1.00  0.00     0.134 A 
ATOM     68  C   UNL A   1      43.125  24.743  26.154  1.00  0.00     0.134 A 
ATOM     69  F   UNL A   1      41.593  22.750  28.769  1.00  0.00    -0.206 F 
ATOM     70  C   UNL A   1      42.187  22.165  26.575  1.00  0.00     0.040 A 
ATOM     71  C   UNL A   1      43.185  23.805  25.122  1.00  0.00     0.040 A 
ATOM     72  F   UNL A   1      43.587  25.980  25.910  1.00  0.00    -0.206 F 
ATOM     73  C   UNL A   1      42.723  22.508  25.334  1.00  0.00     0.006 A 
ENDBRANCH  45  66
BRANCH  57  74
ATOM     74  C   UNL A   1      46.626  25.827  32.902  1.00  0.00     0.057 A 
ATOM     75  C   UNL A   1      46.597  24.786  33.838  1.00  0.00     0.134 A 
ATOM     76  C   UNL A   1      47.879  26.235  32.428  1.00  0.00     0.134 A 
ATOM     77  F   UNL A   1      45.430  24.356  34.342  1.00  0.00    -0.206 F 
ATOM     78  C   UNL A   1      47.771  24.190  34.304  1.00  0.00     0.040 A 
ATOM     79  C   UNL A   1      49.058  25.627  32.861  1.00  0.00     0.040 A 
ATOM     80  F   UNL A   1      47.979  27.220  31.522  1.00  0.00    -0.206 F 
ATOM     81  C   UNL A   1      49.006  24.607  33.808  1.00  0.00     0.006 A 
ENDBRANCH  57  74
ENDBRANCH  31  32
ENDBRANCH  23  26
ENDBRANCH  21  22
ENDBRANCH   1  21
TORSDOF 12
ENDMDL
MODEL 2
REMARK VINA RESULT:     -11.3      3.888      8.358
REMARK SMILES Cc1noc(-c2ccc(CCl)cc2)c1C(=O)NCCCNC(=O)c1ccc(-c2c3nc(c(-c4c(F)cccc4F)c4ccc([nH]4)c(-c4c(F)cccc4F)c4nc(c(-c5c(F)cccc5F)c5ccc2[nH]5)C=C4)C=C3)cc1
REMARK SMILES IDX 19 1 18 2 17 3 15 4 16 5 14 7 1 8 2 9 3 10 4 11 5 12 6 13
REMARK SMILES IDX 7 14 13 15 8 16 12 17 9 18 10 19 11 20 20 21 21 22 22 23
REMARK SMILES IDX 23 25 24 26 25 27 77 28 26 29 76 30 27 31 28 32 29 33 70 34
REMARK SMILES IDX 30 35 75 36 69 37 71 38 31 39 74 40 68 41 67 42 32 44 58 45
REMARK SMILES IDX 41 46 57 47 42 48 45 49 56 50 72 51 43 52 44 53 55 55 73 56
REMARK SMILES IDX 46 57 33 58 34 59 39 60 35 61 36 62 38 63 40 64 37 65 59 66
REMARK SMILES IDX 60 67 65 68 61 69 62 70 64 71 66 72 63 73 47 74 48 75 53 76
REMARK SMILES IDX 49 77 50 78 52 79 54 80 51 81
REMARK H PARENT 17 6 21 24 71 43 45 54
REMARK Flexibility Score: inf
ROOT
ATOM      1  C   UNL A   1      37.295  23.527  25.174  1.00  0.00     0.042 C 
ENDROOT
BRANCH   1   2
ATOM      2  C   UNL A   1      36.985  22.049  25.410  1.00  0.00     0.118 C 
BRANCH   2   3
ATOM      3  N   UNL A   1      36.003  21.904  26.447  1.00  0.00    -0.352 N 
ATOM      4  C   UNL A   1      34.680  21.585  26.477  1.00  0.00     0.257 C 
ATOM      5  O   UNL A   1      34.252  21.535  27.635  1.00  0.00    -0.269 OA
ATOM      6  H   UNL A   1      36.372  22.076  27.343  1.00  0.00     0.163 HD
BRANCH   4   7
ATOM      7  C   UNL A   1      33.825  21.289  25.328  1.00  0.00     0.110 A 
ATOM      8  C   UNL A   1      33.411  18.665  24.777  1.00  0.00     0.071 C 
ATOM      9  C   UNL A   1      33.278  20.136  24.653  1.00  0.00     0.094 A 
ATOM     10  N   UNL A   1      32.490  20.499  23.629  1.00  0.00    -0.084 NA
ATOM     11  O   UNL A   1      32.536  21.858  23.562  1.00  0.00    -0.355 OA
ATOM     12  C   UNL A   1      33.344  22.334  24.535  1.00  0.00     0.179 A 
BRANCH  12  13
ATOM     13  C   UNL A   1      33.504  23.780  24.494  1.00  0.00     0.021 A 
ATOM     14  C   UNL A   1      33.756  24.429  23.280  1.00  0.00     0.012 A 
ATOM     15  C   UNL A   1      33.417  24.545  25.664  1.00  0.00     0.012 A 
ATOM     16  C   UNL A   1      33.873  25.820  23.232  1.00  0.00     0.006 A 
ATOM     17  C   UNL A   1      33.527  25.935  25.618  1.00  0.00     0.006 A 
ATOM     18  C   UNL A   1      33.747  26.588  24.399  1.00  0.00    -0.033 A 
BRANCH  18  19
ATOM     19  C   UNL A   1      33.829  28.088  24.344  1.00  0.00     0.145 C 
ATOM     20  Cl  UNL A   1      34.229  28.646  22.706  1.00  0.00    -0.122 Cl
ENDBRANCH  18  19
ENDBRANCH  12  13
ENDBRANCH   4   7
ENDBRANCH   2   3
ENDBRANCH   1   2
BRANCH   1  21
ATOM     21  C   UNL A   1      38.120  24.147  26.299  1.00  0.00     0.118 C 
BRANCH  21  22
ATOM     22  N   UNL A   1      39.549  23.940  26.087  1.00  0.00    -0.352 N 
ATOM     23  C   UNL A   1      40.620  24.690  26.487  1.00  0.00     0.251 C 
ATOM     24  H   UNL A   1      39.778  23.132  25.573  1.00  0.00     0.163 HD
ATOM     25  O   UNL A   1      41.722  24.495  25.969  1.00  0.00    -0.269 OA
BRANCH  23  26
ATOM     26  C   UNL A   1      40.470  25.721  27.529  1.00  0.00     0.039 A 
ATOM     27  C   UNL A   1      39.540  25.518  28.553  1.00  0.00     0.014 A 
ATOM     28  C   UNL A   1      41.206  26.906  27.473  1.00  0.00     0.014 A 
ATOM     29  C   UNL A   1      39.387  26.483  29.548  1.00  0.00     0.010 A 
ATOM     30  C   UNL A   1      41.112  27.828  28.509  1.00  0.00     0.010 A 
ATOM     31  C   UNL A   1      40.195  27.631  29.550  1.00  0.00    -0.014 A 
BRANCH  31  32
ATOM     32  C   UNL A   1      40.094  28.638  30.633  1.00  0.00     0.031 A 
ATOM     33  C   UNL A   1      39.090  29.753  30.537  1.00  0.00     0.074 A 
ATOM     34  C   UNL A   1      40.952  28.582  31.669  1.00  0.00     0.049 A 
ATOM     35  N   UNL A   1      38.898  30.764  31.345  1.00  0.00    -0.248 NA
ATOM     36  C   UNL A   1      38.204  29.749  29.360  1.00  0.00     0.031 C 
ATOM     37  C   UNL A   1      42.000  27.574  31.845  1.00  0.00     0.029 A 
ATOM     38  N   UNL A   1      41.086  29.394  32.766  1.00  0.00    -0.354 N 
ATOM     39  C   UNL A   1      37.888  31.522  30.767  1.00  0.00     0.074 A 
ATOM     40  C   UNL A   1      37.545  30.887  29.514  1.00  0.00     0.031 C 
ATOM     41  C   UNL A   1      42.649  27.811  32.995  1.00  0.00     0.029 A 
ATOM     42  C   UNL A   1      42.094  29.010  33.615  1.00  0.00     0.049 A 
ATOM     43  H   UNL A   1      40.513  30.178  32.928  1.00  0.00     0.167 HD
ATOM     44  C   UNL A   1      37.287  32.635  31.251  1.00  0.00     0.037 A 
ATOM     45  C   UNL A   1      42.527  29.567  34.761  1.00  0.00     0.037 A 
ATOM     46  C   UNL A   1      37.617  33.244  32.512  1.00  0.00     0.049 A 
ATOM     47  C   UNL A   1      41.844  30.804  35.273  1.00  0.00     0.074 A 
ATOM     48  C   UNL A   1      37.022  34.333  33.125  1.00  0.00     0.029 A 
ATOM     49  N   UNL A   1      38.636  32.819  33.353  1.00  0.00    -0.354 N 
ATOM     50  N   UNL A   1      40.842  31.471  34.753  1.00  0.00    -0.248 NA
ATOM     51  C   UNL A   1      42.348  31.361  36.535  1.00  0.00     0.031 C 
ATOM     52  C   UNL A   1      37.716  34.599  34.309  1.00  0.00     0.029 A 
ATOM     53  C   UNL A   1      38.704  33.640  34.465  1.00  0.00     0.049 A 
ATOM     54  H   UNL A   1      39.223  32.047  33.181  1.00  0.00     0.167 HD
ATOM     55  C   UNL A   1      40.576  32.509  35.637  1.00  0.00     0.074 A 
ATOM     56  C   UNL A   1      41.514  32.373  36.733  1.00  0.00     0.031 C 
ATOM     57  C   UNL A   1      39.641  33.487  35.549  1.00  0.00     0.037 A 
BRANCH  44  58
ATOM     58  C   UNL A   1      36.212  33.266  30.411  1.00  0.00     0.057 A 
ATOM     59  C   UNL A   1      36.514  34.097  29.322  1.00  0.00     0.134 A 
ATOM     60  C   UNL A   1      34.860  33.010  30.671  1.00  0.00     0.134 A 
ATOM     61  F   UNL A   1      37.787  34.394  29.025  1.00  0.00    -0.206 F 
ATOM     62  C   UNL A   1      35.509  34.672  28.542  1.00  0.00     0.040 A 
ATOM     63  C   UNL A   1      33.848  33.555  29.879  1.00  0.00     0.040 A 
ATOM     64  F   UNL A   1      34.501  32.220  31.693  1.00  0.00    -0.206 F 
ATOM     65  C   UNL A   1      34.171  34.395  28.815  1.00  0.00     0.006 A 
ENDBRANCH  44  58
BRANCH  45  66
ATOM     66  C   UNL A   1      43.645  28.944  35.513  1.00  0.00     0.057 A 
ATOM     67  C   UNL A   1      44.974  29.300  35.255  1.00  0.00     0.134 A 
ATOM     68  C   UNL A   1      43.417  27.983  36.504  1.00  0.00     0.134 A 
ATOM     69  F   UNL A   1      45.258  30.204  34.305  1.00  0.00    -0.206 F 
ATOM     70  C   UNL A   1      46.037  28.710  35.940  1.00  0.00     0.040 A 
ATOM     71  C   UNL A   1      44.469  27.404  37.218  1.00  0.00     0.040 A 
ATOM     72  F   UNL A   1      42.166  27.607  36.809  1.00  0.00    -0.206 F 
ATOM     73  C   UNL A   1      45.784  27.762  36.930  1.00  0.00     0.006 A 
ENDBRANCH  45  66
BRANCH  57  74
ATOM     74  C   UNL A   1      39.559  34.461  36.687  1.00  0.00     0.057 A 
ATOM     75  C   UNL A   1      38.856  34.171  37.863  1.00  0.00     0.134 A 
ATOM     76  C   UNL A   1      40.228  35.690  36.620  1.00  0.00     0.134 A 
ATOM     77  F   UNL A   1      38.183  33.017  37.987  1.00  0.00    -0.206 F 
ATOM     78  C   UNL A   1      38.800  35.079  38.923  1.00  0.00     0.040 A 
ATOM     79  C   UNL A   1      40.206  36.593  37.685  1.00  0.00     0.040 A 
ATOM     80  F   UNL A   1      40.929  36.027  35.527  1.00  0.00    -0.206 F 
ATOM     81  C   UNL A   1      39.484  36.291  38.837  1.00  0.00     0.006 A 
ENDBRANCH  57  74
ENDBRANCH  31  32
ENDBRANCH  23  26
ENDBRANCH  21  22
ENDBRANCH   1  21
TORSDOF 12
ENDMDL
MODEL 3
REMARK VINA RESULT:     -11.3      1.654      3.042
REMARK SMILES Cc1noc(-c2ccc(CCl)cc2)c1C(=O)NCCCNC(=O)c1ccc(-c2c3nc(c(-c4c(F)cccc4F)c4ccc([nH]4)c(-c4c(F)cccc4F)c4nc(c(-c5c(F)cccc5F)c5ccc2[nH]5)C=C4)C=C3)cc1
REMARK SMILES IDX 19 1 18 2 17 3 15 4 16 5 14 7 1 8 2 9 3 10 4 11 5 12 6 13
REMARK SMILES IDX 7 14 13 15 8 16 12 17 9 18 10 19 11 20 20 21 21 22 22 23
REMARK SMILES IDX 23 25 24 26 25 27 77 28 26 29 76 30 27 31 28 32 29 33 70 34
REMARK SMILES IDX 30 35 75 36 69 37 71 38 31 39 74 40 68 41 67 42 32 44 58 45
REMARK SMILES IDX 41 46 57 47 42 48 45 49 56 50 72 51 43 52 44 53 55 55 73 56
REMARK SMILES IDX 46 57 33 58 34 59 39 60 35 61 36 62 38 63 40 64 37 65 59 66
REMARK SMILES IDX 60 67 65 68 61 69 62 70 64 71 66 72 63 73 47 74 48 75 53 76
REMARK SMILES IDX 49 77 50 78 52 79 54 80 51 81
REMARK H PARENT 17 6 21 24 71 43 45 54
REMARK Flexibility Score: inf
ROOT
ATOM      1  C   UNL A   1      33.200  28.212  27.142  1.00  0.00     0.042 C 
ENDROOT
BRANCH   1   2
ATOM      2  C   UNL A   1      31.678  28.310  27.035  1.00  0.00     0.118 C 
BRANCH   2   3
ATOM      3  N   UNL A   1      31.105  27.006  26.853  1.00  0.00    -0.352 N 
ATOM      4  C   UNL A   1      30.766  26.250  25.775  1.00  0.00     0.257 C 
ATOM      5  O   UNL A   1      30.337  25.142  26.115  1.00  0.00    -0.269 OA
ATOM      6  H   UNL A   1      30.912  26.556  27.708  1.00  0.00     0.163 HD
BRANCH   4   7
ATOM      7  C   UNL A   1      30.903  26.622  24.367  1.00  0.00     0.110 A 
ATOM      8  C   UNL A   1      28.821  27.968  23.267  1.00  0.00     0.071 C 
ATOM      9  C   UNL A   1      30.158  27.334  23.357  1.00  0.00     0.094 A 
ATOM     10  N   UNL A   1      30.836  27.392  22.200  1.00  0.00    -0.084 NA
ATOM     11  O   UNL A   1      31.989  26.691  22.386  1.00  0.00    -0.355 OA
ATOM     12  C   UNL A   1      32.025  26.205  23.646  1.00  0.00     0.179 A 
BRANCH  12  13
ATOM     13  C   UNL A   1      33.197  25.383  23.911  1.00  0.00     0.021 A 
ATOM     14  C   UNL A   1      34.010  25.648  25.019  1.00  0.00     0.012 A 
ATOM     15  C   UNL A   1      33.536  24.322  23.062  1.00  0.00     0.012 A 
ATOM     16  C   UNL A   1      35.114  24.839  25.296  1.00  0.00     0.006 A 
ATOM     17  C   UNL A   1      34.635  23.509  23.340  1.00  0.00     0.006 A 
ATOM     18  C   UNL A   1      35.431  23.753  24.466  1.00  0.00    -0.033 A 
BRANCH  18  19
ATOM     19  C   UNL A   1      36.592  22.854  24.786  1.00  0.00     0.145 C 
ATOM     20  Cl  UNL A   1      37.756  23.670  25.851  1.00  0.00    -0.122 Cl
ENDBRANCH  18  19
ENDBRANCH  12  13
ENDBRANCH   4   7
ENDBRANCH   2   3
ENDBRANCH   1   2
BRANCH   1  21
ATOM     21  C   UNL A   1      33.923  29.233  26.266  1.00  0.00     0.118 C 
BRANCH  21  22
ATOM     22  N   UNL A   1      33.844  30.574  26.837  1.00  0.00    -0.352 N 
ATOM     23  C   UNL A   1      34.551  31.143  27.861  1.00  0.00     0.251 C 
ATOM     24  H   UNL A   1      33.174  31.163  26.420  1.00  0.00     0.163 HD
ATOM     25  O   UNL A   1      34.141  32.187  28.372  1.00  0.00    -0.269 OA
BRANCH  23  26
ATOM     26  C   UNL A   1      35.794  30.521  28.352  1.00  0.00     0.039 A 
ATOM     27  C   UNL A   1      36.985  30.751  27.659  1.00  0.00     0.014 A 
ATOM     28  C   UNL A   1      35.779  29.677  29.465  1.00  0.00     0.014 A 
ATOM     29  C   UNL A   1      38.170  30.172  28.112  1.00  0.00     0.010 A 
ATOM     30  C   UNL A   1      36.973  29.169  29.963  1.00  0.00     0.010 A 
ATOM     31  C   UNL A   1      38.178  29.403  29.286  1.00  0.00    -0.014 A 
BRANCH  31  32
ATOM     32  C   UNL A   1      39.437  28.833  29.821  1.00  0.00     0.031 A 
ATOM     33  C   UNL A   1      40.088  29.442  31.032  1.00  0.00     0.074 A 
ATOM     34  C   UNL A   1      40.025  27.808  29.176  1.00  0.00     0.049 A 
ATOM     35  N   UNL A   1      41.222  29.130  31.605  1.00  0.00    -0.248 NA
ATOM     36  C   UNL A   1      39.387  30.573  31.664  1.00  0.00     0.031 C 
ATOM     37  C   UNL A   1      39.511  27.167  27.964  1.00  0.00     0.029 A 
ATOM     38  N   UNL A   1      41.187  27.131  29.442  1.00  0.00    -0.354 N 
ATOM     39  C   UNL A   1      41.378  30.034  32.648  1.00  0.00     0.074 A 
ATOM     40  C   UNL A   1      40.253  30.941  32.596  1.00  0.00     0.031 C 
ATOM     41  C   UNL A   1      40.338  26.171  27.609  1.00  0.00     0.029 A 
ATOM     42  C   UNL A   1      41.461  26.132  28.540  1.00  0.00     0.049 A 
ATOM     43  H   UNL A   1      41.770  27.341  30.207  1.00  0.00     0.167 HD
ATOM     44  C   UNL A   1      42.361  30.087  33.579  1.00  0.00     0.037 A 
ATOM     45  C   UNL A   1      42.504  25.285  28.469  1.00  0.00     0.037 A 
ATOM     46  C   UNL A   1      43.463  29.164  33.639  1.00  0.00     0.049 A 
ATOM     47  C   UNL A   1      43.583  25.368  29.512  1.00  0.00     0.074 A 
ATOM     48  C   UNL A   1      44.474  29.089  34.580  1.00  0.00     0.029 A 
ATOM     49  N   UNL A   1      43.700  28.156  32.715  1.00  0.00    -0.354 N 
ATOM     50  N   UNL A   1      43.682  26.182  30.536  1.00  0.00    -0.248 NA
ATOM     51  C   UNL A   1      44.691  24.411  29.394  1.00  0.00     0.031 C 
ATOM     52  C   UNL A   1      45.352  28.071  34.196  1.00  0.00     0.029 A 
ATOM     53  C   UNL A   1      44.857  27.472  33.049  1.00  0.00     0.049 A 
ATOM     54  H   UNL A   1      43.130  27.958  31.937  1.00  0.00     0.167 HD
ATOM     55  C   UNL A   1      44.846  25.817  31.200  1.00  0.00     0.074 A 
ATOM     56  C   UNL A   1      45.409  24.699  30.470  1.00  0.00     0.031 C 
ATOM     57  C   UNL A   1      45.400  26.358  32.313  1.00  0.00     0.037 A 
BRANCH  44  58
ATOM     58  C   UNL A   1      42.288  31.182  34.605  1.00  0.00     0.057 A 
ATOM     59  C   UNL A   1      41.616  31.013  35.824  1.00  0.00     0.134 A 
ATOM     60  C   UNL A   1      42.930  32.408  34.388  1.00  0.00     0.134 A 
ATOM     61  F   UNL A   1      40.969  29.869  36.091  1.00  0.00    -0.206 F 
ATOM     62  C   UNL A   1      41.561  32.034  36.776  1.00  0.00     0.040 A 
ATOM     63  C   UNL A   1      42.908  33.424  35.346  1.00  0.00     0.040 A 
ATOM     64  F   UNL A   1      43.596  32.636  33.247  1.00  0.00    -0.206 F 
ATOM     65  C   UNL A   1      42.215  33.241  36.541  1.00  0.00     0.006 A 
ENDBRANCH  44  58
BRANCH  45  66
ATOM     66  C   UNL A   1      42.564  24.271  27.387  1.00  0.00     0.057 A 
ATOM     67  C   UNL A   1      42.060  22.979  27.581  1.00  0.00     0.134 A 
ATOM     68  C   UNL A   1      43.121  24.562  26.137  1.00  0.00     0.134 A 
ATOM     69  F   UNL A   1      41.527  22.633  28.763  1.00  0.00    -0.206 F 
ATOM     70  C   UNL A   1      42.125  22.009  26.580  1.00  0.00     0.040 A 
ATOM     71  C   UNL A   1      43.168  23.611  25.116  1.00  0.00     0.040 A 
ATOM     72  F   UNL A   1      43.610  25.786  25.882  1.00  0.00    -0.206 F 
ATOM     73  C   UNL A   1      42.676  22.326  25.340  1.00  0.00     0.006 A 
ENDBRANCH  45  66
BRANCH  57  74
ATOM     74  C   UNL A   1      46.656  25.724  32.833  1.00  0.00     0.057 A 
ATOM     75  C   UNL A   1      46.631  24.712  33.801  1.00  0.00     0.134 A 
ATOM     76  C   UNL A   1      47.906  26.102  32.325  1.00  0.00     0.134 A 
ATOM     77  F   UNL A   1      45.468  24.312  34.338  1.00  0.00    -0.206 F 
ATOM     78  C   UNL A   1      47.806  24.117  34.265  1.00  0.00     0.040 A 
ATOM     79  C   UNL A   1      49.085  25.493  32.757  1.00  0.00     0.040 A 
ATOM     80  F   UNL A   1      48.001  27.057  31.388  1.00  0.00    -0.206 F 
ATOM     81  C   UNL A   1      49.037  24.503  33.736  1.00  0.00     0.006 A 
ENDBRANCH  57  74
ENDBRANCH  31  32
ENDBRANCH  23  26
ENDBRANCH  21  22
ENDBRANCH   1  21
TORSDOF 12
ENDMDL
