MODEL 1
REMARK VINA RESULT:      -9.1      0.000      0.000
REMARK SMILES CCC[NH2+][C@H]1C[C@@H](C(=O)NCCCNC(=O)c2ccc(-c3c4nc(c(-c5c(F)cccc5F)c5ccc([nH]5)c(-c5c(F)cccc5F)c5nc(c(-c6c(F)cccc6F)c6ccc3[nH]6)C=C5)C=C4)cc2)C1
REMARK SMILES IDX 11 1 10 2 8 3 9 4 7 6 5 7 71 8 6 9 4 10 3 13 2 14 1 15 12 16
REMARK SMILES IDX 13 17 14 18 15 19 16 21 17 22 18 23 70 24 19 25 69 26 20 27
REMARK SMILES IDX 21 28 22 29 63 30 23 31 68 32 62 33 64 34 24 35 67 36 61 37
REMARK SMILES IDX 60 38 25 40 51 41 34 42 50 43 35 44 38 45 49 46 65 47 36 48
REMARK SMILES IDX 37 49 48 51 66 52 39 53 26 54 27 55 32 56 28 57 29 58 31 59
REMARK SMILES IDX 33 60 30 61 52 62 53 63 58 64 54 65 55 66 57 67 59 68 56 69
REMARK SMILES IDX 40 70 41 71 46 72 42 73 43 74 45 75 47 76 44 77
REMARK H PARENT 10 5 4 11 4 12 14 20 64 39 38 50
REMARK Flexibility Score: inf
ROOT
ATOM      1  C   UNL A   1      32.934  36.482  30.858  1.00  0.00     0.117 C 
ENDROOT
BRANCH   1   2
ATOM      2  N   UNL A   1      33.255  37.161  32.094  1.00  0.00    -0.356 N 
ATOM      3  C   UNL A   1      33.955  36.741  33.198  1.00  0.00     0.223 C 
ATOM      4  O   UNL A   1      34.077  37.590  34.095  1.00  0.00    -0.275 OA
ATOM      5  H   UNL A   1      32.912  38.082  32.154  1.00  0.00     0.163 HD
BRANCH   3   6
ATOM      6  C   UNL A   1      34.544  35.328  33.341  1.00  0.00     0.090 C 
ATOM      7  C   UNL A   1      36.051  33.947  33.945  1.00  0.00     0.183 C 
ATOM      8  C   UNL A   1      34.974  34.736  34.713  1.00  0.00     0.078 C 
ATOM      9  C   UNL A   1      35.961  34.984  32.810  1.00  0.00     0.078 C 
BRANCH   7  10
ATOM     10  N   UNL A   1      37.373  33.873  34.568  1.00  0.00    -0.344 N 
ATOM     11  H   UNL A   1      38.062  34.025  33.831  1.00  0.00     0.346 HD
ATOM     12  H   UNL A   1      37.339  34.576  35.307  1.00  0.00     0.346 HD
BRANCH  10  13
ATOM     13  C   UNL A   1      37.751  32.647  35.263  1.00  0.00     0.260 C 
BRANCH  13  14
ATOM     14  C   UNL A   1      38.524  31.681  34.353  1.00  0.00     0.058 C 
ATOM     15  C   UNL A   1      37.638  30.927  33.372  1.00  0.00     0.010 C 
ENDBRANCH  13  14
ENDBRANCH  10  13
ENDBRANCH   7  10
ENDBRANCH   3   6
ENDBRANCH   1   2
BRANCH   1  16
ATOM     16  C   UNL A   1      33.205  37.333  29.625  1.00  0.00     0.042 C 
BRANCH  16  17
ATOM     17  C   UNL A   1      33.675  36.535  28.414  1.00  0.00     0.118 C 
BRANCH  17  18
ATOM     18  N   UNL A   1      32.871  35.341  28.185  1.00  0.00    -0.352 N 
ATOM     19  C   UNL A   1      33.224  34.017  28.166  1.00  0.00     0.251 C 
ATOM     20  H   UNL A   1      31.917  35.515  28.018  1.00  0.00     0.163 HD
ATOM     21  O   UNL A   1      32.408  33.185  27.762  1.00  0.00    -0.269 OA
BRANCH  19  22
ATOM     22  C   UNL A   1      34.564  33.572  28.601  1.00  0.00     0.039 A 
ATOM     23  C   UNL A   1      34.674  32.836  29.786  1.00  0.00     0.014 A 
ATOM     24  C   UNL A   1      35.715  33.905  27.883  1.00  0.00     0.014 A 
ATOM     25  C   UNL A   1      35.924  32.380  30.211  1.00  0.00     0.010 A 
ATOM     26  C   UNL A   1      36.950  33.385  28.264  1.00  0.00     0.010 A 
ATOM     27  C   UNL A   1      37.068  32.620  29.434  1.00  0.00    -0.014 A 
BRANCH  27  28
ATOM     28  C   UNL A   1      38.390  32.069  29.824  1.00  0.00     0.031 A 
ATOM     29  C   UNL A   1      38.835  30.723  29.320  1.00  0.00     0.074 A 
ATOM     30  C   UNL A   1      39.162  32.753  30.691  1.00  0.00     0.049 A 
ATOM     31  N   UNL A   1      39.924  30.055  29.604  1.00  0.00    -0.248 NA
ATOM     32  C   UNL A   1      37.925  30.027  28.397  1.00  0.00     0.031 C 
ATOM     33  C   UNL A   1      38.818  34.040  31.297  1.00  0.00     0.029 A 
ATOM     34  N   UNL A   1      40.391  32.454  31.223  1.00  0.00    -0.354 N 
ATOM     35  C   UNL A   1      39.822  28.855  28.911  1.00  0.00     0.074 A 
ATOM     36  C   UNL A   1      38.544  28.867  28.231  1.00  0.00     0.031 C 
ATOM     37  C   UNL A   1      39.820  34.430  32.101  1.00  0.00     0.029 A 
ATOM     38  C   UNL A   1      40.861  33.406  32.094  1.00  0.00     0.049 A 
ATOM     39  H   UNL A   1      40.889  31.635  31.000  1.00  0.00     0.167 HD
ATOM     40  C   UNL A   1      40.718  27.842  28.834  1.00  0.00     0.037 A 
ATOM     41  C   UNL A   1      41.998  33.449  32.811  1.00  0.00     0.037 A 
ATOM     42  C   UNL A   1      42.003  27.845  29.485  1.00  0.00     0.049 A 
ATOM     43  C   UNL A   1      42.984  32.322  32.694  1.00  0.00     0.074 A 
ATOM     44  C   UNL A   1      43.012  26.901  29.406  1.00  0.00     0.029 A 
ATOM     45  N   UNL A   1      42.453  28.841  30.337  1.00  0.00    -0.354 N 
ATOM     46  N   UNL A   1      42.906  31.227  31.977  1.00  0.00    -0.248 NA
ATOM     47  C   UNL A   1      44.220  32.440  33.479  1.00  0.00     0.031 C 
ATOM     48  C   UNL A   1      44.058  27.308  30.240  1.00  0.00     0.029 A 
ATOM     49  C   UNL A   1      43.718  28.526  30.807  1.00  0.00     0.049 A 
ATOM     50  H   UNL A   1      41.949  29.654  30.574  1.00  0.00     0.167 HD
ATOM     51  C   UNL A   1      44.088  30.537  32.208  1.00  0.00     0.074 A 
ATOM     52  C   UNL A   1      44.874  31.345  33.117  1.00  0.00     0.031 C 
ATOM     53  C   UNL A   1      44.486  29.340  31.712  1.00  0.00     0.037 A 
BRANCH  40  54
ATOM     54  C   UNL A   1      40.344  26.647  28.008  1.00  0.00     0.057 A 
ATOM     55  C   UNL A   1      40.856  26.451  26.718  1.00  0.00     0.134 A 
ATOM     56  C   UNL A   1      39.493  25.661  28.522  1.00  0.00     0.134 A 
ATOM     57  F   UNL A   1      41.668  27.364  26.164  1.00  0.00    -0.206 F 
ATOM     58  C   UNL A   1      40.516  25.330  25.960  1.00  0.00     0.040 A 
ATOM     59  C   UNL A   1      39.165  24.522  27.783  1.00  0.00     0.040 A 
ATOM     60  F   UNL A   1      38.973  25.782  29.752  1.00  0.00    -0.206 F 
ATOM     61  C   UNL A   1      39.673  24.358  26.495  1.00  0.00     0.006 A 
ENDBRANCH  40  54
BRANCH  41  62
ATOM     62  C   UNL A   1      42.277  34.611  33.691  1.00  0.00     0.057 A 
ATOM     63  C   UNL A   1      41.939  34.584  35.049  1.00  0.00     0.134 A 
ATOM     64  C   UNL A   1      42.882  35.773  33.198  1.00  0.00     0.134 A 
ATOM     65  F   UNL A   1      41.341  33.505  35.574  1.00  0.00    -0.206 F 
ATOM     66  C   UNL A   1      42.175  35.678  35.882  1.00  0.00     0.040 A 
ATOM     67  C   UNL A   1      43.145  36.866  34.025  1.00  0.00     0.040 A 
ATOM     68  F   UNL A   1      43.237  35.857  31.907  1.00  0.00    -0.206 F 
ATOM     69  C   UNL A   1      42.785  36.822  35.371  1.00  0.00     0.006 A 
ENDBRANCH  41  62
BRANCH  53  70
ATOM     70  C   UNL A   1      45.840  28.845  32.127  1.00  0.00     0.057 A 
ATOM     71  C   UNL A   1      46.014  28.027  33.250  1.00  0.00     0.134 A 
ATOM     72  C   UNL A   1      46.979  29.171  31.380  1.00  0.00     0.134 A 
ATOM     73  F   UNL A   1      44.964  27.691  34.015  1.00  0.00    -0.206 F 
ATOM     74  C   UNL A   1      47.276  27.567  33.628  1.00  0.00     0.040 A 
ATOM     75  C   UNL A   1      48.243  28.698  31.734  1.00  0.00     0.040 A 
ATOM     76  F   UNL A   1      46.881  29.946  30.289  1.00  0.00    -0.206 F 
ATOM     77  C   UNL A   1      48.394  27.899  32.865  1.00  0.00     0.006 A 
ENDBRANCH  53  70
ENDBRANCH  27  28
ENDBRANCH  19  22
ENDBRANCH  17  18
ENDBRANCH  16  17
ENDBRANCH   1  16
TORSDOF 13
ENDMDL
MODEL 2
REMARK VINA RESULT:      -8.8      4.877     10.237
REMARK SMILES CCC[NH2+][C@H]1C[C@@H](C(=O)NCCCNC(=O)c2ccc(-c3c4nc(c(-c5c(F)cccc5F)c5ccc([nH]5)c(-c5c(F)cccc5F)c5nc(c(-c6c(F)cccc6F)c6ccc3[nH]6)C=C5)C=C4)cc2)C1
REMARK SMILES IDX 11 1 10 2 8 3 9 4 7 6 5 7 71 8 6 9 4 10 3 13 2 14 1 15 12 16
REMARK SMILES IDX 13 17 14 18 15 19 16 21 17 22 18 23 70 24 19 25 69 26 20 27
REMARK SMILES IDX 21 28 22 29 63 30 23 31 68 32 62 33 64 34 24 35 67 36 61 37
REMARK SMILES IDX 60 38 25 40 51 41 34 42 50 43 35 44 38 45 49 46 65 47 36 48
REMARK SMILES IDX 37 49 48 51 66 52 39 53 26 54 27 55 32 56 28 57 29 58 31 59
REMARK SMILES IDX 33 60 30 61 52 62 53 63 58 64 54 65 55 66 57 67 59 68 56 69
REMARK SMILES IDX 40 70 41 71 46 72 42 73 43 74 45 75 47 76 44 77
REMARK H PARENT 10 5 4 11 4 12 14 20 64 39 38 50
REMARK Flexibility Score: inf
ROOT
ATOM      1  C   UNL A   1      35.644  23.255  23.544  1.00  0.00     0.117 C 
ENDROOT
BRANCH   1   2
ATOM      2  N   UNL A   1      34.479  23.525  24.356  1.00  0.00    -0.356 N 
ATOM      3  C   UNL A   1      33.479  22.697  24.804  1.00  0.00     0.223 C 
ATOM      4  O   UNL A   1      32.623  23.246  25.516  1.00  0.00    -0.275 OA
ATOM      5  H   UNL A   1      34.385  24.465  24.636  1.00  0.00     0.163 HD
BRANCH   3   6
ATOM      6  C   UNL A   1      33.399  21.202  24.456  1.00  0.00     0.090 C 
ATOM      7  C   UNL A   1      33.169  19.142  24.954  1.00  0.00     0.183 C 
ATOM      8  C   UNL A   1      32.179  20.318  24.843  1.00  0.00     0.078 C 
ATOM      9  C   UNL A   1      34.309  20.158  25.156  1.00  0.00     0.078 C 
BRANCH   7  10
ATOM     10  N   UNL A   1      32.981  18.238  26.089  1.00  0.00    -0.344 N 
ATOM     11  H   UNL A   1      33.812  18.313  26.674  1.00  0.00     0.346 HD
ATOM     12  H   UNL A   1      32.103  18.546  26.509  1.00  0.00     0.346 HD
BRANCH  10  13
ATOM     13  C   UNL A   1      32.768  16.819  25.825  1.00  0.00     0.260 C 
BRANCH  13  14
ATOM     14  C   UNL A   1      33.725  16.280  24.751  1.00  0.00     0.058 C 
ATOM     15  C   UNL A   1      35.104  15.923  25.287  1.00  0.00     0.010 C 
ENDBRANCH  13  14
ENDBRANCH  10  13
ENDBRANCH   7  10
ENDBRANCH   3   6
ENDBRANCH   1   2
BRANCH   1  16
ATOM     16  C   UNL A   1      36.952  23.509  24.279  1.00  0.00     0.042 C 
BRANCH  16  17
ATOM     17  C   UNL A   1      36.953  23.026  25.725  1.00  0.00     0.118 C 
BRANCH  17  18
ATOM     18  N   UNL A   1      38.107  22.190  26.034  1.00  0.00    -0.352 N 
ATOM     19  C   UNL A   1      39.369  22.528  26.448  1.00  0.00     0.251 C 
ATOM     20  H   UNL A   1      37.954  21.224  25.928  1.00  0.00     0.163 HD
ATOM     21  O   UNL A   1      40.245  21.660  26.468  1.00  0.00    -0.269 OA
BRANCH  19  22
ATOM     22  C   UNL A   1      39.702  23.909  26.855  1.00  0.00     0.039 A 
ATOM     23  C   UNL A   1      39.545  24.269  28.198  1.00  0.00     0.014 A 
ATOM     24  C   UNL A   1      40.123  24.864  25.926  1.00  0.00     0.014 A 
ATOM     25  C   UNL A   1      39.874  25.560  28.618  1.00  0.00     0.010 A 
ATOM     26  C   UNL A   1      40.525  26.126  26.357  1.00  0.00     0.010 A 
ATOM     27  C   UNL A   1      40.402  26.488  27.707  1.00  0.00    -0.014 A 
BRANCH  27  28
ATOM     28  C   UNL A   1      40.840  27.835  28.151  1.00  0.00     0.031 A 
ATOM     29  C   UNL A   1      42.299  28.200  28.159  1.00  0.00     0.074 A 
ATOM     30  C   UNL A   1      39.924  28.709  28.613  1.00  0.00     0.049 A 
ATOM     31  N   UNL A   1      42.872  29.302  28.573  1.00  0.00    -0.248 NA
ATOM     32  C   UNL A   1      43.239  27.183  27.663  1.00  0.00     0.031 C 
ATOM     33  C   UNL A   1      38.485  28.455  28.711  1.00  0.00     0.029 A 
ATOM     34  N   UNL A   1      40.069  29.984  29.100  1.00  0.00    -0.354 N 
ATOM     35  C   UNL A   1      44.237  29.104  28.404  1.00  0.00     0.074 A 
ATOM     36  C   UNL A   1      44.409  27.760  27.894  1.00  0.00     0.031 C 
ATOM     37  C   UNL A   1      37.879  29.546  29.207  1.00  0.00     0.029 A 
ATOM     38  C   UNL A   1      38.887  30.562  29.493  1.00  0.00     0.049 A 
ATOM     39  H   UNL A   1      40.939  30.441  29.161  1.00  0.00     0.167 HD
ATOM     40  C   UNL A   1      45.253  29.969  28.635  1.00  0.00     0.037 A 
ATOM     41  C   UNL A   1      38.642  31.771  30.028  1.00  0.00     0.037 A 
ATOM     42  C   UNL A   1      45.078  31.317  29.111  1.00  0.00     0.049 A 
ATOM     43  C   UNL A   1      39.784  32.719  30.258  1.00  0.00     0.074 A 
ATOM     44  C   UNL A   1      46.038  32.295  29.304  1.00  0.00     0.029 A 
ATOM     45  N   UNL A   1      43.861  31.875  29.471  1.00  0.00    -0.354 N 
ATOM     46  N   UNL A   1      41.063  32.545  30.024  1.00  0.00    -0.248 NA
ATOM     47  C   UNL A   1      39.449  34.036  30.818  1.00  0.00     0.031 C 
ATOM     48  C   UNL A   1      45.406  33.433  29.816  1.00  0.00     0.029 A 
ATOM     49  C   UNL A   1      44.047  33.178  29.905  1.00  0.00     0.049 A 
ATOM     50  H   UNL A   1      42.992  31.414  29.426  1.00  0.00     0.167 HD
ATOM     51  C   UNL A   1      41.681  33.733  30.389  1.00  0.00     0.074 A 
ATOM     52  C   UNL A   1      40.636  34.628  30.841  1.00  0.00     0.031 C 
ATOM     53  C   UNL A   1      42.997  34.054  30.352  1.00  0.00     0.037 A 
BRANCH  40  54
ATOM     54  C   UNL A   1      46.648  29.487  28.368  1.00  0.00     0.057 A 
ATOM     55  C   UNL A   1      47.417  28.865  29.362  1.00  0.00     0.134 A 
ATOM     56  C   UNL A   1      47.216  29.610  27.095  1.00  0.00     0.134 A 
ATOM     57  F   UNL A   1      46.935  28.726  30.606  1.00  0.00    -0.206 F 
ATOM     58  C   UNL A   1      48.710  28.406  29.104  1.00  0.00     0.040 A 
ATOM     59  C   UNL A   1      48.499  29.132  26.817  1.00  0.00     0.040 A 
ATOM     60  F   UNL A   1      46.533  30.189  26.096  1.00  0.00    -0.206 F 
ATOM     61  C   UNL A   1      49.251  28.533  27.827  1.00  0.00     0.006 A 
ENDBRANCH  40  54
BRANCH  41  62
ATOM     62  C   UNL A   1      37.251  32.164  30.366  1.00  0.00     0.057 A 
ATOM     63  C   UNL A   1      36.710  31.884  31.626  1.00  0.00     0.134 A 
ATOM     64  C   UNL A   1      36.432  32.823  29.443  1.00  0.00     0.134 A 
ATOM     65  F   UNL A   1      37.441  31.238  32.546  1.00  0.00    -0.206 F 
ATOM     66  C   UNL A   1      35.397  32.228  31.950  1.00  0.00     0.040 A 
ATOM     67  C   UNL A   1      35.125  33.194  29.761  1.00  0.00     0.040 A 
ATOM     68  F   UNL A   1      36.896  33.127  28.222  1.00  0.00    -0.206 F 
ATOM     69  C   UNL A   1      34.602  32.890  31.017  1.00  0.00     0.006 A 
ENDBRANCH  41  62
BRANCH  53  70
ATOM     70  C   UNL A   1      43.375  35.437  30.795  1.00  0.00     0.057 A 
ATOM     71  C   UNL A   1      43.652  35.732  32.135  1.00  0.00     0.134 A 
ATOM     72  C   UNL A   1      43.486  36.478  29.866  1.00  0.00     0.134 A 
ATOM     73  F   UNL A   1      43.548  34.781  33.076  1.00  0.00    -0.206 F 
ATOM     74  C   UNL A   1      44.007  37.020  32.540  1.00  0.00     0.040 A 
ATOM     75  C   UNL A   1      43.864  37.764  30.253  1.00  0.00     0.040 A 
ATOM     76  F   UNL A   1      43.241  36.260  28.564  1.00  0.00    -0.206 F 
ATOM     77  C   UNL A   1      44.119  38.039  31.596  1.00  0.00     0.006 A 
ENDBRANCH  53  70
ENDBRANCH  27  28
ENDBRANCH  19  22
ENDBRANCH  17  18
ENDBRANCH  16  17
ENDBRANCH   1  16
TORSDOF 13
ENDMDL
MODEL 3
REMARK VINA RESULT:      -8.8      5.952     11.595
REMARK SMILES CCC[NH2+][C@H]1C[C@@H](C(=O)NCCCNC(=O)c2ccc(-c3c4nc(c(-c5c(F)cccc5F)c5ccc([nH]5)c(-c5c(F)cccc5F)c5nc(c(-c6c(F)cccc6F)c6ccc3[nH]6)C=C5)C=C4)cc2)C1
REMARK SMILES IDX 11 1 10 2 8 3 9 4 7 6 5 7 71 8 6 9 4 10 3 13 2 14 1 15 12 16
REMARK SMILES IDX 13 17 14 18 15 19 16 21 17 22 18 23 70 24 19 25 69 26 20 27
REMARK SMILES IDX 21 28 22 29 63 30 23 31 68 32 62 33 64 34 24 35 67 36 61 37
REMARK SMILES IDX 60 38 25 40 51 41 34 42 50 43 35 44 38 45 49 46 65 47 36 48
REMARK SMILES IDX 37 49 48 51 66 52 39 53 26 54 27 55 32 56 28 57 29 58 31 59
REMARK SMILES IDX 33 60 30 61 52 62 53 63 58 64 54 65 55 66 57 67 59 68 56 69
REMARK SMILES IDX 40 70 41 71 46 72 42 73 43 74 45 75 47 76 44 77
REMARK H PARENT 10 5 4 11 4 12 14 20 64 39 38 50
REMARK Flexibility Score: inf
ROOT
ATOM      1  C   UNL A   1      36.514  20.405  25.001  1.00  0.00     0.117 C 
ENDROOT
BRANCH   1   2
ATOM      2  N   UNL A   1      35.314  19.600  25.000  1.00  0.00    -0.356 N 
ATOM      3  C   UNL A   1      33.989  19.955  24.938  1.00  0.00     0.223 C 
ATOM      4  O   UNL A   1      33.191  19.005  24.930  1.00  0.00    -0.275 OA
ATOM      5  H   UNL A   1      35.473  18.629  25.055  1.00  0.00     0.163 HD
BRANCH   3   6
ATOM      6  C   UNL A   1      33.505  21.413  24.890  1.00  0.00     0.090 C 
ATOM      7  C   UNL A   1      32.268  22.985  24.150  1.00  0.00     0.183 C 
ATOM      8  C   UNL A   1      32.018  21.809  25.115  1.00  0.00     0.078 C 
ATOM      9  C   UNL A   1      33.458  22.207  23.557  1.00  0.00     0.078 C 
BRANCH   7  10
ATOM     10  N   UNL A   1      31.210  23.269  23.181  1.00  0.00    -0.344 N 
ATOM     11  H   UNL A   1      31.586  23.060  22.256  1.00  0.00     0.346 HD
ATOM     12  H   UNL A   1      30.428  22.691  23.491  1.00  0.00     0.346 HD
BRANCH  10  13
ATOM     13  C   UNL A   1      30.656  24.617  23.125  1.00  0.00     0.260 C 
BRANCH  13  14
ATOM     14  C   UNL A   1      30.855  25.380  24.442  1.00  0.00     0.058 C 
ATOM     15  C   UNL A   1      29.648  26.209  24.854  1.00  0.00     0.010 C 
ENDBRANCH  13  14
ENDBRANCH  10  13
ENDBRANCH   7  10
ENDBRANCH   3   6
ENDBRANCH   1   2
BRANCH   1  16
ATOM     16  C   UNL A   1      37.784  19.578  24.855  1.00  0.00     0.042 C 
BRANCH  16  17
ATOM     17  C   UNL A   1      38.939  20.057  25.727  1.00  0.00     0.118 C 
BRANCH  17  18
ATOM     18  N   UNL A   1      40.000  19.065  25.845  1.00  0.00    -0.352 N 
ATOM     19  C   UNL A   1      41.346  19.217  26.054  1.00  0.00     0.251 C 
ATOM     20  H   UNL A   1      39.700  18.131  25.761  1.00  0.00     0.163 HD
ATOM     21  O   UNL A   1      42.086  18.238  25.930  1.00  0.00    -0.269 OA
BRANCH  19  22
ATOM     22  C   UNL A   1      41.926  20.529  26.408  1.00  0.00     0.039 A 
ATOM     23  C   UNL A   1      42.345  21.377  25.377  1.00  0.00     0.014 A 
ATOM     24  C   UNL A   1      42.103  20.916  27.739  1.00  0.00     0.014 A 
ATOM     25  C   UNL A   1      42.876  22.633  25.678  1.00  0.00     0.010 A 
ATOM     26  C   UNL A   1      42.559  22.198  28.037  1.00  0.00     0.010 A 
ATOM     27  C   UNL A   1      42.953  23.069  27.010  1.00  0.00    -0.014 A 
BRANCH  27  28
ATOM     28  C   UNL A   1      43.432  24.434  27.345  1.00  0.00     0.031 A 
ATOM     29  C   UNL A   1      42.465  25.489  27.809  1.00  0.00     0.074 A 
ATOM     30  C   UNL A   1      44.730  24.742  27.164  1.00  0.00     0.049 A 
ATOM     31  N   UNL A   1      42.689  26.749  28.084  1.00  0.00    -0.248 NA
ATOM     32  C   UNL A   1      41.060  25.082  27.957  1.00  0.00     0.031 C 
ATOM     33  C   UNL A   1      45.757  23.825  26.664  1.00  0.00     0.029 A 
ATOM     34  N   UNL A   1      45.409  25.917  27.368  1.00  0.00    -0.354 N 
ATOM     35  C   UNL A   1      41.453  27.288  28.419  1.00  0.00     0.074 A 
ATOM     36  C   UNL A   1      40.477  26.230  28.268  1.00  0.00     0.031 C 
ATOM     37  C   UNL A   1      46.936  24.466  26.620  1.00  0.00     0.029 A 
ATOM     38  C   UNL A   1      46.743  25.846  27.054  1.00  0.00     0.049 A 
ATOM     39  H   UNL A   1      44.978  26.735  27.707  1.00  0.00     0.167 HD
ATOM     40  C   UNL A   1      41.161  28.544  28.832  1.00  0.00     0.037 A 
ATOM     41  C   UNL A   1      47.704  26.786  27.105  1.00  0.00     0.037 A 
ATOM     42  C   UNL A   1      42.138  29.587  29.013  1.00  0.00     0.049 A 
ATOM     43  C   UNL A   1      47.358  28.166  27.585  1.00  0.00     0.074 A 
ATOM     44  C   UNL A   1      41.952  30.868  29.500  1.00  0.00     0.029 A 
ATOM     45  N   UNL A   1      43.486  29.466  28.711  1.00  0.00    -0.354 N 
ATOM     46  N   UNL A   1      46.198  28.641  27.968  1.00  0.00    -0.248 NA
ATOM     47  C   UNL A   1      48.456  29.141  27.645  1.00  0.00     0.031 C 
ATOM     48  C   UNL A   1      43.181  31.536  29.458  1.00  0.00     0.029 A 
ATOM     49  C   UNL A   1      44.140  30.656  28.982  1.00  0.00     0.049 A 
ATOM     50  H   UNL A   1      43.915  28.654  28.356  1.00  0.00     0.167 HD
ATOM     51  C   UNL A   1      46.429  29.959  28.335  1.00  0.00     0.074 A 
ATOM     52  C   UNL A   1      47.843  30.205  28.145  1.00  0.00     0.031 C 
ATOM     53  C   UNL A   1      45.548  30.885  28.787  1.00  0.00     0.037 A 
BRANCH  40  54
ATOM     54  C   UNL A   1      39.724  28.861  29.126  1.00  0.00     0.057 A 
ATOM     55  C   UNL A   1      38.841  29.284  28.123  1.00  0.00     0.134 A 
ATOM     56  C   UNL A   1      39.207  28.705  30.417  1.00  0.00     0.134 A 
ATOM     57  F   UNL A   1      39.276  29.464  26.866  1.00  0.00    -0.206 F 
ATOM     58  C   UNL A   1      37.502  29.563  28.399  1.00  0.00     0.040 A 
ATOM     59  C   UNL A   1      37.863  28.957  30.702  1.00  0.00     0.040 A 
ATOM     60  F   UNL A   1      39.995  28.297  31.423  1.00  0.00    -0.206 F 
ATOM     61  C   UNL A   1      37.008  29.393  29.691  1.00  0.00     0.006 A 
ENDBRANCH  40  54
BRANCH  41  62
ATOM     62  C   UNL A   1      49.094  26.447  26.709  1.00  0.00     0.057 A 
ATOM     63  C   UNL A   1      49.542  26.661  25.401  1.00  0.00     0.134 A 
ATOM     64  C   UNL A   1      50.003  25.902  27.623  1.00  0.00     0.134 A 
ATOM     65  F   UNL A   1      48.711  27.163  24.476  1.00  0.00    -0.206 F 
ATOM     66  C   UNL A   1      50.840  26.327  25.009  1.00  0.00     0.040 A 
ATOM     67  C   UNL A   1      51.310  25.585  27.252  1.00  0.00     0.040 A 
ATOM     68  F   UNL A   1      49.636  25.682  28.895  1.00  0.00    -0.206 F 
ATOM     69  C   UNL A   1      51.730  25.791  25.939  1.00  0.00     0.006 A 
ENDBRANCH  41  62
BRANCH  53  70
ATOM     70  C   UNL A   1      46.095  32.239  29.128  1.00  0.00     0.057 A 
ATOM     71  C   UNL A   1      46.135  33.276  28.187  1.00  0.00     0.134 A 
ATOM     72  C   UNL A   1      46.564  32.516  30.417  1.00  0.00     0.134 A 
ATOM     73  F   UNL A   1      45.715  33.069  26.930  1.00  0.00    -0.206 F 
ATOM     74  C   UNL A   1      46.642  34.535  28.511  1.00  0.00     0.040 A 
ATOM     75  C   UNL A   1      47.050  33.778  30.761  1.00  0.00     0.040 A 
ATOM     76  F   UNL A   1      46.546  31.569  31.368  1.00  0.00    -0.206 F 
ATOM     77  C   UNL A   1      47.096  34.790  29.804  1.00  0.00     0.006 A 
ENDBRANCH  53  70
ENDBRANCH  27  28
ENDBRANCH  19  22
ENDBRANCH  17  18
ENDBRANCH  16  17
ENDBRANCH   1  16
TORSDOF 13
ENDMDL
