MODEL 1
REMARK VINA RESULT:     -11.9      0.000      0.000
REMARK SMILES CCCCc1ncc(C[N@H+]2C[C@@H]3c4ccccc4OC[C@]3(C(=O)NCCCNC(=O)c3ccc(-c4c5nc(c(-c6c(F)cccc6F)c6ccc([nH]6)c(-c6c(F)cccc6F)c6nc(c(-c7c(F)cccc7F)c7ccc4[nH]7)C=C6)C=C5)cc3)C2)[nH]1
REMARK SMILES IDX 22 1 23 2 24 3 21 5 10 6 11 7 85 8 12 10 13 11 20 12 14 13
REMARK SMILES IDX 18 14 19 15 15 16 17 17 16 18 9 19 8 20 5 21 6 22 86 23 7 24
REMARK SMILES IDX 4 26 3 27 2 28 1 29 25 30 26 31 27 32 28 33 29 34 30 36
REMARK SMILES IDX 31 37 32 38 84 39 33 40 83 41 34 42 35 43 36 44 77 45 37 46
REMARK SMILES IDX 82 47 76 48 78 49 38 50 81 51 75 52 74 53 39 55 65 56 48 57
REMARK SMILES IDX 64 58 49 59 52 60 63 61 79 62 50 63 51 64 62 66 80 67 53 68
REMARK SMILES IDX 40 69 41 70 46 71 42 72 43 73 45 74 47 75 44 76 66 77 67 78
REMARK SMILES IDX 72 79 68 80 69 81 71 82 73 83 70 84 54 85 55 86 60 87 56 88
REMARK SMILES IDX 57 89 59 90 61 91 58 92
REMARK H PARENT 24 4 10 9 86 25 28 35 78 54 52 65
REMARK Flexibility Score: inf
ROOT
ATOM      1  C   UNL A   1      35.021  22.934  26.305  1.00  0.00     0.236 C 
ATOM      2  O   UNL A   1      34.798  22.950  27.518  1.00  0.00    -0.274 OA
ATOM      3  N   UNL A   1      36.279  22.532  25.881  1.00  0.00    -0.355 N 
ATOM      4  H   UNL A   1      37.029  22.708  26.494  1.00  0.00     0.163 HD
ENDROOT
BRANCH   1   5
ATOM      5  C   UNL A   1      33.989  23.364  25.190  1.00  0.00     0.144 C 
ATOM      6  N   UNL A   1      32.637  21.542  24.407  1.00  0.00    -0.328 N 
ATOM      7  C   UNL A   1      31.826  22.711  24.131  1.00  0.00     0.272 C 
ATOM      8  C   UNL A   1      33.410  21.922  25.586  1.00  0.00     0.284 C 
ATOM      9  H   UNL A   1      33.243  21.314  23.619  1.00  0.00     0.348 HD
ATOM     10  C   UNL A   1      32.449  23.800  25.035  1.00  0.00     0.103 C 
ATOM     11  C   UNL A   1      32.080  25.163  24.497  1.00  0.00     0.004 A 
ATOM     12  C   UNL A   1      34.501  24.822  25.580  1.00  0.00     0.253 C 
ATOM     13  C   UNL A   1      30.744  25.535  24.278  1.00  0.00     0.008 A 
ATOM     14  C   UNL A   1      33.075  26.104  24.296  1.00  0.00     0.123 A 
ATOM     15  O   UNL A   1      34.378  25.766  24.494  1.00  0.00    -0.492 OA
ATOM     16  C   UNL A   1      30.426  26.830  23.867  1.00  0.00     0.001 A 
ATOM     17  C   UNL A   1      32.771  27.402  23.889  1.00  0.00     0.047 A 
ATOM     18  C   UNL A   1      31.441  27.769  23.684  1.00  0.00     0.004 A 
BRANCH   6  19
ATOM     19  C   UNL A   1      31.933  20.261  24.477  1.00  0.00     0.319 C 
BRANCH  19  20
ATOM     20  C   UNL A   1      32.616  19.164  23.752  1.00  0.00     0.090 A 
ATOM     21  C   UNL A   1      33.939  17.414  23.508  1.00  0.00     0.106 A 
ATOM     22  N   UNL A   1      33.109  17.359  22.487  1.00  0.00    -0.241 NA
ATOM     23  N   UNL A   1      33.798  18.604  24.173  1.00  0.00    -0.341 N 
ATOM     24  C   UNL A   1      32.285  18.445  22.625  1.00  0.00     0.140 A 
ATOM     25  H   UNL A   1      34.425  18.985  24.829  1.00  0.00     0.168 HD
BRANCH  21  26
ATOM     26  C   UNL A   1      34.837  16.334  24.002  1.00  0.00     0.075 C 
BRANCH  26  27
ATOM     27  C   UNL A   1      34.455  15.865  25.415  1.00  0.00     0.008 C 
BRANCH  27  28
ATOM     28  C   UNL A   1      32.966  15.970  25.769  1.00  0.00    -0.003 C 
ATOM     29  C   UNL A   1      32.214  14.657  25.635  1.00  0.00     0.004 C 
ENDBRANCH  27  28
ENDBRANCH  26  27
ENDBRANCH  21  26
ENDBRANCH  19  20
ENDBRANCH   6  19
ENDBRANCH   1   5
BRANCH   3  30
ATOM     30  C   UNL A   1      36.605  21.875  24.616  1.00  0.00     0.117 C 
BRANCH  30  31
ATOM     31  C   UNL A   1      37.495  20.656  24.737  1.00  0.00     0.042 C 
BRANCH  31  32
ATOM     32  C   UNL A   1      38.585  20.782  25.785  1.00  0.00     0.118 C 
BRANCH  32  33
ATOM     33  N   UNL A   1      39.622  19.758  25.689  1.00  0.00    -0.352 N 
ATOM     34  C   UNL A   1      40.967  19.785  25.980  1.00  0.00     0.251 C 
ATOM     35  H   UNL A   1      39.300  18.889  25.356  1.00  0.00     0.163 HD
ATOM     36  O   UNL A   1      41.667  18.816  25.694  1.00  0.00    -0.269 OA
BRANCH  34  37
ATOM     37  C   UNL A   1      41.589  20.986  26.577  1.00  0.00     0.039 A 
ATOM     38  C   UNL A   1      41.650  21.150  27.956  1.00  0.00     0.014 A 
ATOM     39  C   UNL A   1      42.104  21.984  25.743  1.00  0.00     0.014 A 
ATOM     40  C   UNL A   1      41.955  22.392  28.489  1.00  0.00     0.010 A 
ATOM     41  C   UNL A   1      42.556  23.189  26.293  1.00  0.00     0.010 A 
ATOM     42  C   UNL A   1      42.414  23.433  27.667  1.00  0.00    -0.014 A 
BRANCH  42  43
ATOM     43  C   UNL A   1      42.708  24.760  28.275  1.00  0.00     0.031 A 
ATOM     44  C   UNL A   1      44.124  25.171  28.586  1.00  0.00     0.074 A 
ATOM     45  C   UNL A   1      41.700  25.637  28.460  1.00  0.00     0.049 A 
ATOM     46  N   UNL A   1      44.565  26.292  29.102  1.00  0.00    -0.248 NA
ATOM     47  C   UNL A   1      45.185  24.196  28.289  1.00  0.00     0.031 C 
ATOM     48  C   UNL A   1      40.287  25.373  28.175  1.00  0.00     0.029 A 
ATOM     49  N   UNL A   1      41.711  26.940  28.887  1.00  0.00    -0.354 N 
ATOM     50  C   UNL A   1      45.943  26.144  29.219  1.00  0.00     0.074 A 
ATOM     51  C   UNL A   1      46.265  24.816  28.747  1.00  0.00     0.031 C 
ATOM     52  C   UNL A   1      39.583  26.499  28.352  1.00  0.00     0.029 A 
ATOM     53  C   UNL A   1      40.474  27.539  28.849  1.00  0.00     0.049 A 
ATOM     54  H   UNL A   1      42.525  27.402  29.191  1.00  0.00     0.167 HD
ATOM     55  C   UNL A   1      46.858  27.037  29.669  1.00  0.00     0.037 A 
ATOM     56  C   UNL A   1      40.094  28.782  29.194  1.00  0.00     0.037 A 
ATOM     57  C   UNL A   1      46.541  28.371  30.110  1.00  0.00     0.049 A 
ATOM     58  C   UNL A   1      41.120  29.731  29.738  1.00  0.00     0.074 A 
ATOM     59  C   UNL A   1      47.396  29.354  30.578  1.00  0.00     0.029 A 
ATOM     60  N   UNL A   1      45.264  28.912  30.131  1.00  0.00    -0.354 N 
ATOM     61  N   UNL A   1      42.414  29.566  29.865  1.00  0.00    -0.248 NA
ATOM     62  C   UNL A   1      40.627  31.031  30.208  1.00  0.00     0.031 C 
ATOM     63  C   UNL A   1      46.633  30.477  30.915  1.00  0.00     0.029 A 
ATOM     64  C   UNL A   1      45.306  30.208  30.620  1.00  0.00     0.049 A 
ATOM     65  H   UNL A   1      44.448  28.444  29.841  1.00  0.00     0.167 HD
ATOM     66  C   UNL A   1      42.893  30.743  30.421  1.00  0.00     0.074 A 
ATOM     67  C   UNL A   1      41.752  31.623  30.581  1.00  0.00     0.031 C 
ATOM     68  C   UNL A   1      44.159  31.065  30.776  1.00  0.00     0.037 A 
BRANCH  55  69
ATOM     69  C   UNL A   1      48.290  26.586  29.728  1.00  0.00     0.057 A 
ATOM     70  C   UNL A   1      49.166  26.857  28.669  1.00  0.00     0.134 A 
ATOM     71  C   UNL A   1      48.801  25.873  30.821  1.00  0.00     0.134 A 
ATOM     72  F   UNL A   1      48.742  27.530  27.589  1.00  0.00    -0.206 F 
ATOM     73  C   UNL A   1      50.498  26.438  28.695  1.00  0.00     0.040 A 
ATOM     74  C   UNL A   1      50.137  25.470  30.870  1.00  0.00     0.040 A 
ATOM     75  F   UNL A   1      48.019  25.594  31.875  1.00  0.00    -0.206 F 
ATOM     76  C   UNL A   1      50.989  25.749  29.803  1.00  0.00     0.006 A 
ENDBRANCH  55  69
BRANCH  56  77
ATOM     77  C   UNL A   1      38.673  29.191  29.061  1.00  0.00     0.057 A 
ATOM     78  C   UNL A   1      37.803  29.175  30.157  1.00  0.00     0.134 A 
ATOM     79  C   UNL A   1      38.156  29.615  27.832  1.00  0.00     0.134 A 
ATOM     80  F   UNL A   1      38.237  28.775  31.361  1.00  0.00    -0.206 F 
ATOM     81  C   UNL A   1      36.466  29.551  30.034  1.00  0.00     0.040 A 
ATOM     82  C   UNL A   1      36.827  30.021  27.700  1.00  0.00     0.040 A 
ATOM     83  F   UNL A   1      38.946  29.671  26.750  1.00  0.00    -0.206 F 
ATOM     84  C   UNL A   1      35.976  29.982  28.803  1.00  0.00     0.006 A 
ENDBRANCH  56  77
BRANCH  68  85
ATOM     85  C   UNL A   1      44.370  32.435  31.348  1.00  0.00     0.057 A 
ATOM     86  C   UNL A   1      44.307  32.647  32.730  1.00  0.00     0.134 A 
ATOM     87  C   UNL A   1      44.636  33.541  30.532  1.00  0.00     0.134 A 
ATOM     88  F   UNL A   1      44.052  31.630  33.566  1.00  0.00    -0.206 F 
ATOM     89  C   UNL A   1      44.507  33.914  33.282  1.00  0.00     0.040 A 
ATOM     90  C   UNL A   1      44.862  34.807  31.072  1.00  0.00     0.040 A 
ATOM     91  F   UNL A   1      44.727  33.397  29.200  1.00  0.00    -0.206 F 
ATOM     92  C   UNL A   1      44.794  34.996  32.452  1.00  0.00     0.006 A 
ENDBRANCH  68  85
ENDBRANCH  42  43
ENDBRANCH  34  37
ENDBRANCH  32  33
ENDBRANCH  31  32
ENDBRANCH  30  31
ENDBRANCH   3  30
TORSDOF 15
ENDMDL
MODEL 2
REMARK VINA RESULT:     -11.9      3.725      8.054
REMARK SMILES CCCCc1ncc(C[N@H+]2C[C@@H]3c4ccccc4OC[C@]3(C(=O)NCCCNC(=O)c3ccc(-c4c5nc(c(-c6c(F)cccc6F)c6ccc([nH]6)c(-c6c(F)cccc6F)c6nc(c(-c7c(F)cccc7F)c7ccc4[nH]7)C=C6)C=C5)cc3)C2)[nH]1
REMARK SMILES IDX 22 1 23 2 24 3 21 5 10 6 11 7 85 8 12 10 13 11 20 12 14 13
REMARK SMILES IDX 18 14 19 15 15 16 17 17 16 18 9 19 8 20 5 21 6 22 86 23 7 24
REMARK SMILES IDX 4 26 3 27 2 28 1 29 25 30 26 31 27 32 28 33 29 34 30 36
REMARK SMILES IDX 31 37 32 38 84 39 33 40 83 41 34 42 35 43 36 44 77 45 37 46
REMARK SMILES IDX 82 47 76 48 78 49 38 50 81 51 75 52 74 53 39 55 65 56 48 57
REMARK SMILES IDX 64 58 49 59 52 60 63 61 79 62 50 63 51 64 62 66 80 67 53 68
REMARK SMILES IDX 40 69 41 70 46 71 42 72 43 73 45 74 47 75 44 76 66 77 67 78
REMARK SMILES IDX 72 79 68 80 69 81 71 82 73 83 70 84 54 85 55 86 60 87 56 88
REMARK SMILES IDX 57 89 59 90 61 91 58 92
REMARK H PARENT 24 4 10 9 86 25 28 35 78 54 52 65
REMARK Flexibility Score: inf
ROOT
ATOM      1  C   UNL A   1      31.085  25.602  26.339  1.00  0.00     0.236 C 
ATOM      2  O   UNL A   1      30.286  24.748  26.732  1.00  0.00    -0.274 OA
ATOM      3  N   UNL A   1      30.985  26.879  26.872  1.00  0.00    -0.355 N 
ATOM      4  H   UNL A   1      30.089  27.170  27.157  1.00  0.00     0.163 HD
ENDROOT
BRANCH   1   5
ATOM      5  C   UNL A   1      32.203  25.362  25.249  1.00  0.00     0.144 C 
ATOM      6  N   UNL A   1      34.023  24.019  26.049  1.00  0.00    -0.328 N 
ATOM      7  C   UNL A   1      34.055  23.816  24.614  1.00  0.00     0.272 C 
ATOM      8  C   UNL A   1      32.613  24.259  26.338  1.00  0.00     0.284 C 
ATOM      9  H   UNL A   1      34.603  24.811  26.327  1.00  0.00     0.348 HD
ATOM     10  C   UNL A   1      32.648  24.269  24.158  1.00  0.00     0.103 C 
ATOM     11  C   UNL A   1      32.690  24.614  22.688  1.00  0.00     0.004 A 
ATOM     12  C   UNL A   1      31.128  26.064  24.303  1.00  0.00     0.253 C 
ATOM     13  C   UNL A   1      33.152  23.701  21.726  1.00  0.00     0.008 A 
ATOM     14  C   UNL A   1      32.178  25.828  22.262  1.00  0.00     0.123 A 
ATOM     15  O   UNL A   1      31.732  26.733  23.174  1.00  0.00    -0.492 OA
ATOM     16  C   UNL A   1      33.095  24.012  20.367  1.00  0.00     0.001 A 
ATOM     17  C   UNL A   1      32.113  26.149  20.907  1.00  0.00     0.047 A 
ATOM     18  C   UNL A   1      32.562  25.233  19.956  1.00  0.00     0.004 A 
BRANCH   6  19
ATOM     19  C   UNL A   1      34.690  23.005  26.866  1.00  0.00     0.319 C 
BRANCH  19  20
ATOM     20  C   UNL A   1      34.719  21.661  26.243  1.00  0.00     0.090 A 
ATOM     21  C   UNL A   1      33.880  19.795  25.414  1.00  0.00     0.106 A 
ATOM     22  N   UNL A   1      35.084  19.889  24.889  1.00  0.00    -0.241 NA
ATOM     23  N   UNL A   1      33.711  20.739  26.393  1.00  0.00    -0.341 N 
ATOM     24  C   UNL A   1      35.618  21.043  25.402  1.00  0.00     0.140 A 
ATOM     25  H   UNL A   1      33.001  20.755  27.075  1.00  0.00     0.168 HD
BRANCH  21  26
ATOM     26  C   UNL A   1      32.772  18.902  24.977  1.00  0.00     0.075 C 
BRANCH  26  27
ATOM     27  C   UNL A   1      32.509  19.006  23.466  1.00  0.00     0.008 C 
BRANCH  27  28
ATOM     28  C   UNL A   1      32.753  17.725  22.658  1.00  0.00    -0.003 C 
ATOM     29  C   UNL A   1      33.966  16.935  23.121  1.00  0.00     0.004 C 
ENDBRANCH  27  28
ENDBRANCH  26  27
ENDBRANCH  21  26
ENDBRANCH  19  20
ENDBRANCH   6  19
ENDBRANCH   1   5
BRANCH   3  30
ATOM     30  C   UNL A   1      32.075  27.837  27.052  1.00  0.00     0.117 C 
BRANCH  30  31
ATOM     31  C   UNL A   1      31.646  29.285  27.161  1.00  0.00     0.042 C 
BRANCH  31  32
ATOM     32  C   UNL A   1      32.480  30.245  26.334  1.00  0.00     0.118 C 
BRANCH  32  33
ATOM     33  N   UNL A   1      32.392  31.636  26.770  1.00  0.00    -0.352 N 
ATOM     34  C   UNL A   1      33.259  32.428  27.489  1.00  0.00     0.251 C 
ATOM     35  H   UNL A   1      31.561  32.090  26.502  1.00  0.00     0.163 HD
ATOM     36  O   UNL A   1      32.900  33.549  27.844  1.00  0.00    -0.269 OA
BRANCH  34  37
ATOM     37  C   UNL A   1      34.590  31.925  27.889  1.00  0.00     0.039 A 
ATOM     38  C   UNL A   1      34.792  30.578  28.164  1.00  0.00     0.014 A 
ATOM     39  C   UNL A   1      35.658  32.821  28.014  1.00  0.00     0.014 A 
ATOM     40  C   UNL A   1      35.946  30.175  28.818  1.00  0.00     0.010 A 
ATOM     41  C   UNL A   1      36.879  32.382  28.536  1.00  0.00     0.010 A 
ATOM     42  C   UNL A   1      37.010  31.069  29.015  1.00  0.00    -0.014 A 
BRANCH  42  43
ATOM     43  C   UNL A   1      38.222  30.604  29.743  1.00  0.00     0.031 A 
ATOM     44  C   UNL A   1      38.445  30.970  31.187  1.00  0.00     0.074 A 
ATOM     45  C   UNL A   1      39.080  29.766  29.125  1.00  0.00     0.049 A 
ATOM     46  N   UNL A   1      39.434  30.642  31.981  1.00  0.00    -0.248 NA
ATOM     47  C   UNL A   1      37.430  31.824  31.826  1.00  0.00     0.031 C 
ATOM     48  C   UNL A   1      38.966  29.314  27.736  1.00  0.00     0.029 A 
ATOM     49  N   UNL A   1      40.190  29.112  29.593  1.00  0.00    -0.354 N 
ATOM     50  C   UNL A   1      39.179  31.271  33.194  1.00  0.00     0.074 A 
ATOM     51  C   UNL A   1      37.955  32.024  33.027  1.00  0.00     0.031 C 
ATOM     52  C   UNL A   1      39.910  28.394  27.492  1.00  0.00     0.029 A 
ATOM     53  C   UNL A   1      40.751  28.259  28.673  1.00  0.00     0.049 A 
ATOM     54  H   UNL A   1      40.551  29.241  30.500  1.00  0.00     0.167 HD
ATOM     55  C   UNL A   1      39.891  31.218  34.346  1.00  0.00     0.037 A 
ATOM     56  C   UNL A   1      41.835  27.467  28.762  1.00  0.00     0.037 A 
ATOM     57  C   UNL A   1      41.093  30.443  34.521  1.00  0.00     0.049 A 
ATOM     58  C   UNL A   1      42.634  27.470  30.031  1.00  0.00     0.074 A 
ATOM     59  C   UNL A   1      41.885  30.318  35.650  1.00  0.00     0.029 A 
ATOM     60  N   UNL A   1      41.672  29.654  33.539  1.00  0.00    -0.354 N 
ATOM     61  N   UNL A   1      42.392  28.091  31.160  1.00  0.00    -0.248 NA
ATOM     62  C   UNL A   1      43.871  26.679  30.029  1.00  0.00     0.031 C 
ATOM     63  C   UNL A   1      42.963  29.481  35.340  1.00  0.00     0.029 A 
ATOM     64  C   UNL A   1      42.821  29.053  34.029  1.00  0.00     0.049 A 
ATOM     65  H   UNL A   1      41.320  29.538  32.627  1.00  0.00     0.167 HD
ATOM     66  C   UNL A   1      43.440  27.759  32.006  1.00  0.00     0.074 A 
ATOM     67  C   UNL A   1      44.305  26.861  31.268  1.00  0.00     0.031 C 
ATOM     68  C   UNL A   1      43.671  28.167  33.277  1.00  0.00     0.037 A 
BRANCH  55  69
ATOM     69  C   UNL A   1      39.399  32.044  35.500  1.00  0.00     0.057 A 
ATOM     70  C   UNL A   1      38.460  31.522  36.400  1.00  0.00     0.134 A 
ATOM     71  C   UNL A   1      39.838  33.357  35.716  1.00  0.00     0.134 A 
ATOM     72  F   UNL A   1      37.992  30.274  36.249  1.00  0.00    -0.206 F 
ATOM     73  C   UNL A   1      37.978  32.274  37.473  1.00  0.00     0.040 A 
ATOM     74  C   UNL A   1      39.382  34.110  36.800  1.00  0.00     0.040 A 
ATOM     75  F   UNL A   1      40.748  33.911  34.901  1.00  0.00    -0.206 F 
ATOM     76  C   UNL A   1      38.446  33.570  37.680  1.00  0.00     0.006 A 
ENDBRANCH  55  69
BRANCH  56  77
ATOM     77  C   UNL A   1      42.243  26.629  27.607  1.00  0.00     0.057 A 
ATOM     78  C   UNL A   1      41.796  25.310  27.468  1.00  0.00     0.134 A 
ATOM     79  C   UNL A   1      43.087  27.133  26.611  1.00  0.00     0.134 A 
ATOM     80  F   UNL A   1      40.988  24.767  28.391  1.00  0.00    -0.206 F 
ATOM     81  C   UNL A   1      42.183  24.516  26.389  1.00  0.00     0.040 A 
ATOM     82  C   UNL A   1      43.460  26.360  25.511  1.00  0.00     0.040 A 
ATOM     83  F   UNL A   1      43.532  28.396  26.679  1.00  0.00    -0.206 F 
ATOM     84  C   UNL A   1      43.013  25.044  25.402  1.00  0.00     0.006 A 
ENDBRANCH  56  77
BRANCH  68  85
ATOM     85  C   UNL A   1      44.896  27.621  33.946  1.00  0.00     0.057 A 
ATOM     86  C   UNL A   1      46.119  28.297  33.854  1.00  0.00     0.134 A 
ATOM     87  C   UNL A   1      44.866  26.430  34.681  1.00  0.00     0.134 A 
ATOM     88  F   UNL A   1      46.216  29.441  33.161  1.00  0.00    -0.206 F 
ATOM     89  C   UNL A   1      47.270  27.808  34.475  1.00  0.00     0.040 A 
ATOM     90  C   UNL A   1      46.003  25.944  35.327  1.00  0.00     0.040 A 
ATOM     91  F   UNL A   1      43.719  25.747  34.821  1.00  0.00    -0.206 F 
ATOM     92  C   UNL A   1      47.210  26.632  35.222  1.00  0.00     0.006 A 
ENDBRANCH  68  85
ENDBRANCH  42  43
ENDBRANCH  34  37
ENDBRANCH  32  33
ENDBRANCH  31  32
ENDBRANCH  30  31
ENDBRANCH   3  30
TORSDOF 15
ENDMDL
MODEL 3
REMARK VINA RESULT:     -11.9      4.178      9.252
REMARK SMILES CCCCc1ncc(C[N@H+]2C[C@@H]3c4ccccc4OC[C@]3(C(=O)NCCCNC(=O)c3ccc(-c4c5nc(c(-c6c(F)cccc6F)c6ccc([nH]6)c(-c6c(F)cccc6F)c6nc(c(-c7c(F)cccc7F)c7ccc4[nH]7)C=C6)C=C5)cc3)C2)[nH]1
REMARK SMILES IDX 22 1 23 2 24 3 21 5 10 6 11 7 85 8 12 10 13 11 20 12 14 13
REMARK SMILES IDX 18 14 19 15 15 16 17 17 16 18 9 19 8 20 5 21 6 22 86 23 7 24
REMARK SMILES IDX 4 26 3 27 2 28 1 29 25 30 26 31 27 32 28 33 29 34 30 36
REMARK SMILES IDX 31 37 32 38 84 39 33 40 83 41 34 42 35 43 36 44 77 45 37 46
REMARK SMILES IDX 82 47 76 48 78 49 38 50 81 51 75 52 74 53 39 55 65 56 48 57
REMARK SMILES IDX 64 58 49 59 52 60 63 61 79 62 50 63 51 64 62 66 80 67 53 68
REMARK SMILES IDX 40 69 41 70 46 71 42 72 43 73 45 74 47 75 44 76 66 77 67 78
REMARK SMILES IDX 72 79 68 80 69 81 71 82 73 83 70 84 54 85 55 86 60 87 56 88
REMARK SMILES IDX 57 89 59 90 61 91 58 92
REMARK H PARENT 24 4 10 9 86 25 28 35 78 54 52 65
REMARK Flexibility Score: inf
ROOT
ATOM      1  C   UNL A   1      33.113  26.540  22.424  1.00  0.00     0.236 C 
ATOM      2  O   UNL A   1      33.232  25.908  21.371  1.00  0.00    -0.274 OA
ATOM      3  N   UNL A   1      33.415  27.894  22.407  1.00  0.00    -0.355 N 
ATOM      4  H   UNL A   1      34.094  28.186  21.758  1.00  0.00     0.163 HD
ENDROOT
BRANCH   1   5
ATOM      5  C   UNL A   1      32.667  25.919  23.806  1.00  0.00     0.144 C 
ATOM      6  N   UNL A   1      30.309  26.114  24.207  1.00  0.00    -0.328 N 
ATOM      7  C   UNL A   1      30.698  24.975  25.013  1.00  0.00     0.272 C 
ATOM      8  C   UNL A   1      31.244  26.087  23.087  1.00  0.00     0.284 C 
ATOM      9  H   UNL A   1      30.380  26.985  24.734  1.00  0.00     0.348 HD
ATOM     10  C   UNL A   1      32.060  24.558  24.410  1.00  0.00     0.103 C 
ATOM     11  C   UNL A   1      32.830  23.752  25.430  1.00  0.00     0.004 A 
ATOM     12  C   UNL A   1      34.177  25.409  23.821  1.00  0.00     0.253 C 
ATOM     13  C   UNL A   1      32.286  22.605  26.030  1.00  0.00     0.008 A 
ATOM     14  C   UNL A   1      34.139  24.099  25.719  1.00  0.00     0.123 A 
ATOM     15  O   UNL A   1      34.686  25.210  25.157  1.00  0.00    -0.492 OA
ATOM     16  C   UNL A   1      33.052  21.828  26.900  1.00  0.00     0.001 A 
ATOM     17  C   UNL A   1      34.915  23.329  26.584  1.00  0.00     0.047 A 
ATOM     18  C   UNL A   1      34.373  22.184  27.167  1.00  0.00     0.004 A 
BRANCH   6  19
ATOM     19  C   UNL A   1      28.890  26.218  23.867  1.00  0.00     0.319 C 
BRANCH  19  20
ATOM     20  C   UNL A   1      28.459  27.592  23.518  1.00  0.00     0.090 A 
ATOM     21  C   UNL A   1      28.561  29.549  22.502  1.00  0.00     0.106 A 
ATOM     22  N   UNL A   1      27.299  29.415  22.856  1.00  0.00    -0.241 NA
ATOM     23  N   UNL A   1      29.323  28.561  23.069  1.00  0.00    -0.341 N 
ATOM     24  C   UNL A   1      27.225  28.203  23.493  1.00  0.00     0.140 A 
ATOM     25  H   UNL A   1      30.305  28.548  23.140  1.00  0.00     0.168 HD
BRANCH  21  26
ATOM     26  C   UNL A   1      29.128  30.531  21.537  1.00  0.00     0.075 C 
BRANCH  26  27
ATOM     27  C   UNL A   1      28.045  31.439  20.933  1.00  0.00     0.008 C 
BRANCH  27  28
ATOM     28  C   UNL A   1      28.029  32.885  21.445  1.00  0.00    -0.003 C 
ATOM     29  C   UNL A   1      28.778  33.077  22.752  1.00  0.00     0.004 C 
ENDBRANCH  27  28
ENDBRANCH  26  27
ENDBRANCH  21  26
ENDBRANCH  19  20
ENDBRANCH   6  19
ENDBRANCH   1   5
BRANCH   3  30
ATOM     30  C   UNL A   1      32.828  28.930  23.255  1.00  0.00     0.117 C 
BRANCH  30  31
ATOM     31  C   UNL A   1      33.607  29.248  24.513  1.00  0.00     0.042 C 
BRANCH  31  32
ATOM     32  C   UNL A   1      32.776  29.230  25.782  1.00  0.00     0.118 C 
BRANCH  32  33
ATOM     33  N   UNL A   1      32.492  30.557  26.325  1.00  0.00    -0.352 N 
ATOM     34  C   UNL A   1      33.208  31.372  27.173  1.00  0.00     0.251 C 
ATOM     35  H   UNL A   1      31.634  30.937  26.031  1.00  0.00     0.163 HD
ATOM     36  O   UNL A   1      32.695  32.408  27.590  1.00  0.00    -0.269 OA
BRANCH  34  37
ATOM     37  C   UNL A   1      34.560  30.988  27.632  1.00  0.00     0.039 A 
ATOM     38  C   UNL A   1      34.856  29.670  27.958  1.00  0.00     0.014 A 
ATOM     39  C   UNL A   1      35.550  31.968  27.762  1.00  0.00     0.014 A 
ATOM     40  C   UNL A   1      36.015  29.379  28.662  1.00  0.00     0.010 A 
ATOM     41  C   UNL A   1      36.783  31.643  28.337  1.00  0.00     0.010 A 
ATOM     42  C   UNL A   1      36.998  30.360  28.863  1.00  0.00    -0.014 A 
BRANCH  42  43
ATOM     43  C   UNL A   1      38.217  30.013  29.645  1.00  0.00     0.031 A 
ATOM     44  C   UNL A   1      38.386  30.491  31.064  1.00  0.00     0.074 A 
ATOM     45  C   UNL A   1      39.132  29.183  29.104  1.00  0.00     0.049 A 
ATOM     46  N   UNL A   1      39.374  30.274  31.897  1.00  0.00    -0.248 NA
ATOM     47  C   UNL A   1      37.314  31.331  31.621  1.00  0.00     0.031 C 
ATOM     48  C   UNL A   1      39.074  28.630  27.749  1.00  0.00     0.029 A 
ATOM     49  N   UNL A   1      40.265  28.626  29.638  1.00  0.00    -0.354 N 
ATOM     50  C   UNL A   1      39.058  30.971  33.058  1.00  0.00     0.074 A 
ATOM     51  C   UNL A   1      37.799  31.642  32.815  1.00  0.00     0.031 C 
ATOM     52  C   UNL A   1      40.070  27.748  27.588  1.00  0.00     0.029 A 
ATOM     53  C   UNL A   1      40.891  27.742  28.792  1.00  0.00     0.049 A 
ATOM     54  H   UNL A   1      40.597  28.837  30.540  1.00  0.00     0.167 HD
ATOM     55  C   UNL A   1      39.746  31.037  34.224  1.00  0.00     0.037 A 
ATOM     56  C   UNL A   1      42.014  27.020  28.957  1.00  0.00     0.037 A 
ATOM     57  C   UNL A   1      40.982  30.344  34.476  1.00  0.00     0.049 A 
ATOM     58  C   UNL A   1      42.782  27.155  30.237  1.00  0.00     0.074 A 
ATOM     59  C   UNL A   1      41.754  30.342  35.625  1.00  0.00     0.029 A 
ATOM     60  N   UNL A   1      41.626  29.521  33.563  1.00  0.00    -0.354 N 
ATOM     61  N   UNL A   1      42.481  27.838  31.315  1.00  0.00    -0.248 NA
ATOM     62  C   UNL A   1      44.060  26.435  30.315  1.00  0.00     0.031 C 
ATOM     63  C   UNL A   1      42.883  29.546  35.396  1.00  0.00     0.029 A 
ATOM     64  C   UNL A   1      42.794  29.021  34.116  1.00  0.00     0.049 A 
ATOM     65  H   UNL A   1      41.301  29.323  32.656  1.00  0.00     0.167 HD
ATOM     66  C   UNL A   1      43.526  27.625  32.202  1.00  0.00     0.074 A 
ATOM     67  C   UNL A   1      44.455  26.726  31.546  1.00  0.00     0.031 C 
ATOM     68  C   UNL A   1      43.706  28.132  33.445  1.00  0.00     0.037 A 
BRANCH  55  69
ATOM     69  C   UNL A   1      39.183  31.914  35.307  1.00  0.00     0.057 A 
ATOM     70  C   UNL A   1      38.331  31.381  36.283  1.00  0.00     0.134 A 
ATOM     71  C   UNL A   1      39.470  33.283  35.380  1.00  0.00     0.134 A 
ATOM     72  F   UNL A   1      38.009  30.079  36.269  1.00  0.00    -0.206 F 
ATOM     73  C   UNL A   1      37.786  32.177  37.293  1.00  0.00     0.040 A 
ATOM     74  C   UNL A   1      38.952  34.085  36.400  1.00  0.00     0.040 A 
ATOM     75  F   UNL A   1      40.293  33.853  34.487  1.00  0.00    -0.206 F 
ATOM     76  C   UNL A   1      38.104  33.533  37.357  1.00  0.00     0.006 A 
ENDBRANCH  55  69
BRANCH  56  77
ATOM     77  C   UNL A   1      42.492  26.127  27.873  1.00  0.00     0.057 A 
ATOM     78  C   UNL A   1      43.362  26.587  26.877  1.00  0.00     0.134 A 
ATOM     79  C   UNL A   1      42.094  24.787  27.812  1.00  0.00     0.134 A 
ATOM     80  F   UNL A   1      43.778  27.863  26.877  1.00  0.00    -0.206 F 
ATOM     81  C   UNL A   1      43.807  25.753  25.852  1.00  0.00     0.040 A 
ATOM     82  C   UNL A   1      42.553  23.933  26.809  1.00  0.00     0.040 A 
ATOM     83  F   UNL A   1      41.278  24.282  28.749  1.00  0.00    -0.206 F 
ATOM     84  C   UNL A   1      43.408  24.419  25.820  1.00  0.00     0.006 A 
ENDBRANCH  56  77
BRANCH  68  85
ATOM     85  C   UNL A   1      44.944  27.703  34.174  1.00  0.00     0.057 A 
ATOM     86  C   UNL A   1      46.124  28.451  34.078  1.00  0.00     0.134 A 
ATOM     87  C   UNL A   1      44.967  26.552  34.970  1.00  0.00     0.134 A 
ATOM     88  F   UNL A   1      46.167  29.562  33.328  1.00  0.00    -0.206 F 
ATOM     89  C   UNL A   1      47.284  28.071  34.754  1.00  0.00     0.040 A 
ATOM     90  C   UNL A   1      46.113  26.174  35.671  1.00  0.00     0.040 A 
ATOM     91  F   UNL A   1      43.863  25.803  35.118  1.00  0.00    -0.206 F 
ATOM     92  C   UNL A   1      47.277  26.934  35.561  1.00  0.00     0.006 A 
ENDBRANCH  68  85
ENDBRANCH  42  43
ENDBRANCH  34  37
ENDBRANCH  32  33
ENDBRANCH  31  32
ENDBRANCH  30  31
ENDBRANCH   3  30
TORSDOF 15
ENDMDL
