MODEL 1
REMARK VINA RESULT:     -12.4      0.000      0.000
REMARK SMILES O=C(NCCCNC(=O)c1occc1Cn1ccc2ccc([N+](=O)[O-])cc21)c1ccc(-c2c3nc(c(-c4c(F)cccc4F)c4ccc([nH]4)c(-c4c(F)cccc4F)c4nc(c(-c5c(F)cccc5F)c5ccc2[nH]5)C=C4)C=C3)cc1
REMARK SMILES IDX 5 1 4 2 3 3 1 4 2 5 28 7 29 8 81 9 30 10 80 11 31 12 32 13
REMARK SMILES IDX 33 14 74 15 34 16 79 17 73 18 75 19 35 20 78 21 72 22 71 23
REMARK SMILES IDX 36 25 62 26 45 27 61 28 46 29 49 30 60 31 76 32 47 33 48 34
REMARK SMILES IDX 59 36 77 37 50 38 37 39 38 40 43 41 39 42 40 43 42 44 44 45
REMARK SMILES IDX 41 46 63 47 64 48 69 49 65 50 66 51 68 52 70 53 67 54 51 55
REMARK SMILES IDX 52 56 57 57 53 58 54 59 56 60 58 61 55 62 6 63 7 64 8 65
REMARK SMILES IDX 9 67 10 68 11 69 14 70 12 71 13 72 15 73 16 74 17 75 27 76
REMARK SMILES IDX 18 77 19 78 26 79 20 80 22 81 21 82 23 83 24 84 25 85
REMARK H PARENT 3 6 75 24 49 35 7 66
REMARK Flexibility Score: inf
ROOT
ATOM      1  C   UNL A   1      39.316  21.665  25.668  1.00  0.00     0.042 C 
ENDROOT
BRANCH   1   2
ATOM      2  C   UNL A   1      39.701  20.534  26.583  1.00  0.00     0.118 C 
BRANCH   2   3
ATOM      3  N   UNL A   1      40.682  19.573  26.055  1.00  0.00    -0.352 N 
ATOM      4  O   UNL A   1      42.713  19.077  25.109  1.00  0.00    -0.269 OA
ATOM      5  C   UNL A   1      42.030  19.832  25.758  1.00  0.00     0.251 C 
ATOM      6  H   UNL A   1      40.363  18.656  25.894  1.00  0.00     0.163 HD
BRANCH   5   7
ATOM      7  C   UNL A   1      42.586  21.078  26.331  1.00  0.00     0.039 A 
ATOM      8  C   UNL A   1      42.839  22.238  25.598  1.00  0.00     0.014 A 
ATOM      9  C   UNL A   1      42.567  21.099  27.708  1.00  0.00     0.014 A 
ATOM     10  C   UNL A   1      42.953  23.435  26.307  1.00  0.00     0.010 A 
ATOM     11  C   UNL A   1      42.196  22.276  28.268  1.00  0.00     0.010 A 
ATOM     12  C   UNL A   1      42.585  23.447  27.663  1.00  0.00    -0.014 A 
BRANCH  12  13
ATOM     13  C   UNL A   1      42.549  24.627  28.515  1.00  0.00     0.031 A 
ATOM     14  C   UNL A   1      41.370  25.497  28.315  1.00  0.00     0.074 A 
ATOM     15  C   UNL A   1      43.448  24.851  29.506  1.00  0.00     0.049 A 
ATOM     16  N   UNL A   1      41.336  26.599  27.648  1.00  0.00    -0.248 NA
ATOM     17  C   UNL A   1      40.050  25.010  28.735  1.00  0.00     0.031 C 
ATOM     18  C   UNL A   1      44.523  23.991  30.038  1.00  0.00     0.029 A 
ATOM     19  N   UNL A   1      43.546  25.942  30.312  1.00  0.00    -0.354 N 
ATOM     20  C   UNL A   1      40.037  27.074  27.760  1.00  0.00     0.074 A 
ATOM     21  C   UNL A   1      39.254  25.972  28.256  1.00  0.00     0.031 C 
ATOM     22  C   UNL A   1      44.982  24.479  31.208  1.00  0.00     0.029 A 
ATOM     23  C   UNL A   1      44.405  25.790  31.396  1.00  0.00     0.049 A 
ATOM     24  H   UNL A   1      43.047  26.774  30.141  1.00  0.00     0.167 HD
ATOM     25  C   UNL A   1      39.785  28.409  27.677  1.00  0.00     0.037 A 
ATOM     26  C   UNL A   1      44.645  26.699  32.370  1.00  0.00     0.037 A 
ATOM     27  C   UNL A   1      40.923  29.115  27.130  1.00  0.00     0.049 A 
ATOM     28  C   UNL A   1      44.263  28.025  31.816  1.00  0.00     0.074 A 
ATOM     29  C   UNL A   1      41.623  29.049  25.940  1.00  0.00     0.029 A 
ATOM     30  N   UNL A   1      41.760  29.756  28.013  1.00  0.00    -0.354 N 
ATOM     31  N   UNL A   1      44.906  28.597  30.833  1.00  0.00    -0.248 NA
ATOM     32  C   UNL A   1      42.879  28.442  31.985  1.00  0.00     0.031 C 
ATOM     33  C   UNL A   1      42.995  29.180  26.313  1.00  0.00     0.029 A 
ATOM     34  C   UNL A   1      43.048  29.405  27.690  1.00  0.00     0.049 A 
ATOM     35  H   UNL A   1      41.487  30.356  28.744  1.00  0.00     0.167 HD
ATOM     36  C   UNL A   1      43.913  29.110  30.007  1.00  0.00     0.074 A 
ATOM     37  C   UNL A   1      42.686  29.035  30.802  1.00  0.00     0.031 C 
ATOM     38  C   UNL A   1      44.110  29.264  28.663  1.00  0.00     0.037 A 
BRANCH  25  39
ATOM     39  C   UNL A   1      38.706  29.124  28.452  1.00  0.00     0.057 A 
ATOM     40  C   UNL A   1      37.569  29.719  27.872  1.00  0.00     0.134 A 
ATOM     41  C   UNL A   1      38.636  28.932  29.845  1.00  0.00     0.134 A 
ATOM     42  F   UNL A   1      37.455  29.931  26.556  1.00  0.00    -0.206 F 
ATOM     43  C   UNL A   1      36.425  30.040  28.606  1.00  0.00     0.040 A 
ATOM     44  C   UNL A   1      37.477  29.204  30.580  1.00  0.00     0.040 A 
ATOM     45  F   UNL A   1      39.661  28.387  30.517  1.00  0.00    -0.206 F 
ATOM     46  C   UNL A   1      36.360  29.744  29.958  1.00  0.00     0.006 A 
ENDBRANCH  25  39
BRANCH  26  47
ATOM     47  C   UNL A   1      44.841  26.430  33.812  1.00  0.00     0.057 A 
ATOM     48  C   UNL A   1      46.131  26.317  34.364  1.00  0.00     0.134 A 
ATOM     49  C   UNL A   1      43.783  26.017  34.632  1.00  0.00     0.134 A 
ATOM     50  F   UNL A   1      47.221  26.612  33.642  1.00  0.00    -0.206 F 
ATOM     51  C   UNL A   1      46.357  25.810  35.648  1.00  0.00     0.040 A 
ATOM     52  C   UNL A   1      43.997  25.504  35.919  1.00  0.00     0.040 A 
ATOM     53  F   UNL A   1      42.522  26.046  34.178  1.00  0.00    -0.206 F 
ATOM     54  C   UNL A   1      45.287  25.389  36.427  1.00  0.00     0.006 A 
ENDBRANCH  26  47
BRANCH  38  55
ATOM     55  C   UNL A   1      45.503  29.050  28.123  1.00  0.00     0.057 A 
ATOM     56  C   UNL A   1      46.339  30.157  27.952  1.00  0.00     0.134 A 
ATOM     57  C   UNL A   1      45.982  27.823  27.638  1.00  0.00     0.134 A 
ATOM     58  F   UNL A   1      45.931  31.377  28.332  1.00  0.00    -0.206 F 
ATOM     59  C   UNL A   1      47.595  30.049  27.345  1.00  0.00     0.040 A 
ATOM     60  C   UNL A   1      47.248  27.694  27.055  1.00  0.00     0.040 A 
ATOM     61  F   UNL A   1      45.220  26.724  27.660  1.00  0.00    -0.206 F 
ATOM     62  C   UNL A   1      48.059  28.813  26.905  1.00  0.00     0.006 A 
ENDBRANCH  38  55
ENDBRANCH  12  13
ENDBRANCH   5   7
ENDBRANCH   2   3
ENDBRANCH   1   2
BRANCH   1  63
ATOM     63  C   UNL A   1      37.815  21.763  25.480  1.00  0.00     0.118 C 
BRANCH  63  64
ATOM     64  N   UNL A   1      37.344  22.116  24.145  1.00  0.00    -0.349 N 
ATOM     65  C   UNL A   1      36.226  22.839  23.775  1.00  0.00     0.287 C 
ATOM     66  H   UNL A   1      37.903  21.793  23.402  1.00  0.00     0.163 HD
ATOM     67  O   UNL A   1      36.014  22.979  22.570  1.00  0.00    -0.266 OA
BRANCH  65  68
ATOM     68  C   UNL A   1      35.355  23.355  24.809  1.00  0.00     0.196 A 
ATOM     69  O   UNL A   1      35.303  24.716  24.937  1.00  0.00    -0.459 OA
ATOM     70  C   UNL A   1      34.465  22.755  25.702  1.00  0.00     0.023 A 
ATOM     71  C   UNL A   1      34.317  25.004  25.814  1.00  0.00     0.196 A 
ATOM     72  C   UNL A   1      33.755  23.847  26.290  1.00  0.00     0.048 A 
BRANCH  70  73
ATOM     73  C   UNL A   1      34.203  21.282  25.839  1.00  0.00     0.162 C 
BRANCH  73  74
ATOM     74  N   UNL A   1      33.561  20.634  24.705  1.00  0.00    -0.343 N 
ATOM     75  C   UNL A   1      32.728  21.286  23.827  1.00  0.00     0.087 A 
ATOM     76  C   UNL A   1      33.521  19.279  24.471  1.00  0.00     0.055 A 
ATOM     77  C   UNL A   1      32.228  20.354  22.949  1.00  0.00     0.028 A 
ATOM     78  C   UNL A   1      32.758  19.089  23.316  1.00  0.00     0.000 A 
ATOM     79  C   UNL A   1      34.105  18.213  25.164  1.00  0.00     0.112 A 
ATOM     80  C   UNL A   1      32.639  17.788  22.787  1.00  0.00     0.017 A 
ATOM     81  C   UNL A   1      34.043  16.947  24.574  1.00  0.00     0.271 A 
ATOM     82  C   UNL A   1      33.316  16.727  23.402  1.00  0.00     0.086 A 
BRANCH  81  83
ATOM     83  N   UNL A   1      34.802  15.851  25.189  1.00  0.00     0.062 N 
ATOM     84  O   UNL A   1      34.233  14.754  25.307  1.00  0.00    -0.258 OA
ATOM     85  O   UNL A   1      35.955  16.088  25.571  1.00  0.00    -0.258 OA
ENDBRANCH  81  83
ENDBRANCH  73  74
ENDBRANCH  70  73
ENDBRANCH  65  68
ENDBRANCH  63  64
ENDBRANCH   1  63
TORSDOF 13
ENDMDL
MODEL 2
REMARK VINA RESULT:     -12.2      2.585      7.131
REMARK SMILES O=C(NCCCNC(=O)c1occc1Cn1ccc2ccc([N+](=O)[O-])cc21)c1ccc(-c2c3nc(c(-c4c(F)cccc4F)c4ccc([nH]4)c(-c4c(F)cccc4F)c4nc(c(-c5c(F)cccc5F)c5ccc2[nH]5)C=C4)C=C3)cc1
REMARK SMILES IDX 5 1 4 2 3 3 1 4 2 5 28 7 29 8 81 9 30 10 80 11 31 12 32 13
REMARK SMILES IDX 33 14 74 15 34 16 79 17 73 18 75 19 35 20 78 21 72 22 71 23
REMARK SMILES IDX 36 25 62 26 45 27 61 28 46 29 49 30 60 31 76 32 47 33 48 34
REMARK SMILES IDX 59 36 77 37 50 38 37 39 38 40 43 41 39 42 40 43 42 44 44 45
REMARK SMILES IDX 41 46 63 47 64 48 69 49 65 50 66 51 68 52 70 53 67 54 51 55
REMARK SMILES IDX 52 56 57 57 53 58 54 59 56 60 58 61 55 62 6 63 7 64 8 65
REMARK SMILES IDX 9 67 10 68 11 69 14 70 12 71 13 72 15 73 16 74 17 75 27 76
REMARK SMILES IDX 18 77 19 78 26 79 20 80 22 81 21 82 23 83 24 84 25 85
REMARK H PARENT 3 6 75 24 49 35 7 66
REMARK Flexibility Score: inf
ROOT
ATOM      1  C   UNL A   1      33.925  29.431  27.236  1.00  0.00     0.042 C 
ENDROOT
BRANCH   1   2
ATOM      2  C   UNL A   1      35.360  29.596  27.657  1.00  0.00     0.118 C 
BRANCH   2   3
ATOM      3  N   UNL A   1      35.597  29.811  29.094  1.00  0.00    -0.352 N 
ATOM      4  O   UNL A   1      36.694  29.335  31.051  1.00  0.00    -0.269 OA
ATOM      5  C   UNL A   1      36.681  29.328  29.844  1.00  0.00     0.251 C 
ATOM      6  H   UNL A   1      34.930  30.348  29.577  1.00  0.00     0.163 HD
BRANCH   5   7
ATOM      7  C   UNL A   1      37.840  28.845  29.062  1.00  0.00     0.039 A 
ATOM      8  C   UNL A   1      38.388  29.517  27.969  1.00  0.00     0.014 A 
ATOM      9  C   UNL A   1      38.521  27.818  29.676  1.00  0.00     0.014 A 
ATOM     10  C   UNL A   1      39.695  29.189  27.600  1.00  0.00     0.010 A 
ATOM     11  C   UNL A   1      39.873  27.893  29.613  1.00  0.00     0.010 A 
ATOM     12  C   UNL A   1      40.454  28.389  28.469  1.00  0.00    -0.014 A 
BRANCH  12  13
ATOM     13  C   UNL A   1      41.855  28.039  28.284  1.00  0.00     0.031 A 
ATOM     14  C   UNL A   1      42.083  26.805  27.500  1.00  0.00     0.074 A 
ATOM     15  C   UNL A   1      42.876  28.841  28.678  1.00  0.00     0.049 A 
ATOM     16  N   UNL A   1      42.379  25.643  27.972  1.00  0.00    -0.248 NA
ATOM     17  C   UNL A   1      41.773  26.809  26.065  1.00  0.00     0.031 C 
ATOM     18  C   UNL A   1      42.863  30.211  29.225  1.00  0.00     0.029 A 
ATOM     19  N   UNL A   1      44.209  28.584  28.613  1.00  0.00    -0.354 N 
ATOM     20  C   UNL A   1      42.526  24.810  26.871  1.00  0.00     0.074 A 
ATOM     21  C   UNL A   1      41.950  25.520  25.758  1.00  0.00     0.031 C 
ATOM     22  C   UNL A   1      44.103  30.739  29.203  1.00  0.00     0.029 A 
ATOM     23  C   UNL A   1      45.026  29.683  28.860  1.00  0.00     0.049 A 
ATOM     24  H   UNL A   1      44.568  27.691  28.406  1.00  0.00     0.167 HD
ATOM     25  C   UNL A   1      43.344  23.724  26.937  1.00  0.00     0.037 A 
ATOM     26  C   UNL A   1      46.379  29.711  28.812  1.00  0.00     0.037 A 
ATOM     27  C   UNL A   1      43.681  23.417  28.310  1.00  0.00     0.049 A 
ATOM     28  C   UNL A   1      46.838  28.306  28.971  1.00  0.00     0.074 A 
ATOM     29  C   UNL A   1      42.951  23.088  29.437  1.00  0.00     0.029 A 
ATOM     30  N   UNL A   1      44.905  23.840  28.776  1.00  0.00    -0.354 N 
ATOM     31  N   UNL A   1      46.682  27.627  30.075  1.00  0.00    -0.248 NA
ATOM     32  C   UNL A   1      46.968  27.509  27.760  1.00  0.00     0.031 C 
ATOM     33  C   UNL A   1      43.574  23.808  30.501  1.00  0.00     0.029 A 
ATOM     34  C   UNL A   1      44.694  24.461  29.982  1.00  0.00     0.049 A 
ATOM     35  H   UNL A   1      45.772  23.720  28.326  1.00  0.00     0.167 HD
ATOM     36  C   UNL A   1      46.268  26.366  29.665  1.00  0.00     0.074 A 
ATOM     37  C   UNL A   1      46.521  26.337  28.223  1.00  0.00     0.031 C 
ATOM     38  C   UNL A   1      45.483  25.577  30.460  1.00  0.00     0.037 A 
BRANCH  25  39
ATOM     39  C   UNL A   1      44.161  23.199  25.783  1.00  0.00     0.057 A 
ATOM     40  C   UNL A   1      45.171  23.928  25.125  1.00  0.00     0.134 A 
ATOM     41  C   UNL A   1      44.164  21.814  25.533  1.00  0.00     0.134 A 
ATOM     42  F   UNL A   1      45.337  25.245  25.289  1.00  0.00    -0.206 F 
ATOM     43  C   UNL A   1      46.147  23.321  24.331  1.00  0.00     0.040 A 
ATOM     44  C   UNL A   1      45.164  21.191  24.779  1.00  0.00     0.040 A 
ATOM     45  F   UNL A   1      43.243  21.012  26.090  1.00  0.00    -0.206 F 
ATOM     46  C   UNL A   1      46.171  21.944  24.190  1.00  0.00     0.006 A 
ENDBRANCH  25  39
BRANCH  26  47
ATOM     47  C   UNL A   1      47.231  30.807  28.298  1.00  0.00     0.057 A 
ATOM     48  C   UNL A   1      48.050  31.560  29.160  1.00  0.00     0.134 A 
ATOM     49  C   UNL A   1      47.067  31.316  27.004  1.00  0.00     0.134 A 
ATOM     50  F   UNL A   1      48.216  31.206  30.442  1.00  0.00    -0.206 F 
ATOM     51  C   UNL A   1      48.660  32.754  28.764  1.00  0.00     0.040 A 
ATOM     52  C   UNL A   1      47.670  32.515  26.596  1.00  0.00     0.040 A 
ATOM     53  F   UNL A   1      46.270  30.693  26.124  1.00  0.00    -0.206 F 
ATOM     54  C   UNL A   1      48.460  33.244  27.480  1.00  0.00     0.006 A 
ENDBRANCH  26  47
BRANCH  38  55
ATOM     55  C   UNL A   1      45.239  26.024  31.879  1.00  0.00     0.057 A 
ATOM     56  C   UNL A   1      46.101  25.581  32.886  1.00  0.00     0.134 A 
ATOM     57  C   UNL A   1      44.110  26.749  32.296  1.00  0.00     0.134 A 
ATOM     58  F   UNL A   1      47.169  24.829  32.578  1.00  0.00    -0.206 F 
ATOM     59  C   UNL A   1      45.866  25.856  34.237  1.00  0.00     0.040 A 
ATOM     60  C   UNL A   1      43.877  27.057  33.642  1.00  0.00     0.040 A 
ATOM     61  F   UNL A   1      43.171  27.130  31.425  1.00  0.00    -0.206 F 
ATOM     62  C   UNL A   1      44.757  26.606  34.619  1.00  0.00     0.006 A 
ENDBRANCH  38  55
ENDBRANCH  12  13
ENDBRANCH   5   7
ENDBRANCH   2   3
ENDBRANCH   1   2
BRANCH   1  63
ATOM     63  C   UNL A   1      33.688  28.118  26.515  1.00  0.00     0.118 C 
BRANCH  63  64
ATOM     64  N   UNL A   1      32.412  27.456  26.761  1.00  0.00    -0.349 N 
ATOM     65  C   UNL A   1      31.845  26.378  26.109  1.00  0.00     0.287 C 
ATOM     66  H   UNL A   1      31.878  27.833  27.499  1.00  0.00     0.163 HD
ATOM     67  O   UNL A   1      30.728  26.016  26.478  1.00  0.00    -0.266 OA
BRANCH  65  68
ATOM     68  C   UNL A   1      32.569  25.763  25.018  1.00  0.00     0.196 A 
ATOM     69  O   UNL A   1      32.310  26.246  23.765  1.00  0.00    -0.459 OA
ATOM     70  C   UNL A   1      33.568  24.789  24.959  1.00  0.00     0.023 A 
ATOM     71  C   UNL A   1      33.200  25.683  22.920  1.00  0.00     0.196 A 
ATOM     72  C   UNL A   1      34.008  24.807  23.599  1.00  0.00     0.048 A 
BRANCH  70  73
ATOM     73  C   UNL A   1      34.158  24.049  26.126  1.00  0.00     0.162 C 
BRANCH  73  74
ATOM     74  N   UNL A   1      35.303  23.198  25.837  1.00  0.00    -0.343 N 
ATOM     75  C   UNL A   1      36.594  23.664  25.754  1.00  0.00     0.087 A 
ATOM     76  C   UNL A   1      35.247  21.891  25.412  1.00  0.00     0.055 A 
ATOM     77  C   UNL A   1      37.396  22.614  25.372  1.00  0.00     0.028 A 
ATOM     78  C   UNL A   1      36.563  21.477  25.198  1.00  0.00     0.000 A 
ATOM     79  C   UNL A   1      34.154  21.040  25.217  1.00  0.00     0.112 A 
ATOM     80  C   UNL A   1      36.804  20.133  24.850  1.00  0.00     0.017 A 
ATOM     81  C   UNL A   1      34.423  19.693  24.954  1.00  0.00     0.271 A 
ATOM     82  C   UNL A   1      35.730  19.237  24.767  1.00  0.00     0.086 A 
BRANCH  81  83
ATOM     83  N   UNL A   1      33.300  18.747  24.927  1.00  0.00     0.062 N 
ATOM     84  O   UNL A   1      32.153  19.217  25.001  1.00  0.00    -0.258 OA
ATOM     85  O   UNL A   1      33.561  17.540  24.852  1.00  0.00    -0.258 OA
ENDBRANCH  81  83
ENDBRANCH  73  74
ENDBRANCH  70  73
ENDBRANCH  65  68
ENDBRANCH  63  64
ENDBRANCH   1  63
TORSDOF 13
ENDMDL
MODEL 3
REMARK VINA RESULT:     -12.2      5.710     10.719
REMARK SMILES O=C(NCCCNC(=O)c1occc1Cn1ccc2ccc([N+](=O)[O-])cc21)c1ccc(-c2c3nc(c(-c4c(F)cccc4F)c4ccc([nH]4)c(-c4c(F)cccc4F)c4nc(c(-c5c(F)cccc5F)c5ccc2[nH]5)C=C4)C=C3)cc1
REMARK SMILES IDX 5 1 4 2 3 3 1 4 2 5 28 7 29 8 81 9 30 10 80 11 31 12 32 13
REMARK SMILES IDX 33 14 74 15 34 16 79 17 73 18 75 19 35 20 78 21 72 22 71 23
REMARK SMILES IDX 36 25 62 26 45 27 61 28 46 29 49 30 60 31 76 32 47 33 48 34
REMARK SMILES IDX 59 36 77 37 50 38 37 39 38 40 43 41 39 42 40 43 42 44 44 45
REMARK SMILES IDX 41 46 63 47 64 48 69 49 65 50 66 51 68 52 70 53 67 54 51 55
REMARK SMILES IDX 52 56 57 57 53 58 54 59 56 60 58 61 55 62 6 63 7 64 8 65
REMARK SMILES IDX 9 67 10 68 11 69 14 70 12 71 13 72 15 73 16 74 17 75 27 76
REMARK SMILES IDX 18 77 19 78 26 79 20 80 22 81 21 82 23 83 24 84 25 85
REMARK H PARENT 3 6 75 24 49 35 7 66
REMARK Flexibility Score: inf
ROOT
ATOM      1  C   UNL A   1      36.514  30.099  32.132  1.00  0.00     0.042 C 
ENDROOT
BRANCH   1   2
ATOM      2  C   UNL A   1      36.408  30.942  30.890  1.00  0.00     0.118 C 
BRANCH   2   3
ATOM      3  N   UNL A   1      35.874  30.272  29.693  1.00  0.00    -0.352 N 
ATOM      4  O   UNL A   1      36.155  29.262  27.652  1.00  0.00    -0.269 OA
ATOM      5  C   UNL A   1      36.615  29.579  28.722  1.00  0.00     0.251 C 
ATOM      6  H   UNL A   1      34.900  30.313  29.559  1.00  0.00     0.163 HD
BRANCH   5   7
ATOM      7  C   UNL A   1      37.996  29.215  29.107  1.00  0.00     0.039 A 
ATOM      8  C   UNL A   1      38.348  28.029  29.753  1.00  0.00     0.014 A 
ATOM      9  C   UNL A   1      38.953  30.011  28.518  1.00  0.00     0.014 A 
ATOM     10  C   UNL A   1      39.682  27.625  29.677  1.00  0.00     0.010 A 
ATOM     11  C   UNL A   1      40.053  29.363  28.063  1.00  0.00     0.010 A 
ATOM     12  C   UNL A   1      40.533  28.293  28.780  1.00  0.00    -0.014 A 
BRANCH  12  13
ATOM     13  C   UNL A   1      41.917  27.934  28.508  1.00  0.00     0.031 A 
ATOM     14  C   UNL A   1      42.087  26.712  27.692  1.00  0.00     0.074 A 
ATOM     15  C   UNL A   1      42.967  28.721  28.854  1.00  0.00     0.049 A 
ATOM     16  N   UNL A   1      42.399  25.539  28.127  1.00  0.00    -0.248 NA
ATOM     17  C   UNL A   1      41.694  26.741  26.278  1.00  0.00     0.031 C 
ATOM     18  C   UNL A   1      42.999  30.081  29.422  1.00  0.00     0.029 A 
ATOM     19  N   UNL A   1      44.292  28.453  28.707  1.00  0.00    -0.354 N 
ATOM     20  C   UNL A   1      42.474  24.723  27.007  1.00  0.00     0.074 A 
ATOM     21  C   UNL A   1      41.840  25.456  25.941  1.00  0.00     0.031 C 
ATOM     22  C   UNL A   1      44.241  30.600  29.336  1.00  0.00     0.029 A 
ATOM     23  C   UNL A   1      45.132  29.541  28.923  1.00  0.00     0.049 A 
ATOM     24  H   UNL A   1      44.630  27.560  28.465  1.00  0.00     0.167 HD
ATOM     25  C   UNL A   1      43.284  23.630  27.007  1.00  0.00     0.037 A 
ATOM     26  C   UNL A   1      46.480  29.558  28.796  1.00  0.00     0.037 A 
ATOM     27  C   UNL A   1      43.698  23.297  28.353  1.00  0.00     0.049 A 
ATOM     28  C   UNL A   1      46.934  28.147  28.905  1.00  0.00     0.074 A 
ATOM     29  C   UNL A   1      43.032  22.956  29.515  1.00  0.00     0.029 A 
ATOM     30  N   UNL A   1      44.951  23.701  28.753  1.00  0.00    -0.354 N 
ATOM     31  N   UNL A   1      46.837  27.451  30.006  1.00  0.00    -0.248 NA
ATOM     32  C   UNL A   1      46.986  27.369  27.676  1.00  0.00     0.031 C 
ATOM     33  C   UNL A   1      43.723  23.653  30.552  1.00  0.00     0.029 A 
ATOM     34  C   UNL A   1      44.817  24.304  29.979  1.00  0.00     0.049 A 
ATOM     35  H   UNL A   1      45.789  23.582  28.251  1.00  0.00     0.167 HD
ATOM     36  C   UNL A   1      46.387  26.201  29.600  1.00  0.00     0.074 A 
ATOM     37  C   UNL A   1      46.555  26.193  28.146  1.00  0.00     0.031 C 
ATOM     38  C   UNL A   1      45.643  25.406  30.427  1.00  0.00     0.037 A 
BRANCH  25  39
ATOM     39  C   UNL A   1      44.027  23.117  25.799  1.00  0.00     0.057 A 
ATOM     40  C   UNL A   1      45.025  23.836  25.112  1.00  0.00     0.134 A 
ATOM     41  C   UNL A   1      43.975  21.741  25.509  1.00  0.00     0.134 A 
ATOM     42  F   UNL A   1      45.238  25.142  25.306  1.00  0.00    -0.206 F 
ATOM     43  C   UNL A   1      45.941  23.226  24.254  1.00  0.00     0.040 A 
ATOM     44  C   UNL A   1      44.918  21.112  24.688  1.00  0.00     0.040 A 
ATOM     45  F   UNL A   1      43.059  20.949  26.087  1.00  0.00    -0.206 F 
ATOM     46  C   UNL A   1      45.917  21.853  24.071  1.00  0.00     0.006 A 
ENDBRANCH  25  39
BRANCH  26  47
ATOM     47  C   UNL A   1      47.311  30.655  28.250  1.00  0.00     0.057 A 
ATOM     48  C   UNL A   1      48.168  31.404  29.079  1.00  0.00     0.134 A 
ATOM     49  C   UNL A   1      47.093  31.170  26.967  1.00  0.00     0.134 A 
ATOM     50  F   UNL A   1      48.387  31.044  30.352  1.00  0.00    -0.206 F 
ATOM     51  C   UNL A   1      48.761  32.599  28.663  1.00  0.00     0.040 A 
ATOM     52  C   UNL A   1      47.679  32.370  26.538  1.00  0.00     0.040 A 
ATOM     53  F   UNL A   1      46.258  30.552  26.119  1.00  0.00    -0.206 F 
ATOM     54  C   UNL A   1      48.507  33.094  27.390  1.00  0.00     0.006 A 
ENDBRANCH  26  47
BRANCH  38  55
ATOM     55  C   UNL A   1      45.487  25.832  31.866  1.00  0.00     0.057 A 
ATOM     56  C   UNL A   1      44.358  26.568  32.235  1.00  0.00     0.134 A 
ATOM     57  C   UNL A   1      46.475  25.666  32.850  1.00  0.00     0.134 A 
ATOM     58  F   UNL A   1      43.396  26.825  31.335  1.00  0.00    -0.206 F 
ATOM     59  C   UNL A   1      44.207  27.098  33.520  1.00  0.00     0.040 A 
ATOM     60  C   UNL A   1      46.325  26.165  34.149  1.00  0.00     0.040 A 
ATOM     61  F   UNL A   1      47.637  25.067  32.570  1.00  0.00    -0.206 F 
ATOM     62  C   UNL A   1      45.187  26.888  34.486  1.00  0.00     0.006 A 
ENDBRANCH  38  55
ENDBRANCH  12  13
ENDBRANCH   5   7
ENDBRANCH   2   3
ENDBRANCH   1   2
BRANCH   1  63
ATOM     63  C   UNL A   1      37.770  30.406  32.925  1.00  0.00     0.118 C 
BRANCH  63  64
ATOM     64  N   UNL A   1      37.583  30.856  34.300  1.00  0.00    -0.349 N 
ATOM     65  C   UNL A   1      37.542  32.143  34.802  1.00  0.00     0.287 C 
ATOM     66  H   UNL A   1      37.469  30.139  34.966  1.00  0.00     0.163 HD
ATOM     67  O   UNL A   1      37.408  32.272  36.019  1.00  0.00    -0.266 OA
BRANCH  65  68
ATOM     68  C   UNL A   1      37.694  33.253  33.888  1.00  0.00     0.196 A 
ATOM     69  O   UNL A   1      38.967  33.527  33.467  1.00  0.00    -0.459 OA
ATOM     70  C   UNL A   1      36.787  34.107  33.256  1.00  0.00     0.023 A 
ATOM     71  C   UNL A   1      38.882  34.462  32.496  1.00  0.00     0.196 A 
ATOM     72  C   UNL A   1      37.574  34.831  32.307  1.00  0.00     0.048 A 
BRANCH  70  73
ATOM     73  C   UNL A   1      35.294  34.096  33.423  1.00  0.00     0.162 C 
BRANCH  73  74
ATOM     74  N   UNL A   1      34.544  35.012  32.576  1.00  0.00    -0.343 N 
ATOM     75  C   UNL A   1      33.950  36.162  33.039  1.00  0.00     0.087 A 
ATOM     76  C   UNL A   1      34.152  34.770  31.280  1.00  0.00     0.055 A 
ATOM     77  C   UNL A   1      33.252  36.724  31.997  1.00  0.00     0.028 A 
ATOM     78  C   UNL A   1      33.410  35.879  30.867  1.00  0.00     0.000 A 
ATOM     79  C   UNL A   1      34.404  33.683  30.436  1.00  0.00     0.112 A 
ATOM     80  C   UNL A   1      32.966  35.940  29.531  1.00  0.00     0.017 A 
ATOM     81  C   UNL A   1      34.026  33.805  29.095  1.00  0.00     0.271 A 
ATOM     82  C   UNL A   1      33.312  34.915  28.640  1.00  0.00     0.086 A 
BRANCH  81  83
ATOM     83  N   UNL A   1      34.441  32.757  28.154  1.00  0.00     0.062 N 
ATOM     84  O   UNL A   1      33.650  31.823  27.950  1.00  0.00    -0.258 OA
ATOM     85  O   UNL A   1      35.561  32.855  27.634  1.00  0.00    -0.258 OA
ENDBRANCH  81  83
ENDBRANCH  73  74
ENDBRANCH  70  73
ENDBRANCH  65  68
ENDBRANCH  63  64
ENDBRANCH   1  63
TORSDOF 13
ENDMDL
