MODEL 1
REMARK VINA RESULT:     -11.1      0.000      0.000
REMARK SMILES CC(C)Cc1ccc([C@H](CF)C(=O)NCCCNC(=O)c2ccc(-c3c4nc(c(-c5c(F)cccc5F)c5ccc([nH]5)c(-c5c(F)cccc5F)c5nc(c(-c6c(F)cccc6F)c6ccc3[nH]6)C=C5)C=C4)cc2)cc1
REMARK SMILES IDX 15 1 14 2 12 3 13 4 9 6 8 7 5 8 6 9 76 10 7 11 75 12 4 13
REMARK SMILES IDX 2 14 1 15 3 16 10 17 11 18 16 19 17 20 18 21 19 22 20 24
REMARK SMILES IDX 21 25 22 26 74 27 23 28 73 29 24 30 25 31 26 32 67 33 27 34
REMARK SMILES IDX 72 35 66 36 68 37 28 38 71 39 65 40 64 41 29 43 55 44 38 45
REMARK SMILES IDX 54 46 39 47 42 48 53 49 69 50 40 51 41 52 52 54 70 55 43 56
REMARK SMILES IDX 30 57 31 58 36 59 32 60 33 61 35 62 37 63 34 64 56 65 57 66
REMARK SMILES IDX 62 67 58 68 59 69 61 70 63 71 60 72 44 73 45 74 50 75 46 76
REMARK SMILES IDX 47 77 49 78 51 79 48 80
REMARK H PARENT 14 5 18 23 68 42 42 53
REMARK Flexibility Score: inf
ROOT
ATOM      1  C   UNL A   1      31.883  27.993  26.788  1.00  0.00     0.117 C 
ENDROOT
BRANCH   1   2
ATOM      2  N   UNL A   1      31.003  26.850  26.934  1.00  0.00    -0.355 N 
ATOM      3  C   UNL A   1      30.594  25.920  26.025  1.00  0.00     0.230 C 
ATOM      4  O   UNL A   1      29.940  24.966  26.461  1.00  0.00    -0.274 OA
ATOM      5  H   UNL A   1      30.641  26.725  27.841  1.00  0.00     0.163 HD
BRANCH   3   6
ATOM      6  C   UNL A   1      30.931  26.016  24.535  1.00  0.00     0.139 C 
BRANCH   6   7
ATOM      7  C   UNL A   1      30.052  27.031  23.809  1.00  0.00    -0.033 A 
ATOM      8  C   UNL A   1      28.522  29.157  22.740  1.00  0.00    -0.048 A 
ATOM      9  C   UNL A   1      27.894  28.040  23.299  1.00  0.00     0.004 A 
ATOM     10  C   UNL A   1      29.917  29.170  22.648  1.00  0.00     0.004 A 
ATOM     11  C   UNL A   1      28.649  26.977  23.803  1.00  0.00     0.005 A 
ATOM     12  C   UNL A   1      30.673  28.124  23.182  1.00  0.00     0.005 A 
BRANCH   8  13
ATOM     13  C   UNL A   1      27.710  30.352  22.299  1.00  0.00     0.038 C 
BRANCH  13  14
ATOM     14  C   UNL A   1      28.579  31.530  21.809  1.00  0.00    -0.013 C 
ATOM     15  C   UNL A   1      28.077  32.118  20.487  1.00  0.00     0.008 C 
ATOM     16  C   UNL A   1      28.613  32.629  22.874  1.00  0.00     0.008 C 
ENDBRANCH  13  14
ENDBRANCH   8  13
ENDBRANCH   6   7
BRANCH   6  17
ATOM     17  C   UNL A   1      31.025  24.620  23.929  1.00  0.00     0.232 C 
ATOM     18  F   UNL A   1      29.988  24.405  23.075  1.00  0.00    -0.250 F 
ENDBRANCH   6  17
ENDBRANCH   3   6
ENDBRANCH   1   2
BRANCH   1  19
ATOM     19  C   UNL A   1      33.322  27.593  26.502  1.00  0.00     0.042 C 
BRANCH  19  20
ATOM     20  C   UNL A   1      34.150  28.698  25.866  1.00  0.00     0.118 C 
BRANCH  20  21
ATOM     21  N   UNL A   1      33.819  30.020  26.388  1.00  0.00    -0.352 N 
ATOM     22  C   UNL A   1      34.388  30.747  27.402  1.00  0.00     0.251 C 
ATOM     23  H   UNL A   1      33.064  30.462  25.937  1.00  0.00     0.163 HD
ATOM     24  O   UNL A   1      33.824  31.762  27.810  1.00  0.00    -0.269 OA
BRANCH  22  25
ATOM     25  C   UNL A   1      35.656  30.315  28.025  1.00  0.00     0.039 A 
ATOM     26  C   UNL A   1      35.616  29.659  29.259  1.00  0.00     0.014 A 
ATOM     27  C   UNL A   1      36.886  30.571  27.414  1.00  0.00     0.014 A 
ATOM     28  C   UNL A   1      36.799  29.197  29.839  1.00  0.00     0.010 A 
ATOM     29  C   UNL A   1      38.051  30.028  27.944  1.00  0.00     0.010 A 
ATOM     30  C   UNL A   1      38.023  29.340  29.166  1.00  0.00    -0.014 A 
BRANCH  30  31
ATOM     31  C   UNL A   1      39.283  28.784  29.719  1.00  0.00     0.031 A 
ATOM     32  C   UNL A   1      39.914  29.404  30.936  1.00  0.00     0.074 A 
ATOM     33  C   UNL A   1      39.897  27.766  29.084  1.00  0.00     0.049 A 
ATOM     34  N   UNL A   1      41.051  29.115  31.518  1.00  0.00    -0.248 NA
ATOM     35  C   UNL A   1      39.184  30.517  31.566  1.00  0.00     0.031 C 
ATOM     36  C   UNL A   1      39.414  27.111  27.868  1.00  0.00     0.029 A 
ATOM     37  N   UNL A   1      41.071  27.113  29.368  1.00  0.00    -0.354 N 
ATOM     38  C   UNL A   1      41.179  30.017  32.566  1.00  0.00     0.074 A 
ATOM     39  C   UNL A   1      40.035  30.899  32.507  1.00  0.00     0.031 C 
ATOM     40  C   UNL A   1      40.268  26.134  27.525  1.00  0.00     0.029 A 
ATOM     41  C   UNL A   1      41.380  26.122  28.469  1.00  0.00     0.049 A 
ATOM     42  H   UNL A   1      41.636  27.334  30.143  1.00  0.00     0.167 HD
ATOM     43  C   UNL A   1      42.149  30.088  33.508  1.00  0.00     0.037 A 
ATOM     44  C   UNL A   1      42.446  25.302  28.405  1.00  0.00     0.037 A 
ATOM     45  C   UNL A   1      43.274  29.193  33.577  1.00  0.00     0.049 A 
ATOM     46  C   UNL A   1      43.516  25.409  29.457  1.00  0.00     0.074 A 
ATOM     47  C   UNL A   1      44.280  29.144  34.526  1.00  0.00     0.029 A 
ATOM     48  N   UNL A   1      43.545  28.192  32.657  1.00  0.00    -0.354 N 
ATOM     49  N   UNL A   1      43.590  26.222  30.483  1.00  0.00    -0.248 NA
ATOM     50  C   UNL A   1      44.650  24.481  29.344  1.00  0.00     0.031 C 
ATOM     51  C   UNL A   1      45.184  28.146  34.154  1.00  0.00     0.029 A 
ATOM     52  C   UNL A   1      44.714  27.535  33.003  1.00  0.00     0.049 A 
ATOM     53  H   UNL A   1      42.987  27.979  31.873  1.00  0.00     0.167 HD
ATOM     54  C   UNL A   1      44.758  25.883  31.154  1.00  0.00     0.074 A 
ATOM     55  C   UNL A   1      45.354  24.782  30.426  1.00  0.00     0.031 C 
ATOM     56  C   UNL A   1      45.290  26.434  32.272  1.00  0.00     0.037 A 
BRANCH  43  57
ATOM     57  C   UNL A   1      42.033  31.170  34.542  1.00  0.00     0.057 A 
ATOM     58  C   UNL A   1      41.332  30.977  35.741  1.00  0.00     0.134 A 
ATOM     59  C   UNL A   1      42.657  32.411  34.355  1.00  0.00     0.134 A 
ATOM     60  F   UNL A   1      40.701  29.817  35.980  1.00  0.00    -0.206 F 
ATOM     61  C   UNL A   1      41.229  31.987  36.700  1.00  0.00     0.040 A 
ATOM     62  C   UNL A   1      42.587  33.417  35.320  1.00  0.00     0.040 A 
ATOM     63  F   UNL A   1      43.350  32.662  33.234  1.00  0.00    -0.206 F 
ATOM     64  C   UNL A   1      41.866  33.209  36.493  1.00  0.00     0.006 A 
ENDBRANCH  43  57
BRANCH  44  65
ATOM     65  C   UNL A   1      42.548  24.294  27.320  1.00  0.00     0.057 A 
ATOM     66  C   UNL A   1      42.071  22.990  27.500  1.00  0.00     0.134 A 
ATOM     67  C   UNL A   1      43.130  24.602  26.085  1.00  0.00     0.134 A 
ATOM     68  F   UNL A   1      41.519  22.629  28.668  1.00  0.00    -0.206 F 
ATOM     69  C   UNL A   1      42.189  22.022  26.500  1.00  0.00     0.040 A 
ATOM     70  C   UNL A   1      43.229  23.653  25.065  1.00  0.00     0.040 A 
ATOM     71  F   UNL A   1      43.598  25.835  25.845  1.00  0.00    -0.206 F 
ATOM     72  C   UNL A   1      42.764  22.356  25.276  1.00  0.00     0.006 A 
ENDBRANCH  44  65
BRANCH  56  73
ATOM     73  C   UNL A   1      46.559  25.830  32.801  1.00  0.00     0.057 A 
ATOM     74  C   UNL A   1      47.819  26.247  32.357  1.00  0.00     0.134 A 
ATOM     75  C   UNL A   1      46.516  24.846  33.796  1.00  0.00     0.134 A 
ATOM     76  F   UNL A   1      47.930  27.177  31.396  1.00  0.00    -0.206 F 
ATOM     77  C   UNL A   1      48.993  25.689  32.867  1.00  0.00     0.040 A 
ATOM     78  C   UNL A   1      47.682  24.302  34.335  1.00  0.00     0.040 A 
ATOM     79  F   UNL A   1      45.340  24.408  34.273  1.00  0.00    -0.206 F 
ATOM     80  C   UNL A   1      48.925  24.719  33.866  1.00  0.00     0.006 A 
ENDBRANCH  56  73
ENDBRANCH  30  31
ENDBRANCH  22  25
ENDBRANCH  20  21
ENDBRANCH  19  20
ENDBRANCH   1  19
TORSDOF 14
ENDMDL
MODEL 2
REMARK VINA RESULT:     -11.1      2.815      7.865
REMARK SMILES CC(C)Cc1ccc([C@H](CF)C(=O)NCCCNC(=O)c2ccc(-c3c4nc(c(-c5c(F)cccc5F)c5ccc([nH]5)c(-c5c(F)cccc5F)c5nc(c(-c6c(F)cccc6F)c6ccc3[nH]6)C=C5)C=C4)cc2)cc1
REMARK SMILES IDX 15 1 14 2 12 3 13 4 9 6 8 7 5 8 6 9 76 10 7 11 75 12 4 13
REMARK SMILES IDX 2 14 1 15 3 16 10 17 11 18 16 19 17 20 18 21 19 22 20 24
REMARK SMILES IDX 21 25 22 26 74 27 23 28 73 29 24 30 25 31 26 32 67 33 27 34
REMARK SMILES IDX 72 35 66 36 68 37 28 38 71 39 65 40 64 41 29 43 55 44 38 45
REMARK SMILES IDX 54 46 39 47 42 48 53 49 69 50 40 51 41 52 52 54 70 55 43 56
REMARK SMILES IDX 30 57 31 58 36 59 32 60 33 61 35 62 37 63 34 64 56 65 57 66
REMARK SMILES IDX 62 67 58 68 59 69 61 70 63 71 60 72 44 73 45 74 50 75 46 76
REMARK SMILES IDX 47 77 49 78 51 79 48 80
REMARK H PARENT 14 5 18 23 68 42 42 53
REMARK Flexibility Score: inf
ROOT
ATOM      1  C   UNL A   1      31.572  30.318  26.056  1.00  0.00     0.117 C 
ENDROOT
BRANCH   1   2
ATOM      2  N   UNL A   1      31.404  30.180  24.623  1.00  0.00    -0.355 N 
ATOM      3  C   UNL A   1      31.000  29.116  23.873  1.00  0.00     0.230 C 
ATOM      4  O   UNL A   1      30.816  29.321  22.668  1.00  0.00    -0.274 OA
ATOM      5  H   UNL A   1      31.617  30.989  24.105  1.00  0.00     0.163 HD
BRANCH   3   6
ATOM      6  C   UNL A   1      30.757  27.727  24.471  1.00  0.00     0.139 C 
BRANCH   6   7
ATOM      7  C   UNL A   1      32.053  26.943  24.654  1.00  0.00    -0.033 A 
ATOM      8  C   UNL A   1      34.254  25.181  24.893  1.00  0.00    -0.048 A 
ATOM      9  C   UNL A   1      33.685  25.766  26.029  1.00  0.00     0.004 A 
ATOM     10  C   UNL A   1      33.767  25.541  23.633  1.00  0.00     0.004 A 
ATOM     11  C   UNL A   1      32.615  26.658  25.909  1.00  0.00     0.005 A 
ATOM     12  C   UNL A   1      32.676  26.405  23.515  1.00  0.00     0.005 A 
BRANCH   8  13
ATOM     13  C   UNL A   1      35.333  24.134  25.031  1.00  0.00     0.038 C 
BRANCH  13  14
ATOM     14  C   UNL A   1      35.268  23.047  23.937  1.00  0.00    -0.013 C 
ATOM     15  C   UNL A   1      36.583  22.915  23.162  1.00  0.00     0.008 C 
ATOM     16  C   UNL A   1      34.911  21.698  24.565  1.00  0.00     0.008 C 
ENDBRANCH  13  14
ENDBRANCH   8  13
ENDBRANCH   6   7
BRANCH   6  17
ATOM     17  C   UNL A   1      29.621  27.030  23.730  1.00  0.00     0.232 C 
ATOM     18  F   UNL A   1      28.857  26.315  24.601  1.00  0.00    -0.250 F 
ENDBRANCH   6  17
ENDBRANCH   3   6
ENDBRANCH   1   2
BRANCH   1  19
ATOM     19  C   UNL A   1      31.407  31.754  26.530  1.00  0.00     0.042 C 
BRANCH  19  20
ATOM     20  C   UNL A   1      32.699  32.390  27.018  1.00  0.00     0.118 C 
BRANCH  20  21
ATOM     21  N   UNL A   1      32.518  33.771  27.451  1.00  0.00    -0.352 N 
ATOM     22  C   UNL A   1      33.127  34.479  28.456  1.00  0.00     0.251 C 
ATOM     23  H   UNL A   1      31.849  34.278  26.937  1.00  0.00     0.163 HD
ATOM     24  O   UNL A   1      32.681  35.579  28.779  1.00  0.00    -0.269 OA
BRANCH  22  25
ATOM     25  C   UNL A   1      34.298  33.927  29.169  1.00  0.00     0.039 A 
ATOM     26  C   UNL A   1      34.093  32.966  30.165  1.00  0.00     0.014 A 
ATOM     27  C   UNL A   1      35.592  34.364  28.880  1.00  0.00     0.014 A 
ATOM     28  C   UNL A   1      35.189  32.396  30.814  1.00  0.00     0.010 A 
ATOM     29  C   UNL A   1      36.686  33.728  29.458  1.00  0.00     0.010 A 
ATOM     30  C   UNL A   1      36.497  32.741  30.436  1.00  0.00    -0.014 A 
BRANCH  30  31
ATOM     31  C   UNL A   1      37.680  32.087  31.050  1.00  0.00     0.031 A 
ATOM     32  C   UNL A   1      38.408  30.994  30.316  1.00  0.00     0.074 A 
ATOM     33  C   UNL A   1      38.056  32.428  32.299  1.00  0.00     0.049 A 
ATOM     34  N   UNL A   1      39.407  30.250  30.719  1.00  0.00    -0.248 NA
ATOM     35  C   UNL A   1      37.930  30.675  28.961  1.00  0.00     0.031 C 
ATOM     36  C   UNL A   1      37.403  33.438  33.135  1.00  0.00     0.029 A 
ATOM     37  N   UNL A   1      39.073  31.952  33.089  1.00  0.00    -0.354 N 
ATOM     38  C   UNL A   1      39.664  29.368  29.676  1.00  0.00     0.074 A 
ATOM     39  C   UNL A   1      38.681  29.630  28.649  1.00  0.00     0.031 C 
ATOM     40  C   UNL A   1      38.049  33.523  34.308  1.00  0.00     0.029 A 
ATOM     41  C   UNL A   1      39.133  32.546  34.326  1.00  0.00     0.049 A 
ATOM     42  H   UNL A   1      39.699  31.251  32.796  1.00  0.00     0.167 HD
ATOM     43  C   UNL A   1      40.645  28.440  29.575  1.00  0.00     0.037 A 
ATOM     44  C   UNL A   1      39.962  32.322  35.363  1.00  0.00     0.037 A 
ATOM     45  C   UNL A   1      41.635  28.198  30.591  1.00  0.00     0.049 A 
ATOM     46  C   UNL A   1      41.037  31.278  35.229  1.00  0.00     0.074 A 
ATOM     47  C   UNL A   1      42.706  27.322  30.560  1.00  0.00     0.029 A 
ATOM     48  N   UNL A   1      41.673  28.831  31.824  1.00  0.00    -0.354 N 
ATOM     49  N   UNL A   1      41.311  30.498  34.211  1.00  0.00    -0.248 NA
ATOM     50  C   UNL A   1      41.919  31.084  36.388  1.00  0.00     0.031 C 
ATOM     51  C   UNL A   1      43.362  27.391  31.792  1.00  0.00     0.029 A 
ATOM     52  C   UNL A   1      42.735  28.349  32.571  1.00  0.00     0.049 A 
ATOM     53  H   UNL A   1      41.039  29.522  32.124  1.00  0.00     0.167 HD
ATOM     54  C   UNL A   1      42.415  29.747  34.593  1.00  0.00     0.074 A 
ATOM     55  C   UNL A   1      42.767  30.174  35.932  1.00  0.00     0.031 C 
ATOM     56  C   UNL A   1      43.078  28.790  33.900  1.00  0.00     0.037 A 
BRANCH  43  57
ATOM     57  C   UNL A   1      40.696  27.620  28.319  1.00  0.00     0.057 A 
ATOM     58  C   UNL A   1      41.431  28.029  27.197  1.00  0.00     0.134 A 
ATOM     59  C   UNL A   1      40.031  26.389  28.238  1.00  0.00     0.134 A 
ATOM     60  F   UNL A   1      42.082  29.202  27.201  1.00  0.00    -0.206 F 
ATOM     61  C   UNL A   1      41.476  27.260  26.032  1.00  0.00     0.040 A 
ATOM     62  C   UNL A   1      40.094  25.598  27.090  1.00  0.00     0.040 A 
ATOM     63  F   UNL A   1      39.314  25.933  29.276  1.00  0.00    -0.206 F 
ATOM     64  C   UNL A   1      40.812  26.036  25.980  1.00  0.00     0.006 A 
ENDBRANCH  43  57
BRANCH  44  65
ATOM     65  C   UNL A   1      39.825  33.113  36.611  1.00  0.00     0.057 A 
ATOM     66  C   UNL A   1      38.939  32.720  37.621  1.00  0.00     0.134 A 
ATOM     67  C   UNL A   1      40.566  34.282  36.824  1.00  0.00     0.134 A 
ATOM     68  F   UNL A   1      38.188  31.620  37.468  1.00  0.00    -0.206 F 
ATOM     69  C   UNL A   1      38.776  33.472  38.786  1.00  0.00     0.040 A 
ATOM     70  C   UNL A   1      40.435  35.029  37.997  1.00  0.00     0.040 A 
ATOM     71  F   UNL A   1      41.440  34.708  35.901  1.00  0.00    -0.206 F 
ATOM     72  C   UNL A   1      39.530  34.627  38.978  1.00  0.00     0.006 A 
ENDBRANCH  44  65
BRANCH  56  73
ATOM     73  C   UNL A   1      44.274  28.166  34.558  1.00  0.00     0.057 A 
ATOM     74  C   UNL A   1      45.551  28.732  34.463  1.00  0.00     0.134 A 
ATOM     75  C   UNL A   1      44.136  27.006  35.329  1.00  0.00     0.134 A 
ATOM     76  F   UNL A   1      45.755  29.836  33.729  1.00  0.00    -0.206 F 
ATOM     77  C   UNL A   1      46.654  28.151  35.092  1.00  0.00     0.040 A 
ATOM     78  C   UNL A   1      45.224  26.432  35.987  1.00  0.00     0.040 A 
ATOM     79  F   UNL A   1      42.938  26.418  35.469  1.00  0.00    -0.206 F 
ATOM     80  C   UNL A   1      46.490  27.002  35.864  1.00  0.00     0.006 A 
ENDBRANCH  56  73
ENDBRANCH  30  31
ENDBRANCH  22  25
ENDBRANCH  20  21
ENDBRANCH  19  20
ENDBRANCH   1  19
TORSDOF 14
ENDMDL
MODEL 3
REMARK VINA RESULT:     -11.0      3.611      8.050
REMARK SMILES CC(C)Cc1ccc([C@H](CF)C(=O)NCCCNC(=O)c2ccc(-c3c4nc(c(-c5c(F)cccc5F)c5ccc([nH]5)c(-c5c(F)cccc5F)c5nc(c(-c6c(F)cccc6F)c6ccc3[nH]6)C=C5)C=C4)cc2)cc1
REMARK SMILES IDX 15 1 14 2 12 3 13 4 9 6 8 7 5 8 6 9 76 10 7 11 75 12 4 13
REMARK SMILES IDX 2 14 1 15 3 16 10 17 11 18 16 19 17 20 18 21 19 22 20 24
REMARK SMILES IDX 21 25 22 26 74 27 23 28 73 29 24 30 25 31 26 32 67 33 27 34
REMARK SMILES IDX 72 35 66 36 68 37 28 38 71 39 65 40 64 41 29 43 55 44 38 45
REMARK SMILES IDX 54 46 39 47 42 48 53 49 69 50 40 51 41 52 52 54 70 55 43 56
REMARK SMILES IDX 30 57 31 58 36 59 32 60 33 61 35 62 37 63 34 64 56 65 57 66
REMARK SMILES IDX 62 67 58 68 59 69 61 70 63 71 60 72 44 73 45 74 50 75 46 76
REMARK SMILES IDX 47 77 49 78 51 79 48 80
REMARK H PARENT 14 5 18 23 68 42 42 53
REMARK Flexibility Score: inf
ROOT
ATOM      1  C   UNL A   1      36.587  20.597  24.717  1.00  0.00     0.117 C 
ENDROOT
BRANCH   1   2
ATOM      2  N   UNL A   1      35.354  20.132  25.319  1.00  0.00    -0.355 N 
ATOM      3  C   UNL A   1      34.055  20.416  25.019  1.00  0.00     0.230 C 
ATOM      4  O   UNL A   1      33.190  19.765  25.618  1.00  0.00    -0.274 OA
ATOM      5  H   UNL A   1      35.475  19.506  26.069  1.00  0.00     0.163 HD
BRANCH   3   6
ATOM      6  C   UNL A   1      33.656  21.469  23.982  1.00  0.00     0.139 C 
BRANCH   6   7
ATOM      7  C   UNL A   1      33.769  22.889  24.529  1.00  0.00    -0.033 A 
ATOM      8  C   UNL A   1      33.598  25.514  25.571  1.00  0.00    -0.048 A 
ATOM      9  C   UNL A   1      33.972  25.300  24.241  1.00  0.00     0.004 A 
ATOM     10  C   UNL A   1      33.385  24.406  26.398  1.00  0.00     0.004 A 
ATOM     11  C   UNL A   1      34.083  24.003  23.732  1.00  0.00     0.005 A 
ATOM     12  C   UNL A   1      33.463  23.111  25.882  1.00  0.00     0.005 A 
BRANCH   8  13
ATOM     13  C   UNL A   1      33.368  26.915  26.087  1.00  0.00     0.038 C 
BRANCH  13  14
ATOM     14  C   UNL A   1      31.898  27.189  26.468  1.00  0.00    -0.013 C 
ATOM     15  C   UNL A   1      31.738  28.457  27.312  1.00  0.00     0.008 C 
ATOM     16  C   UNL A   1      31.047  27.310  25.202  1.00  0.00     0.008 C 
ENDBRANCH  13  14
ENDBRANCH   8  13
ENDBRANCH   6   7
BRANCH   6  17
ATOM     17  C   UNL A   1      32.337  21.081  23.322  1.00  0.00     0.232 C 
ATOM     18  F   UNL A   1      32.155  21.793  22.177  1.00  0.00    -0.250 F 
ENDBRANCH   6  17
ENDBRANCH   3   6
ENDBRANCH   1   2
BRANCH   1  19
ATOM     19  C   UNL A   1      37.739  19.623  24.911  1.00  0.00     0.042 C 
BRANCH  19  20
ATOM     20  C   UNL A   1      38.898  20.197  25.710  1.00  0.00     0.118 C 
BRANCH  20  21
ATOM     21  N   UNL A   1      40.049  19.302  25.754  1.00  0.00    -0.352 N 
ATOM     22  C   UNL A   1      41.367  19.555  26.038  1.00  0.00     0.251 C 
ATOM     23  H   UNL A   1      39.846  18.361  25.546  1.00  0.00     0.163 HD
ATOM     24  O   UNL A   1      42.211  18.685  25.824  1.00  0.00    -0.269 OA
BRANCH  22  25
ATOM     25  C   UNL A   1      41.787  20.865  26.576  1.00  0.00     0.039 A 
ATOM     26  C   UNL A   1      42.312  21.821  25.699  1.00  0.00     0.014 A 
ATOM     27  C   UNL A   1      41.690  21.152  27.939  1.00  0.00     0.014 A 
ATOM     28  C   UNL A   1      42.667  23.082  26.179  1.00  0.00     0.010 A 
ATOM     29  C   UNL A   1      41.953  22.438  28.399  1.00  0.00     0.010 A 
ATOM     30  C   UNL A   1      42.451  23.416  27.526  1.00  0.00    -0.014 A 
BRANCH  30  31
ATOM     31  C   UNL A   1      42.740  24.777  28.045  1.00  0.00     0.031 A 
ATOM     32  C   UNL A   1      44.133  25.142  28.479  1.00  0.00     0.074 A 
ATOM     33  C   UNL A   1      41.733  25.661  28.192  1.00  0.00     0.049 A 
ATOM     34  N   UNL A   1      44.565  26.247  29.032  1.00  0.00    -0.248 NA
ATOM     35  C   UNL A   1      45.174  24.118  28.292  1.00  0.00     0.031 C 
ATOM     36  C   UNL A   1      40.331  25.413  27.855  1.00  0.00     0.029 A 
ATOM     37  N   UNL A   1      41.734  26.946  28.677  1.00  0.00    -0.354 N 
ATOM     38  C   UNL A   1      45.918  26.044  29.274  1.00  0.00     0.074 A 
ATOM     39  C   UNL A   1      46.223  24.692  28.861  1.00  0.00     0.031 C 
ATOM     40  C   UNL A   1      39.612  26.515  28.119  1.00  0.00     0.029 A 
ATOM     41  C   UNL A   1      40.493  27.532  28.684  1.00  0.00     0.049 A 
ATOM     42  H   UNL A   1      42.548  27.402  28.990  1.00  0.00     0.167 HD
ATOM     43  C   UNL A   1      46.829  26.913  29.773  1.00  0.00     0.037 A 
ATOM     44  C   UNL A   1      40.104  28.750  29.108  1.00  0.00     0.037 A 
ATOM     45  C   UNL A   1      46.526  28.266  30.160  1.00  0.00     0.049 A 
ATOM     46  C   UNL A   1      41.134  29.693  29.669  1.00  0.00     0.074 A 
ATOM     47  C   UNL A   1      47.389  29.245  30.621  1.00  0.00     0.029 A 
ATOM     48  N   UNL A   1      45.259  28.829  30.138  1.00  0.00    -0.354 N 
ATOM     49  N   UNL A   1      42.422  29.512  29.828  1.00  0.00    -0.248 NA
ATOM     50  C   UNL A   1      40.654  31.012  30.105  1.00  0.00     0.031 C 
ATOM     51  C   UNL A   1      46.637  30.384  30.922  1.00  0.00     0.029 A 
ATOM     52  C   UNL A   1      45.313  30.134  30.598  1.00  0.00     0.049 A 
ATOM     53  H   UNL A   1      44.441  28.369  29.838  1.00  0.00     0.167 HD
ATOM     54  C   UNL A   1      42.912  30.701  30.351  1.00  0.00     0.074 A 
ATOM     55  C   UNL A   1      41.784  31.602  30.470  1.00  0.00     0.031 C 
ATOM     56  C   UNL A   1      44.182  31.021  30.702  1.00  0.00     0.037 A 
BRANCH  43  57
ATOM     57  C   UNL A   1      48.241  26.427  29.923  1.00  0.00     0.057 A 
ATOM     58  C   UNL A   1      48.684  25.785  31.088  1.00  0.00     0.134 A 
ATOM     59  C   UNL A   1      49.164  26.571  28.878  1.00  0.00     0.134 A 
ATOM     60  F   UNL A   1      47.856  25.625  32.132  1.00  0.00    -0.206 F 
ATOM     61  C   UNL A   1      49.998  25.334  31.221  1.00  0.00     0.040 A 
ATOM     62  C   UNL A   1      50.472  26.096  28.987  1.00  0.00     0.040 A 
ATOM     63  F   UNL A   1      48.807  27.169  27.731  1.00  0.00    -0.206 F 
ATOM     64  C   UNL A   1      50.894  25.482  30.164  1.00  0.00     0.006 A 
ENDBRANCH  43  57
BRANCH  44  65
ATOM     65  C   UNL A   1      38.681  29.157  29.002  1.00  0.00     0.057 A 
ATOM     66  C   UNL A   1      37.827  29.091  30.110  1.00  0.00     0.134 A 
ATOM     67  C   UNL A   1      38.136  29.613  27.796  1.00  0.00     0.134 A 
ATOM     68  F   UNL A   1      38.285  28.647  31.289  1.00  0.00    -0.206 F 
ATOM     69  C   UNL A   1      36.478  29.441  30.017  1.00  0.00     0.040 A 
ATOM     70  C   UNL A   1      36.796  29.992  27.695  1.00  0.00     0.040 A 
ATOM     71  F   UNL A   1      38.902  29.709  26.700  1.00  0.00    -0.206 F 
ATOM     72  C   UNL A   1      35.962  29.898  28.807  1.00  0.00     0.006 A 
ENDBRANCH  44  65
BRANCH  56  73
ATOM     73  C   UNL A   1      44.427  32.412  31.210  1.00  0.00     0.057 A 
ATOM     74  C   UNL A   1      44.713  33.477  30.347  1.00  0.00     0.134 A 
ATOM     75  C   UNL A   1      44.335  32.694  32.579  1.00  0.00     0.134 A 
ATOM     76  F   UNL A   1      44.828  33.271  29.027  1.00  0.00    -0.206 F 
ATOM     77  C   UNL A   1      44.924  34.770  30.831  1.00  0.00     0.040 A 
ATOM     78  C   UNL A   1      44.514  33.987  33.071  1.00  0.00     0.040 A 
ATOM     79  F   UNL A   1      44.054  31.722  33.459  1.00  0.00    -0.206 F 
ATOM     80  C   UNL A   1      44.816  35.029  32.196  1.00  0.00     0.006 A 
ENDBRANCH  56  73
ENDBRANCH  30  31
ENDBRANCH  22  25
ENDBRANCH  20  21
ENDBRANCH  19  20
ENDBRANCH   1  19
TORSDOF 14
ENDMDL
