MODEL 1
REMARK VINA RESULT:     -13.0      0.000      0.000
REMARK SMILES O=C(Cn1nc(C(=O)NCCCNC(=O)c2ccc(-c3c4nc(c(-c5c(F)cccc5F)c5ccc([nH]5)c(-c5c(F)cccc5F)c5nc(c(-c6c(F)cccc6F)c6ccc3[nH]6)C=C5)C=C4)cc2)c2ccccc2c1=O)NCc1ccc(F)cc1
REMARK SMILES IDX 10 1 9 2 7 3 8 4 6 6 4 7 5 8 76 9 75 10 77 11 70 12 74 13
REMARK SMILES IDX 71 14 73 15 72 16 3 17 2 18 1 19 78 20 79 22 80 23 81 24
REMARK SMILES IDX 86 25 82 26 85 27 83 28 84 29 11 30 12 31 13 32 14 33 15 35
REMARK SMILES IDX 16 36 17 37 69 38 18 39 68 40 19 41 20 42 21 43 62 44 22 45
REMARK SMILES IDX 67 46 61 47 63 48 23 49 66 50 60 51 59 52 24 54 50 55 33 56
REMARK SMILES IDX 49 57 34 58 37 59 48 60 64 61 35 62 36 63 47 65 65 66 38 67
REMARK SMILES IDX 25 68 26 69 31 70 27 71 28 72 30 73 32 74 29 75 51 76 52 77
REMARK SMILES IDX 57 78 53 79 54 80 56 81 58 82 55 83 39 84 40 85 45 86 41 87
REMARK SMILES IDX 42 88 44 89 46 90 43 91
REMARK H PARENT 9 5 78 21 13 34 63 53 37 64
REMARK Flexibility Score: inf
ROOT
ATOM      1  C   UNL A   1      33.893  29.845  26.942  1.00  0.00     0.118 C 
ENDROOT
BRANCH   1   2
ATOM      2  N   UNL A   1      32.980  29.033  27.726  1.00  0.00    -0.351 N 
ATOM      3  C   UNL A   1      32.153  27.994  27.363  1.00  0.00     0.272 C 
ATOM      4  O   UNL A   1      31.195  27.763  28.092  1.00  0.00    -0.267 OA
ATOM      5  H   UNL A   1      32.945  29.266  28.681  1.00  0.00     0.163 HD
BRANCH   3   6
ATOM      6  C   UNL A   1      32.388  27.123  26.110  1.00  0.00     0.156 A 
ATOM      7  N   UNL A   1      33.431  25.315  25.087  1.00  0.00    -0.219 N 
ATOM      8  N   UNL A   1      33.185  26.094  26.204  1.00  0.00    -0.163 NA
ATOM      9  C   UNL A   1      32.906  25.574  23.828  1.00  0.00     0.275 A 
ATOM     10  C   UNL A   1      32.029  26.741  23.701  1.00  0.00     0.051 A 
ATOM     11  O   UNL A   1      33.125  24.869  22.840  1.00  0.00    -0.267 OA
ATOM     12  C   UNL A   1      31.729  27.506  24.826  1.00  0.00     0.020 A 
ATOM     13  C   UNL A   1      31.481  27.051  22.445  1.00  0.00     0.014 A 
ATOM     14  C   UNL A   1      30.845  28.584  24.674  1.00  0.00     0.011 A 
ATOM     15  C   UNL A   1      30.629  28.140  22.304  1.00  0.00     0.001 A 
ATOM     16  C   UNL A   1      30.309  28.904  23.420  1.00  0.00     0.001 A 
BRANCH   7  17
ATOM     17  C   UNL A   1      34.161  24.056  25.232  1.00  0.00     0.248 C 
BRANCH  17  18
ATOM     18  C   UNL A   1      33.345  22.846  25.650  1.00  0.00     0.242 C 
ATOM     19  O   UNL A   1      33.065  22.617  26.824  1.00  0.00    -0.273 OA
ATOM     20  N   UNL A   1      32.838  22.119  24.599  1.00  0.00    -0.350 N 
ATOM     21  H   UNL A   1      32.971  22.444  23.679  1.00  0.00     0.163 HD
BRANCH  20  22
ATOM     22  C   UNL A   1      32.120  20.897  24.811  1.00  0.00     0.151 C 
BRANCH  22  23
ATOM     23  C   UNL A   1      32.775  19.700  24.205  1.00  0.00    -0.029 A 
ATOM     24  C   UNL A   1      32.206  19.051  23.102  1.00  0.00     0.008 A 
ATOM     25  C   UNL A   1      33.920  19.172  24.817  1.00  0.00     0.008 A 
ATOM     26  C   UNL A   1      32.745  17.853  22.653  1.00  0.00     0.039 A 
ATOM     27  C   UNL A   1      34.477  17.998  24.341  1.00  0.00     0.039 A 
ATOM     28  C   UNL A   1      33.853  17.325  23.300  1.00  0.00     0.123 A 
ATOM     29  F   UNL A   1      34.285  16.115  22.942  1.00  0.00    -0.207 F 
ENDBRANCH  22  23
ENDBRANCH  20  22
ENDBRANCH  17  18
ENDBRANCH   7  17
ENDBRANCH   3   6
ENDBRANCH   1   2
BRANCH   1  30
ATOM     30  C   UNL A   1      33.150  31.012  26.298  1.00  0.00     0.042 C 
BRANCH  30  31
ATOM     31  C   UNL A   1      31.994  31.609  27.102  1.00  0.00     0.118 C 
BRANCH  31  32
ATOM     32  N   UNL A   1      32.153  33.042  27.312  1.00  0.00    -0.352 N 
ATOM     33  C   UNL A   1      33.052  33.775  28.051  1.00  0.00     0.251 C 
ATOM     34  H   UNL A   1      31.489  33.590  26.835  1.00  0.00     0.163 HD
ATOM     35  O   UNL A   1      32.803  34.967  28.238  1.00  0.00    -0.269 OA
BRANCH  33  36
ATOM     36  C   UNL A   1      34.298  33.205  28.637  1.00  0.00     0.039 A 
ATOM     37  C   UNL A   1      34.299  32.308  29.702  1.00  0.00     0.014 A 
ATOM     38  C   UNL A   1      35.520  33.489  28.009  1.00  0.00     0.014 A 
ATOM     39  C   UNL A   1      35.508  31.819  30.219  1.00  0.00     0.010 A 
ATOM     40  C   UNL A   1      36.721  32.918  28.466  1.00  0.00     0.010 A 
ATOM     41  C   UNL A   1      36.744  32.111  29.610  1.00  0.00    -0.014 A 
BRANCH  41  42
ATOM     42  C   UNL A   1      38.001  31.521  30.167  1.00  0.00     0.031 A 
ATOM     43  C   UNL A   1      38.547  31.919  31.518  1.00  0.00     0.074 A 
ATOM     44  C   UNL A   1      38.652  30.549  29.493  1.00  0.00     0.049 A 
ATOM     45  N   UNL A   1      39.352  31.240  32.303  1.00  0.00    -0.248 NA
ATOM     46  C   UNL A   1      38.136  33.213  32.076  1.00  0.00     0.031 C 
ATOM     47  C   UNL A   1      38.327  30.080  28.146  1.00  0.00     0.029 A 
ATOM     48  N   UNL A   1      39.727  29.776  29.862  1.00  0.00    -0.354 N 
ATOM     49  C   UNL A   1      39.418  31.957  33.491  1.00  0.00     0.074 A 
ATOM     50  C   UNL A   1      38.698  33.187  33.278  1.00  0.00     0.031 C 
ATOM     51  C   UNL A   1      39.173  29.093  27.808  1.00  0.00     0.029 A 
ATOM     52  C   UNL A   1      40.115  28.873  28.903  1.00  0.00     0.049 A 
ATOM     53  H   UNL A   1      40.178  29.862  30.733  1.00  0.00     0.167 HD
ATOM     54  C   UNL A   1      39.982  31.601  34.669  1.00  0.00     0.037 A 
ATOM     55  C   UNL A   1      41.118  27.975  28.898  1.00  0.00     0.037 A 
ATOM     56  C   UNL A   1      40.908  30.518  34.830  1.00  0.00     0.049 A 
ATOM     57  C   UNL A   1      41.979  27.808  30.121  1.00  0.00     0.074 A 
ATOM     58  C   UNL A   1      41.591  30.129  35.969  1.00  0.00     0.029 A 
ATOM     59  N   UNL A   1      41.365  29.727  33.793  1.00  0.00    -0.354 N 
ATOM     60  N   UNL A   1      41.838  28.333  31.313  1.00  0.00    -0.248 NA
ATOM     61  C   UNL A   1      43.142  26.916  29.995  1.00  0.00     0.031 C 
ATOM     62  C   UNL A   1      42.545  29.176  35.593  1.00  0.00     0.029 A 
ATOM     63  C   UNL A   1      42.401  28.925  34.239  1.00  0.00     0.049 A 
ATOM     64  H   UNL A   1      41.008  29.733  32.876  1.00  0.00     0.167 HD
ATOM     65  C   UNL A   1      42.871  27.812  32.085  1.00  0.00     0.074 A 
ATOM     66  C   UNL A   1      43.625  26.922  31.229  1.00  0.00     0.031 C 
ATOM     67  C   UNL A   1      43.161  28.047  33.389  1.00  0.00     0.037 A 
BRANCH  54  68
ATOM     68  C   UNL A   1      39.618  32.391  35.886  1.00  0.00     0.057 A 
ATOM     69  C   UNL A   1      38.548  32.033  36.709  1.00  0.00     0.134 A 
ATOM     70  C   UNL A   1      40.309  33.572  36.190  1.00  0.00     0.134 A 
ATOM     71  F   UNL A   1      37.833  30.928  36.450  1.00  0.00    -0.206 F 
ATOM     72  C   UNL A   1      38.190  32.811  37.813  1.00  0.00     0.040 A 
ATOM     73  C   UNL A   1      39.961  34.358  37.291  1.00  0.00     0.040 A 
ATOM     74  F   UNL A   1      41.355  33.960  35.443  1.00  0.00    -0.206 F 
ATOM     75  C   UNL A   1      38.902  33.973  38.110  1.00  0.00     0.006 A 
ENDBRANCH  54  68
BRANCH  55  76
ATOM     76  C   UNL A   1      41.399  27.178  27.676  1.00  0.00     0.057 A 
ATOM     77  C   UNL A   1      42.190  27.699  26.645  1.00  0.00     0.134 A 
ATOM     78  C   UNL A   1      40.935  25.866  27.534  1.00  0.00     0.134 A 
ATOM     79  F   UNL A   1      42.671  28.949  26.725  1.00  0.00    -0.206 F 
ATOM     80  C   UNL A   1      42.505  26.948  25.513  1.00  0.00     0.040 A 
ATOM     81  C   UNL A   1      41.265  25.094  26.418  1.00  0.00     0.040 A 
ATOM     82  F   UNL A   1      40.196  25.302  28.500  1.00  0.00    -0.206 F 
ATOM     83  C   UNL A   1      42.050  25.637  25.402  1.00  0.00     0.006 A 
ENDBRANCH  55  76
BRANCH  67  84
ATOM     84  C   UNL A   1      44.335  27.329  33.983  1.00  0.00     0.057 A 
ATOM     85  C   UNL A   1      44.183  26.058  34.552  1.00  0.00     0.134 A 
ATOM     86  C   UNL A   1      45.610  27.909  34.031  1.00  0.00     0.134 A 
ATOM     87  F   UNL A   1      42.987  25.450  34.552  1.00  0.00    -0.206 F 
ATOM     88  C   UNL A   1      45.253  25.392  35.150  1.00  0.00     0.040 A 
ATOM     89  C   UNL A   1      46.695  27.240  34.599  1.00  0.00     0.040 A 
ATOM     90  F   UNL A   1      45.826  29.121  33.497  1.00  0.00    -0.206 F 
ATOM     91  C   UNL A   1      46.515  25.981  35.167  1.00  0.00     0.006 A 
ENDBRANCH  67  84
ENDBRANCH  41  42
ENDBRANCH  33  36
ENDBRANCH  31  32
ENDBRANCH  30  31
ENDBRANCH   1  30
TORSDOF 14
ENDMDL
MODEL 2
REMARK VINA RESULT:     -12.6      4.478      9.631
REMARK SMILES O=C(Cn1nc(C(=O)NCCCNC(=O)c2ccc(-c3c4nc(c(-c5c(F)cccc5F)c5ccc([nH]5)c(-c5c(F)cccc5F)c5nc(c(-c6c(F)cccc6F)c6ccc3[nH]6)C=C5)C=C4)cc2)c2ccccc2c1=O)NCc1ccc(F)cc1
REMARK SMILES IDX 10 1 9 2 7 3 8 4 6 6 4 7 5 8 76 9 75 10 77 11 70 12 74 13
REMARK SMILES IDX 71 14 73 15 72 16 3 17 2 18 1 19 78 20 79 22 80 23 81 24
REMARK SMILES IDX 86 25 82 26 85 27 83 28 84 29 11 30 12 31 13 32 14 33 15 35
REMARK SMILES IDX 16 36 17 37 69 38 18 39 68 40 19 41 20 42 21 43 62 44 22 45
REMARK SMILES IDX 67 46 61 47 63 48 23 49 66 50 60 51 59 52 24 54 50 55 33 56
REMARK SMILES IDX 49 57 34 58 37 59 48 60 64 61 35 62 36 63 47 65 65 66 38 67
REMARK SMILES IDX 25 68 26 69 31 70 27 71 28 72 30 73 32 74 29 75 51 76 52 77
REMARK SMILES IDX 57 78 53 79 54 80 56 81 58 82 55 83 39 84 40 85 45 86 41 87
REMARK SMILES IDX 42 88 44 89 46 90 43 91
REMARK H PARENT 9 5 78 21 13 34 63 53 37 64
REMARK Flexibility Score: inf
ROOT
ATOM      1  C   UNL A   1      37.267  21.650  24.862  1.00  0.00     0.118 C 
ENDROOT
BRANCH   1   2
ATOM      2  N   UNL A   1      36.414  21.395  26.008  1.00  0.00    -0.351 N 
ATOM      3  C   UNL A   1      35.047  21.462  26.152  1.00  0.00     0.272 C 
ATOM      4  O   UNL A   1      34.612  21.615  27.288  1.00  0.00    -0.267 OA
ATOM      5  H   UNL A   1      36.897  21.128  26.823  1.00  0.00     0.163 HD
BRANCH   3   6
ATOM      6  C   UNL A   1      34.064  21.343  24.967  1.00  0.00     0.156 A 
ATOM      7  N   UNL A   1      32.562  22.332  23.495  1.00  0.00    -0.219 N 
ATOM      8  N   UNL A   1      33.467  22.420  24.539  1.00  0.00    -0.163 NA
ATOM      9  C   UNL A   1      32.203  21.143  22.876  1.00  0.00     0.275 A 
ATOM     10  C   UNL A   1      32.846  19.920  23.364  1.00  0.00     0.051 A 
ATOM     11  O   UNL A   1      31.400  21.076  21.942  1.00  0.00    -0.267 OA
ATOM     12  C   UNL A   1      33.798  19.996  24.378  1.00  0.00     0.020 A 
ATOM     13  C   UNL A   1      32.507  18.689  22.776  1.00  0.00     0.014 A 
ATOM     14  C   UNL A   1      34.428  18.810  24.781  1.00  0.00     0.011 A 
ATOM     15  C   UNL A   1      33.120  17.518  23.206  1.00  0.00     0.001 A 
ATOM     16  C   UNL A   1      34.082  17.580  24.207  1.00  0.00     0.001 A 
BRANCH   7  17
ATOM     17  C   UNL A   1      32.044  23.556  22.886  1.00  0.00     0.248 C 
BRANCH  17  18
ATOM     18  C   UNL A   1      32.966  24.762  22.900  1.00  0.00     0.242 C 
ATOM     19  O   UNL A   1      33.643  25.082  21.927  1.00  0.00    -0.273 OA
ATOM     20  N   UNL A   1      32.869  25.532  24.036  1.00  0.00    -0.350 N 
ATOM     21  H   UNL A   1      32.193  25.306  24.714  1.00  0.00     0.163 HD
BRANCH  20  22
ATOM     22  C   UNL A   1      33.730  26.657  24.254  1.00  0.00     0.151 C 
BRANCH  22  23
ATOM     23  C   UNL A   1      33.118  27.730  25.092  1.00  0.00    -0.029 A 
ATOM     24  C   UNL A   1      32.172  28.611  24.553  1.00  0.00     0.008 A 
ATOM     25  C   UNL A   1      33.577  27.909  26.405  1.00  0.00     0.008 A 
ATOM     26  C   UNL A   1      31.734  29.696  25.302  1.00  0.00     0.039 A 
ATOM     27  C   UNL A   1      33.107  28.969  27.160  1.00  0.00     0.039 A 
ATOM     28  C   UNL A   1      32.233  29.878  26.583  1.00  0.00     0.123 A 
ATOM     29  F   UNL A   1      31.902  30.988  27.244  1.00  0.00    -0.207 F 
ENDBRANCH  22  23
ENDBRANCH  20  22
ENDBRANCH  17  18
ENDBRANCH   7  17
ENDBRANCH   3   6
ENDBRANCH   1   2
BRANCH   1  30
ATOM     30  C   UNL A   1      38.210  20.472  24.626  1.00  0.00     0.042 C 
BRANCH  30  31
ATOM     31  C   UNL A   1      38.394  19.504  25.796  1.00  0.00     0.118 C 
BRANCH  31  32
ATOM     32  N   UNL A   1      39.685  18.831  25.753  1.00  0.00    -0.352 N 
ATOM     33  C   UNL A   1      40.972  19.281  25.939  1.00  0.00     0.251 C 
ATOM     34  H   UNL A   1      39.625  17.868  25.554  1.00  0.00     0.163 HD
ATOM     35  O   UNL A   1      41.893  18.534  25.607  1.00  0.00    -0.269 OA
BRANCH  33  36
ATOM     36  C   UNL A   1      41.304  20.617  26.508  1.00  0.00     0.039 A 
ATOM     37  C   UNL A   1      41.185  20.922  27.862  1.00  0.00     0.014 A 
ATOM     38  C   UNL A   1      41.880  21.577  25.661  1.00  0.00     0.014 A 
ATOM     39  C   UNL A   1      41.500  22.205  28.333  1.00  0.00     0.010 A 
ATOM     40  C   UNL A   1      42.287  22.829  26.156  1.00  0.00     0.010 A 
ATOM     41  C   UNL A   1      42.060  23.184  27.490  1.00  0.00    -0.014 A 
BRANCH  41  42
ATOM     42  C   UNL A   1      42.428  24.521  28.053  1.00  0.00     0.031 A 
ATOM     43  C   UNL A   1      43.860  24.905  28.345  1.00  0.00     0.074 A 
ATOM     44  C   UNL A   1      41.478  25.459  28.252  1.00  0.00     0.049 A 
ATOM     45  N   UNL A   1      44.377  26.109  28.434  1.00  0.00    -0.248 NA
ATOM     46  C   UNL A   1      44.838  23.829  28.540  1.00  0.00     0.031 C 
ATOM     47  C   UNL A   1      40.036  25.259  28.101  1.00  0.00     0.029 A 
ATOM     48  N   UNL A   1      41.592  26.778  28.622  1.00  0.00    -0.354 N 
ATOM     49  C   UNL A   1      45.750  25.925  28.547  1.00  0.00     0.074 A 
ATOM     50  C   UNL A   1      45.973  24.505  28.662  1.00  0.00     0.031 C 
ATOM     51  C   UNL A   1      39.403  26.414  28.362  1.00  0.00     0.029 A 
ATOM     52  C   UNL A   1      40.388  27.432  28.719  1.00  0.00     0.049 A 
ATOM     53  H   UNL A   1      42.456  27.214  28.800  1.00  0.00     0.167 HD
ATOM     54  C   UNL A   1      46.738  26.849  28.505  1.00  0.00     0.037 A 
ATOM     55  C   UNL A   1      40.106  28.702  29.065  1.00  0.00     0.037 A 
ATOM     56  C   UNL A   1      46.535  28.261  28.647  1.00  0.00     0.049 A 
ATOM     57  C   UNL A   1      41.224  29.667  29.350  1.00  0.00     0.074 A 
ATOM     58  C   UNL A   1      47.481  29.269  28.695  1.00  0.00     0.029 A 
ATOM     59  N   UNL A   1      45.305  28.848  28.880  1.00  0.00    -0.354 N 
ATOM     60  N   UNL A   1      42.516  29.510  29.193  1.00  0.00    -0.248 NA
ATOM     61  C   UNL A   1      40.842  30.993  29.860  1.00  0.00     0.031 C 
ATOM     62  C   UNL A   1      46.832  30.451  29.070  1.00  0.00     0.029 A 
ATOM     63  C   UNL A   1      45.477  30.187  29.182  1.00  0.00     0.049 A 
ATOM     64  H   UNL A   1      44.439  28.384  28.837  1.00  0.00     0.167 HD
ATOM     65  C   UNL A   1      43.095  30.722  29.554  1.00  0.00     0.074 A 
ATOM     66  C   UNL A   1      42.013  31.608  29.927  1.00  0.00     0.031 C 
ATOM     67  C   UNL A   1      44.406  31.068  29.565  1.00  0.00     0.037 A 
BRANCH  54  68
ATOM     68  C   UNL A   1      48.139  26.365  28.299  1.00  0.00     0.057 A 
ATOM     69  C   UNL A   1      48.991  26.087  29.370  1.00  0.00     0.134 A 
ATOM     70  C   UNL A   1      48.660  26.249  27.003  1.00  0.00     0.134 A 
ATOM     71  F   UNL A   1      48.555  26.207  30.633  1.00  0.00    -0.206 F 
ATOM     72  C   UNL A   1      50.312  25.684  29.160  1.00  0.00     0.040 A 
ATOM     73  C   UNL A   1      49.979  25.848  26.780  1.00  0.00     0.040 A 
ATOM     74  F   UNL A   1      47.884  26.490  25.934  1.00  0.00    -0.206 F 
ATOM     75  C   UNL A   1      50.807  25.557  27.862  1.00  0.00     0.006 A 
ENDBRANCH  54  68
BRANCH  55  76
ATOM     76  C   UNL A   1      38.693  29.140  29.200  1.00  0.00     0.057 A 
ATOM     77  C   UNL A   1      37.975  29.606  28.091  1.00  0.00     0.134 A 
ATOM     78  C   UNL A   1      38.011  29.052  30.419  1.00  0.00     0.134 A 
ATOM     79  F   UNL A   1      38.570  29.706  26.893  1.00  0.00    -0.206 F 
ATOM     80  C   UNL A   1      36.634  29.974  28.189  1.00  0.00     0.040 A 
ATOM     81  C   UNL A   1      36.661  29.393  30.525  1.00  0.00     0.040 A 
ATOM     82  F   UNL A   1      38.636  28.588  31.511  1.00  0.00    -0.206 F 
ATOM     83  C   UNL A   1      35.970  29.858  29.408  1.00  0.00     0.006 A 
ENDBRANCH  55  76
BRANCH  67  84
ATOM     84  C   UNL A   1      44.755  32.465  29.984  1.00  0.00     0.057 A 
ATOM     85  C   UNL A   1      45.038  32.760  31.324  1.00  0.00     0.134 A 
ATOM     86  C   UNL A   1      44.770  33.529  29.072  1.00  0.00     0.134 A 
ATOM     87  F   UNL A   1      45.027  31.791  32.252  1.00  0.00    -0.206 F 
ATOM     88  C   UNL A   1      45.320  34.061  31.742  1.00  0.00     0.040 A 
ATOM     89  C   UNL A   1      45.082  34.829  29.473  1.00  0.00     0.040 A 
ATOM     90  F   UNL A   1      44.516  33.314  27.772  1.00  0.00    -0.206 F 
ATOM     91  C   UNL A   1      45.350  35.098  30.813  1.00  0.00     0.006 A 
ENDBRANCH  67  84
ENDBRANCH  41  42
ENDBRANCH  33  36
ENDBRANCH  31  32
ENDBRANCH  30  31
ENDBRANCH   1  30
TORSDOF 14
ENDMDL
MODEL 3
REMARK VINA RESULT:     -12.6      1.652      2.416
REMARK SMILES O=C(Cn1nc(C(=O)NCCCNC(=O)c2ccc(-c3c4nc(c(-c5c(F)cccc5F)c5ccc([nH]5)c(-c5c(F)cccc5F)c5nc(c(-c6c(F)cccc6F)c6ccc3[nH]6)C=C5)C=C4)cc2)c2ccccc2c1=O)NCc1ccc(F)cc1
REMARK SMILES IDX 10 1 9 2 7 3 8 4 6 6 4 7 5 8 76 9 75 10 77 11 70 12 74 13
REMARK SMILES IDX 71 14 73 15 72 16 3 17 2 18 1 19 78 20 79 22 80 23 81 24
REMARK SMILES IDX 86 25 82 26 85 27 83 28 84 29 11 30 12 31 13 32 14 33 15 35
REMARK SMILES IDX 16 36 17 37 69 38 18 39 68 40 19 41 20 42 21 43 62 44 22 45
REMARK SMILES IDX 67 46 61 47 63 48 23 49 66 50 60 51 59 52 24 54 50 55 33 56
REMARK SMILES IDX 49 57 34 58 37 59 48 60 64 61 35 62 36 63 47 65 65 66 38 67
REMARK SMILES IDX 25 68 26 69 31 70 27 71 28 72 30 73 32 74 29 75 51 76 52 77
REMARK SMILES IDX 57 78 53 79 54 80 56 81 58 82 55 83 39 84 40 85 45 86 41 87
REMARK SMILES IDX 42 88 44 89 46 90 43 91
REMARK H PARENT 9 5 78 21 13 34 63 53 37 64
REMARK Flexibility Score: inf
ROOT
ATOM      1  C   UNL A   1      32.363  30.031  26.816  1.00  0.00     0.118 C 
ENDROOT
BRANCH   1   2
ATOM      2  N   UNL A   1      32.876  30.086  25.459  1.00  0.00    -0.351 N 
ATOM      3  C   UNL A   1      32.674  29.257  24.380  1.00  0.00     0.272 C 
ATOM      4  O   UNL A   1      33.526  29.270  23.499  1.00  0.00    -0.267 OA
ATOM      5  H   UNL A   1      33.474  30.848  25.281  1.00  0.00     0.163 HD
BRANCH   3   6
ATOM      6  C   UNL A   1      31.439  28.342  24.235  1.00  0.00     0.156 A 
ATOM      7  N   UNL A   1      30.477  26.230  24.360  1.00  0.00    -0.219 N 
ATOM      8  N   UNL A   1      31.564  27.073  24.508  1.00  0.00    -0.163 NA
ATOM      9  C   UNL A   1      29.235  26.638  23.893  1.00  0.00     0.275 A 
ATOM     10  C   UNL A   1      29.086  28.057  23.557  1.00  0.00     0.051 A 
ATOM     11  O   UNL A   1      28.270  25.880  23.771  1.00  0.00    -0.267 OA
ATOM     12  C   UNL A   1      30.153  28.930  23.750  1.00  0.00     0.020 A 
ATOM     13  C   UNL A   1      27.850  28.517  23.071  1.00  0.00     0.014 A 
ATOM     14  C   UNL A   1      29.954  30.289  23.467  1.00  0.00     0.011 A 
ATOM     15  C   UNL A   1      27.677  29.862  22.767  1.00  0.00     0.001 A 
ATOM     16  C   UNL A   1      28.729  30.747  22.967  1.00  0.00     0.001 A 
BRANCH   7  17
ATOM     17  C   UNL A   1      30.559  24.855  24.850  1.00  0.00     0.248 C 
BRANCH  17  18
ATOM     18  C   UNL A   1      31.620  24.572  25.897  1.00  0.00     0.242 C 
ATOM     19  O   UNL A   1      31.346  24.410  27.084  1.00  0.00    -0.273 OA
ATOM     20  N   UNL A   1      32.881  24.377  25.383  1.00  0.00    -0.350 N 
ATOM     21  H   UNL A   1      33.007  24.368  24.407  1.00  0.00     0.163 HD
BRANCH  20  22
ATOM     22  C   UNL A   1      34.017  24.188  26.237  1.00  0.00     0.151 C 
BRANCH  22  23
ATOM     23  C   UNL A   1      35.024  23.229  25.695  1.00  0.00    -0.029 A 
ATOM     24  C   UNL A   1      34.670  21.908  25.391  1.00  0.00     0.008 A 
ATOM     25  C   UNL A   1      36.360  23.641  25.584  1.00  0.00     0.008 A 
ATOM     26  C   UNL A   1      35.654  20.994  25.038  1.00  0.00     0.039 A 
ATOM     27  C   UNL A   1      37.331  22.735  25.193  1.00  0.00     0.039 A 
ATOM     28  C   UNL A   1      36.975  21.412  24.977  1.00  0.00     0.123 A 
ATOM     29  F   UNL A   1      37.923  20.499  24.759  1.00  0.00    -0.207 F 
ENDBRANCH  22  23
ENDBRANCH  20  22
ENDBRANCH  17  18
ENDBRANCH   7  17
ENDBRANCH   3   6
ENDBRANCH   1   2
BRANCH   1  30
ATOM     30  C   UNL A   1      31.835  31.399  27.242  1.00  0.00     0.042 C 
BRANCH  30  31
ATOM     31  C   UNL A   1      32.398  32.608  26.494  1.00  0.00     0.118 C 
BRANCH  31  32
ATOM     32  N   UNL A   1      32.326  33.828  27.287  1.00  0.00    -0.352 N 
ATOM     33  C   UNL A   1      33.043  34.269  28.375  1.00  0.00     0.251 C 
ATOM     34  H   UNL A   1      31.630  34.457  26.987  1.00  0.00     0.163 HD
ATOM     35  O   UNL A   1      32.606  35.240  28.994  1.00  0.00    -0.269 OA
BRANCH  33  36
ATOM     36  C   UNL A   1      34.306  33.632  28.844  1.00  0.00     0.039 A 
ATOM     37  C   UNL A   1      35.570  34.051  28.435  1.00  0.00     0.014 A 
ATOM     38  C   UNL A   1      34.225  32.644  29.837  1.00  0.00     0.014 A 
ATOM     39  C   UNL A   1      36.721  33.399  28.902  1.00  0.00     0.010 A 
ATOM     40  C   UNL A   1      35.385  32.061  30.377  1.00  0.00     0.010 A 
ATOM     41  C   UNL A   1      36.653  32.393  29.884  1.00  0.00    -0.014 A 
BRANCH  41  42
ATOM     42  C   UNL A   1      37.915  31.765  30.388  1.00  0.00     0.031 A 
ATOM     43  C   UNL A   1      38.514  32.125  31.727  1.00  0.00     0.074 A 
ATOM     44  C   UNL A   1      38.520  30.792  29.675  1.00  0.00     0.049 A 
ATOM     45  N   UNL A   1      39.329  31.414  32.472  1.00  0.00    -0.248 NA
ATOM     46  C   UNL A   1      38.151  33.417  32.321  1.00  0.00     0.031 C 
ATOM     47  C   UNL A   1      38.140  30.355  28.331  1.00  0.00     0.029 A 
ATOM     48  N   UNL A   1      39.589  29.988  29.994  1.00  0.00    -0.354 N 
ATOM     49  C   UNL A   1      39.451  32.107  33.670  1.00  0.00     0.074 A 
ATOM     50  C   UNL A   1      38.752  33.357  33.503  1.00  0.00     0.031 C 
ATOM     51  C   UNL A   1      38.952  29.357  27.947  1.00  0.00     0.029 A 
ATOM     52  C   UNL A   1      39.924  29.095  29.006  1.00  0.00     0.049 A 
ATOM     53  H   UNL A   1      40.070  30.047  30.850  1.00  0.00     0.167 HD
ATOM     54  C   UNL A   1      40.045  31.716  34.821  1.00  0.00     0.037 A 
ATOM     55  C   UNL A   1      40.906  28.176  28.951  1.00  0.00     0.037 A 
ATOM     56  C   UNL A   1      40.952  30.611  34.932  1.00  0.00     0.049 A 
ATOM     57  C   UNL A   1      41.803  27.966  30.141  1.00  0.00     0.074 A 
ATOM     58  C   UNL A   1      41.663  30.185  36.039  1.00  0.00     0.029 A 
ATOM     59  N   UNL A   1      41.356  29.829  33.866  1.00  0.00    -0.354 N 
ATOM     60  N   UNL A   1      41.713  28.472  31.346  1.00  0.00    -0.248 NA
ATOM     61  C   UNL A   1      42.941  27.051  29.960  1.00  0.00     0.031 C 
ATOM     62  C   UNL A   1      42.582  29.219  35.615  1.00  0.00     0.029 A 
ATOM     63  C   UNL A   1      42.387  28.996  34.262  1.00  0.00     0.049 A 
ATOM     64  H   UNL A   1      40.968  29.861  32.962  1.00  0.00     0.167 HD
ATOM     65  C   UNL A   1      42.760  27.914  32.073  1.00  0.00     0.074 A 
ATOM     66  C   UNL A   1      43.464  27.023  31.177  1.00  0.00     0.031 C 
ATOM     67  C   UNL A   1      43.098  28.118  33.371  1.00  0.00     0.037 A 
BRANCH  54  68
ATOM     68  C   UNL A   1      39.740  32.492  36.063  1.00  0.00     0.057 A 
ATOM     69  C   UNL A   1      40.555  33.536  36.504  1.00  0.00     0.134 A 
ATOM     70  C   UNL A   1      38.648  32.132  36.866  1.00  0.00     0.134 A 
ATOM     71  F   UNL A   1      41.629  33.906  35.791  1.00  0.00    -0.206 F 
ATOM     72  C   UNL A   1      40.283  34.217  37.693  1.00  0.00     0.040 A 
ATOM     73  C   UNL A   1      38.366  32.805  38.058  1.00  0.00     0.040 A 
ATOM     74  F   UNL A   1      37.821  31.145  36.488  1.00  0.00    -0.206 F 
ATOM     75  C   UNL A   1      39.181  33.856  38.470  1.00  0.00     0.006 A 
ENDBRANCH  54  68
BRANCH  55  76
ATOM     76  C   UNL A   1      41.128  27.396  27.706  1.00  0.00     0.057 A 
ATOM     77  C   UNL A   1      41.970  27.878  26.696  1.00  0.00     0.134 A 
ATOM     78  C   UNL A   1      40.554  26.134  27.519  1.00  0.00     0.134 A 
ATOM     79  F   UNL A   1      42.556  29.078  26.819  1.00  0.00    -0.206 F 
ATOM     80  C   UNL A   1      42.229  27.138  25.543  1.00  0.00     0.040 A 
ATOM     81  C   UNL A   1      40.825  25.371  26.382  1.00  0.00     0.040 A 
ATOM     82  F   UNL A   1      39.760  25.606  28.462  1.00  0.00    -0.206 F 
ATOM     83  C   UNL A   1      41.663  25.875  25.388  1.00  0.00     0.006 A 
ENDBRANCH  55  76
BRANCH  67  84
ATOM     84  C   UNL A   1      44.275  27.363  33.912  1.00  0.00     0.057 A 
ATOM     85  C   UNL A   1      44.113  26.085  34.462  1.00  0.00     0.134 A 
ATOM     86  C   UNL A   1      45.563  27.914  33.929  1.00  0.00     0.134 A 
ATOM     87  F   UNL A   1      42.904  25.502  34.490  1.00  0.00    -0.206 F 
ATOM     88  C   UNL A   1      45.186  25.384  35.011  1.00  0.00     0.040 A 
ATOM     89  C   UNL A   1      46.651  27.210  34.448  1.00  0.00     0.040 A 
ATOM     90  F   UNL A   1      45.788  29.131  33.411  1.00  0.00    -0.206 F 
ATOM     91  C   UNL A   1      46.462  25.944  34.998  1.00  0.00     0.006 A 
ENDBRANCH  67  84
ENDBRANCH  41  42
ENDBRANCH  33  36
ENDBRANCH  31  32
ENDBRANCH  30  31
ENDBRANCH   1  30
TORSDOF 14
ENDMDL
