MODEL 1
REMARK VINA RESULT:     -12.3      0.000      0.000
REMARK SMILES Cc1cc(OC(F)(F)F)cc2c1O[C@H](C(F)(F)F)C(C(=O)NCCCNC(=O)c1ccc(-c3c4nc(c(-c5c(F)cccc5F)c5ccc([nH]5)c(-c5c(F)cccc5F)c5nc(c(-c6c(F)cccc6F)c6ccc3[nH]6)C=C5)C=C4)cc1)=C2
REMARK SMILES IDX 24 1 23 2 22 3 20 4 21 5 19 7 1 8 2 9 3 10 12 11 4 12 11 13
REMARK SMILES IDX 13 14 10 15 83 16 14 17 5 18 6 19 7 20 8 21 9 22 15 23 16 24
REMARK SMILES IDX 17 25 18 26 25 27 26 28 27 29 28 31 29 32 30 33 82 34 31 35
REMARK SMILES IDX 81 36 32 37 33 38 34 39 75 40 35 41 80 42 74 43 76 44 36 45
REMARK SMILES IDX 79 46 73 47 72 48 37 50 63 51 46 52 62 53 47 54 50 55 61 56
REMARK SMILES IDX 77 57 48 58 49 59 60 61 78 62 51 63 38 64 39 65 44 66 40 67
REMARK SMILES IDX 41 68 43 69 45 70 42 71 64 72 65 73 70 74 66 75 67 76 69 77
REMARK SMILES IDX 71 78 68 79 52 80 53 81 58 82 54 83 55 84 57 85 59 86 56 87
REMARK H PARENT 22 6 26 30 76 49 50 60
REMARK Flexibility Score: inf
ROOT
ATOM      1  C   UNL A   1      37.817  19.523  24.950  1.00  0.00     0.042 C 
ENDROOT
BRANCH   1   2
ATOM      2  C   UNL A   1      36.715  20.522  24.630  1.00  0.00     0.118 C 
BRANCH   2   3
ATOM      3  N   UNL A   1      35.836  20.737  25.770  1.00  0.00    -0.352 N 
ATOM      4  C   UNL A   1      34.890  21.627  26.144  1.00  0.00     0.251 C 
ATOM      5  O   UNL A   1      34.398  21.429  27.260  1.00  0.00    -0.270 OA
ATOM      6  H   UNL A   1      35.966  20.043  26.458  1.00  0.00     0.163 HD
BRANCH   4   7
ATOM      7  C   UNL A   1      34.425  22.784  25.327  1.00  0.00     0.067 C 
ATOM      8  C   UNL A   1      33.061  26.077  21.598  1.00  0.00     0.048 C 
ATOM      9  C   UNL A   1      33.390  26.169  23.061  1.00  0.00    -0.005 A 
ATOM     10  C   UNL A   1      33.240  27.403  23.716  1.00  0.00     0.054 A 
ATOM     11  C   UNL A   1      33.794  25.055  23.806  1.00  0.00     0.131 A 
ATOM     12  C   UNL A   1      33.515  27.530  25.080  1.00  0.00     0.130 A 
ATOM     13  C   UNL A   1      34.076  25.167  25.169  1.00  0.00     0.021 A 
ATOM     14  O   UNL A   1      33.948  23.868  23.144  1.00  0.00    -0.475 OA
ATOM     15  C   UNL A   1      33.936  26.407  25.799  1.00  0.00     0.058 A 
ATOM     16  C   UNL A   1      34.538  23.996  25.904  1.00  0.00     0.025 C 
ATOM     17  C   UNL A   1      33.828  22.669  23.956  1.00  0.00     0.314 C 
BRANCH  12  18
ATOM     18  O   UNL A   1      33.415  28.671  25.823  1.00  0.00    -0.406 OA
BRANCH  18  19
ATOM     19  C   UNL A   1      32.123  29.075  26.242  1.00  0.00     0.573 C 
ATOM     20  F   UNL A   1      31.648  30.074  25.466  1.00  0.00    -0.132 F 
ATOM     21  F   UNL A   1      31.259  28.038  26.222  1.00  0.00    -0.132 F 
ATOM     22  F   UNL A   1      32.201  29.533  27.512  1.00  0.00    -0.132 F 
ENDBRANCH  18  19
ENDBRANCH  12  18
BRANCH  17  23
ATOM     23  C   UNL A   1      32.358  22.208  23.980  1.00  0.00     0.429 C 
ATOM     24  F   UNL A   1      32.289  20.859  24.112  1.00  0.00    -0.167 F 
ATOM     25  F   UNL A   1      31.669  22.730  25.023  1.00  0.00    -0.167 F 
ATOM     26  F   UNL A   1      31.683  22.541  22.859  1.00  0.00    -0.167 F 
ENDBRANCH  17  23
ENDBRANCH   4   7
ENDBRANCH   2   3
ENDBRANCH   1   2
BRANCH   1  27
ATOM     27  C   UNL A   1      38.959  20.167  25.727  1.00  0.00     0.118 C 
BRANCH  27  28
ATOM     28  N   UNL A   1      40.108  19.270  25.831  1.00  0.00    -0.352 N 
ATOM     29  C   UNL A   1      41.428  19.566  26.065  1.00  0.00     0.251 C 
ATOM     30  H   UNL A   1      39.906  18.313  25.715  1.00  0.00     0.163 HD
ATOM     31  O   UNL A   1      42.301  18.734  25.842  1.00  0.00    -0.269 OA
BRANCH  29  32
ATOM     32  C   UNL A   1      41.790  20.897  26.585  1.00  0.00     0.039 A 
ATOM     33  C   UNL A   1      42.236  21.884  25.703  1.00  0.00     0.014 A 
ATOM     34  C   UNL A   1      41.695  21.159  27.954  1.00  0.00     0.014 A 
ATOM     35  C   UNL A   1      42.524  23.158  26.190  1.00  0.00     0.010 A 
ATOM     36  C   UNL A   1      41.908  22.447  28.426  1.00  0.00     0.010 A 
ATOM     37  C   UNL A   1      42.334  23.454  27.550  1.00  0.00    -0.014 A 
BRANCH  37  38
ATOM     38  C   UNL A   1      42.609  24.806  28.088  1.00  0.00     0.031 A 
ATOM     39  C   UNL A   1      44.003  25.169  28.510  1.00  0.00     0.074 A 
ATOM     40  C   UNL A   1      41.594  25.674  28.256  1.00  0.00     0.049 A 
ATOM     41  N   UNL A   1      44.443  26.279  29.044  1.00  0.00    -0.248 NA
ATOM     42  C   UNL A   1      45.036  24.134  28.335  1.00  0.00     0.031 C 
ATOM     43  C   UNL A   1      40.189  25.412  27.934  1.00  0.00     0.029 A 
ATOM     44  N   UNL A   1      41.590  26.952  28.749  1.00  0.00    -0.354 N 
ATOM     45  C   UNL A   1      45.798  26.075  29.269  1.00  0.00     0.074 A 
ATOM     46  C   UNL A   1      46.094  24.714  28.879  1.00  0.00     0.031 C 
ATOM     47  C   UNL A   1      39.463  26.506  28.218  1.00  0.00     0.029 A 
ATOM     48  C   UNL A   1      40.346  27.534  28.761  1.00  0.00     0.049 A 
ATOM     49  H   UNL A   1      42.402  27.411  29.065  1.00  0.00     0.167 HD
ATOM     50  C   UNL A   1      46.721  26.952  29.731  1.00  0.00     0.037 A 
ATOM     51  C   UNL A   1      39.968  28.761  29.162  1.00  0.00     0.037 A 
ATOM     52  C   UNL A   1      46.426  28.308  30.107  1.00  0.00     0.049 A 
ATOM     53  C   UNL A   1      41.009  29.712  29.681  1.00  0.00     0.074 A 
ATOM     54  C   UNL A   1      47.292  29.295  30.541  1.00  0.00     0.029 A 
ATOM     55  N   UNL A   1      45.156  28.867  30.093  1.00  0.00    -0.354 N 
ATOM     56  N   UNL A   1      42.301  29.532  29.820  1.00  0.00    -0.248 NA
ATOM     57  C   UNL A   1      40.539  31.043  30.089  1.00  0.00     0.031 C 
ATOM     58  C   UNL A   1      46.540  30.443  30.820  1.00  0.00     0.029 A 
ATOM     59  C   UNL A   1      45.211  30.180  30.526  1.00  0.00     0.049 A 
ATOM     60  H   UNL A   1      44.335  28.397  29.816  1.00  0.00     0.167 HD
ATOM     61  C   UNL A   1      42.802  30.732  30.306  1.00  0.00     0.074 A 
ATOM     62  C   UNL A   1      41.675  31.638  30.421  1.00  0.00     0.031 C 
ATOM     63  C   UNL A   1      44.076  31.060  30.632  1.00  0.00     0.037 A 
BRANCH  50  64
ATOM     64  C   UNL A   1      48.133  26.458  29.837  1.00  0.00     0.057 A 
ATOM     65  C   UNL A   1      48.592  25.829  31.000  1.00  0.00     0.134 A 
ATOM     66  C   UNL A   1      49.040  26.596  28.776  1.00  0.00     0.134 A 
ATOM     67  F   UNL A   1      47.777  25.665  32.053  1.00  0.00    -0.206 F 
ATOM     68  C   UNL A   1      49.898  25.347  31.102  1.00  0.00     0.040 A 
ATOM     69  C   UNL A   1      50.341  26.096  28.857  1.00  0.00     0.040 A 
ATOM     70  F   UNL A   1      48.658  27.173  27.627  1.00  0.00    -0.206 F 
ATOM     71  C   UNL A   1      50.774  25.472  30.024  1.00  0.00     0.006 A 
ENDBRANCH  50  64
BRANCH  51  72
ATOM     72  C   UNL A   1      38.550  29.180  29.055  1.00  0.00     0.057 A 
ATOM     73  C   UNL A   1      37.681  29.122  30.151  1.00  0.00     0.134 A 
ATOM     74  C   UNL A   1      38.039  29.681  27.850  1.00  0.00     0.134 A 
ATOM     75  F   UNL A   1      38.108  28.646  31.328  1.00  0.00    -0.206 F 
ATOM     76  C   UNL A   1      36.356  29.551  30.054  1.00  0.00     0.040 A 
ATOM     77  C   UNL A   1      36.723  30.133  27.745  1.00  0.00     0.040 A 
ATOM     78  F   UNL A   1      38.830  29.777  26.772  1.00  0.00    -0.206 F 
ATOM     79  C   UNL A   1      35.877  30.066  28.851  1.00  0.00     0.006 A 
ENDBRANCH  51  72
BRANCH  63  80
ATOM     80  C   UNL A   1      44.310  32.460  31.114  1.00  0.00     0.057 A 
ATOM     81  C   UNL A   1      44.256  32.764  32.479  1.00  0.00     0.134 A 
ATOM     82  C   UNL A   1      44.587  33.507  30.225  1.00  0.00     0.134 A 
ATOM     83  F   UNL A   1      43.989  31.807  33.381  1.00  0.00    -0.206 F 
ATOM     84  C   UNL A   1      44.473  34.061  32.946  1.00  0.00     0.040 A 
ATOM     85  C   UNL A   1      44.833  34.803  30.682  1.00  0.00     0.040 A 
ATOM     86  F   UNL A   1      44.670  33.276  28.907  1.00  0.00    -0.206 F 
ATOM     87  C   UNL A   1      44.772  35.082  32.047  1.00  0.00     0.006 A 
ENDBRANCH  63  80
ENDBRANCH  37  38
ENDBRANCH  29  32
ENDBRANCH  27  28
ENDBRANCH   1  27
TORSDOF 13
ENDMDL
MODEL 2
REMARK VINA RESULT:     -12.2      1.362      6.215
REMARK SMILES Cc1cc(OC(F)(F)F)cc2c1O[C@H](C(F)(F)F)C(C(=O)NCCCNC(=O)c1ccc(-c3c4nc(c(-c5c(F)cccc5F)c5ccc([nH]5)c(-c5c(F)cccc5F)c5nc(c(-c6c(F)cccc6F)c6ccc3[nH]6)C=C5)C=C4)cc1)=C2
REMARK SMILES IDX 24 1 23 2 22 3 20 4 21 5 19 7 1 8 2 9 3 10 12 11 4 12 11 13
REMARK SMILES IDX 13 14 10 15 83 16 14 17 5 18 6 19 7 20 8 21 9 22 15 23 16 24
REMARK SMILES IDX 17 25 18 26 25 27 26 28 27 29 28 31 29 32 30 33 82 34 31 35
REMARK SMILES IDX 81 36 32 37 33 38 34 39 75 40 35 41 80 42 74 43 76 44 36 45
REMARK SMILES IDX 79 46 73 47 72 48 37 50 63 51 46 52 62 53 47 54 50 55 61 56
REMARK SMILES IDX 77 57 48 58 49 59 60 61 78 62 51 63 38 64 39 65 44 66 40 67
REMARK SMILES IDX 41 68 43 69 45 70 42 71 64 72 65 73 70 74 66 75 67 76 69 77
REMARK SMILES IDX 71 78 68 79 52 80 53 81 58 82 54 83 55 84 57 85 59 86 56 87
REMARK H PARENT 22 6 26 30 76 49 50 60
REMARK Flexibility Score: inf
ROOT
ATOM      1  C   UNL A   1      37.924  19.609  24.951  1.00  0.00     0.042 C 
ENDROOT
BRANCH   1   2
ATOM      2  C   UNL A   1      36.888  20.687  24.667  1.00  0.00     0.118 C 
BRANCH   2   3
ATOM      3  N   UNL A   1      35.948  20.833  25.768  1.00  0.00    -0.352 N 
ATOM      4  C   UNL A   1      34.930  21.656  26.105  1.00  0.00     0.251 C 
ATOM      5  O   UNL A   1      34.403  21.415  27.196  1.00  0.00    -0.270 OA
ATOM      6  H   UNL A   1      36.092  20.142  26.455  1.00  0.00     0.163 HD
BRANCH   4   7
ATOM      7  C   UNL A   1      34.428  22.789  25.277  1.00  0.00     0.067 C 
ATOM      8  C   UNL A   1      32.975  26.005  21.514  1.00  0.00     0.048 C 
ATOM      9  C   UNL A   1      33.279  26.116  22.981  1.00  0.00    -0.005 A 
ATOM     10  C   UNL A   1      33.068  27.346  23.628  1.00  0.00     0.054 A 
ATOM     11  C   UNL A   1      33.721  25.024  23.736  1.00  0.00     0.131 A 
ATOM     12  C   UNL A   1      33.319  27.490  24.995  1.00  0.00     0.130 A 
ATOM     13  C   UNL A   1      33.979  25.154  25.103  1.00  0.00     0.021 A 
ATOM     14  O   UNL A   1      33.934  23.842  23.082  1.00  0.00    -0.475 OA
ATOM     15  C   UNL A   1      33.778  26.389  25.725  1.00  0.00     0.058 A 
ATOM     16  C   UNL A   1      34.481  24.006  25.850  1.00  0.00     0.025 C 
ATOM     17  C   UNL A   1      33.855  22.642  23.898  1.00  0.00     0.314 C 
BRANCH  12  18
ATOM     18  O   UNL A   1      33.160  28.629  25.731  1.00  0.00    -0.406 OA
BRANCH  18  19
ATOM     19  C   UNL A   1      31.853  28.952  26.175  1.00  0.00     0.573 C 
ATOM     20  F   UNL A   1      31.041  27.874  26.126  1.00  0.00    -0.132 F 
ATOM     21  F   UNL A   1      31.875  29.444  27.432  1.00  0.00    -0.132 F 
ATOM     22  F   UNL A   1      31.339  29.900  25.361  1.00  0.00    -0.132 F 
ENDBRANCH  18  19
ENDBRANCH  12  18
BRANCH  17  23
ATOM     23  C   UNL A   1      32.405  22.119  23.905  1.00  0.00     0.429 C 
ATOM     24  F   UNL A   1      31.712  22.637  22.861  1.00  0.00    -0.167 F 
ATOM     25  F   UNL A   1      32.341  20.772  23.776  1.00  0.00    -0.167 F 
ATOM     26  F   UNL A   1      31.735  22.436  25.034  1.00  0.00    -0.167 F 
ENDBRANCH  17  23
ENDBRANCH   4   7
ENDBRANCH   2   3
ENDBRANCH   1   2
BRANCH   1  27
ATOM     27  C   UNL A   1      39.098  20.148  25.759  1.00  0.00     0.118 C 
BRANCH  27  28
ATOM     28  N   UNL A   1      40.128  19.130  25.951  1.00  0.00    -0.352 N 
ATOM     29  C   UNL A   1      41.483  19.280  26.117  1.00  0.00     0.251 C 
ATOM     30  H   UNL A   1      39.804  18.201  25.963  1.00  0.00     0.163 HD
ATOM     31  O   UNL A   1      42.235  18.320  25.983  1.00  0.00    -0.269 OA
BRANCH  29  32
ATOM     32  C   UNL A   1      42.029  20.607  26.454  1.00  0.00     0.039 A 
ATOM     33  C   UNL A   1      42.396  21.482  25.428  1.00  0.00     0.014 A 
ATOM     34  C   UNL A   1      42.186  20.975  27.792  1.00  0.00     0.014 A 
ATOM     35  C   UNL A   1      42.860  22.757  25.750  1.00  0.00     0.010 A 
ATOM     36  C   UNL A   1      42.575  22.269  28.109  1.00  0.00     0.010 A 
ATOM     37  C   UNL A   1      42.924  23.167  27.092  1.00  0.00    -0.014 A 
BRANCH  37  38
ATOM     38  C   UNL A   1      43.389  24.524  27.459  1.00  0.00     0.031 A 
ATOM     39  C   UNL A   1      42.389  25.565  27.872  1.00  0.00     0.074 A 
ATOM     40  C   UNL A   1      44.695  24.831  27.356  1.00  0.00     0.049 A 
ATOM     41  N   UNL A   1      42.584  26.819  28.190  1.00  0.00    -0.248 NA
ATOM     42  C   UNL A   1      40.978  25.148  27.905  1.00  0.00     0.031 C 
ATOM     43  C   UNL A   1      45.751  23.918  26.913  1.00  0.00     0.029 A 
ATOM     44  N   UNL A   1      45.356  26.004  27.611  1.00  0.00    -0.354 N 
ATOM     45  C   UNL A   1      41.324  27.338  28.456  1.00  0.00     0.074 A 
ATOM     46  C   UNL A   1      40.367  26.285  28.198  1.00  0.00     0.031 C 
ATOM     47  C   UNL A   1      46.930  24.560  26.948  1.00  0.00     0.029 A 
ATOM     48  C   UNL A   1      46.710  25.932  27.394  1.00  0.00     0.049 A 
ATOM     49  H   UNL A   1      44.902  26.822  27.921  1.00  0.00     0.167 HD
ATOM     50  C   UNL A   1      40.995  28.572  28.905  1.00  0.00     0.037 A 
ATOM     51  C   UNL A   1      47.661  26.871  27.544  1.00  0.00     0.037 A 
ATOM     52  C   UNL A   1      41.950  29.614  29.173  1.00  0.00     0.049 A 
ATOM     53  C   UNL A   1      47.269  28.236  28.034  1.00  0.00     0.074 A 
ATOM     54  C   UNL A   1      41.730  30.883  29.676  1.00  0.00     0.029 A 
ATOM     55  N   UNL A   1      43.315  29.500  28.954  1.00  0.00    -0.354 N 
ATOM     56  N   UNL A   1      46.082  28.693  28.354  1.00  0.00    -0.248 NA
ATOM     57  C   UNL A   1      48.354  29.214  28.194  1.00  0.00     0.031 C 
ATOM     58  C   UNL A   1      42.961  31.549  29.731  1.00  0.00     0.029 A 
ATOM     59  C   UNL A   1      43.950  30.682  29.296  1.00  0.00     0.049 A 
ATOM     60  H   UNL A   1      43.766  28.697  28.605  1.00  0.00     0.167 HD
ATOM     61  C   UNL A   1      46.279  30.001  28.777  1.00  0.00     0.074 A 
ATOM     62  C   UNL A   1      47.704  30.257  28.689  1.00  0.00     0.031 C 
ATOM     63  C   UNL A   1      45.368  30.911  29.198  1.00  0.00     0.037 A 
BRANCH  50  64
ATOM     64  C   UNL A   1      39.538  28.843  29.143  1.00  0.00     0.057 A 
ATOM     65  C   UNL A   1      38.963  28.636  30.402  1.00  0.00     0.134 A 
ATOM     66  C   UNL A   1      38.706  29.321  28.121  1.00  0.00     0.134 A 
ATOM     67  F   UNL A   1      39.703  28.179  31.423  1.00  0.00    -0.206 F 
ATOM     68  C   UNL A   1      37.613  28.904  30.639  1.00  0.00     0.040 A 
ATOM     69  C   UNL A   1      37.361  29.617  28.353  1.00  0.00     0.040 A 
ATOM     70  F   UNL A   1      39.199  29.558  26.897  1.00  0.00    -0.206 F 
ATOM     71  C   UNL A   1      36.811  29.405  29.615  1.00  0.00     0.006 A 
ENDBRANCH  50  64
BRANCH  51  72
ATOM     72  C   UNL A   1      49.082  26.548  27.268  1.00  0.00     0.057 A 
ATOM     73  C   UNL A   1      49.911  25.984  28.244  1.00  0.00     0.134 A 
ATOM     74  C   UNL A   1      49.635  26.772  26.001  1.00  0.00     0.134 A 
ATOM     75  F   UNL A   1      49.443  25.753  29.479  1.00  0.00    -0.206 F 
ATOM     76  C   UNL A   1      51.238  25.650  27.969  1.00  0.00     0.040 A 
ATOM     77  C   UNL A   1      50.954  26.423  25.706  1.00  0.00     0.040 A 
ATOM     78  F   UNL A   1      48.884  27.293  25.020  1.00  0.00    -0.206 F 
ATOM     79  C   UNL A   1      51.760  25.861  26.694  1.00  0.00     0.006 A 
ENDBRANCH  51  72
BRANCH  63  80
ATOM     80  C   UNL A   1      45.897  32.250  29.617  1.00  0.00     0.057 A 
ATOM     81  C   UNL A   1      46.004  33.296  28.694  1.00  0.00     0.134 A 
ATOM     82  C   UNL A   1      46.303  32.502  30.935  1.00  0.00     0.134 A 
ATOM     83  F   UNL A   1      45.638  33.118  27.416  1.00  0.00    -0.206 F 
ATOM     84  C   UNL A   1      46.491  34.550  29.067  1.00  0.00     0.040 A 
ATOM     85  C   UNL A   1      46.767  33.758  31.325  1.00  0.00     0.040 A 
ATOM     86  F   UNL A   1      46.208  31.544  31.870  1.00  0.00    -0.206 F 
ATOM     87  C   UNL A   1      46.866  34.785  30.388  1.00  0.00     0.006 A 
ENDBRANCH  63  80
ENDBRANCH  37  38
ENDBRANCH  29  32
ENDBRANCH  27  28
ENDBRANCH   1  27
TORSDOF 13
ENDMDL
MODEL 3
REMARK VINA RESULT:     -12.1      1.335      6.200
REMARK SMILES Cc1cc(OC(F)(F)F)cc2c1O[C@H](C(F)(F)F)C(C(=O)NCCCNC(=O)c1ccc(-c3c4nc(c(-c5c(F)cccc5F)c5ccc([nH]5)c(-c5c(F)cccc5F)c5nc(c(-c6c(F)cccc6F)c6ccc3[nH]6)C=C5)C=C4)cc1)=C2
REMARK SMILES IDX 24 1 23 2 22 3 20 4 21 5 19 7 1 8 2 9 3 10 12 11 4 12 11 13
REMARK SMILES IDX 13 14 10 15 83 16 14 17 5 18 6 19 7 20 8 21 9 22 15 23 16 24
REMARK SMILES IDX 17 25 18 26 25 27 26 28 27 29 28 31 29 32 30 33 82 34 31 35
REMARK SMILES IDX 81 36 32 37 33 38 34 39 75 40 35 41 80 42 74 43 76 44 36 45
REMARK SMILES IDX 79 46 73 47 72 48 37 50 63 51 46 52 62 53 47 54 50 55 61 56
REMARK SMILES IDX 77 57 48 58 49 59 60 61 78 62 51 63 38 64 39 65 44 66 40 67
REMARK SMILES IDX 41 68 43 69 45 70 42 71 64 72 65 73 70 74 66 75 67 76 69 77
REMARK SMILES IDX 71 78 68 79 52 80 53 81 58 82 54 83 55 84 57 85 59 86 56 87
REMARK H PARENT 22 6 26 30 76 49 50 60
REMARK Flexibility Score: inf
ROOT
ATOM      1  C   UNL A   1      37.831  19.601  25.008  1.00  0.00     0.042 C 
ENDROOT
BRANCH   1   2
ATOM      2  C   UNL A   1      36.807  20.685  24.705  1.00  0.00     0.118 C 
BRANCH   2   3
ATOM      3  N   UNL A   1      35.792  20.771  25.744  1.00  0.00    -0.352 N 
ATOM      4  C   UNL A   1      34.744  21.570  26.049  1.00  0.00     0.251 C 
ATOM      5  O   UNL A   1      34.147  21.273  27.089  1.00  0.00    -0.270 OA
ATOM      6  H   UNL A   1      35.897  20.050  26.408  1.00  0.00     0.163 HD
BRANCH   4   7
ATOM      7  C   UNL A   1      34.287  22.736  25.241  1.00  0.00     0.067 C 
ATOM      8  C   UNL A   1      32.967  26.075  21.537  1.00  0.00     0.048 C 
ATOM      9  C   UNL A   1      33.270  26.147  23.007  1.00  0.00    -0.005 A 
ATOM     10  C   UNL A   1      33.101  27.371  23.677  1.00  0.00     0.054 A 
ATOM     11  C   UNL A   1      33.668  25.024  23.742  1.00  0.00     0.131 A 
ATOM     12  C   UNL A   1      33.351  27.479  25.048  1.00  0.00     0.130 A 
ATOM     13  C   UNL A   1      33.925  25.119  25.112  1.00  0.00     0.021 A 
ATOM     14  O   UNL A   1      33.841  23.848  23.066  1.00  0.00    -0.475 OA
ATOM     15  C   UNL A   1      33.767  26.348  25.758  1.00  0.00     0.058 A 
ATOM     16  C   UNL A   1      34.382  23.939  25.838  1.00  0.00     0.025 C 
ATOM     17  C   UNL A   1      33.714  22.637  23.858  1.00  0.00     0.314 C 
BRANCH  12  18
ATOM     18  O   UNL A   1      33.231  28.609  25.805  1.00  0.00    -0.406 OA
BRANCH  18  19
ATOM     19  C   UNL A   1      31.930  28.996  26.212  1.00  0.00     0.573 C 
ATOM     20  F   UNL A   1      31.081  27.945  26.199  1.00  0.00    -0.132 F 
ATOM     21  F   UNL A   1      31.949  29.546  27.445  1.00  0.00    -0.132 F 
ATOM     22  F   UNL A   1      31.462  29.922  25.346  1.00  0.00    -0.132 F 
ENDBRANCH  18  19
ENDBRANCH  12  18
BRANCH  17  23
ATOM     23  C   UNL A   1      32.247  22.167  23.850  1.00  0.00     0.429 C 
ATOM     24  F   UNL A   1      32.185  20.818  23.713  1.00  0.00    -0.167 F 
ATOM     25  F   UNL A   1      31.602  22.465  25.003  1.00  0.00    -0.167 F 
ATOM     26  F   UNL A   1      31.525  22.710  22.846  1.00  0.00    -0.167 F 
ENDBRANCH  17  23
ENDBRANCH   4   7
ENDBRANCH   2   3
ENDBRANCH   1   2
BRANCH   1  27
ATOM     27  C   UNL A   1      39.049  20.157  25.736  1.00  0.00     0.118 C 
BRANCH  27  28
ATOM     28  N   UNL A   1      40.072  19.132  25.927  1.00  0.00    -0.352 N 
ATOM     29  C   UNL A   1      41.427  19.273  26.099  1.00  0.00     0.251 C 
ATOM     30  H   UNL A   1      39.742  18.204  25.934  1.00  0.00     0.163 HD
ATOM     31  O   UNL A   1      42.174  18.309  25.963  1.00  0.00    -0.269 OA
BRANCH  29  32
ATOM     32  C   UNL A   1      41.979  20.595  26.443  1.00  0.00     0.039 A 
ATOM     33  C   UNL A   1      42.356  21.472  25.423  1.00  0.00     0.014 A 
ATOM     34  C   UNL A   1      42.134  20.957  27.784  1.00  0.00     0.014 A 
ATOM     35  C   UNL A   1      42.826  22.743  25.752  1.00  0.00     0.010 A 
ATOM     36  C   UNL A   1      42.529  22.247  28.108  1.00  0.00     0.010 A 
ATOM     37  C   UNL A   1      42.888  23.147  27.096  1.00  0.00    -0.014 A 
BRANCH  37  38
ATOM     38  C   UNL A   1      43.359  24.500  27.471  1.00  0.00     0.031 A 
ATOM     39  C   UNL A   1      42.363  25.548  27.876  1.00  0.00     0.074 A 
ATOM     40  C   UNL A   1      44.669  24.797  27.382  1.00  0.00     0.049 A 
ATOM     41  N   UNL A   1      42.564  26.800  28.198  1.00  0.00    -0.248 NA
ATOM     42  C   UNL A   1      40.948  25.141  27.893  1.00  0.00     0.031 C 
ATOM     43  C   UNL A   1      45.722  23.876  26.948  1.00  0.00     0.029 A 
ATOM     44  N   UNL A   1      45.336  25.964  27.646  1.00  0.00    -0.354 N 
ATOM     45  C   UNL A   1      41.305  27.328  28.452  1.00  0.00     0.074 A 
ATOM     46  C   UNL A   1      40.343  26.283  28.182  1.00  0.00     0.031 C 
ATOM     47  C   UNL A   1      46.905  24.510  26.996  1.00  0.00     0.029 A 
ATOM     48  C   UNL A   1      46.691  25.882  27.443  1.00  0.00     0.049 A 
ATOM     49  H   UNL A   1      44.885  26.785  27.953  1.00  0.00     0.167 HD
ATOM     50  C   UNL A   1      40.981  28.563  28.901  1.00  0.00     0.037 A 
ATOM     51  C   UNL A   1      47.648  26.813  27.605  1.00  0.00     0.037 A 
ATOM     52  C   UNL A   1      41.941  29.597  29.180  1.00  0.00     0.049 A 
ATOM     53  C   UNL A   1      47.262  28.180  28.094  1.00  0.00     0.074 A 
ATOM     54  C   UNL A   1      41.726  30.867  29.684  1.00  0.00     0.029 A 
ATOM     55  N   UNL A   1      43.308  29.473  28.975  1.00  0.00    -0.354 N 
ATOM     56  N   UNL A   1      46.075  28.646  28.402  1.00  0.00    -0.248 NA
ATOM     57  C   UNL A   1      48.352  29.149  28.267  1.00  0.00     0.031 C 
ATOM     58  C   UNL A   1      42.961  31.523  29.753  1.00  0.00     0.029 A 
ATOM     59  C   UNL A   1      43.948  30.649  29.326  1.00  0.00     0.049 A 
ATOM     60  H   UNL A   1      43.756  28.667  28.629  1.00  0.00     0.167 HD
ATOM     61  C   UNL A   1      46.278  29.951  28.830  1.00  0.00     0.074 A 
ATOM     62  C   UNL A   1      47.705  30.196  28.757  1.00  0.00     0.031 C 
ATOM     63  C   UNL A   1      45.369  30.868  29.243  1.00  0.00     0.037 A 
BRANCH  50  64
ATOM     64  C   UNL A   1      39.524  28.844  29.124  1.00  0.00     0.057 A 
ATOM     65  C   UNL A   1      38.936  28.645  30.377  1.00  0.00     0.134 A 
ATOM     66  C   UNL A   1      38.705  29.327  28.093  1.00  0.00     0.134 A 
ATOM     67  F   UNL A   1      39.662  28.184  31.406  1.00  0.00    -0.206 F 
ATOM     68  C   UNL A   1      37.586  28.923  30.601  1.00  0.00     0.040 A 
ATOM     69  C   UNL A   1      37.360  29.633  28.312  1.00  0.00     0.040 A 
ATOM     70  F   UNL A   1      39.212  29.558  26.873  1.00  0.00    -0.206 F 
ATOM     71  C   UNL A   1      36.797  29.427  29.569  1.00  0.00     0.006 A 
ENDBRANCH  50  64
BRANCH  51  72
ATOM     72  C   UNL A   1      49.070  26.480  27.343  1.00  0.00     0.057 A 
ATOM     73  C   UNL A   1      49.651  26.676  26.086  1.00  0.00     0.134 A 
ATOM     74  C   UNL A   1      49.889  25.982  28.365  1.00  0.00     0.134 A 
ATOM     75  F   UNL A   1      48.917  27.142  25.066  1.00  0.00    -0.206 F 
ATOM     76  C   UNL A   1      50.998  26.393  25.854  1.00  0.00     0.040 A 
ATOM     77  C   UNL A   1      51.242  25.716  28.152  1.00  0.00     0.040 A 
ATOM     78  F   UNL A   1      49.392  25.791  29.595  1.00  0.00    -0.206 F 
ATOM     79  C   UNL A   1      51.800  25.920  26.891  1.00  0.00     0.006 A 
ENDBRANCH  51  72
BRANCH  63  80
ATOM     80  C   UNL A   1      45.904  32.201  29.671  1.00  0.00     0.057 A 
ATOM     81  C   UNL A   1      46.284  32.425  30.999  1.00  0.00     0.134 A 
ATOM     82  C   UNL A   1      46.041  33.264  28.769  1.00  0.00     0.134 A 
ATOM     83  F   UNL A   1      46.172  31.450  31.915  1.00  0.00    -0.206 F 
ATOM     84  C   UNL A   1      46.787  33.659  31.416  1.00  0.00     0.040 A 
ATOM     85  C   UNL A   1      46.566  34.494  29.167  1.00  0.00     0.040 A 
ATOM     86  F   UNL A   1      45.710  33.107  27.478  1.00  0.00    -0.206 F 
ATOM     87  C   UNL A   1      46.937  34.694  30.496  1.00  0.00     0.006 A 
ENDBRANCH  63  80
ENDBRANCH  37  38
ENDBRANCH  29  32
ENDBRANCH  27  28
ENDBRANCH   1  27
TORSDOF 13
ENDMDL
