MODEL 1
REMARK VINA RESULT:     -12.1      0.000      0.000
REMARK SMILES C[N@H+]1CCO[C@H](CNC(=O)N2CC[C@@](C)(C(=O)NCCCNC(=O)c3ccc(-c4c5nc(c(-c6c(F)cccc6F)c6ccc([nH]6)c(-c6c(F)cccc6F)c6nc(c(-c7c(F)cccc7F)c7ccc4[nH]7)C=C6)C=C5)cc3)C2)C1
REMARK SMILES IDX 19 1 18 2 16 3 17 4 14 6 11 7 12 8 79 9 13 10 15 11 9 12
REMARK SMILES IDX 8 13 10 15 7 16 6 17 1 18 2 19 3 20 80 21 4 23 5 24 20 25
REMARK SMILES IDX 21 26 22 27 23 28 24 30 25 31 26 32 78 33 27 34 77 35 28 36
REMARK SMILES IDX 29 37 30 38 71 39 31 40 76 41 70 42 72 43 32 44 75 45 69 46
REMARK SMILES IDX 68 47 33 49 59 50 42 51 58 52 43 53 46 54 57 55 73 56 44 57
REMARK SMILES IDX 45 58 56 60 74 61 47 62 34 63 35 64 40 65 36 66 37 67 39 68
REMARK SMILES IDX 41 69 38 70 60 71 61 72 66 73 62 74 63 75 65 76 67 77 64 78
REMARK SMILES IDX 48 79 49 80 54 81 50 82 51 83 53 84 55 85 52 86
REMARK H PARENT 18 5 8 14 2 22 22 29 72 48 46 59
REMARK Flexibility Score: inf
ROOT
ATOM      1  C   UNL A   1      36.573  20.617  24.985  1.00  0.00     0.117 C 
ENDROOT
BRANCH   1   2
ATOM      2  N   UNL A   1      35.326  19.868  24.987  1.00  0.00    -0.356 N 
ATOM      3  C   UNL A   1      34.034  20.297  25.053  1.00  0.00     0.227 C 
ATOM      4  O   UNL A   1      33.163  19.430  24.965  1.00  0.00    -0.274 OA
ATOM      5  H   UNL A   1      35.434  18.891  24.931  1.00  0.00     0.163 HD
BRANCH   3   6
ATOM      6  C   UNL A   1      33.714  21.791  25.197  1.00  0.00     0.066 C 
ATOM      7  N   UNL A   1      32.020  22.767  26.587  1.00  0.00    -0.324 N 
ATOM      8  C   UNL A   1      33.140  22.539  27.459  1.00  0.00     0.122 C 
ATOM      9  C   UNL A   1      32.190  22.005  25.368  1.00  0.00     0.138 C 
ATOM     10  C   UNL A   1      34.314  22.361  26.511  1.00  0.00     0.040 C 
ATOM     11  C   UNL A   1      34.201  22.546  23.938  1.00  0.00     0.024 C 
BRANCH   7  12
ATOM     12  C   UNL A   1      31.047  23.665  26.894  1.00  0.00     0.317 C 
ATOM     13  N   UNL A   1      31.279  24.996  26.772  1.00  0.00    -0.335 N 
ATOM     14  H   UNL A   1      30.770  25.572  27.388  1.00  0.00     0.165 HD
ATOM     15  O   UNL A   1      29.936  23.320  27.302  1.00  0.00    -0.249 OA
BRANCH  13  16
ATOM     16  C   UNL A   1      32.173  25.695  25.857  1.00  0.00     0.155 C 
BRANCH  16  17
ATOM     17  C   UNL A   1      31.549  26.025  24.483  1.00  0.00     0.192 C 
ATOM     18  C   UNL A   1      31.859  25.976  21.405  1.00  0.00     0.332 C 
ATOM     19  N   UNL A   1      32.044  27.142  22.268  1.00  0.00    -0.333 N 
ATOM     20  C   UNL A   1      30.780  27.881  22.465  1.00  0.00     0.290 C 
ATOM     21  C   UNL A   1      32.569  26.774  23.598  1.00  0.00     0.296 C 
ATOM     22  H   UNL A   1      32.722  27.733  21.786  1.00  0.00     0.348 HD
ATOM     23  C   UNL A   1      29.770  27.168  23.383  1.00  0.00     0.222 C 
ATOM     24  O   UNL A   1      30.342  26.790  24.639  1.00  0.00    -0.365 OA
ENDBRANCH  16  17
ENDBRANCH  13  16
ENDBRANCH   7  12
ENDBRANCH   3   6
ENDBRANCH   1   2
BRANCH   1  25
ATOM     25  C   UNL A   1      37.787  19.704  24.957  1.00  0.00     0.042 C 
BRANCH  25  26
ATOM     26  C   UNL A   1      38.985  20.263  25.708  1.00  0.00     0.118 C 
BRANCH  26  27
ATOM     27  N   UNL A   1      40.089  19.315  25.789  1.00  0.00    -0.352 N 
ATOM     28  C   UNL A   1      41.413  19.525  26.082  1.00  0.00     0.251 C 
ATOM     29  H   UNL A   1      39.846  18.378  25.605  1.00  0.00     0.163 HD
ATOM     30  O   UNL A   1      42.232  18.627  25.895  1.00  0.00    -0.269 OA
BRANCH  28  31
ATOM     31  C   UNL A   1      41.858  20.834  26.599  1.00  0.00     0.039 A 
ATOM     32  C   UNL A   1      42.353  21.786  25.705  1.00  0.00     0.014 A 
ATOM     33  C   UNL A   1      41.784  21.125  27.963  1.00  0.00     0.014 A 
ATOM     34  C   UNL A   1      42.701  23.054  26.173  1.00  0.00     0.010 A 
ATOM     35  C   UNL A   1      42.028  22.418  28.409  1.00  0.00     0.010 A 
ATOM     36  C   UNL A   1      42.498  23.395  27.520  1.00  0.00    -0.014 A 
BRANCH  36  37
ATOM     37  C   UNL A   1      42.780  24.762  28.026  1.00  0.00     0.031 A 
ATOM     38  C   UNL A   1      44.177  25.143  28.432  1.00  0.00     0.074 A 
ATOM     39  C   UNL A   1      41.767  25.636  28.186  1.00  0.00     0.049 A 
ATOM     40  N   UNL A   1      44.609  26.257  28.965  1.00  0.00    -0.248 NA
ATOM     41  C   UNL A   1      45.224  24.124  28.243  1.00  0.00     0.031 C 
ATOM     42  C   UNL A   1      40.360  25.369  27.879  1.00  0.00     0.029 A 
ATOM     43  N   UNL A   1      41.763  26.925  28.656  1.00  0.00    -0.354 N 
ATOM     44  C   UNL A   1      45.968  26.067  29.188  1.00  0.00     0.074 A 
ATOM     45  C   UNL A   1      46.276  24.711  28.792  1.00  0.00     0.031 C 
ATOM     46  C   UNL A   1      39.635  26.468  28.141  1.00  0.00     0.029 A 
ATOM     47  C   UNL A   1      40.516  27.502  28.675  1.00  0.00     0.049 A 
ATOM     48  H   UNL A   1      42.578  27.393  28.951  1.00  0.00     0.167 HD
ATOM     49  C   UNL A   1      46.882  26.952  29.654  1.00  0.00     0.037 A 
ATOM     50  C   UNL A   1      40.126  28.724  29.086  1.00  0.00     0.037 A 
ATOM     51  C   UNL A   1      46.573  28.308  30.024  1.00  0.00     0.049 A 
ATOM     52  C   UNL A   1      41.158  29.683  29.612  1.00  0.00     0.074 A 
ATOM     53  C   UNL A   1      47.437  29.301  30.450  1.00  0.00     0.029 A 
ATOM     54  N   UNL A   1      45.300  28.859  30.016  1.00  0.00    -0.354 N 
ATOM     55  N   UNL A   1      42.451  29.514  29.749  1.00  0.00    -0.248 NA
ATOM     56  C   UNL A   1      40.677  31.005  30.035  1.00  0.00     0.031 C 
ATOM     57  C   UNL A   1      46.680  30.438  30.751  1.00  0.00     0.029 A 
ATOM     58  C   UNL A   1      45.352  30.171  30.455  1.00  0.00     0.049 A 
ATOM     59  H   UNL A   1      44.482  28.387  29.738  1.00  0.00     0.167 HD
ATOM     60  C   UNL A   1      42.942  30.716  30.243  1.00  0.00     0.074 A 
ATOM     61  C   UNL A   1      41.809  31.609  30.367  1.00  0.00     0.031 C 
ATOM     62  C   UNL A   1      44.216  31.051  30.564  1.00  0.00     0.037 A 
BRANCH  49  63
ATOM     63  C   UNL A   1      48.301  26.478  29.785  1.00  0.00     0.057 A 
ATOM     64  C   UNL A   1      48.765  25.843  30.946  1.00  0.00     0.134 A 
ATOM     65  C   UNL A   1      49.206  26.629  28.728  1.00  0.00     0.134 A 
ATOM     66  F   UNL A   1      47.955  25.678  32.002  1.00  0.00    -0.206 F 
ATOM     67  C   UNL A   1      50.085  25.403  31.061  1.00  0.00     0.040 A 
ATOM     68  C   UNL A   1      50.520  26.164  28.819  1.00  0.00     0.040 A 
ATOM     69  F   UNL A   1      48.828  27.222  27.586  1.00  0.00    -0.206 F 
ATOM     70  C   UNL A   1      50.964  25.556  29.991  1.00  0.00     0.006 A 
ENDBRANCH  49  63
BRANCH  50  71
ATOM     71  C   UNL A   1      38.696  29.117  29.000  1.00  0.00     0.057 A 
ATOM     72  C   UNL A   1      37.850  29.013  30.110  1.00  0.00     0.134 A 
ATOM     73  C   UNL A   1      38.138  29.593  27.807  1.00  0.00     0.134 A 
ATOM     74  F   UNL A   1      38.322  28.548  31.276  1.00  0.00    -0.206 F 
ATOM     75  C   UNL A   1      36.497  29.346  30.033  1.00  0.00     0.040 A 
ATOM     76  C   UNL A   1      36.792  29.956  27.723  1.00  0.00     0.040 A 
ATOM     77  F   UNL A   1      38.896  29.725  26.710  1.00  0.00    -0.206 F 
ATOM     78  C   UNL A   1      35.966  29.823  28.837  1.00  0.00     0.006 A 
ENDBRANCH  50  71
BRANCH  62  79
ATOM     79  C   UNL A   1      44.459  32.453  31.042  1.00  0.00     0.057 A 
ATOM     80  C   UNL A   1      44.721  33.505  30.156  1.00  0.00     0.134 A 
ATOM     81  C   UNL A   1      44.389  32.759  32.407  1.00  0.00     0.134 A 
ATOM     82  F   UNL A   1      44.814  33.277  28.837  1.00  0.00    -0.206 F 
ATOM     83  C   UNL A   1      44.930  34.808  30.613  1.00  0.00     0.040 A 
ATOM     84  C   UNL A   1      44.565  34.063  32.874  1.00  0.00     0.040 A 
ATOM     85  F   UNL A   1      44.130  31.801  33.309  1.00  0.00    -0.206 F 
ATOM     86  C   UNL A   1      44.845  35.090  31.975  1.00  0.00     0.006 A 
ENDBRANCH  62  79
ENDBRANCH  36  37
ENDBRANCH  28  31
ENDBRANCH  26  27
ENDBRANCH  25  26
ENDBRANCH   1  25
TORSDOF 13
ENDMDL
MODEL 2
REMARK VINA RESULT:     -12.1      1.607      6.472
REMARK SMILES C[N@H+]1CCO[C@H](CNC(=O)N2CC[C@@](C)(C(=O)NCCCNC(=O)c3ccc(-c4c5nc(c(-c6c(F)cccc6F)c6ccc([nH]6)c(-c6c(F)cccc6F)c6nc(c(-c7c(F)cccc7F)c7ccc4[nH]7)C=C6)C=C5)cc3)C2)C1
REMARK SMILES IDX 19 1 18 2 16 3 17 4 14 6 11 7 12 8 79 9 13 10 15 11 9 12
REMARK SMILES IDX 8 13 10 15 7 16 6 17 1 18 2 19 3 20 80 21 4 23 5 24 20 25
REMARK SMILES IDX 21 26 22 27 23 28 24 30 25 31 26 32 78 33 27 34 77 35 28 36
REMARK SMILES IDX 29 37 30 38 71 39 31 40 76 41 70 42 72 43 32 44 75 45 69 46
REMARK SMILES IDX 68 47 33 49 59 50 42 51 58 52 43 53 46 54 57 55 73 56 44 57
REMARK SMILES IDX 45 58 56 60 74 61 47 62 34 63 35 64 40 65 36 66 37 67 39 68
REMARK SMILES IDX 41 69 38 70 60 71 61 72 66 73 62 74 63 75 65 76 67 77 64 78
REMARK SMILES IDX 48 79 49 80 54 81 50 82 51 83 53 84 55 85 52 86
REMARK H PARENT 18 5 8 14 2 22 22 29 72 48 46 59
REMARK Flexibility Score: inf
ROOT
ATOM      1  C   UNL A   1      36.722  20.658  25.103  1.00  0.00     0.117 C 
ENDROOT
BRANCH   1   2
ATOM      2  N   UNL A   1      35.475  19.918  25.001  1.00  0.00    -0.356 N 
ATOM      3  C   UNL A   1      34.183  20.352  24.993  1.00  0.00     0.227 C 
ATOM      4  O   UNL A   1      33.317  19.492  24.822  1.00  0.00    -0.274 OA
ATOM      5  H   UNL A   1      35.582  18.942  24.925  1.00  0.00     0.163 HD
BRANCH   3   6
ATOM      6  C   UNL A   1      33.860  21.843  25.157  1.00  0.00     0.066 C 
ATOM      7  N   UNL A   1      32.146  22.794  26.539  1.00  0.00    -0.324 N 
ATOM      8  C   UNL A   1      33.253  22.552  27.424  1.00  0.00     0.122 C 
ATOM      9  C   UNL A   1      32.333  22.053  25.311  1.00  0.00     0.138 C 
ATOM     10  C   UNL A   1      34.441  22.391  26.490  1.00  0.00     0.040 C 
ATOM     11  C   UNL A   1      34.365  22.620  23.918  1.00  0.00     0.024 C 
BRANCH   7  12
ATOM     12  C   UNL A   1      31.168  23.687  26.848  1.00  0.00     0.317 C 
ATOM     13  N   UNL A   1      31.391  25.019  26.722  1.00  0.00    -0.335 N 
ATOM     14  H   UNL A   1      30.880  25.593  27.338  1.00  0.00     0.165 HD
ATOM     15  O   UNL A   1      30.060  23.335  27.259  1.00  0.00    -0.249 OA
BRANCH  13  16
ATOM     16  C   UNL A   1      32.278  25.722  25.804  1.00  0.00     0.155 C 
BRANCH  16  17
ATOM     17  C   UNL A   1      31.652  26.033  24.426  1.00  0.00     0.192 C 
ATOM     18  C   UNL A   1      31.965  25.954  21.349  1.00  0.00     0.332 C 
ATOM     19  N   UNL A   1      32.142  27.130  22.199  1.00  0.00    -0.333 N 
ATOM     20  C   UNL A   1      30.872  27.862  22.388  1.00  0.00     0.290 C 
ATOM     21  C   UNL A   1      32.667  26.779  23.534  1.00  0.00     0.296 C 
ATOM     22  H   UNL A   1      32.816  27.721  21.712  1.00  0.00     0.348 HD
ATOM     23  C   UNL A   1      29.867  27.152  23.313  1.00  0.00     0.222 C 
ATOM     24  O   UNL A   1      30.440  26.791  24.573  1.00  0.00    -0.365 OA
ENDBRANCH  16  17
ENDBRANCH  13  16
ENDBRANCH   7  12
ENDBRANCH   3   6
ENDBRANCH   1   2
BRANCH   1  25
ATOM     25  C   UNL A   1      37.935  19.763  24.921  1.00  0.00     0.042 C 
BRANCH  25  26
ATOM     26  C   UNL A   1      39.136  20.190  25.751  1.00  0.00     0.118 C 
BRANCH  26  27
ATOM     27  N   UNL A   1      40.120  19.125  25.903  1.00  0.00    -0.352 N 
ATOM     28  C   UNL A   1      41.476  19.199  26.101  1.00  0.00     0.251 C 
ATOM     29  H   UNL A   1      39.755  18.212  25.857  1.00  0.00     0.163 HD
ATOM     30  O   UNL A   1      42.166  18.187  25.995  1.00  0.00    -0.269 OA
BRANCH  28  31
ATOM     31  C   UNL A   1      42.109  20.494  26.419  1.00  0.00     0.039 A 
ATOM     32  C   UNL A   1      42.584  21.293  25.376  1.00  0.00     0.014 A 
ATOM     33  C   UNL A   1      42.230  20.924  27.743  1.00  0.00     0.014 A 
ATOM     34  C   UNL A   1      43.110  22.554  25.660  1.00  0.00     0.010 A 
ATOM     35  C   UNL A   1      42.654  22.218  28.013  1.00  0.00     0.010 A 
ATOM     36  C   UNL A   1      43.107  23.045  26.976  1.00  0.00    -0.014 A 
BRANCH  36  37
ATOM     37  C   UNL A   1      43.584  24.415  27.294  1.00  0.00     0.031 A 
ATOM     38  C   UNL A   1      42.607  25.469  27.737  1.00  0.00     0.074 A 
ATOM     39  C   UNL A   1      44.882  24.727  27.115  1.00  0.00     0.049 A 
ATOM     40  N   UNL A   1      42.815  26.737  27.987  1.00  0.00    -0.248 NA
ATOM     41  C   UNL A   1      41.203  25.051  27.890  1.00  0.00     0.031 C 
ATOM     42  C   UNL A   1      45.919  23.808  26.639  1.00  0.00     0.029 A 
ATOM     43  N   UNL A   1      45.552  25.910  27.305  1.00  0.00    -0.354 N 
ATOM     44  C   UNL A   1      41.571  27.267  28.309  1.00  0.00     0.074 A 
ATOM     45  C   UNL A   1      40.605  26.201  28.162  1.00  0.00     0.031 C 
ATOM     46  C   UNL A   1      47.096  24.452  26.602  1.00  0.00     0.029 A 
ATOM     47  C   UNL A   1      46.892  25.839  27.007  1.00  0.00     0.049 A 
ATOM     48  H   UNL A   1      45.113  26.732  27.624  1.00  0.00     0.167 HD
ATOM     49  C   UNL A   1      41.265  28.521  28.718  1.00  0.00     0.037 A 
ATOM     50  C   UNL A   1      47.846  26.788  27.049  1.00  0.00     0.037 A 
ATOM     51  C   UNL A   1      42.234  29.572  28.885  1.00  0.00     0.049 A 
ATOM     52  C   UNL A   1      47.478  28.177  27.494  1.00  0.00     0.074 A 
ATOM     53  C   UNL A   1      42.035  30.860  29.352  1.00  0.00     0.029 A 
ATOM     54  N   UNL A   1      43.584  29.457  28.588  1.00  0.00    -0.354 N 
ATOM     55  N   UNL A   1      46.312  28.644  27.865  1.00  0.00    -0.248 NA
ATOM     56  C   UNL A   1      48.562  29.168  27.530  1.00  0.00     0.031 C 
ATOM     57  C   UNL A   1      43.256  31.540  29.286  1.00  0.00     0.029 A 
ATOM     58  C   UNL A   1      44.226  30.659  28.836  1.00  0.00     0.049 A 
ATOM     59  H   UNL A   1      44.021  28.641  28.251  1.00  0.00     0.167 HD
ATOM     60  C   UNL A   1      46.526  29.974  28.209  1.00  0.00     0.074 A 
ATOM     61  C   UNL A   1      47.938  30.231  28.016  1.00  0.00     0.031 C 
ATOM     62  C   UNL A   1      45.634  30.897  28.647  1.00  0.00     0.037 A 
BRANCH  49  63
ATOM     63  C   UNL A   1      39.824  28.822  29.015  1.00  0.00     0.057 A 
ATOM     64  C   UNL A   1      38.933  29.238  28.015  1.00  0.00     0.134 A 
ATOM     65  C   UNL A   1      39.312  28.662  30.308  1.00  0.00     0.134 A 
ATOM     66  F   UNL A   1      39.360  29.423  26.757  1.00  0.00    -0.206 F 
ATOM     67  C   UNL A   1      37.594  29.512  28.297  1.00  0.00     0.040 A 
ATOM     68  C   UNL A   1      37.966  28.904  30.596  1.00  0.00     0.040 A 
ATOM     69  F   UNL A   1      40.106  28.262  31.312  1.00  0.00    -0.206 F 
ATOM     70  C   UNL A   1      37.105  29.338  29.590  1.00  0.00     0.006 A 
ENDBRANCH  49  63
BRANCH  50  71
ATOM     71  C   UNL A   1      49.246  26.455  26.677  1.00  0.00     0.057 A 
ATOM     72  C   UNL A   1      49.719  26.673  25.379  1.00  0.00     0.134 A 
ATOM     73  C   UNL A   1      50.137  25.900  27.603  1.00  0.00     0.134 A 
ATOM     74  F   UNL A   1      48.907  27.187  24.442  1.00  0.00    -0.206 F 
ATOM     75  C   UNL A   1      51.020  26.331  25.006  1.00  0.00     0.040 A 
ATOM     76  C   UNL A   1      51.450  25.579  27.252  1.00  0.00     0.040 A 
ATOM     77  F   UNL A   1      49.749  25.674  28.866  1.00  0.00    -0.206 F 
ATOM     78  C   UNL A   1      51.891  25.786  25.947  1.00  0.00     0.006 A 
ENDBRANCH  50  71
BRANCH  62  79
ATOM     79  C   UNL A   1      46.166  32.260  28.985  1.00  0.00     0.057 A 
ATOM     80  C   UNL A   1      46.627  32.581  30.268  1.00  0.00     0.134 A 
ATOM     81  C   UNL A   1      46.253  33.252  28.000  1.00  0.00     0.134 A 
ATOM     82  F   UNL A   1      46.559  31.679  31.260  1.00  0.00    -0.206 F 
ATOM     83  C   UNL A   1      47.133  33.847  30.565  1.00  0.00     0.040 A 
ATOM     84  C   UNL A   1      46.786  34.512  28.277  1.00  0.00     0.040 A 
ATOM     85  F   UNL A   1      45.840  33.008  26.747  1.00  0.00    -0.206 F 
ATOM     86  C   UNL A   1      47.221  34.814  29.566  1.00  0.00     0.006 A 
ENDBRANCH  62  79
ENDBRANCH  36  37
ENDBRANCH  28  31
ENDBRANCH  26  27
ENDBRANCH  25  26
ENDBRANCH   1  25
TORSDOF 13
ENDMDL
MODEL 3
REMARK VINA RESULT:     -12.0      1.072      6.455
REMARK SMILES C[N@H+]1CCO[C@H](CNC(=O)N2CC[C@@](C)(C(=O)NCCCNC(=O)c3ccc(-c4c5nc(c(-c6c(F)cccc6F)c6ccc([nH]6)c(-c6c(F)cccc6F)c6nc(c(-c7c(F)cccc7F)c7ccc4[nH]7)C=C6)C=C5)cc3)C2)C1
REMARK SMILES IDX 19 1 18 2 16 3 17 4 14 6 11 7 12 8 79 9 13 10 15 11 9 12
REMARK SMILES IDX 8 13 10 15 7 16 6 17 1 18 2 19 3 20 80 21 4 23 5 24 20 25
REMARK SMILES IDX 21 26 22 27 23 28 24 30 25 31 26 32 78 33 27 34 77 35 28 36
REMARK SMILES IDX 29 37 30 38 71 39 31 40 76 41 70 42 72 43 32 44 75 45 69 46
REMARK SMILES IDX 68 47 33 49 59 50 42 51 58 52 43 53 46 54 57 55 73 56 44 57
REMARK SMILES IDX 45 58 56 60 74 61 47 62 34 63 35 64 40 65 36 66 37 67 39 68
REMARK SMILES IDX 41 69 38 70 60 71 61 72 66 73 62 74 63 75 65 76 67 77 64 78
REMARK SMILES IDX 48 79 49 80 54 81 50 82 51 83 53 84 55 85 52 86
REMARK H PARENT 18 5 8 14 2 22 22 29 72 48 46 59
REMARK Flexibility Score: inf
ROOT
ATOM      1  C   UNL A   1      36.316  20.967  25.020  1.00  0.00     0.117 C 
ENDROOT
BRANCH   1   2
ATOM      2  N   UNL A   1      35.195  20.043  25.051  1.00  0.00    -0.356 N 
ATOM      3  C   UNL A   1      33.852  20.277  25.088  1.00  0.00     0.227 C 
ATOM      4  O   UNL A   1      33.121  19.286  25.038  1.00  0.00    -0.274 OA
ATOM      5  H   UNL A   1      35.446  19.091  25.046  1.00  0.00     0.163 HD
BRANCH   3   6
ATOM      6  C   UNL A   1      33.312  21.712  25.154  1.00  0.00     0.066 C 
ATOM      7  N   UNL A   1      31.628  22.542  26.647  1.00  0.00    -0.324 N 
ATOM      8  C   UNL A   1      32.850  22.567  27.404  1.00  0.00     0.122 C 
ATOM      9  C   UNL A   1      31.798  21.707  25.477  1.00  0.00     0.138 C 
ATOM     10  C   UNL A   1      33.939  22.484  26.348  1.00  0.00     0.040 C 
ATOM     11  C   UNL A   1      33.547  22.415  23.796  1.00  0.00     0.024 C 
BRANCH   7  12
ATOM     12  C   UNL A   1      30.558  23.307  26.992  1.00  0.00     0.317 C 
ATOM     13  N   UNL A   1      30.512  24.618  26.646  1.00  0.00    -0.335 N 
ATOM     14  H   UNL A   1      30.000  25.198  27.255  1.00  0.00     0.165 HD
ATOM     15  O   UNL A   1      29.606  22.857  27.633  1.00  0.00    -0.249 OA
BRANCH  13  16
ATOM     16  C   UNL A   1      31.112  25.290  25.500  1.00  0.00     0.155 C 
BRANCH  16  17
ATOM     17  C   UNL A   1      31.546  26.748  25.771  1.00  0.00     0.192 C 
ATOM     18  C   UNL A   1      33.004  29.266  24.720  1.00  0.00     0.332 C 
ATOM     19  N   UNL A   1      33.542  28.299  25.676  1.00  0.00    -0.333 N 
ATOM     20  C   UNL A   1      33.205  28.664  27.068  1.00  0.00     0.290 C 
ATOM     21  C   UNL A   1      33.040  26.932  25.429  1.00  0.00     0.296 C 
ATOM     22  H   UNL A   1      34.553  28.319  25.545  1.00  0.00     0.348 HD
ATOM     23  C   UNL A   1      31.727  28.441  27.437  1.00  0.00     0.222 C 
ATOM     24  O   UNL A   1      31.279  27.117  27.134  1.00  0.00    -0.365 OA
ENDBRANCH  16  17
ENDBRANCH  13  16
ENDBRANCH   7  12
ENDBRANCH   3   6
ENDBRANCH   1   2
BRANCH   1  25
ATOM     25  C   UNL A   1      37.630  20.261  24.730  1.00  0.00     0.042 C 
BRANCH  25  26
ATOM     26  C   UNL A   1      38.728  20.585  25.732  1.00  0.00     0.118 C 
BRANCH  26  27
ATOM     27  N   UNL A   1      39.740  19.539  25.812  1.00  0.00    -0.352 N 
ATOM     28  C   UNL A   1      41.080  19.629  26.096  1.00  0.00     0.251 C 
ATOM     29  H   UNL A   1      39.411  18.628  25.636  1.00  0.00     0.163 HD
ATOM     30  O   UNL A   1      41.811  18.658  25.911  1.00  0.00    -0.269 OA
BRANCH  28  31
ATOM     31  C   UNL A   1      41.647  20.894  26.602  1.00  0.00     0.039 A 
ATOM     32  C   UNL A   1      42.097  21.850  25.690  1.00  0.00     0.014 A 
ATOM     33  C   UNL A   1      41.731  21.140  27.975  1.00  0.00     0.014 A 
ATOM     34  C   UNL A   1      42.560  23.082  26.156  1.00  0.00     0.010 A 
ATOM     35  C   UNL A   1      42.090  22.402  28.430  1.00  0.00     0.010 A 
ATOM     36  C   UNL A   1      42.518  23.385  27.527  1.00  0.00    -0.014 A 
BRANCH  36  37
ATOM     37  C   UNL A   1      42.925  24.716  28.040  1.00  0.00     0.031 A 
ATOM     38  C   UNL A   1      41.888  25.773  28.304  1.00  0.00     0.074 A 
ATOM     39  C   UNL A   1      44.233  24.997  28.201  1.00  0.00     0.049 A 
ATOM     40  N   UNL A   1      42.049  27.016  28.681  1.00  0.00    -0.248 NA
ATOM     41  C   UNL A   1      40.481  25.392  28.086  1.00  0.00     0.031 C 
ATOM     42  C   UNL A   1      45.339  24.076  27.929  1.00  0.00     0.029 A 
ATOM     43  N   UNL A   1      44.856  26.144  28.625  1.00  0.00    -0.354 N 
ATOM     44  C   UNL A   1      40.774  27.565  28.728  1.00  0.00     0.074 A 
ATOM     45  C   UNL A   1      39.855  26.541  28.282  1.00  0.00     0.031 C 
ATOM     46  C   UNL A   1      46.500  24.683  28.220  1.00  0.00     0.029 A 
ATOM     47  C   UNL A   1      46.227  26.049  28.656  1.00  0.00     0.049 A 
ATOM     48  H   UNL A   1      44.367  26.959  28.883  1.00  0.00     0.167 HD
ATOM     49  C   UNL A   1      40.398  28.801  29.134  1.00  0.00     0.037 A 
ATOM     50  C   UNL A   1      47.158  26.962  28.989  1.00  0.00     0.037 A 
ATOM     51  C   UNL A   1      41.314  29.809  29.600  1.00  0.00     0.049 A 
ATOM     52  C   UNL A   1      46.716  28.333  29.423  1.00  0.00     0.074 A 
ATOM     53  C   UNL A   1      41.030  31.071  30.089  1.00  0.00     0.029 A 
ATOM     54  N   UNL A   1      42.694  29.668  29.629  1.00  0.00    -0.354 N 
ATOM     55  N   UNL A   1      45.502  28.814  29.533  1.00  0.00    -0.248 NA
ATOM     56  C   UNL A   1      47.775  29.285  29.786  1.00  0.00     0.031 C 
ATOM     57  C   UNL A   1      42.241  31.715  30.365  1.00  0.00     0.029 A 
ATOM     58  C   UNL A   1      43.277  30.831  30.104  1.00  0.00     0.049 A 
ATOM     59  H   UNL A   1      43.186  28.861  29.354  1.00  0.00     0.167 HD
ATOM     60  C   UNL A   1      45.648  30.112  30.006  1.00  0.00     0.074 A 
ATOM     61  C   UNL A   1      47.069  30.336  30.177  1.00  0.00     0.031 C 
ATOM     62  C   UNL A   1      44.692  31.036  30.276  1.00  0.00     0.037 A 
BRANCH  49  63
ATOM     63  C   UNL A   1      38.933  29.129  29.094  1.00  0.00     0.057 A 
ATOM     64  C   UNL A   1      38.297  29.538  27.913  1.00  0.00     0.134 A 
ATOM     65  C   UNL A   1      38.141  29.004  30.241  1.00  0.00     0.134 A 
ATOM     66  F   UNL A   1      39.000  29.691  26.780  1.00  0.00    -0.206 F 
ATOM     67  C   UNL A   1      36.935  29.838  27.881  1.00  0.00     0.040 A 
ATOM     68  C   UNL A   1      36.770  29.272  30.215  1.00  0.00     0.040 A 
ATOM     69  F   UNL A   1      38.681  28.613  31.405  1.00  0.00    -0.206 F 
ATOM     70  C   UNL A   1      36.165  29.698  29.034  1.00  0.00     0.006 A 
ENDBRANCH  49  63
BRANCH  50  71
ATOM     71  C   UNL A   1      48.600  26.607  28.944  1.00  0.00     0.057 A 
ATOM     72  C   UNL A   1      49.373  26.871  27.808  1.00  0.00     0.134 A 
ATOM     73  C   UNL A   1      49.235  25.987  30.026  1.00  0.00     0.134 A 
ATOM     74  F   UNL A   1      48.817  27.448  26.732  1.00  0.00    -0.206 F 
ATOM     75  C   UNL A   1      50.720  26.510  27.739  1.00  0.00     0.040 A 
ATOM     76  C   UNL A   1      50.589  25.645  29.981  1.00  0.00     0.040 A 
ATOM     77  F   UNL A   1      48.554  25.715  31.148  1.00  0.00    -0.206 F 
ATOM     78  C   UNL A   1      51.332  25.899  28.831  1.00  0.00     0.006 A 
ENDBRANCH  50  71
BRANCH  62  79
ATOM     79  C   UNL A   1      45.148  32.358  30.823  1.00  0.00     0.057 A 
ATOM     80  C   UNL A   1      45.307  32.579  32.196  1.00  0.00     0.134 A 
ATOM     81  C   UNL A   1      45.470  33.410  29.956  1.00  0.00     0.134 A 
ATOM     82  F   UNL A   1      45.004  31.616  33.080  1.00  0.00    -0.206 F 
ATOM     83  C   UNL A   1      45.747  33.809  32.690  1.00  0.00     0.040 A 
ATOM     84  C   UNL A   1      45.940  34.634  30.436  1.00  0.00     0.040 A 
ATOM     85  F   UNL A   1      45.352  33.262  28.629  1.00  0.00    -0.206 F 
ATOM     86  C   UNL A   1      46.072  34.837  31.808  1.00  0.00     0.006 A 
ENDBRANCH  62  79
ENDBRANCH  36  37
ENDBRANCH  28  31
ENDBRANCH  26  27
ENDBRANCH  25  26
ENDBRANCH   1  25
TORSDOF 13
ENDMDL
