MODEL 1
REMARK VINA RESULT:     -10.3      0.000      0.000
REMARK SMILES O=C(/C=C/c1ccc(O)c(O)c1)NCCCNC(=O)c1ccc(-c2c3nc(c(-c4c(F)cccc4F)c4ccc([nH]4)c(-c4c(F)cccc4F)c4nc(c(-c5c(F)cccc5F)c5ccc2[nH]5)C=C4)C=C3)cc1
REMARK SMILES IDX 15 1 14 2 13 3 1 4 2 5 3 7 4 8 5 9 6 10 12 11 7 12 10 13
REMARK SMILES IDX 8 14 11 15 9 17 16 19 17 20 18 21 19 23 20 24 21 25 73 26
REMARK SMILES IDX 22 27 72 28 23 29 24 30 25 31 66 32 26 33 71 34 65 35 67 36
REMARK SMILES IDX 27 37 70 38 64 39 63 40 28 42 54 43 37 44 53 45 38 46 41 47
REMARK SMILES IDX 52 48 68 49 39 50 40 51 51 53 69 54 42 55 29 56 30 57 35 58
REMARK SMILES IDX 31 59 32 60 34 61 36 62 33 63 55 64 56 65 61 66 57 67 58 68
REMARK SMILES IDX 60 69 62 70 59 71 43 72 44 73 49 74 45 75 46 76 48 77 50 78
REMARK SMILES IDX 47 79
REMARK H PARENT 13 6 11 16 9 18 17 22 67 41 41 52
REMARK Flexibility Score: inf
ROOT
ATOM      1  C   UNL A   1      44.344  18.166  25.699  1.00  0.00     0.042 C 
ENDROOT
BRANCH   1   2
ATOM      2  C   UNL A   1      44.353  19.111  24.502  1.00  0.00     0.118 C 
BRANCH   2   3
ATOM      3  N   UNL A   1      44.335  20.509  24.889  1.00  0.00    -0.352 N 
ATOM      4  O   UNL A   1      46.603  20.821  24.731  1.00  0.00    -0.270 OA
ATOM      5  C   UNL A   1      45.480  21.255  24.972  1.00  0.00     0.244 C 
ATOM      6  H   UNL A   1      43.472  20.935  25.097  1.00  0.00     0.163 HD
BRANCH   5   7
ATOM      7  C   UNL A   1      45.314  22.689  25.320  1.00  0.00     0.072 C 
ATOM      8  C   UNL A   1      44.724  23.626  24.562  1.00  0.00     0.014 C 
BRANCH   8   9
ATOM      9  C   UNL A   1      44.557  25.021  24.999  1.00  0.00    -0.022 A 
ATOM     10  C   UNL A   1      45.650  25.827  25.365  1.00  0.00     0.012 A 
ATOM     11  C   UNL A   1      43.272  25.578  25.005  1.00  0.00     0.058 A 
ATOM     12  C   UNL A   1      45.464  27.157  25.762  1.00  0.00     0.051 A 
ATOM     13  C   UNL A   1      43.095  26.898  25.400  1.00  0.00     0.157 A 
ATOM     14  C   UNL A   1      44.179  27.683  25.781  1.00  0.00     0.157 A 
BRANCH  13  15
ATOM     15  O   UNL A   1      41.835  27.425  25.412  1.00  0.00    -0.504 OA
ATOM     16  H   UNL A   1      41.611  28.090  26.034  1.00  0.00     0.293 HD
ENDBRANCH  13  15
BRANCH  14  17
ATOM     17  O   UNL A   1      43.929  28.972  26.162  1.00  0.00    -0.504 OA
ATOM     18  H   UNL A   1      43.107  29.194  26.552  1.00  0.00     0.293 HD
ENDBRANCH  14  17
ENDBRANCH   8   9
ENDBRANCH   5   7
ENDBRANCH   2   3
ENDBRANCH   1   2
BRANCH   1  19
ATOM     19  C   UNL A   1      43.240  18.438  26.718  1.00  0.00     0.118 C 
BRANCH  19  20
ATOM     20  N   UNL A   1      41.903  18.435  26.137  1.00  0.00    -0.352 N 
ATOM     21  C   UNL A   1      40.938  19.410  26.117  1.00  0.00     0.251 C 
ATOM     22  H   UNL A   1      41.652  17.596  25.687  1.00  0.00     0.163 HD
ATOM     23  O   UNL A   1      39.823  19.146  25.670  1.00  0.00    -0.269 OA
BRANCH  21  24
ATOM     24  C   UNL A   1      41.207  20.765  26.651  1.00  0.00     0.039 A 
ATOM     25  C   UNL A   1      41.323  20.926  28.036  1.00  0.00     0.014 A 
ATOM     26  C   UNL A   1      41.318  21.877  25.812  1.00  0.00     0.014 A 
ATOM     27  C   UNL A   1      41.623  22.181  28.571  1.00  0.00     0.010 A 
ATOM     28  C   UNL A   1      41.690  23.112  26.341  1.00  0.00     0.010 A 
ATOM     29  C   UNL A   1      41.850  23.279  27.725  1.00  0.00    -0.014 A 
BRANCH  29  30
ATOM     30  C   UNL A   1      42.273  24.596  28.269  1.00  0.00     0.031 A 
ATOM     31  C   UNL A   1      41.277  25.711  28.433  1.00  0.00     0.074 A 
ATOM     32  C   UNL A   1      43.571  24.811  28.558  1.00  0.00     0.049 A 
ATOM     33  N   UNL A   1      41.473  26.945  28.825  1.00  0.00    -0.248 NA
ATOM     34  C   UNL A   1      39.880  25.407  28.089  1.00  0.00     0.031 C 
ATOM     35  C   UNL A   1      44.646  23.828  28.405  1.00  0.00     0.029 A 
ATOM     36  N   UNL A   1      44.211  25.930  29.030  1.00  0.00    -0.354 N 
ATOM     37  C   UNL A   1      40.232  27.566  28.762  1.00  0.00     0.074 A 
ATOM     38  C   UNL A   1      39.298  26.587  28.247  1.00  0.00     0.031 C 
ATOM     39  C   UNL A   1      45.806  24.381  28.795  1.00  0.00     0.029 A 
ATOM     40  C   UNL A   1      45.567  25.766  29.185  1.00  0.00     0.049 A 
ATOM     41  H   UNL A   1      43.743  26.771  29.238  1.00  0.00     0.167 HD
ATOM     42  C   UNL A   1      39.895  28.829  29.119  1.00  0.00     0.037 A 
ATOM     43  C   UNL A   1      46.513  26.636  29.585  1.00  0.00     0.037 A 
ATOM     44  C   UNL A   1      40.821  29.797  29.648  1.00  0.00     0.049 A 
ATOM     45  C   UNL A   1      46.117  28.037  29.959  1.00  0.00     0.074 A 
ATOM     46  C   UNL A   1      40.563  31.083  30.091  1.00  0.00     0.029 A 
ATOM     47  N   UNL A   1      42.184  29.589  29.800  1.00  0.00    -0.354 N 
ATOM     48  N   UNL A   1      44.928  28.589  29.959  1.00  0.00    -0.248 NA
ATOM     49  C   UNL A   1      47.195  28.937  30.397  1.00  0.00     0.031 C 
ATOM     50  C   UNL A   1      41.776  31.669  30.466  1.00  0.00     0.029 A 
ATOM     51  C   UNL A   1      42.783  30.731  30.307  1.00  0.00     0.049 A 
ATOM     52  H   UNL A   1      42.655  28.754  29.580  1.00  0.00     0.167 HD
ATOM     53  C   UNL A   1      45.109  29.886  30.422  1.00  0.00     0.074 A 
ATOM     54  C   UNL A   1      46.521  30.035  30.707  1.00  0.00     0.031 C 
ATOM     55  C   UNL A   1      44.188  30.866  30.595  1.00  0.00     0.037 A 
BRANCH  42  56
ATOM     56  C   UNL A   1      38.460  29.238  28.950  1.00  0.00     0.057 A 
ATOM     57  C   UNL A   1      37.556  29.223  30.021  1.00  0.00     0.134 A 
ATOM     58  C   UNL A   1      37.985  29.688  27.712  1.00  0.00     0.134 A 
ATOM     59  F   UNL A   1      37.943  28.793  31.232  1.00  0.00    -0.206 F 
ATOM     60  C   UNL A   1      36.226  29.616  29.861  1.00  0.00     0.040 A 
ATOM     61  C   UNL A   1      36.665  30.112  27.546  1.00  0.00     0.040 A 
ATOM     62  F   UNL A   1      38.798  29.737  26.646  1.00  0.00    -0.206 F 
ATOM     63  C   UNL A   1      35.779  30.070  28.621  1.00  0.00     0.006 A 
ENDBRANCH  42  56
BRANCH  43  64
ATOM     64  C   UNL A   1      47.932  26.205  29.669  1.00  0.00     0.057 A 
ATOM     65  C   UNL A   1      48.771  26.258  28.549  1.00  0.00     0.134 A 
ATOM     66  C   UNL A   1      48.481  25.720  30.862  1.00  0.00     0.134 A 
ATOM     67  F   UNL A   1      48.298  26.695  27.372  1.00  0.00    -0.206 F 
ATOM     68  C   UNL A   1      50.096  25.825  28.606  1.00  0.00     0.040 A 
ATOM     69  C   UNL A   1      49.812  25.309  30.941  1.00  0.00     0.040 A 
ATOM     70  F   UNL A   1      47.732  25.650  31.973  1.00  0.00    -0.206 F 
ATOM     71  C   UNL A   1      50.622  25.353  29.808  1.00  0.00     0.006 A 
ENDBRANCH  43  64
BRANCH  55  72
ATOM     72  C   UNL A   1      44.671  32.172  31.155  1.00  0.00     0.057 A 
ATOM     73  C   UNL A   1      45.085  33.226  30.331  1.00  0.00     0.134 A 
ATOM     74  C   UNL A   1      44.687  32.390  32.540  1.00  0.00     0.134 A 
ATOM     75  F   UNL A   1      45.107  33.078  28.998  1.00  0.00    -0.206 F 
ATOM     76  C   UNL A   1      45.522  34.441  30.864  1.00  0.00     0.040 A 
ATOM     77  C   UNL A   1      45.094  33.609  33.083  1.00  0.00     0.040 A 
ATOM     78  F   UNL A   1      44.294  31.426  33.386  1.00  0.00    -0.206 F 
ATOM     79  C   UNL A   1      45.519  34.637  32.244  1.00  0.00     0.006 A 
ENDBRANCH  55  72
ENDBRANCH  29  30
ENDBRANCH  21  24
ENDBRANCH  19  20
ENDBRANCH   1  19
TORSDOF 13
ENDMDL
MODEL 2
REMARK VINA RESULT:     -10.1      4.642     11.037
REMARK SMILES O=C(/C=C/c1ccc(O)c(O)c1)NCCCNC(=O)c1ccc(-c2c3nc(c(-c4c(F)cccc4F)c4ccc([nH]4)c(-c4c(F)cccc4F)c4nc(c(-c5c(F)cccc5F)c5ccc2[nH]5)C=C4)C=C3)cc1
REMARK SMILES IDX 15 1 14 2 13 3 1 4 2 5 3 7 4 8 5 9 6 10 12 11 7 12 10 13
REMARK SMILES IDX 8 14 11 15 9 17 16 19 17 20 18 21 19 23 20 24 21 25 73 26
REMARK SMILES IDX 22 27 72 28 23 29 24 30 25 31 66 32 26 33 71 34 65 35 67 36
REMARK SMILES IDX 27 37 70 38 64 39 63 40 28 42 54 43 37 44 53 45 38 46 41 47
REMARK SMILES IDX 52 48 68 49 39 50 40 51 51 53 69 54 42 55 29 56 30 57 35 58
REMARK SMILES IDX 31 59 32 60 34 61 36 62 33 63 55 64 56 65 61 66 57 67 58 68
REMARK SMILES IDX 60 69 62 70 59 71 43 72 44 73 49 74 45 75 46 76 48 77 50 78
REMARK SMILES IDX 47 79
REMARK H PARENT 13 6 11 16 9 18 17 22 67 41 41 52
REMARK Flexibility Score: inf
ROOT
ATOM      1  C   UNL A   1      32.876  36.911  30.827  1.00  0.00     0.042 C 
ENDROOT
BRANCH   1   2
ATOM      2  C   UNL A   1      32.549  35.737  31.746  1.00  0.00     0.118 C 
BRANCH   2   3
ATOM      3  N   UNL A   1      33.683  34.859  31.961  1.00  0.00    -0.352 N 
ATOM      4  O   UNL A   1      34.628  36.108  33.638  1.00  0.00    -0.270 OA
ATOM      5  C   UNL A   1      34.640  35.125  32.903  1.00  0.00     0.244 C 
ATOM      6  H   UNL A   1      33.765  34.045  31.413  1.00  0.00     0.163 HD
BRANCH   5   7
ATOM      7  C   UNL A   1      35.714  34.112  33.062  1.00  0.00     0.072 C 
ATOM      8  C   UNL A   1      35.547  32.827  33.413  1.00  0.00     0.014 C 
BRANCH   8   9
ATOM      9  C   UNL A   1      36.662  31.871  33.504  1.00  0.00    -0.022 A 
ATOM     10  C   UNL A   1      37.741  32.061  34.385  1.00  0.00     0.012 A 
ATOM     11  C   UNL A   1      36.621  30.710  32.723  1.00  0.00     0.058 A 
ATOM     12  C   UNL A   1      38.781  31.126  34.464  1.00  0.00     0.051 A 
ATOM     13  C   UNL A   1      37.657  29.787  32.805  1.00  0.00     0.157 A 
ATOM     14  C   UNL A   1      38.732  29.992  33.664  1.00  0.00     0.157 A 
BRANCH  13  15
ATOM     15  O   UNL A   1      37.611  28.664  32.027  1.00  0.00    -0.504 OA
ATOM     16  H   UNL A   1      38.189  28.578  31.295  1.00  0.00     0.293 HD
ENDBRANCH  13  15
BRANCH  14  17
ATOM     17  O   UNL A   1      39.716  29.044  33.690  1.00  0.00    -0.504 OA
ATOM     18  H   UNL A   1      39.494  28.136  33.628  1.00  0.00     0.293 HD
ENDBRANCH  14  17
ENDBRANCH   8   9
ENDBRANCH   5   7
ENDBRANCH   2   3
ENDBRANCH   1   2
BRANCH   1  19
ATOM     19  C   UNL A   1      33.522  36.521  29.500  1.00  0.00     0.118 C 
BRANCH  19  20
ATOM     20  N   UNL A   1      32.731  35.570  28.729  1.00  0.00    -0.352 N 
ATOM     21  C   UNL A   1      33.046  34.318  28.266  1.00  0.00     0.251 C 
ATOM     22  H   UNL A   1      31.822  35.877  28.504  1.00  0.00     0.163 HD
ATOM     23  O   UNL A   1      32.259  33.733  27.524  1.00  0.00    -0.269 OA
BRANCH  21  24
ATOM     24  C   UNL A   1      34.330  33.671  28.621  1.00  0.00     0.039 A 
ATOM     25  C   UNL A   1      35.501  34.132  28.009  1.00  0.00     0.014 A 
ATOM     26  C   UNL A   1      34.392  32.604  29.520  1.00  0.00     0.014 A 
ATOM     27  C   UNL A   1      36.736  33.576  28.355  1.00  0.00     0.010 A 
ATOM     28  C   UNL A   1      35.630  32.101  29.919  1.00  0.00     0.010 A 
ATOM     29  C   UNL A   1      36.816  32.583  29.344  1.00  0.00    -0.014 A 
BRANCH  29  30
ATOM     30  C   UNL A   1      38.128  32.055  29.801  1.00  0.00     0.031 A 
ATOM     31  C   UNL A   1      38.615  30.710  29.335  1.00  0.00     0.074 A 
ATOM     32  C   UNL A   1      38.858  32.760  30.687  1.00  0.00     0.049 A 
ATOM     33  N   UNL A   1      39.697  30.057  29.679  1.00  0.00    -0.248 NA
ATOM     34  C   UNL A   1      37.762  29.993  28.375  1.00  0.00     0.031 C 
ATOM     35  C   UNL A   1      38.481  34.059  31.251  1.00  0.00     0.029 A 
ATOM     36  N   UNL A   1      40.064  32.479  31.280  1.00  0.00    -0.354 N 
ATOM     37  C   UNL A   1      39.648  28.851  28.990  1.00  0.00     0.074 A 
ATOM     38  C   UNL A   1      38.406  28.842  28.247  1.00  0.00     0.031 C 
ATOM     39  C   UNL A   1      39.445  34.469  32.090  1.00  0.00     0.029 A 
ATOM     40  C   UNL A   1      40.486  33.450  32.158  1.00  0.00     0.049 A 
ATOM     41  H   UNL A   1      40.578  31.661  31.095  1.00  0.00     0.167 HD
ATOM     42  C   UNL A   1      40.563  27.852  28.962  1.00  0.00     0.037 A 
ATOM     43  C   UNL A   1      41.581  33.506  32.939  1.00  0.00     0.037 A 
ATOM     44  C   UNL A   1      41.808  27.870  29.687  1.00  0.00     0.049 A 
ATOM     45  C   UNL A   1      42.573  32.377  32.902  1.00  0.00     0.074 A 
ATOM     46  C   UNL A   1      42.823  26.929  29.677  1.00  0.00     0.029 A 
ATOM     47  N   UNL A   1      42.203  28.875  30.556  1.00  0.00    -0.354 N 
ATOM     48  N   UNL A   1      42.546  31.274  32.194  1.00  0.00    -0.248 NA
ATOM     49  C   UNL A   1      43.753  32.503  33.771  1.00  0.00     0.031 C 
ATOM     50  C   UNL A   1      43.811  27.342  30.577  1.00  0.00     0.029 A 
ATOM     51  C   UNL A   1      43.436  28.566  31.107  1.00  0.00     0.049 A 
ATOM     52  H   UNL A   1      41.684  29.688  30.753  1.00  0.00     0.167 HD
ATOM     53  C   UNL A   1      43.714  30.591  32.508  1.00  0.00     0.074 A 
ATOM     54  C   UNL A   1      44.435  31.410  33.459  1.00  0.00     0.031 C 
ATOM     55  C   UNL A   1      44.150  29.393  32.047  1.00  0.00     0.037 A 
BRANCH  42  56
ATOM     56  C   UNL A   1      40.252  26.651  28.115  1.00  0.00     0.057 A 
ATOM     57  C   UNL A   1      39.377  25.646  28.549  1.00  0.00     0.134 A 
ATOM     58  C   UNL A   1      40.802  26.517  26.834  1.00  0.00     0.134 A 
ATOM     59  F   UNL A   1      38.823  25.709  29.769  1.00  0.00    -0.206 F 
ATOM     60  C   UNL A   1      39.082  24.539  27.752  1.00  0.00     0.040 A 
ATOM     61  C   UNL A   1      40.493  25.429  26.016  1.00  0.00     0.040 A 
ATOM     62  F   UNL A   1      41.641  27.446  26.351  1.00  0.00    -0.206 F 
ATOM     63  C   UNL A   1      39.635  24.432  26.478  1.00  0.00     0.006 A 
ENDBRANCH  42  56
BRANCH  43  64
ATOM     64  C   UNL A   1      41.811  34.685  33.813  1.00  0.00     0.057 A 
ATOM     65  C   UNL A   1      41.280  34.737  35.108  1.00  0.00     0.134 A 
ATOM     66  C   UNL A   1      42.553  35.788  33.376  1.00  0.00     0.134 A 
ATOM     67  F   UNL A   1      40.544  33.720  35.577  1.00  0.00    -0.206 F 
ATOM     68  C   UNL A   1      41.460  35.852  35.927  1.00  0.00     0.040 A 
ATOM     69  C   UNL A   1      42.764  36.898  34.194  1.00  0.00     0.040 A 
ATOM     70  F   UNL A   1      43.094  35.797  32.148  1.00  0.00    -0.206 F 
ATOM     71  C   UNL A   1      42.210  36.936  35.472  1.00  0.00     0.006 A 
ENDBRANCH  43  64
BRANCH  55  72
ATOM     72  C   UNL A   1      45.486  28.913  32.536  1.00  0.00     0.057 A 
ATOM     73  C   UNL A   1      45.614  28.099  33.668  1.00  0.00     0.134 A 
ATOM     74  C   UNL A   1      46.657  29.241  31.840  1.00  0.00     0.134 A 
ATOM     75  F   UNL A   1      44.533  27.759  34.387  1.00  0.00    -0.206 F 
ATOM     76  C   UNL A   1      46.862  27.650  34.107  1.00  0.00     0.040 A 
ATOM     77  C   UNL A   1      47.906  28.776  32.251  1.00  0.00     0.040 A 
ATOM     78  F   UNL A   1      46.604  30.009  30.742  1.00  0.00    -0.206 F 
ATOM     79  C   UNL A   1      48.011  27.982  33.392  1.00  0.00     0.006 A 
ENDBRANCH  55  72
ENDBRANCH  29  30
ENDBRANCH  21  24
ENDBRANCH  19  20
ENDBRANCH   1  19
TORSDOF 13
ENDMDL
MODEL 3
REMARK VINA RESULT:     -10.0      0.512      6.456
REMARK SMILES O=C(/C=C/c1ccc(O)c(O)c1)NCCCNC(=O)c1ccc(-c2c3nc(c(-c4c(F)cccc4F)c4ccc([nH]4)c(-c4c(F)cccc4F)c4nc(c(-c5c(F)cccc5F)c5ccc2[nH]5)C=C4)C=C3)cc1
REMARK SMILES IDX 15 1 14 2 13 3 1 4 2 5 3 7 4 8 5 9 6 10 12 11 7 12 10 13
REMARK SMILES IDX 8 14 11 15 9 17 16 19 17 20 18 21 19 23 20 24 21 25 73 26
REMARK SMILES IDX 22 27 72 28 23 29 24 30 25 31 66 32 26 33 71 34 65 35 67 36
REMARK SMILES IDX 27 37 70 38 64 39 63 40 28 42 54 43 37 44 53 45 38 46 41 47
REMARK SMILES IDX 52 48 68 49 39 50 40 51 51 53 69 54 42 55 29 56 30 57 35 58
REMARK SMILES IDX 31 59 32 60 34 61 36 62 33 63 55 64 56 65 61 66 57 67 58 68
REMARK SMILES IDX 60 69 62 70 59 71 43 72 44 73 49 74 45 75 46 76 48 77 50 78
REMARK SMILES IDX 47 79
REMARK H PARENT 13 6 11 16 9 18 17 22 67 41 41 52
REMARK Flexibility Score: inf
ROOT
ATOM      1  C   UNL A   1      44.073  18.474  25.112  1.00  0.00     0.042 C 
ENDROOT
BRANCH   1   2
ATOM      2  C   UNL A   1      45.383  19.192  25.421  1.00  0.00     0.118 C 
BRANCH   2   3
ATOM      3  N   UNL A   1      45.193  20.589  25.760  1.00  0.00    -0.352 N 
ATOM      4  O   UNL A   1      46.827  21.390  24.361  1.00  0.00    -0.270 OA
ATOM      5  C   UNL A   1      45.944  21.583  25.192  1.00  0.00     0.244 C 
ATOM      6  H   UNL A   1      44.501  20.830  26.417  1.00  0.00     0.163 HD
BRANCH   5   7
ATOM      7  C   UNL A   1      45.604  22.975  25.581  1.00  0.00     0.072 C 
ATOM      8  C   UNL A   1      45.488  24.025  24.752  1.00  0.00     0.014 C 
BRANCH   8   9
ATOM      9  C   UNL A   1      45.102  25.369  25.212  1.00  0.00    -0.022 A 
ATOM     10  C   UNL A   1      46.019  26.246  25.816  1.00  0.00     0.012 A 
ATOM     11  C   UNL A   1      43.788  25.804  24.996  1.00  0.00     0.058 A 
ATOM     12  C   UNL A   1      45.628  27.526  26.229  1.00  0.00     0.051 A 
ATOM     13  C   UNL A   1      43.407  27.075  25.409  1.00  0.00     0.157 A 
ATOM     14  C   UNL A   1      44.315  27.930  26.025  1.00  0.00     0.157 A 
BRANCH  13  15
ATOM     15  O   UNL A   1      42.119  27.482  25.204  1.00  0.00    -0.504 OA
ATOM     16  H   UNL A   1      41.661  27.945  25.878  1.00  0.00     0.293 HD
ENDBRANCH  13  15
BRANCH  14  17
ATOM     17  O   UNL A   1      43.869  29.164  26.409  1.00  0.00    -0.504 OA
ATOM     18  H   UNL A   1      43.367  29.257  27.194  1.00  0.00     0.293 HD
ENDBRANCH  14  17
ENDBRANCH   8   9
ENDBRANCH   5   7
ENDBRANCH   2   3
ENDBRANCH   1   2
BRANCH   1  19
ATOM     19  C   UNL A   1      43.114  18.360  26.295  1.00  0.00     0.118 C 
BRANCH  19  20
ATOM     20  N   UNL A   1      41.713  18.504  25.920  1.00  0.00    -0.352 N 
ATOM     21  C   UNL A   1      40.845  19.552  26.100  1.00  0.00     0.251 C 
ATOM     22  H   UNL A   1      41.326  17.722  25.463  1.00  0.00     0.163 HD
ATOM     23  O   UNL A   1      39.659  19.409  25.809  1.00  0.00    -0.269 OA
BRANCH  21  24
ATOM     24  C   UNL A   1      41.307  20.840  26.666  1.00  0.00     0.039 A 
ATOM     25  C   UNL A   1      41.781  21.822  25.789  1.00  0.00     0.014 A 
ATOM     26  C   UNL A   1      41.304  21.082  28.041  1.00  0.00     0.014 A 
ATOM     27  C   UNL A   1      42.180  23.067  26.284  1.00  0.00     0.010 A 
ATOM     28  C   UNL A   1      41.632  22.347  28.526  1.00  0.00     0.010 A 
ATOM     29  C   UNL A   1      42.071  23.355  27.654  1.00  0.00    -0.014 A 
BRANCH  29  30
ATOM     30  C   UNL A   1      42.390  24.707  28.184  1.00  0.00     0.031 A 
ATOM     31  C   UNL A   1      43.776  25.029  28.669  1.00  0.00     0.074 A 
ATOM     32  C   UNL A   1      41.413  25.629  28.288  1.00  0.00     0.049 A 
ATOM     33  N   UNL A   1      44.224  26.128  29.226  1.00  0.00    -0.248 NA
ATOM     34  C   UNL A   1      44.789  23.972  28.533  1.00  0.00     0.031 C 
ATOM     35  C   UNL A   1      40.017  25.431  27.893  1.00  0.00     0.029 A 
ATOM     36  N   UNL A   1      41.442  26.915  28.768  1.00  0.00    -0.354 N 
ATOM     37  C   UNL A   1      45.561  25.888  29.517  1.00  0.00     0.074 A 
ATOM     38  C   UNL A   1      45.840  24.524  29.121  1.00  0.00     0.031 C 
ATOM     39  C   UNL A   1      39.330  26.560  28.128  1.00  0.00     0.029 A 
ATOM     40  C   UNL A   1      40.222  27.546  28.727  1.00  0.00     0.049 A 
ATOM     41  H   UNL A   1      42.259  27.344  29.110  1.00  0.00     0.167 HD
ATOM     42  C   UNL A   1      46.479  26.733  30.047  1.00  0.00     0.037 A 
ATOM     43  C   UNL A   1      39.859  28.776  29.138  1.00  0.00     0.037 A 
ATOM     44  C   UNL A   1      46.206  28.096  30.424  1.00  0.00     0.049 A 
ATOM     45  C   UNL A   1      40.892  29.689  29.738  1.00  0.00     0.074 A 
ATOM     46  C   UNL A   1      47.084  29.046  30.916  1.00  0.00     0.029 A 
ATOM     47  N   UNL A   1      44.960  28.701  30.357  1.00  0.00    -0.354 N 
ATOM     48  N   UNL A   1      42.168  29.471  29.945  1.00  0.00    -0.248 NA
ATOM     49  C   UNL A   1      40.436  31.022  30.157  1.00  0.00     0.031 C 
ATOM     50  C   UNL A   1      46.361  30.210  31.192  1.00  0.00     0.029 A 
ATOM     51  C   UNL A   1      45.042  30.004  30.821  1.00  0.00     0.049 A 
ATOM     52  H   UNL A   1      44.139  28.269  30.028  1.00  0.00     0.167 HD
ATOM     53  C   UNL A   1      42.672  30.646  30.489  1.00  0.00     0.074 A 
ATOM     54  C   UNL A   1      41.567  31.578  30.567  1.00  0.00     0.031 C 
ATOM     55  C   UNL A   1      43.937  30.927  30.887  1.00  0.00     0.037 A 
BRANCH  42  56
ATOM     56  C   UNL A   1      47.871  26.205  30.249  1.00  0.00     0.057 A 
ATOM     57  C   UNL A   1      48.287  25.669  31.476  1.00  0.00     0.134 A 
ATOM     58  C   UNL A   1      48.793  26.197  29.196  1.00  0.00     0.134 A 
ATOM     59  F   UNL A   1      47.456  25.656  32.528  1.00  0.00    -0.206 F 
ATOM     60  C   UNL A   1      49.578  25.170  31.654  1.00  0.00     0.040 A 
ATOM     61  C   UNL A   1      50.078  25.673  29.353  1.00  0.00     0.040 A 
ATOM     62  F   UNL A   1      48.458  26.686  27.992  1.00  0.00    -0.206 F 
ATOM     63  C   UNL A   1      50.475  25.164  30.588  1.00  0.00     0.006 A 
ENDBRANCH  42  56
BRANCH  43  64
ATOM     64  C   UNL A   1      38.453  29.228  28.980  1.00  0.00     0.057 A 
ATOM     65  C   UNL A   1      37.979  29.697  27.749  1.00  0.00     0.134 A 
ATOM     66  C   UNL A   1      37.555  29.216  30.053  1.00  0.00     0.134 A 
ATOM     67  F   UNL A   1      38.797  29.752  26.687  1.00  0.00    -0.206 F 
ATOM     68  C   UNL A   1      36.670  30.156  27.595  1.00  0.00     0.040 A 
ATOM     69  C   UNL A   1      36.235  29.646  29.908  1.00  0.00     0.040 A 
ATOM     70  F   UNL A   1      37.945  28.772  31.258  1.00  0.00    -0.206 F 
ATOM     71  C   UNL A   1      35.792  30.126  28.677  1.00  0.00     0.006 A 
ENDBRANCH  43  64
BRANCH  55  72
ATOM     72  C   UNL A   1      44.204  32.310  31.406  1.00  0.00     0.057 A 
ATOM     73  C   UNL A   1      44.481  33.384  30.551  1.00  0.00     0.134 A 
ATOM     74  C   UNL A   1      44.147  32.577  32.781  1.00  0.00     0.134 A 
ATOM     75  F   UNL A   1      44.563  33.193  29.225  1.00  0.00    -0.206 F 
ATOM     76  C   UNL A   1      44.717  34.668  31.045  1.00  0.00     0.040 A 
ATOM     77  C   UNL A   1      44.353  33.861  33.285  1.00  0.00     0.040 A 
ATOM     78  F   UNL A   1      43.877  31.596  33.655  1.00  0.00    -0.206 F 
ATOM     79  C   UNL A   1      44.645  34.911  32.415  1.00  0.00     0.006 A 
ENDBRANCH  55  72
ENDBRANCH  29  30
ENDBRANCH  21  24
ENDBRANCH  19  20
ENDBRANCH   1  19
TORSDOF 13
ENDMDL
