MODEL 1
REMARK VINA RESULT:     -12.4      0.000      0.000
REMARK SMILES O=C(NCCCNC(=O)c1ccccc1C(=O)N1CCS[C@H]1c1ccccc1)c1ccc(-c2c3nc(c(-c4c(F)cccc4F)c4ccc([nH]4)c(-c4c(F)cccc4F)c4nc(c(-c5c(F)cccc5F)c5ccc2[nH]5)C=C4)C=C3)cc1
REMARK SMILES IDX 5 1 4 2 3 3 1 4 2 5 29 7 30 8 82 9 31 10 81 11 32 12 33 13
REMARK SMILES IDX 34 14 75 15 35 16 80 17 74 18 76 19 36 20 79 21 73 22 72 23
REMARK SMILES IDX 37 25 63 26 46 27 62 28 47 29 50 30 61 31 77 32 48 33 49 34
REMARK SMILES IDX 60 36 78 37 51 38 38 39 39 40 44 41 40 42 41 43 43 44 45 45
REMARK SMILES IDX 42 46 64 47 65 48 70 49 66 50 67 51 69 52 71 53 68 54 52 55
REMARK SMILES IDX 53 56 58 57 54 58 55 59 57 60 59 61 56 62 6 63 7 64 8 65
REMARK SMILES IDX 9 67 10 68 11 69 15 70 12 71 14 72 13 73 16 74 17 75 18 76
REMARK SMILES IDX 19 77 22 78 20 79 21 80 23 81 24 82 28 83 25 84 27 85 26 86
REMARK H PARENT 3 6 76 24 50 35 7 66
REMARK Flexibility Score: inf
ROOT
ATOM      1  C   UNL A   1      31.243  31.602  26.502  1.00  0.00     0.042 C 
ENDROOT
BRANCH   1   2
ATOM      2  C   UNL A   1      32.307  32.690  26.436  1.00  0.00     0.118 C 
BRANCH   2   3
ATOM      3  N   UNL A   1      32.153  33.764  27.406  1.00  0.00    -0.352 N 
ATOM      4  O   UNL A   1      32.832  35.152  29.066  1.00  0.00    -0.269 OA
ATOM      5  C   UNL A   1      33.066  34.195  28.342  1.00  0.00     0.251 C 
ATOM      6  H   UNL A   1      31.291  34.239  27.391  1.00  0.00     0.163 HD
BRANCH   5   7
ATOM      7  C   UNL A   1      34.300  33.403  28.506  1.00  0.00     0.039 A 
ATOM      8  C   UNL A   1      34.225  32.042  28.809  1.00  0.00     0.014 A 
ATOM      9  C   UNL A   1      35.519  34.084  28.545  1.00  0.00     0.014 A 
ATOM     10  C   UNL A   1      35.342  31.406  29.334  1.00  0.00     0.010 A 
ATOM     11  C   UNL A   1      36.656  33.421  29.007  1.00  0.00     0.010 A 
ATOM     12  C   UNL A   1      36.557  32.100  29.469  1.00  0.00    -0.014 A 
BRANCH  12  13
ATOM     13  C   UNL A   1      37.703  31.441  30.140  1.00  0.00     0.031 A 
ATOM     14  C   UNL A   1      37.983  31.687  31.598  1.00  0.00     0.074 A 
ATOM     15  C   UNL A   1      38.459  30.575  29.441  1.00  0.00     0.049 A 
ATOM     16  N   UNL A   1      38.942  31.203  32.346  1.00  0.00    -0.248 NA
ATOM     17  C   UNL A   1      37.073  32.599  32.310  1.00  0.00     0.031 C 
ATOM     18  C   UNL A   1      38.273  30.249  28.026  1.00  0.00     0.029 A 
ATOM     19  N   UNL A   1      39.516  29.799  29.830  1.00  0.00    -0.354 N 
ATOM     20  C   UNL A   1      38.773  31.775  33.600  1.00  0.00     0.074 A 
ATOM     21  C   UNL A   1      37.622  32.648  33.515  1.00  0.00     0.031 C 
ATOM     22  C   UNL A   1      39.158  29.305  27.677  1.00  0.00     0.029 A 
ATOM     23  C   UNL A   1      40.003  28.999  28.827  1.00  0.00     0.049 A 
ATOM     24  H   UNL A   1      39.891  29.812  30.741  1.00  0.00     0.167 HD
ATOM     25  C   UNL A   1      39.512  31.588  34.720  1.00  0.00     0.037 A 
ATOM     26  C   UNL A   1      41.022  28.123  28.830  1.00  0.00     0.037 A 
ATOM     27  C   UNL A   1      40.634  30.691  34.813  1.00  0.00     0.049 A 
ATOM     28  C   UNL A   1      41.814  27.924  30.086  1.00  0.00     0.074 A 
ATOM     29  C   UNL A   1      41.429  30.411  35.912  1.00  0.00     0.029 A 
ATOM     30  N   UNL A   1      41.112  29.919  33.766  1.00  0.00    -0.354 N 
ATOM     31  N   UNL A   1      41.652  28.484  31.259  1.00  0.00    -0.248 NA
ATOM     32  C   UNL A   1      42.939  26.981  30.014  1.00  0.00     0.031 C 
ATOM     33  C   UNL A   1      42.403  29.484  35.523  1.00  0.00     0.029 A 
ATOM     34  C   UNL A   1      42.198  29.170  34.189  1.00  0.00     0.049 A 
ATOM     35  H   UNL A   1      40.736  29.904  32.857  1.00  0.00     0.167 HD
ATOM     36  C   UNL A   1      42.656  27.971  32.066  1.00  0.00     0.074 A 
ATOM     37  C   UNL A   1      43.407  27.033  31.254  1.00  0.00     0.031 C 
ATOM     38  C   UNL A   1      42.938  28.256  33.359  1.00  0.00     0.037 A 
BRANCH  25  39
ATOM     39  C   UNL A   1      39.144  32.385  35.935  1.00  0.00     0.057 A 
ATOM     40  C   UNL A   1      39.621  33.685  36.140  1.00  0.00     0.134 A 
ATOM     41  C   UNL A   1      38.262  31.861  36.889  1.00  0.00     0.134 A 
ATOM     42  F   UNL A   1      40.480  34.238  35.271  1.00  0.00    -0.206 F 
ATOM     43  C   UNL A   1      39.242  34.433  37.257  1.00  0.00     0.040 A 
ATOM     44  C   UNL A   1      37.864  32.603  38.001  1.00  0.00     0.040 A 
ATOM     45  F   UNL A   1      37.768  30.621  36.749  1.00  0.00    -0.206 F 
ATOM     46  C   UNL A   1      38.356  33.894  38.189  1.00  0.00     0.006 A 
ENDBRANCH  25  39
BRANCH  26  47
ATOM     47  C   UNL A   1      41.338  27.378  27.592  1.00  0.00     0.057 A 
ATOM     48  C   UNL A   1      42.193  27.917  26.626  1.00  0.00     0.134 A 
ATOM     49  C   UNL A   1      40.840  26.087  27.375  1.00  0.00     0.134 A 
ATOM     50  F   UNL A   1      42.689  29.153  26.778  1.00  0.00    -0.206 F 
ATOM     51  C   UNL A   1      42.545  27.197  25.483  1.00  0.00     0.040 A 
ATOM     52  C   UNL A   1      41.198  25.350  26.247  1.00  0.00     0.040 A 
ATOM     53  F   UNL A   1      40.024  25.517  28.274  1.00  0.00    -0.206 F 
ATOM     54  C   UNL A   1      42.053  25.905  25.297  1.00  0.00     0.006 A 
ENDBRANCH  26  47
BRANCH  38  55
ATOM     55  C   UNL A   1      44.112  27.551  33.963  1.00  0.00     0.057 A 
ATOM     56  C   UNL A   1      43.969  26.300  34.576  1.00  0.00     0.134 A 
ATOM     57  C   UNL A   1      45.390  28.118  33.920  1.00  0.00     0.134 A 
ATOM     58  F   UNL A   1      42.765  25.716  34.657  1.00  0.00    -0.206 F 
ATOM     59  C   UNL A   1      45.061  25.642  35.140  1.00  0.00     0.040 A 
ATOM     60  C   UNL A   1      46.492  27.462  34.470  1.00  0.00     0.040 A 
ATOM     61  F   UNL A   1      45.586  29.313  33.344  1.00  0.00    -0.206 F 
ATOM     62  C   UNL A   1      46.327  26.222  35.086  1.00  0.00     0.006 A 
ENDBRANCH  38  55
ENDBRANCH  12  13
ENDBRANCH   5   7
ENDBRANCH   2   3
ENDBRANCH   1   2
BRANCH   1  63
ATOM     63  C   UNL A   1      31.768  30.178  26.388  1.00  0.00     0.118 C 
BRANCH  63  64
ATOM     64  N   UNL A   1      32.572  29.952  25.202  1.00  0.00    -0.352 N 
ATOM     65  C   UNL A   1      32.219  29.312  24.045  1.00  0.00     0.252 C 
ATOM     66  H   UNL A   1      33.490  30.305  25.234  1.00  0.00     0.163 HD
ATOM     67  O   UNL A   1      33.079  29.091  23.198  1.00  0.00    -0.269 OA
BRANCH  65  68
ATOM     68  C   UNL A   1      30.850  28.786  23.872  1.00  0.00     0.052 A 
ATOM     69  C   UNL A   1      29.893  29.709  23.422  1.00  0.00     0.014 A 
ATOM     70  C   UNL A   1      30.485  27.451  24.088  1.00  0.00     0.052 A 
ATOM     71  C   UNL A   1      28.598  29.290  23.120  1.00  0.00     0.001 A 
ATOM     72  C   UNL A   1      29.190  27.031  23.743  1.00  0.00     0.014 A 
ATOM     73  C   UNL A   1      28.252  27.948  23.265  1.00  0.00     0.001 A 
BRANCH  70  74
ATOM     74  C   UNL A   1      31.430  26.408  24.546  1.00  0.00     0.255 C 
ATOM     75  O   UNL A   1      31.569  26.278  25.763  1.00  0.00    -0.269 OA
BRANCH  74  76
ATOM     76  N   UNL A   1      32.000  25.537  23.636  1.00  0.00    -0.322 N 
ATOM     77  C   UNL A   1      31.785  25.803  22.223  1.00  0.00     0.132 C 
ATOM     78  C   UNL A   1      32.226  24.109  23.839  1.00  0.00     0.174 C 
ATOM     79  C   UNL A   1      32.918  25.139  21.468  1.00  0.00     0.093 C 
ATOM     80  S   UNL A   1      33.172  23.576  22.359  1.00  0.00    -0.130 SA
BRANCH  78  81
ATOM     81  C   UNL A   1      32.755  23.623  25.165  1.00  0.00    -0.015 A 
ATOM     82  C   UNL A   1      31.961  23.019  26.150  1.00  0.00     0.007 A 
ATOM     83  C   UNL A   1      34.130  23.779  25.433  1.00  0.00     0.007 A 
ATOM     84  C   UNL A   1      32.521  22.572  27.349  1.00  0.00     0.000 A 
ATOM     85  C   UNL A   1      34.691  23.329  26.629  1.00  0.00     0.000 A 
ATOM     86  C   UNL A   1      33.885  22.724  27.588  1.00  0.00     0.000 A 
ENDBRANCH  78  81
ENDBRANCH  74  76
ENDBRANCH  70  74
ENDBRANCH  65  68
ENDBRANCH  63  64
ENDBRANCH   1  63
TORSDOF 13
ENDMDL
MODEL 2
REMARK VINA RESULT:     -12.4      4.271      9.012
REMARK SMILES O=C(NCCCNC(=O)c1ccccc1C(=O)N1CCS[C@H]1c1ccccc1)c1ccc(-c2c3nc(c(-c4c(F)cccc4F)c4ccc([nH]4)c(-c4c(F)cccc4F)c4nc(c(-c5c(F)cccc5F)c5ccc2[nH]5)C=C4)C=C3)cc1
REMARK SMILES IDX 5 1 4 2 3 3 1 4 2 5 29 7 30 8 82 9 31 10 81 11 32 12 33 13
REMARK SMILES IDX 34 14 75 15 35 16 80 17 74 18 76 19 36 20 79 21 73 22 72 23
REMARK SMILES IDX 37 25 63 26 46 27 62 28 47 29 50 30 61 31 77 32 48 33 49 34
REMARK SMILES IDX 60 36 78 37 51 38 38 39 39 40 44 41 40 42 41 43 43 44 45 45
REMARK SMILES IDX 42 46 64 47 65 48 70 49 66 50 67 51 69 52 71 53 68 54 52 55
REMARK SMILES IDX 53 56 58 57 54 58 55 59 57 60 59 61 56 62 6 63 7 64 8 65
REMARK SMILES IDX 9 67 10 68 11 69 15 70 12 71 14 72 13 73 16 74 17 75 18 76
REMARK SMILES IDX 19 77 22 78 20 79 21 80 23 81 24 82 28 83 25 84 27 85 26 86
REMARK H PARENT 3 6 76 24 50 35 7 66
REMARK Flexibility Score: inf
ROOT
ATOM      1  C   UNL A   1      37.669  21.829  24.965  1.00  0.00     0.042 C 
ENDROOT
BRANCH   1   2
ATOM      2  C   UNL A   1      38.680  21.410  26.025  1.00  0.00     0.118 C 
BRANCH   2   3
ATOM      3  N   UNL A   1      39.466  20.231  25.696  1.00  0.00    -0.352 N 
ATOM      4  O   UNL A   1      41.318  18.921  25.709  1.00  0.00    -0.269 OA
ATOM      5  C   UNL A   1      40.787  19.985  25.995  1.00  0.00     0.251 C 
ATOM      6  H   UNL A   1      38.996  19.523  25.199  1.00  0.00     0.163 HD
BRANCH   5   7
ATOM      7  C   UNL A   1      41.568  21.086  26.591  1.00  0.00     0.039 A 
ATOM      8  C   UNL A   1      41.635  21.227  27.978  1.00  0.00     0.014 A 
ATOM      9  C   UNL A   1      42.063  22.078  25.741  1.00  0.00     0.014 A 
ATOM     10  C   UNL A   1      42.027  22.447  28.513  1.00  0.00     0.010 A 
ATOM     11  C   UNL A   1      42.523  23.276  26.286  1.00  0.00     0.010 A 
ATOM     12  C   UNL A   1      42.442  23.493  27.670  1.00  0.00    -0.014 A 
BRANCH  12  13
ATOM     13  C   UNL A   1      42.742  24.823  28.251  1.00  0.00     0.031 A 
ATOM     14  C   UNL A   1      44.155  25.207  28.599  1.00  0.00     0.074 A 
ATOM     15  C   UNL A   1      41.740  25.705  28.413  1.00  0.00     0.049 A 
ATOM     16  N   UNL A   1      44.602  26.321  29.121  1.00  0.00    -0.248 NA
ATOM     17  C   UNL A   1      45.204  24.209  28.335  1.00  0.00     0.031 C 
ATOM     18  C   UNL A   1      40.334  25.448  28.098  1.00  0.00     0.029 A 
ATOM     19  N   UNL A   1      41.755  26.999  28.859  1.00  0.00    -0.354 N 
ATOM     20  C   UNL A   1      45.971  26.148  29.278  1.00  0.00     0.074 A 
ATOM     21  C   UNL A   1      46.285  24.818  28.802  1.00  0.00     0.031 C 
ATOM     22  C   UNL A   1      39.628  26.565  28.319  1.00  0.00     0.029 A 
ATOM     23  C   UNL A   1      40.520  27.597  28.836  1.00  0.00     0.049 A 
ATOM     24  H   UNL A   1      42.572  27.456  29.165  1.00  0.00     0.167 HD
ATOM     25  C   UNL A   1      46.881  27.020  29.774  1.00  0.00     0.037 A 
ATOM     26  C   UNL A   1      40.146  28.836  29.202  1.00  0.00     0.037 A 
ATOM     27  C   UNL A   1      46.572  28.356  30.212  1.00  0.00     0.049 A 
ATOM     28  C   UNL A   1      41.175  29.785  29.734  1.00  0.00     0.074 A 
ATOM     29  C   UNL A   1      47.430  29.325  30.704  1.00  0.00     0.029 A 
ATOM     30  N   UNL A   1      45.303  28.914  30.198  1.00  0.00    -0.354 N 
ATOM     31  N   UNL A   1      42.463  29.600  29.891  1.00  0.00    -0.248 NA
ATOM     32  C   UNL A   1      40.697  31.110  30.151  1.00  0.00     0.031 C 
ATOM     33  C   UNL A   1      46.676  30.464  31.009  1.00  0.00     0.029 A 
ATOM     34  C   UNL A   1      45.353  30.210  30.683  1.00  0.00     0.049 A 
ATOM     35  H   UNL A   1      44.488  28.458  29.890  1.00  0.00     0.167 HD
ATOM     36  C   UNL A   1      42.951  30.780  30.433  1.00  0.00     0.074 A 
ATOM     37  C   UNL A   1      41.824  31.684  30.552  1.00  0.00     0.031 C 
ATOM     38  C   UNL A   1      44.216  31.085  30.807  1.00  0.00     0.037 A 
BRANCH  25  39
ATOM     39  C   UNL A   1      48.299  26.550  29.890  1.00  0.00     0.057 A 
ATOM     40  C   UNL A   1      49.252  26.819  28.900  1.00  0.00     0.134 A 
ATOM     41  C   UNL A   1      48.729  25.860  31.032  1.00  0.00     0.134 A 
ATOM     42  F   UNL A   1      48.899  27.463  27.777  1.00  0.00    -0.206 F 
ATOM     43  C   UNL A   1      50.580  26.409  29.035  1.00  0.00     0.040 A 
ATOM     44  C   UNL A   1      50.056  25.457  31.185  1.00  0.00     0.040 A 
ATOM     45  F   UNL A   1      47.865  25.572  32.017  1.00  0.00    -0.206 F 
ATOM     46  C   UNL A   1      50.986  25.731  30.183  1.00  0.00     0.006 A 
ENDBRANCH  25  39
BRANCH  26  47
ATOM     47  C   UNL A   1      38.727  29.230  29.071  1.00  0.00     0.057 A 
ATOM     48  C   UNL A   1      38.193  29.598  27.832  1.00  0.00     0.134 A 
ATOM     49  C   UNL A   1      37.859  29.190  30.169  1.00  0.00     0.134 A 
ATOM     50  F   UNL A   1      38.982  29.664  26.751  1.00  0.00    -0.206 F 
ATOM     51  C   UNL A   1      36.841  29.914  27.688  1.00  0.00     0.040 A 
ATOM     52  C   UNL A   1      36.503  29.484  30.036  1.00  0.00     0.040 A 
ATOM     53  F   UNL A   1      38.315  28.834  31.379  1.00  0.00    -0.206 F 
ATOM     54  C   UNL A   1      35.990  29.848  28.792  1.00  0.00     0.006 A 
ENDBRANCH  26  47
BRANCH  38  55
ATOM     55  C   UNL A   1      44.436  32.446  31.386  1.00  0.00     0.057 A 
ATOM     56  C   UNL A   1      44.342  32.671  32.765  1.00  0.00     0.134 A 
ATOM     57  C   UNL A   1      44.758  33.533  30.567  1.00  0.00     0.134 A 
ATOM     58  F   UNL A   1      44.023  31.669  33.597  1.00  0.00    -0.206 F 
ATOM     59  C   UNL A   1      44.545  33.939  33.308  1.00  0.00     0.040 A 
ATOM     60  C   UNL A   1      44.976  34.803  31.100  1.00  0.00     0.040 A 
ATOM     61  F   UNL A   1      44.864  33.376  29.239  1.00  0.00    -0.206 F 
ATOM     62  C   UNL A   1      44.866  35.009  32.475  1.00  0.00     0.006 A 
ENDBRANCH  38  55
ENDBRANCH  12  13
ENDBRANCH   5   7
ENDBRANCH   2   3
ENDBRANCH   1   2
BRANCH   1  63
ATOM     63  C   UNL A   1      36.469  20.906  24.815  1.00  0.00     0.118 C 
BRANCH  63  64
ATOM     64  N   UNL A   1      35.539  20.981  25.926  1.00  0.00    -0.352 N 
ATOM     65  C   UNL A   1      34.172  21.010  25.888  1.00  0.00     0.252 C 
ATOM     66  H   UNL A   1      35.945  21.016  26.822  1.00  0.00     0.163 HD
ATOM     67  O   UNL A   1      33.550  21.218  26.927  1.00  0.00    -0.269 OA
BRANCH  65  68
ATOM     68  C   UNL A   1      33.460  20.914  24.599  1.00  0.00     0.052 A 
ATOM     69  C   UNL A   1      33.223  19.613  24.126  1.00  0.00     0.014 A 
ATOM     70  C   UNL A   1      32.990  22.017  23.873  1.00  0.00     0.052 A 
ATOM     71  C   UNL A   1      32.462  19.410  22.976  1.00  0.00     0.001 A 
ATOM     72  C   UNL A   1      32.190  21.800  22.739  1.00  0.00     0.014 A 
ATOM     73  C   UNL A   1      31.932  20.503  22.292  1.00  0.00     0.001 A 
BRANCH  70  74
ATOM     74  C   UNL A   1      33.178  23.420  24.304  1.00  0.00     0.255 C 
ATOM     75  O   UNL A   1      34.261  23.944  24.037  1.00  0.00    -0.269 OA
BRANCH  74  76
ATOM     76  N   UNL A   1      32.123  24.131  24.843  1.00  0.00    -0.322 N 
ATOM     77  C   UNL A   1      31.092  23.381  25.542  1.00  0.00     0.132 C 
ATOM     78  C   UNL A   1      31.555  25.365  24.307  1.00  0.00     0.174 C 
ATOM     79  C   UNL A   1      30.418  24.340  26.502  1.00  0.00     0.093 C 
ATOM     80  S   UNL A   1      30.329  25.895  25.567  1.00  0.00    -0.130 SA
BRANCH  78  81
ATOM     81  C   UNL A   1      32.476  26.444  23.795  1.00  0.00    -0.015 A 
ATOM     82  C   UNL A   1      32.759  26.651  22.438  1.00  0.00     0.007 A 
ATOM     83  C   UNL A   1      33.087  27.301  24.732  1.00  0.00     0.007 A 
ATOM     84  C   UNL A   1      33.607  27.684  22.031  1.00  0.00     0.000 A 
ATOM     85  C   UNL A   1      33.930  28.337  24.326  1.00  0.00     0.000 A 
ATOM     86  C   UNL A   1      34.189  28.528  22.973  1.00  0.00     0.000 A 
ENDBRANCH  78  81
ENDBRANCH  74  76
ENDBRANCH  70  74
ENDBRANCH  65  68
ENDBRANCH  63  64
ENDBRANCH   1  63
TORSDOF 13
ENDMDL
MODEL 3
REMARK VINA RESULT:     -12.4      4.284      8.466
REMARK SMILES O=C(NCCCNC(=O)c1ccccc1C(=O)N1CCS[C@H]1c1ccccc1)c1ccc(-c2c3nc(c(-c4c(F)cccc4F)c4ccc([nH]4)c(-c4c(F)cccc4F)c4nc(c(-c5c(F)cccc5F)c5ccc2[nH]5)C=C4)C=C3)cc1
REMARK SMILES IDX 5 1 4 2 3 3 1 4 2 5 29 7 30 8 82 9 31 10 81 11 32 12 33 13
REMARK SMILES IDX 34 14 75 15 35 16 80 17 74 18 76 19 36 20 79 21 73 22 72 23
REMARK SMILES IDX 37 25 63 26 46 27 62 28 47 29 50 30 61 31 77 32 48 33 49 34
REMARK SMILES IDX 60 36 78 37 51 38 38 39 39 40 44 41 40 42 41 43 43 44 45 45
REMARK SMILES IDX 42 46 64 47 65 48 70 49 66 50 67 51 69 52 71 53 68 54 52 55
REMARK SMILES IDX 53 56 58 57 54 58 55 59 57 60 59 61 56 62 6 63 7 64 8 65
REMARK SMILES IDX 9 67 10 68 11 69 15 70 12 71 14 72 13 73 16 74 17 75 18 76
REMARK SMILES IDX 19 77 22 78 20 79 21 80 23 81 24 82 28 83 25 84 27 85 26 86
REMARK H PARENT 3 6 76 24 50 35 7 66
REMARK Flexibility Score: inf
ROOT
ATOM      1  C   UNL A   1      37.596  21.818  24.962  1.00  0.00     0.042 C 
ENDROOT
BRANCH   1   2
ATOM      2  C   UNL A   1      38.692  21.490  25.969  1.00  0.00     0.118 C 
BRANCH   2   3
ATOM      3  N   UNL A   1      39.450  20.281  25.684  1.00  0.00    -0.352 N 
ATOM      4  O   UNL A   1      41.266  18.924  25.757  1.00  0.00    -0.269 OA
ATOM      5  C   UNL A   1      40.761  20.010  26.005  1.00  0.00     0.251 C 
ATOM      6  H   UNL A   1      38.966  19.572  25.202  1.00  0.00     0.163 HD
BRANCH   5   7
ATOM      7  C   UNL A   1      41.564  21.108  26.576  1.00  0.00     0.039 A 
ATOM      8  C   UNL A   1      41.621  21.288  27.959  1.00  0.00     0.014 A 
ATOM      9  C   UNL A   1      42.094  22.060  25.703  1.00  0.00     0.014 A 
ATOM     10  C   UNL A   1      42.040  22.513  28.462  1.00  0.00     0.010 A 
ATOM     11  C   UNL A   1      42.580  23.262  26.217  1.00  0.00     0.010 A 
ATOM     12  C   UNL A   1      42.491  23.522  27.593  1.00  0.00    -0.014 A 
BRANCH  12  13
ATOM     13  C   UNL A   1      42.820  24.860  28.138  1.00  0.00     0.031 A 
ATOM     14  C   UNL A   1      41.738  25.876  28.386  1.00  0.00     0.074 A 
ATOM     15  C   UNL A   1      44.097  25.138  28.459  1.00  0.00     0.049 A 
ATOM     16  N   UNL A   1      41.842  27.096  28.850  1.00  0.00    -0.248 NA
ATOM     17  C   UNL A   1      40.358  25.474  28.067  1.00  0.00     0.031 C 
ATOM     18  C   UNL A   1      45.227  24.226  28.274  1.00  0.00     0.029 A 
ATOM     19  N   UNL A   1      44.651  26.253  29.027  1.00  0.00    -0.354 N 
ATOM     20  C   UNL A   1      40.555  27.617  28.846  1.00  0.00     0.074 A 
ATOM     21  C   UNL A   1      39.682  26.585  28.329  1.00  0.00     0.031 C 
ATOM     22  C   UNL A   1      46.335  24.803  28.762  1.00  0.00     0.029 A 
ATOM     23  C   UNL A   1      46.001  26.138  29.246  1.00  0.00     0.049 A 
ATOM     24  H   UNL A   1      44.132  27.058  29.256  1.00  0.00     0.167 HD
ATOM     25  C   UNL A   1      40.141  28.846  29.239  1.00  0.00     0.037 A 
ATOM     26  C   UNL A   1      46.875  27.016  29.769  1.00  0.00     0.037 A 
ATOM     27  C   UNL A   1      41.005  29.857  29.788  1.00  0.00     0.049 A 
ATOM     28  C   UNL A   1      46.388  28.362  30.209  1.00  0.00     0.074 A 
ATOM     29  C   UNL A   1      40.674  31.123  30.242  1.00  0.00     0.029 A 
ATOM     30  N   UNL A   1      42.371  29.712  29.968  1.00  0.00    -0.354 N 
ATOM     31  N   UNL A   1      45.170  28.845  30.185  1.00  0.00    -0.248 NA
ATOM     32  C   UNL A   1      47.398  29.288  30.738  1.00  0.00     0.031 C 
ATOM     33  C   UNL A   1      41.846  31.753  30.677  1.00  0.00     0.029 A 
ATOM     34  C   UNL A   1      42.901  30.868  30.516  1.00  0.00     0.049 A 
ATOM     35  H   UNL A   1      42.889  28.906  29.741  1.00  0.00     0.167 HD
ATOM     36  C   UNL A   1      45.265  30.135  30.685  1.00  0.00     0.074 A 
ATOM     37  C   UNL A   1      46.657  30.349  31.031  1.00  0.00     0.031 C 
ATOM     38  C   UNL A   1      44.291  31.063  30.837  1.00  0.00     0.037 A 
BRANCH  25  39
ATOM     39  C   UNL A   1      38.688  29.174  29.070  1.00  0.00     0.057 A 
ATOM     40  C   UNL A   1      37.791  29.133  30.145  1.00  0.00     0.134 A 
ATOM     41  C   UNL A   1      38.191  29.582  27.826  1.00  0.00     0.134 A 
ATOM     42  F   UNL A   1      38.202  28.736  31.358  1.00  0.00    -0.206 F 
ATOM     43  C   UNL A   1      36.446  29.476  29.985  1.00  0.00     0.040 A 
ATOM     44  C   UNL A   1      36.853  29.941  27.657  1.00  0.00     0.040 A 
ATOM     45  F   UNL A   1      38.999  29.644  26.758  1.00  0.00    -0.206 F 
ATOM     46  C   UNL A   1      35.976  29.888  28.739  1.00  0.00     0.006 A 
ENDBRANCH  25  39
BRANCH  26  47
ATOM     47  C   UNL A   1      48.297  26.630  29.896  1.00  0.00     0.057 A 
ATOM     48  C   UNL A   1      48.750  25.899  30.999  1.00  0.00     0.134 A 
ATOM     49  C   UNL A   1      49.223  26.932  28.890  1.00  0.00     0.134 A 
ATOM     50  F   UNL A   1      47.908  25.593  31.996  1.00  0.00    -0.206 F 
ATOM     51  C   UNL A   1      50.077  25.479  31.098  1.00  0.00     0.040 A 
ATOM     52  C   UNL A   1      50.547  26.503  28.967  1.00  0.00     0.040 A 
ATOM     53  F   UNL A   1      48.841  27.622  27.805  1.00  0.00    -0.206 F 
ATOM     54  C   UNL A   1      50.978  25.774  30.075  1.00  0.00     0.006 A 
ENDBRANCH  26  47
BRANCH  38  55
ATOM     55  C   UNL A   1      44.705  32.389  31.390  1.00  0.00     0.057 A 
ATOM     56  C   UNL A   1      44.710  32.630  32.769  1.00  0.00     0.134 A 
ATOM     57  C   UNL A   1      45.114  33.426  30.544  1.00  0.00     0.134 A 
ATOM     58  F   UNL A   1      44.316  31.677  33.627  1.00  0.00    -0.206 F 
ATOM     59  C   UNL A   1      45.095  33.866  33.288  1.00  0.00     0.040 A 
ATOM     60  C   UNL A   1      45.513  34.662  31.052  1.00  0.00     0.040 A 
ATOM     61  F   UNL A   1      45.131  33.251  29.214  1.00  0.00    -0.206 F 
ATOM     62  C   UNL A   1      45.501  34.885  32.428  1.00  0.00     0.006 A 
ENDBRANCH  38  55
ENDBRANCH  12  13
ENDBRANCH   5   7
ENDBRANCH   2   3
ENDBRANCH   1   2
BRANCH   1  63
ATOM     63  C   UNL A   1      36.447  20.822  24.911  1.00  0.00     0.118 C 
BRANCH  63  64
ATOM     64  N   UNL A   1      35.500  20.977  25.998  1.00  0.00    -0.352 N 
ATOM     65  C   UNL A   1      34.135  21.064  25.930  1.00  0.00     0.252 C 
ATOM     66  H   UNL A   1      35.889  21.025  26.901  1.00  0.00     0.163 HD
ATOM     67  O   UNL A   1      33.503  21.334  26.947  1.00  0.00    -0.269 OA
BRANCH  65  68
ATOM     68  C   UNL A   1      33.446  20.955  24.630  1.00  0.00     0.052 A 
ATOM     69  C   UNL A   1      33.217  19.649  24.166  1.00  0.00     0.014 A 
ATOM     70  C   UNL A   1      32.989  22.050  23.885  1.00  0.00     0.052 A 
ATOM     71  C   UNL A   1      32.476  19.435  23.005  1.00  0.00     0.001 A 
ATOM     72  C   UNL A   1      32.209  21.822  22.739  1.00  0.00     0.014 A 
ATOM     73  C   UNL A   1      31.958  20.520  22.302  1.00  0.00     0.001 A 
BRANCH  70  74
ATOM     74  C   UNL A   1      33.170  23.457  24.305  1.00  0.00     0.255 C 
ATOM     75  O   UNL A   1      34.255  23.981  24.044  1.00  0.00    -0.269 OA
BRANCH  74  76
ATOM     76  N   UNL A   1      32.108  24.171  24.826  1.00  0.00    -0.322 N 
ATOM     77  C   UNL A   1      31.066  23.425  25.514  1.00  0.00     0.132 C 
ATOM     78  C   UNL A   1      31.548  25.404  24.277  1.00  0.00     0.174 C 
ATOM     79  C   UNL A   1      30.379  24.388  26.460  1.00  0.00     0.093 C 
ATOM     80  S   UNL A   1      30.305  25.939  25.517  1.00  0.00    -0.130 SA
BRANCH  78  81
ATOM     81  C   UNL A   1      32.477  26.480  23.773  1.00  0.00    -0.015 A 
ATOM     82  C   UNL A   1      32.776  26.683  22.419  1.00  0.00     0.007 A 
ATOM     83  C   UNL A   1      33.078  27.338  24.715  1.00  0.00     0.007 A 
ATOM     84  C   UNL A   1      33.630  27.714  22.019  1.00  0.00     0.000 A 
ATOM     85  C   UNL A   1      33.928  28.371  24.317  1.00  0.00     0.000 A 
ATOM     86  C   UNL A   1      34.203  28.559  22.967  1.00  0.00     0.000 A 
ENDBRANCH  78  81
ENDBRANCH  74  76
ENDBRANCH  70  74
ENDBRANCH  65  68
ENDBRANCH  63  64
ENDBRANCH   1  63
TORSDOF 13
ENDMDL
