MODEL 1
REMARK VINA RESULT:     -12.1      0.000      0.000
REMARK SMILES O=C(NCCCNC(=O)c1ccc(CN2CC(=O)N3CCCC[C@@H]3C2=O)o1)c1ccc(-c2c3nc(c(-c4c(F)cccc4F)c4ccc([nH]4)c(-c4c(F)cccc4F)c4nc(c(-c5c(F)cccc5F)c5ccc2[nH]5)C=C4)C=C3)cc1
REMARK SMILES IDX 5 1 4 2 3 3 1 4 2 5 28 7 29 8 81 9 30 10 80 11 31 12 32 13
REMARK SMILES IDX 33 14 74 15 34 16 79 17 73 18 75 19 35 20 78 21 72 22 71 23
REMARK SMILES IDX 36 25 62 26 45 27 61 28 46 29 49 30 60 31 76 32 47 33 48 34
REMARK SMILES IDX 59 36 77 37 50 38 37 39 38 40 43 41 39 42 40 43 42 44 44 45
REMARK SMILES IDX 41 46 63 47 64 48 69 49 65 50 66 51 68 52 70 53 67 54 51 55
REMARK SMILES IDX 52 56 57 57 53 58 54 59 56 60 58 61 55 62 6 63 7 64 8 65
REMARK SMILES IDX 9 67 10 68 11 69 27 70 12 71 13 72 14 73 15 74 16 75 25 76
REMARK SMILES IDX 17 77 24 78 26 79 18 80 19 81 23 82 20 83 22 84 21 85
REMARK H PARENT 3 6 75 24 49 35 7 66
REMARK Flexibility Score: inf
ROOT
ATOM      1  C   UNL A   1      37.605  19.483  25.004  1.00  0.00     0.042 C 
ENDROOT
BRANCH   1   2
ATOM      2  C   UNL A   1      38.868  20.221  25.454  1.00  0.00     0.118 C 
BRANCH   2   3
ATOM      3  N   UNL A   1      39.988  19.319  25.677  1.00  0.00    -0.352 N 
ATOM      4  O   UNL A   1      42.108  18.657  25.956  1.00  0.00    -0.269 OA
ATOM      5  C   UNL A   1      41.282  19.561  26.059  1.00  0.00     0.251 C 
ATOM      6  H   UNL A   1      39.781  18.369  25.527  1.00  0.00     0.163 HD
BRANCH   5   7
ATOM      7  C   UNL A   1      41.712  20.874  26.591  1.00  0.00     0.039 A 
ATOM      8  C   UNL A   1      42.172  21.895  25.755  1.00  0.00     0.014 A 
ATOM      9  C   UNL A   1      41.528  21.129  27.957  1.00  0.00     0.014 A 
ATOM     10  C   UNL A   1      42.517  23.139  26.293  1.00  0.00     0.010 A 
ATOM     11  C   UNL A   1      41.837  22.385  28.489  1.00  0.00     0.010 A 
ATOM     12  C   UNL A   1      42.347  23.395  27.662  1.00  0.00    -0.014 A 
BRANCH  12  13
ATOM     13  C   UNL A   1      42.655  24.739  28.210  1.00  0.00     0.031 A 
ATOM     14  C   UNL A   1      44.060  25.118  28.576  1.00  0.00     0.074 A 
ATOM     15  C   UNL A   1      41.657  25.625  28.384  1.00  0.00     0.049 A 
ATOM     16  N   UNL A   1      44.511  26.259  29.036  1.00  0.00    -0.248 NA
ATOM     17  C   UNL A   1      45.092  24.084  28.414  1.00  0.00     0.031 C 
ATOM     18  C   UNL A   1      40.243  25.371  28.107  1.00  0.00     0.029 A 
ATOM     19  N   UNL A   1      41.685  26.922  28.828  1.00  0.00    -0.354 N 
ATOM     20  C   UNL A   1      45.872  26.075  29.238  1.00  0.00     0.074 A 
ATOM     21  C   UNL A   1      46.174  24.710  28.857  1.00  0.00     0.031 C 
ATOM     22  C   UNL A   1      39.541  26.487  28.362  1.00  0.00     0.029 A 
ATOM     23  C   UNL A   1      40.453  27.527  28.831  1.00  0.00     0.049 A 
ATOM     24  H   UNL A   1      42.509  27.377  29.117  1.00  0.00     0.167 HD
ATOM     25  C   UNL A   1      46.787  26.961  29.692  1.00  0.00     0.037 A 
ATOM     26  C   UNL A   1      40.096  28.779  29.168  1.00  0.00     0.037 A 
ATOM     27  C   UNL A   1      46.508  28.329  30.038  1.00  0.00     0.049 A 
ATOM     28  C   UNL A   1      41.135  29.754  29.631  1.00  0.00     0.074 A 
ATOM     29  C   UNL A   1      47.394  29.318  30.433  1.00  0.00     0.029 A 
ATOM     30  N   UNL A   1      45.247  28.902  30.030  1.00  0.00    -0.354 N 
ATOM     31  N   UNL A   1      42.425  29.578  29.768  1.00  0.00    -0.248 NA
ATOM     32  C   UNL A   1      40.665  31.100  29.993  1.00  0.00     0.031 C 
ATOM     33  C   UNL A   1      46.663  30.488  30.680  1.00  0.00     0.029 A 
ATOM     34  C   UNL A   1      45.327  30.225  30.429  1.00  0.00     0.049 A 
ATOM     35  H   UNL A   1      44.418  28.435  29.779  1.00  0.00     0.167 HD
ATOM     36  C   UNL A   1      42.923  30.786  30.235  1.00  0.00     0.074 A 
ATOM     37  C   UNL A   1      41.799  31.693  30.346  1.00  0.00     0.031 C 
ATOM     38  C   UNL A   1      44.200  31.110  30.547  1.00  0.00     0.037 A 
BRANCH  25  39
ATOM     39  C   UNL A   1      48.192  26.473  29.841  1.00  0.00     0.057 A 
ATOM     40  C   UNL A   1      49.137  26.648  28.824  1.00  0.00     0.134 A 
ATOM     41  C   UNL A   1      48.610  25.850  31.022  1.00  0.00     0.134 A 
ATOM     42  F   UNL A   1      48.788  27.227  27.665  1.00  0.00    -0.206 F 
ATOM     43  C   UNL A   1      50.454  26.213  28.974  1.00  0.00     0.040 A 
ATOM     44  C   UNL A   1      49.926  25.417  31.188  1.00  0.00     0.040 A 
ATOM     45  F   UNL A   1      47.746  25.652  32.030  1.00  0.00    -0.206 F 
ATOM     46  C   UNL A   1      50.852  25.598  30.161  1.00  0.00     0.006 A 
ENDBRANCH  25  39
BRANCH  26  47
ATOM     47  C   UNL A   1      38.678  29.183  29.058  1.00  0.00     0.057 A 
ATOM     48  C   UNL A   1      38.144  29.599  27.834  1.00  0.00     0.134 A 
ATOM     49  C   UNL A   1      37.825  29.142  30.165  1.00  0.00     0.134 A 
ATOM     50  F   UNL A   1      38.925  29.670  26.746  1.00  0.00    -0.206 F 
ATOM     51  C   UNL A   1      36.802  29.959  27.713  1.00  0.00     0.040 A 
ATOM     52  C   UNL A   1      36.480  29.492  30.057  1.00  0.00     0.040 A 
ATOM     53  F   UNL A   1      38.289  28.753  31.361  1.00  0.00    -0.206 F 
ATOM     54  C   UNL A   1      35.965  29.902  28.827  1.00  0.00     0.006 A 
ENDBRANCH  26  47
BRANCH  38  55
ATOM     55  C   UNL A   1      44.440  32.495  31.055  1.00  0.00     0.057 A 
ATOM     56  C   UNL A   1      44.695  33.551  30.174  1.00  0.00     0.134 A 
ATOM     57  C   UNL A   1      44.395  32.780  32.424  1.00  0.00     0.134 A 
ATOM     58  F   UNL A   1      44.762  33.333  28.851  1.00  0.00    -0.206 F 
ATOM     59  C   UNL A   1      44.904  34.850  30.640  1.00  0.00     0.040 A 
ATOM     60  C   UNL A   1      44.595  34.075  32.901  1.00  0.00     0.040 A 
ATOM     61  F   UNL A   1      44.156  31.805  33.315  1.00  0.00    -0.206 F 
ATOM     62  C   UNL A   1      44.853  35.115  32.008  1.00  0.00     0.006 A 
ENDBRANCH  38  55
ENDBRANCH  12  13
ENDBRANCH   5   7
ENDBRANCH   2   3
ENDBRANCH   1   2
BRANCH   1  63
ATOM     63  C   UNL A   1      36.435  20.390  24.624  1.00  0.00     0.118 C 
BRANCH  63  64
ATOM     64  N   UNL A   1      35.463  20.515  25.694  1.00  0.00    -0.349 N 
ATOM     65  C   UNL A   1      34.174  20.987  25.679  1.00  0.00     0.286 C 
ATOM     66  H   UNL A   1      35.779  20.212  26.576  1.00  0.00     0.163 HD
ATOM     67  O   UNL A   1      33.664  21.210  26.787  1.00  0.00    -0.266 OA
BRANCH  65  68
ATOM     68  C   UNL A   1      33.467  21.191  24.435  1.00  0.00     0.191 A 
ATOM     69  C   UNL A   1      32.501  20.476  23.747  1.00  0.00     0.056 A 
ATOM     70  O   UNL A   1      33.676  22.377  23.784  1.00  0.00    -0.454 OA
ATOM     71  C   UNL A   1      32.119  21.257  22.626  1.00  0.00     0.048 A 
ATOM     72  C   UNL A   1      32.851  22.421  22.701  1.00  0.00     0.124 A 
BRANCH  72  73
ATOM     73  C   UNL A   1      32.852  23.699  21.933  1.00  0.00     0.195 C 
BRANCH  73  74
ATOM     74  N   UNL A   1      32.472  24.745  22.868  1.00  0.00    -0.324 N 
ATOM     75  C   UNL A   1      31.216  24.641  23.582  1.00  0.00     0.220 C 
ATOM     76  C   UNL A   1      33.225  25.907  22.947  1.00  0.00     0.246 C 
ATOM     77  C   UNL A   1      31.167  25.306  24.956  1.00  0.00     0.242 C 
ATOM     78  C   UNL A   1      33.262  26.490  24.378  1.00  0.00     0.174 C 
ATOM     79  O   UNL A   1      34.006  26.254  22.064  1.00  0.00    -0.272 OA
ATOM     80  O   UNL A   1      30.301  24.991  25.772  1.00  0.00    -0.273 OA
ATOM     81  N   UNL A   1      31.987  26.423  25.111  1.00  0.00    -0.329 N 
ATOM     82  C   UNL A   1      33.835  27.912  24.338  1.00  0.00     0.035 C 
ATOM     83  C   UNL A   1      31.910  27.126  26.387  1.00  0.00     0.120 C 
ATOM     84  C   UNL A   1      33.864  28.549  25.721  1.00  0.00     0.004 C 
ATOM     85  C   UNL A   1      32.467  28.542  26.324  1.00  0.00     0.022 C 
ENDBRANCH  73  74
ENDBRANCH  72  73
ENDBRANCH  65  68
ENDBRANCH  63  64
ENDBRANCH   1  63
TORSDOF 12
ENDMDL
MODEL 2
REMARK VINA RESULT:     -12.0      0.379      6.072
REMARK SMILES O=C(NCCCNC(=O)c1ccc(CN2CC(=O)N3CCCC[C@@H]3C2=O)o1)c1ccc(-c2c3nc(c(-c4c(F)cccc4F)c4ccc([nH]4)c(-c4c(F)cccc4F)c4nc(c(-c5c(F)cccc5F)c5ccc2[nH]5)C=C4)C=C3)cc1
REMARK SMILES IDX 5 1 4 2 3 3 1 4 2 5 28 7 29 8 81 9 30 10 80 11 31 12 32 13
REMARK SMILES IDX 33 14 74 15 34 16 79 17 73 18 75 19 35 20 78 21 72 22 71 23
REMARK SMILES IDX 36 25 62 26 45 27 61 28 46 29 49 30 60 31 76 32 47 33 48 34
REMARK SMILES IDX 59 36 77 37 50 38 37 39 38 40 43 41 39 42 40 43 42 44 44 45
REMARK SMILES IDX 41 46 63 47 64 48 69 49 65 50 66 51 68 52 70 53 67 54 51 55
REMARK SMILES IDX 52 56 57 57 53 58 54 59 56 60 58 61 55 62 6 63 7 64 8 65
REMARK SMILES IDX 9 67 10 68 11 69 27 70 12 71 13 72 14 73 15 74 16 75 25 76
REMARK SMILES IDX 17 77 24 78 26 79 18 80 19 81 23 82 20 83 22 84 21 85
REMARK H PARENT 3 6 75 24 49 35 7 66
REMARK Flexibility Score: inf
ROOT
ATOM      1  C   UNL A   1      37.640  19.613  25.001  1.00  0.00     0.042 C 
ENDROOT
BRANCH   1   2
ATOM      2  C   UNL A   1      38.831  20.262  25.710  1.00  0.00     0.118 C 
BRANCH   2   3
ATOM      3  N   UNL A   1      39.954  19.348  25.857  1.00  0.00    -0.352 N 
ATOM      4  O   UNL A   1      42.081  18.660  25.973  1.00  0.00    -0.269 OA
ATOM      5  C   UNL A   1      41.277  19.578  26.126  1.00  0.00     0.251 C 
ATOM      6  H   UNL A   1      39.722  18.398  25.743  1.00  0.00     0.163 HD
BRANCH   5   7
ATOM      7  C   UNL A   1      41.767  20.895  26.595  1.00  0.00     0.039 A 
ATOM      8  C   UNL A   1      42.207  21.879  25.706  1.00  0.00     0.014 A 
ATOM      9  C   UNL A   1      41.662  21.193  27.961  1.00  0.00     0.014 A 
ATOM     10  C   UNL A   1      42.610  23.128  26.188  1.00  0.00     0.010 A 
ATOM     11  C   UNL A   1      42.029  22.455  28.438  1.00  0.00     0.010 A 
ATOM     12  C   UNL A   1      42.520  23.428  27.556  1.00  0.00    -0.014 A 
BRANCH  12  13
ATOM     13  C   UNL A   1      42.889  24.779  28.045  1.00  0.00     0.031 A 
ATOM     14  C   UNL A   1      41.838  25.820  28.297  1.00  0.00     0.074 A 
ATOM     15  C   UNL A   1      44.184  25.072  28.260  1.00  0.00     0.049 A 
ATOM     16  N   UNL A   1      41.981  27.039  28.756  1.00  0.00    -0.248 NA
ATOM     17  C   UNL A   1      40.449  25.452  27.988  1.00  0.00     0.031 C 
ATOM     18  C   UNL A   1      45.308  24.166  28.017  1.00  0.00     0.029 A 
ATOM     19  N   UNL A   1      44.772  26.214  28.740  1.00  0.00    -0.354 N 
ATOM     20  C   UNL A   1      40.708  27.590  28.771  1.00  0.00     0.074 A 
ATOM     21  C   UNL A   1      39.803  26.576  28.268  1.00  0.00     0.031 C 
ATOM     22  C   UNL A   1      46.447  24.778  28.376  1.00  0.00     0.029 A 
ATOM     23  C   UNL A   1      46.136  26.120  28.860  1.00  0.00     0.049 A 
ATOM     24  H   UNL A   1      44.265  27.024  28.978  1.00  0.00     0.167 HD
ATOM     25  C   UNL A   1      40.325  28.824  29.171  1.00  0.00     0.037 A 
ATOM     26  C   UNL A   1      47.036  27.011  29.313  1.00  0.00     0.037 A 
ATOM     27  C   UNL A   1      41.206  29.828  29.706  1.00  0.00     0.049 A 
ATOM     28  C   UNL A   1      46.582  28.358  29.788  1.00  0.00     0.074 A 
ATOM     29  C   UNL A   1      40.886  31.079  30.208  1.00  0.00     0.029 A 
ATOM     30  N   UNL A   1      42.580  29.694  29.807  1.00  0.00    -0.354 N 
ATOM     31  N   UNL A   1      45.367  28.844  29.842  1.00  0.00    -0.248 NA
ATOM     32  C   UNL A   1      47.626  29.281  30.257  1.00  0.00     0.031 C 
ATOM     33  C   UNL A   1      42.075  31.709  30.600  1.00  0.00     0.029 A 
ATOM     34  C   UNL A   1      43.128  30.845  30.349  1.00  0.00     0.049 A 
ATOM     35  H   UNL A   1      43.092  28.899  29.534  1.00  0.00     0.167 HD
ATOM     36  C   UNL A   1      45.498  30.130  30.347  1.00  0.00     0.074 A 
ATOM     37  C   UNL A   1      46.909  30.345  30.595  1.00  0.00     0.031 C 
ATOM     38  C   UNL A   1      44.532  31.049  30.577  1.00  0.00     0.037 A 
BRANCH  25  39
ATOM     39  C   UNL A   1      38.873  29.161  29.045  1.00  0.00     0.057 A 
ATOM     40  C   UNL A   1      38.322  29.565  27.824  1.00  0.00     0.134 A 
ATOM     41  C   UNL A   1      38.016  29.048  30.145  1.00  0.00     0.134 A 
ATOM     42  F   UNL A   1      39.099  29.703  26.740  1.00  0.00    -0.206 F 
ATOM     43  C   UNL A   1      36.963  29.856  27.703  1.00  0.00     0.040 A 
ATOM     44  C   UNL A   1      36.653  29.328  30.035  1.00  0.00     0.040 A 
ATOM     45  F   UNL A   1      38.490  28.667  31.341  1.00  0.00    -0.206 F 
ATOM     46  C   UNL A   1      36.124  29.734  28.810  1.00  0.00     0.006 A 
ENDBRANCH  25  39
BRANCH  26  47
ATOM     47  C   UNL A   1      48.467  26.640  29.354  1.00  0.00     0.057 A 
ATOM     48  C   UNL A   1      49.325  26.980  28.303  1.00  0.00     0.134 A 
ATOM     49  C   UNL A   1      49.008  25.961  30.450  1.00  0.00     0.134 A 
ATOM     50  F   UNL A   1      48.850  27.619  27.224  1.00  0.00    -0.206 F 
ATOM     51  C   UNL A   1      50.682  26.657  28.342  1.00  0.00     0.040 A 
ATOM     52  C   UNL A   1      50.364  25.639  30.504  1.00  0.00     0.040 A 
ATOM     53  F   UNL A   1      48.227  25.611  31.481  1.00  0.00    -0.206 F 
ATOM     54  C   UNL A   1      51.204  25.988  29.448  1.00  0.00     0.006 A 
ENDBRANCH  26  47
BRANCH  38  55
ATOM     55  C   UNL A   1      44.975  32.375  31.109  1.00  0.00     0.057 A 
ATOM     56  C   UNL A   1      45.291  33.429  30.244  1.00  0.00     0.134 A 
ATOM     57  C   UNL A   1      45.063  32.607  32.485  1.00  0.00     0.134 A 
ATOM     58  F   UNL A   1      45.235  33.258  28.914  1.00  0.00    -0.206 F 
ATOM     59  C   UNL A   1      45.688  34.673  30.734  1.00  0.00     0.040 A 
ATOM     60  C   UNL A   1      45.453  33.849  32.987  1.00  0.00     0.040 A 
ATOM     61  F   UNL A   1      44.774  31.632  33.360  1.00  0.00    -0.206 F 
ATOM     62  C   UNL A   1      45.768  34.887  32.109  1.00  0.00     0.006 A 
ENDBRANCH  38  55
ENDBRANCH  12  13
ENDBRANCH   5   7
ENDBRANCH   2   3
ENDBRANCH   1   2
BRANCH   1  63
ATOM     63  C   UNL A   1      36.497  20.571  24.663  1.00  0.00     0.118 C 
BRANCH  63  64
ATOM     64  N   UNL A   1      35.516  20.660  25.729  1.00  0.00    -0.349 N 
ATOM     65  C   UNL A   1      34.213  21.088  25.710  1.00  0.00     0.286 C 
ATOM     66  H   UNL A   1      35.840  20.364  26.611  1.00  0.00     0.163 HD
ATOM     67  O   UNL A   1      33.692  21.290  26.817  1.00  0.00    -0.266 OA
BRANCH  65  68
ATOM     68  C   UNL A   1      33.505  21.274  24.464  1.00  0.00     0.191 A 
ATOM     69  C   UNL A   1      32.530  20.554  23.795  1.00  0.00     0.056 A 
ATOM     70  O   UNL A   1      33.724  22.443  23.789  1.00  0.00    -0.454 OA
ATOM     71  C   UNL A   1      32.152  21.315  22.658  1.00  0.00     0.048 A 
ATOM     72  C   UNL A   1      32.896  22.473  22.706  1.00  0.00     0.124 A 
BRANCH  72  73
ATOM     73  C   UNL A   1      32.908  23.734  21.912  1.00  0.00     0.195 C 
BRANCH  73  74
ATOM     74  N   UNL A   1      32.499  24.798  22.815  1.00  0.00    -0.324 N 
ATOM     75  C   UNL A   1      31.232  24.694  23.510  1.00  0.00     0.220 C 
ATOM     76  C   UNL A   1      33.236  25.971  22.879  1.00  0.00     0.246 C 
ATOM     77  C   UNL A   1      31.152  25.390  24.866  1.00  0.00     0.242 C 
ATOM     78  C   UNL A   1      33.241  26.587  24.297  1.00  0.00     0.174 C 
ATOM     79  O   UNL A   1      34.028  26.306  22.001  1.00  0.00    -0.272 OA
ATOM     80  O   UNL A   1      30.276  25.084  25.675  1.00  0.00    -0.273 OA
ATOM     81  N   UNL A   1      31.955  26.521  25.009  1.00  0.00    -0.329 N 
ATOM     82  C   UNL A   1      33.798  28.015  24.232  1.00  0.00     0.035 C 
ATOM     83  C   UNL A   1      31.848  27.254  26.266  1.00  0.00     0.120 C 
ATOM     84  C   UNL A   1      33.795  28.685  25.600  1.00  0.00     0.004 C 
ATOM     85  C   UNL A   1      32.388  28.674  26.179  1.00  0.00     0.022 C 
ENDBRANCH  73  74
ENDBRANCH  72  73
ENDBRANCH  65  68
ENDBRANCH  63  64
ENDBRANCH   1  63
TORSDOF 12
ENDMDL
MODEL 3
REMARK VINA RESULT:     -12.0      0.338      1.626
REMARK SMILES O=C(NCCCNC(=O)c1ccc(CN2CC(=O)N3CCCC[C@@H]3C2=O)o1)c1ccc(-c2c3nc(c(-c4c(F)cccc4F)c4ccc([nH]4)c(-c4c(F)cccc4F)c4nc(c(-c5c(F)cccc5F)c5ccc2[nH]5)C=C4)C=C3)cc1
REMARK SMILES IDX 5 1 4 2 3 3 1 4 2 5 28 7 29 8 81 9 30 10 80 11 31 12 32 13
REMARK SMILES IDX 33 14 74 15 34 16 79 17 73 18 75 19 35 20 78 21 72 22 71 23
REMARK SMILES IDX 36 25 62 26 45 27 61 28 46 29 49 30 60 31 76 32 47 33 48 34
REMARK SMILES IDX 59 36 77 37 50 38 37 39 38 40 43 41 39 42 40 43 42 44 44 45
REMARK SMILES IDX 41 46 63 47 64 48 69 49 65 50 66 51 68 52 70 53 67 54 51 55
REMARK SMILES IDX 52 56 57 57 53 58 54 59 56 60 58 61 55 62 6 63 7 64 8 65
REMARK SMILES IDX 9 67 10 68 11 69 27 70 12 71 13 72 14 73 15 74 16 75 25 76
REMARK SMILES IDX 17 77 24 78 26 79 18 80 19 81 23 82 20 83 22 84 21 85
REMARK H PARENT 3 6 75 24 49 35 7 66
REMARK Flexibility Score: inf
ROOT
ATOM      1  C   UNL A   1      37.647  19.476  24.964  1.00  0.00     0.042 C 
ENDROOT
BRANCH   1   2
ATOM      2  C   UNL A   1      38.844  20.182  25.604  1.00  0.00     0.118 C 
BRANCH   2   3
ATOM      3  N   UNL A   1      39.998  19.306  25.739  1.00  0.00    -0.352 N 
ATOM      4  O   UNL A   1      42.147  18.695  25.875  1.00  0.00    -0.269 OA
ATOM      5  C   UNL A   1      41.306  19.575  26.046  1.00  0.00     0.251 C 
ATOM      6  H   UNL A   1      39.805  18.354  25.583  1.00  0.00     0.163 HD
BRANCH   5   7
ATOM      7  C   UNL A   1      41.735  20.889  26.578  1.00  0.00     0.039 A 
ATOM      8  C   UNL A   1      42.125  21.935  25.737  1.00  0.00     0.014 A 
ATOM      9  C   UNL A   1      41.622  21.116  27.957  1.00  0.00     0.014 A 
ATOM     10  C   UNL A   1      42.471  23.176  26.278  1.00  0.00     0.010 A 
ATOM     11  C   UNL A   1      41.930  22.369  28.494  1.00  0.00     0.010 A 
ATOM     12  C   UNL A   1      42.371  23.405  27.659  1.00  0.00    -0.014 A 
BRANCH  12  13
ATOM     13  C   UNL A   1      42.678  24.746  28.213  1.00  0.00     0.031 A 
ATOM     14  C   UNL A   1      44.084  25.128  28.573  1.00  0.00     0.074 A 
ATOM     15  C   UNL A   1      41.679  25.628  28.399  1.00  0.00     0.049 A 
ATOM     16  N   UNL A   1      44.535  26.267  29.037  1.00  0.00    -0.248 NA
ATOM     17  C   UNL A   1      45.118  24.097  28.398  1.00  0.00     0.031 C 
ATOM     18  C   UNL A   1      40.264  25.371  28.130  1.00  0.00     0.029 A 
ATOM     19  N   UNL A   1      41.705  26.923  28.852  1.00  0.00    -0.354 N 
ATOM     20  C   UNL A   1      45.897  26.086  29.229  1.00  0.00     0.074 A 
ATOM     21  C   UNL A   1      46.201  24.724  28.838  1.00  0.00     0.031 C 
ATOM     22  C   UNL A   1      39.560  26.483  28.396  1.00  0.00     0.029 A 
ATOM     23  C   UNL A   1      40.471  27.523  28.866  1.00  0.00     0.049 A 
ATOM     24  H   UNL A   1      42.530  27.378  29.138  1.00  0.00     0.167 HD
ATOM     25  C   UNL A   1      46.813  26.972  29.684  1.00  0.00     0.037 A 
ATOM     26  C   UNL A   1      40.113  28.772  29.214  1.00  0.00     0.037 A 
ATOM     27  C   UNL A   1      46.532  28.337  30.041  1.00  0.00     0.049 A 
ATOM     28  C   UNL A   1      41.151  29.747  29.677  1.00  0.00     0.074 A 
ATOM     29  C   UNL A   1      47.417  29.326  30.437  1.00  0.00     0.029 A 
ATOM     30  N   UNL A   1      45.269  28.905  30.045  1.00  0.00    -0.354 N 
ATOM     31  N   UNL A   1      42.443  29.575  29.805  1.00  0.00    -0.248 NA
ATOM     32  C   UNL A   1      40.680  31.089  30.051  1.00  0.00     0.031 C 
ATOM     33  C   UNL A   1      46.684  30.492  30.696  1.00  0.00     0.029 A 
ATOM     34  C   UNL A   1      45.347  30.226  30.451  1.00  0.00     0.049 A 
ATOM     35  H   UNL A   1      44.439  28.438  29.795  1.00  0.00     0.167 HD
ATOM     36  C   UNL A   1      42.940  30.781  30.276  1.00  0.00     0.074 A 
ATOM     37  C   UNL A   1      41.814  31.683  30.401  1.00  0.00     0.031 C 
ATOM     38  C   UNL A   1      44.218  31.106  30.583  1.00  0.00     0.037 A 
BRANCH  25  39
ATOM     39  C   UNL A   1      48.220  26.487  29.821  1.00  0.00     0.057 A 
ATOM     40  C   UNL A   1      48.661  25.849  30.985  1.00  0.00     0.134 A 
ATOM     41  C   UNL A   1      49.131  26.631  28.768  1.00  0.00     0.134 A 
ATOM     42  F   UNL A   1      47.835  25.695  32.030  1.00  0.00    -0.206 F 
ATOM     43  C   UNL A   1      49.968  25.375  31.102  1.00  0.00     0.040 A 
ATOM     44  C   UNL A   1      50.438  26.154  28.869  1.00  0.00     0.040 A 
ATOM     45  F   UNL A   1      48.764  27.237  27.629  1.00  0.00    -0.206 F 
ATOM     46  C   UNL A   1      50.860  25.525  30.040  1.00  0.00     0.006 A 
ENDBRANCH  25  39
BRANCH  26  47
ATOM     47  C   UNL A   1      38.693  29.173  29.116  1.00  0.00     0.057 A 
ATOM     48  C   UNL A   1      37.861  29.144  30.241  1.00  0.00     0.134 A 
ATOM     49  C   UNL A   1      38.145  29.612  27.907  1.00  0.00     0.134 A 
ATOM     50  F   UNL A   1      38.335  28.717  31.420  1.00  0.00    -0.206 F 
ATOM     51  C   UNL A   1      36.527  29.543  30.166  1.00  0.00     0.040 A 
ATOM     52  C   UNL A   1      36.815  30.020  27.820  1.00  0.00     0.040 A 
ATOM     53  F   UNL A   1      38.900  29.655  26.800  1.00  0.00    -0.206 F 
ATOM     54  C   UNL A   1      36.002  29.987  28.952  1.00  0.00     0.006 A 
ENDBRANCH  26  47
BRANCH  38  55
ATOM     55  C   UNL A   1      44.457  32.489  31.098  1.00  0.00     0.057 A 
ATOM     56  C   UNL A   1      44.440  32.760  32.471  1.00  0.00     0.134 A 
ATOM     57  C   UNL A   1      44.729  33.548  30.225  1.00  0.00     0.134 A 
ATOM     58  F   UNL A   1      44.173  31.785  33.354  1.00  0.00    -0.206 F 
ATOM     59  C   UNL A   1      44.679  34.045  32.959  1.00  0.00     0.040 A 
ATOM     60  C   UNL A   1      44.976  34.835  30.702  1.00  0.00     0.040 A 
ATOM     61  F   UNL A   1      44.756  33.346  28.899  1.00  0.00    -0.206 F 
ATOM     62  C   UNL A   1      44.950  35.086  32.073  1.00  0.00     0.006 A 
ENDBRANCH  38  55
ENDBRANCH  12  13
ENDBRANCH   5   7
ENDBRANCH   2   3
ENDBRANCH   1   2
BRANCH   1  63
ATOM     63  C   UNL A   1      36.473  20.392  24.618  1.00  0.00     0.118 C 
BRANCH  63  64
ATOM     64  N   UNL A   1      35.646  20.691  25.772  1.00  0.00    -0.349 N 
ATOM     65  C   UNL A   1      34.437  21.334  25.862  1.00  0.00     0.286 C 
ATOM     66  H   UNL A   1      36.012  20.381  26.632  1.00  0.00     0.163 HD
ATOM     67  O   UNL A   1      34.083  21.667  27.003  1.00  0.00    -0.266 OA
BRANCH  65  68
ATOM     68  C   UNL A   1      33.635  21.586  24.687  1.00  0.00     0.191 A 
ATOM     69  C   UNL A   1      32.635  20.884  24.034  1.00  0.00     0.056 A 
ATOM     70  O   UNL A   1      33.769  22.809  24.089  1.00  0.00    -0.454 OA
ATOM     71  C   UNL A   1      32.153  21.714  22.989  1.00  0.00     0.048 A 
ATOM     72  C   UNL A   1      32.864  22.890  23.073  1.00  0.00     0.124 A 
BRANCH  72  73
ATOM     73  C   UNL A   1      32.780  24.207  22.378  1.00  0.00     0.195 C 
BRANCH  73  74
ATOM     74  N   UNL A   1      32.356  25.176  23.375  1.00  0.00    -0.324 N 
ATOM     75  C   UNL A   1      31.130  24.948  24.113  1.00  0.00     0.220 C 
ATOM     76  C   UNL A   1      33.030  26.382  23.497  1.00  0.00     0.246 C 
ATOM     77  C   UNL A   1      31.074  25.538  25.521  1.00  0.00     0.242 C 
ATOM     78  C   UNL A   1      33.067  26.893  24.955  1.00  0.00     0.174 C 
ATOM     79  O   UNL A   1      33.761  26.825  22.614  1.00  0.00    -0.272 OA
ATOM     80  O   UNL A   1      30.255  25.123  26.340  1.00  0.00    -0.273 OA
ATOM     81  N   UNL A   1      31.821  26.700  25.714  1.00  0.00    -0.329 N 
ATOM     82  C   UNL A   1      33.541  28.351  24.975  1.00  0.00     0.035 C 
ATOM     83  C   UNL A   1      31.731  27.332  27.026  1.00  0.00     0.120 C 
ATOM     84  C   UNL A   1      33.565  28.918  26.389  1.00  0.00     0.004 C 
ATOM     85  C   UNL A   1      32.189  28.784  27.024  1.00  0.00     0.022 C 
ENDBRANCH  73  74
ENDBRANCH  72  73
ENDBRANCH  65  68
ENDBRANCH  63  64
ENDBRANCH   1  63
TORSDOF 12
ENDMDL
