MODEL 1
REMARK VINA RESULT:     -12.6      0.000      0.000
REMARK SMILES Cc1c(Cl)cc2c(c1C)O[C@H](C(F)(F)F)C(C(=O)NCCCNC(=O)c1ccc(-c3c4nc(c(-c5c(F)cccc5F)c5ccc([nH]5)c(-c5c(F)cccc5F)c5nc(c(-c6c(F)cccc6F)c6ccc3[nH]6)C=C5)C=C4)cc1)=C2
REMARK SMILES IDX 21 1 20 2 19 3 17 4 18 5 16 7 1 8 2 9 3 10 8 11 4 12 5 13
REMARK SMILES IDX 7 14 9 15 6 16 10 17 80 18 11 19 12 20 13 21 14 22 15 23
REMARK SMILES IDX 22 24 23 25 24 26 25 28 26 29 27 30 79 31 28 32 78 33 29 34
REMARK SMILES IDX 30 35 31 36 72 37 32 38 77 39 71 40 73 41 33 42 76 43 70 44
REMARK SMILES IDX 69 45 34 47 60 48 43 49 59 50 44 51 47 52 58 53 74 54 45 55
REMARK SMILES IDX 46 56 57 58 75 59 48 60 35 61 36 62 41 63 37 64 38 65 40 66
REMARK SMILES IDX 42 67 39 68 61 69 62 70 67 71 63 72 64 73 66 74 68 75 65 76
REMARK SMILES IDX 49 77 50 78 55 79 51 80 52 81 54 82 56 83 53 84
REMARK H PARENT 19 6 23 27 73 46 47 57
REMARK Flexibility Score: inf
ROOT
ATOM      1  C   UNL A   1      37.786  19.528  24.955  1.00  0.00     0.042 C 
ENDROOT
BRANCH   1   2
ATOM      2  C   UNL A   1      36.694  20.538  24.637  1.00  0.00     0.118 C 
BRANCH   2   3
ATOM      3  N   UNL A   1      35.768  20.702  25.748  1.00  0.00    -0.352 N 
ATOM      4  C   UNL A   1      34.778  21.555  26.096  1.00  0.00     0.251 C 
ATOM      5  O   UNL A   1      34.233  21.315  27.178  1.00  0.00    -0.270 OA
ATOM      6  H   UNL A   1      35.899  20.005  26.430  1.00  0.00     0.163 HD
BRANCH   4   7
ATOM      7  C   UNL A   1      34.328  22.720  25.283  1.00  0.00     0.067 C 
ATOM      8  C   UNL A   1      32.922  28.585  22.751  1.00  0.00     0.046 C 
ATOM      9  C   UNL A   1      33.317  27.374  23.558  1.00  0.00    -0.026 A 
ATOM     10  C   UNL A   1      33.648  27.487  24.925  1.00  0.00     0.045 A 
ATOM     11  C   UNL A   1      33.313  26.088  22.970  1.00  0.00    -0.004 A 
ATOM     12  Cl  UNL A   1      33.598  29.003  25.761  1.00  0.00    -0.084 Cl
ATOM     13  C   UNL A   1      34.028  26.369  25.679  1.00  0.00     0.032 A 
ATOM     14  C   UNL A   1      33.715  24.982  23.743  1.00  0.00     0.131 A 
ATOM     15  C   UNL A   1      32.903  25.833  21.540  1.00  0.00     0.049 C 
ATOM     16  C   UNL A   1      34.073  25.112  25.086  1.00  0.00     0.019 A 
ATOM     17  O   UNL A   1      33.787  23.776  23.100  1.00  0.00    -0.475 OA
ATOM     18  C   UNL A   1      34.510  23.935  25.832  1.00  0.00     0.025 C 
ATOM     19  C   UNL A   1      33.682  22.597  23.936  1.00  0.00     0.314 C 
BRANCH  19  20
ATOM     20  C   UNL A   1      32.208  22.155  24.016  1.00  0.00     0.429 C 
ATOM     21  F   UNL A   1      32.110  20.814  23.836  1.00  0.00    -0.167 F 
ATOM     22  F   UNL A   1      31.649  22.422  25.220  1.00  0.00    -0.167 F 
ATOM     23  F   UNL A   1      31.430  22.747  23.083  1.00  0.00    -0.167 F 
ENDBRANCH  19  20
ENDBRANCH   4   7
ENDBRANCH   2   3
ENDBRANCH   1   2
BRANCH   1  24
ATOM     24  C   UNL A   1      38.923  20.154  25.751  1.00  0.00     0.118 C 
BRANCH  24  25
ATOM     25  N   UNL A   1      40.047  19.233  25.901  1.00  0.00    -0.352 N 
ATOM     26  C   UNL A   1      41.376  19.488  26.123  1.00  0.00     0.251 C 
ATOM     27  H   UNL A   1      39.814  18.278  25.833  1.00  0.00     0.163 HD
ATOM     28  O   UNL A   1      42.211  18.606  25.937  1.00  0.00    -0.269 OA
BRANCH  26  29
ATOM     29  C   UNL A   1      41.799  20.823  26.580  1.00  0.00     0.039 A 
ATOM     30  C   UNL A   1      42.210  21.774  25.643  1.00  0.00     0.014 A 
ATOM     31  C   UNL A   1      41.806  21.127  27.943  1.00  0.00     0.014 A 
ATOM     32  C   UNL A   1      42.560  23.053  26.073  1.00  0.00     0.010 A 
ATOM     33  C   UNL A   1      42.051  22.427  28.359  1.00  0.00     0.010 A 
ATOM     34  C   UNL A   1      42.447  23.399  27.430  1.00  0.00    -0.014 A 
BRANCH  34  35
ATOM     35  C   UNL A   1      42.769  24.762  27.911  1.00  0.00     0.031 A 
ATOM     36  C   UNL A   1      44.203  25.152  28.141  1.00  0.00     0.074 A 
ATOM     37  C   UNL A   1      41.772  25.624  28.187  1.00  0.00     0.049 A 
ATOM     38  N   UNL A   1      44.687  26.272  28.610  1.00  0.00    -0.248 NA
ATOM     39  C   UNL A   1      45.227  24.139  27.830  1.00  0.00     0.031 C 
ATOM     40  C   UNL A   1      40.342  25.339  28.043  1.00  0.00     0.029 A 
ATOM     41  N   UNL A   1      41.808  26.916  28.645  1.00  0.00    -0.354 N 
ATOM     42  C   UNL A   1      46.065  26.095  28.652  1.00  0.00     0.074 A 
ATOM     43  C   UNL A   1      46.335  24.739  28.235  1.00  0.00     0.031 C 
ATOM     44  C   UNL A   1      39.641  26.439  28.360  1.00  0.00     0.029 A 
ATOM     45  C   UNL A   1      40.566  27.491  28.768  1.00  0.00     0.049 A 
ATOM     46  H   UNL A   1      42.645  27.387  28.864  1.00  0.00     0.167 HD
ATOM     47  C   UNL A   1      47.021  26.998  28.970  1.00  0.00     0.037 A 
ATOM     48  C   UNL A   1      40.219  28.730  29.163  1.00  0.00     0.037 A 
ATOM     49  C   UNL A   1      46.745  28.354  29.356  1.00  0.00     0.049 A 
ATOM     50  C   UNL A   1      41.299  29.704  29.542  1.00  0.00     0.074 A 
ATOM     51  C   UNL A   1      47.643  29.361  29.663  1.00  0.00     0.029 A 
ATOM     52  N   UNL A   1      45.475  28.895  29.481  1.00  0.00    -0.354 N 
ATOM     53  N   UNL A   1      42.599  29.541  29.529  1.00  0.00    -0.248 NA
ATOM     54  C   UNL A   1      40.865  31.035  29.992  1.00  0.00     0.031 C 
ATOM     55  C   UNL A   1      46.915  30.500  30.015  1.00  0.00     0.029 A 
ATOM     56  C   UNL A   1      45.564  30.217  29.880  1.00  0.00     0.049 A 
ATOM     57  H   UNL A   1      44.634  28.411  29.312  1.00  0.00     0.167 HD
ATOM     58  C   UNL A   1      43.140  30.752  29.941  1.00  0.00     0.074 A 
ATOM     59  C   UNL A   1      42.026  31.645  30.185  1.00  0.00     0.031 C 
ATOM     60  C   UNL A   1      44.441  31.092  30.106  1.00  0.00     0.037 A 
BRANCH  47  61
ATOM     61  C   UNL A   1      48.451  26.555  28.884  1.00  0.00     0.057 A 
ATOM     62  C   UNL A   1      49.210  26.753  27.723  1.00  0.00     0.134 A 
ATOM     63  C   UNL A   1      49.093  25.972  29.983  1.00  0.00     0.134 A 
ATOM     64  F   UNL A   1      48.652  27.293  26.628  1.00  0.00    -0.206 F 
ATOM     65  C   UNL A   1      50.551  26.372  27.652  1.00  0.00     0.040 A 
ATOM     66  C   UNL A   1      50.441  25.613  29.934  1.00  0.00     0.040 A 
ATOM     67  F   UNL A   1      48.427  25.756  31.127  1.00  0.00    -0.206 F 
ATOM     68  C   UNL A   1      51.173  25.808  28.764  1.00  0.00     0.006 A 
ENDBRANCH  47  61
BRANCH  48  69
ATOM     69  C   UNL A   1      38.789  29.132  29.169  1.00  0.00     0.057 A 
ATOM     70  C   UNL A   1      38.169  29.591  28.001  1.00  0.00     0.134 A 
ATOM     71  C   UNL A   1      38.004  29.053  30.326  1.00  0.00     0.134 A 
ATOM     72  F   UNL A   1      38.872  29.703  26.864  1.00  0.00    -0.206 F 
ATOM     73  C   UNL A   1      36.825  29.968  27.984  1.00  0.00     0.040 A 
ATOM     74  C   UNL A   1      36.653  29.403  30.319  1.00  0.00     0.040 A 
ATOM     75  F   UNL A   1      38.534  28.611  31.476  1.00  0.00    -0.206 F 
ATOM     76  C   UNL A   1      36.061  29.867  29.145  1.00  0.00     0.006 A 
ENDBRANCH  48  69
BRANCH  60  77
ATOM     77  C   UNL A   1      44.742  32.492  30.551  1.00  0.00     0.057 A 
ATOM     78  C   UNL A   1      44.905  33.535  29.632  1.00  0.00     0.134 A 
ATOM     79  C   UNL A   1      44.775  32.815  31.914  1.00  0.00     0.134 A 
ATOM     80  F   UNL A   1      44.893  33.287  28.313  1.00  0.00    -0.206 F 
ATOM     81  C   UNL A   1      45.098  34.851  30.053  1.00  0.00     0.040 A 
ATOM     82  C   UNL A   1      44.942  34.131  32.347  1.00  0.00     0.040 A 
ATOM     83  F   UNL A   1      44.614  31.862  32.844  1.00  0.00    -0.206 F 
ATOM     84  C   UNL A   1      45.104  35.153  31.414  1.00  0.00     0.006 A 
ENDBRANCH  60  77
ENDBRANCH  34  35
ENDBRANCH  26  29
ENDBRANCH  24  25
ENDBRANCH   1  24
TORSDOF 11
ENDMDL
MODEL 2
REMARK VINA RESULT:     -12.5      0.464      6.302
REMARK SMILES Cc1c(Cl)cc2c(c1C)O[C@H](C(F)(F)F)C(C(=O)NCCCNC(=O)c1ccc(-c3c4nc(c(-c5c(F)cccc5F)c5ccc([nH]5)c(-c5c(F)cccc5F)c5nc(c(-c6c(F)cccc6F)c6ccc3[nH]6)C=C5)C=C4)cc1)=C2
REMARK SMILES IDX 21 1 20 2 19 3 17 4 18 5 16 7 1 8 2 9 3 10 8 11 4 12 5 13
REMARK SMILES IDX 7 14 9 15 6 16 10 17 80 18 11 19 12 20 13 21 14 22 15 23
REMARK SMILES IDX 22 24 23 25 24 26 25 28 26 29 27 30 79 31 28 32 78 33 29 34
REMARK SMILES IDX 30 35 31 36 72 37 32 38 77 39 71 40 73 41 33 42 76 43 70 44
REMARK SMILES IDX 69 45 34 47 60 48 43 49 59 50 44 51 47 52 58 53 74 54 45 55
REMARK SMILES IDX 46 56 57 58 75 59 48 60 35 61 36 62 41 63 37 64 38 65 40 66
REMARK SMILES IDX 42 67 39 68 61 69 62 70 67 71 63 72 64 73 66 74 68 75 65 76
REMARK SMILES IDX 49 77 50 78 55 79 51 80 52 81 54 82 56 83 53 84
REMARK H PARENT 19 6 23 27 73 46 47 57
REMARK Flexibility Score: inf
ROOT
ATOM      1  C   UNL A   1      37.651  19.760  24.988  1.00  0.00     0.042 C 
ENDROOT
BRANCH   1   2
ATOM      2  C   UNL A   1      36.587  20.806  24.695  1.00  0.00     0.118 C 
BRANCH   2   3
ATOM      3  N   UNL A   1      35.674  20.978  25.816  1.00  0.00    -0.352 N 
ATOM      4  C   UNL A   1      34.702  21.845  26.180  1.00  0.00     0.251 C 
ATOM      5  O   UNL A   1      34.163  21.607  27.265  1.00  0.00    -0.270 OA
ATOM      6  H   UNL A   1      35.799  20.274  26.492  1.00  0.00     0.163 HD
BRANCH   4   7
ATOM      7  C   UNL A   1      34.264  23.024  25.379  1.00  0.00     0.067 C 
ATOM      8  C   UNL A   1      32.899  28.930  22.922  1.00  0.00     0.046 C 
ATOM      9  C   UNL A   1      33.281  27.705  23.715  1.00  0.00    -0.026 A 
ATOM     10  C   UNL A   1      33.593  27.796  25.088  1.00  0.00     0.045 A 
ATOM     11  C   UNL A   1      33.285  26.429  23.107  1.00  0.00    -0.004 A 
ATOM     12  Cl  UNL A   1      33.532  29.299  25.948  1.00  0.00    -0.084 Cl
ATOM     13  C   UNL A   1      33.961  26.666  25.829  1.00  0.00     0.032 A 
ATOM     14  C   UNL A   1      33.675  25.311  23.867  1.00  0.00     0.131 A 
ATOM     15  C   UNL A   1      32.895  26.197  21.667  1.00  0.00     0.049 C 
ATOM     16  C   UNL A   1      34.014  25.418  25.217  1.00  0.00     0.019 A 
ATOM     17  O   UNL A   1      33.756  24.114  23.206  1.00  0.00    -0.475 OA
ATOM     18  C   UNL A   1      34.439  24.230  25.950  1.00  0.00     0.025 C 
ATOM     19  C   UNL A   1      33.638  22.923  24.021  1.00  0.00     0.314 C 
BRANCH  19  20
ATOM     20  C   UNL A   1      32.162  22.481  24.073  1.00  0.00     0.429 C 
ATOM     21  F   UNL A   1      31.522  22.851  22.935  1.00  0.00    -0.167 F 
ATOM     22  F   UNL A   1      32.024  21.137  24.169  1.00  0.00    -0.167 F 
ATOM     23  F   UNL A   1      31.488  23.020  25.112  1.00  0.00    -0.167 F 
ENDBRANCH  19  20
ENDBRANCH   4   7
ENDBRANCH   2   3
ENDBRANCH   1   2
BRANCH   1  24
ATOM     24  C   UNL A   1      38.855  20.359  25.702  1.00  0.00     0.118 C 
BRANCH  24  25
ATOM     25  N   UNL A   1      39.930  19.381  25.860  1.00  0.00    -0.352 N 
ATOM     26  C   UNL A   1      41.263  19.567  26.125  1.00  0.00     0.251 C 
ATOM     27  H   UNL A   1      39.654  18.441  25.761  1.00  0.00     0.163 HD
ATOM     28  O   UNL A   1      42.060  18.651  25.940  1.00  0.00    -0.269 OA
BRANCH  26  29
ATOM     29  C   UNL A   1      41.735  20.869  26.627  1.00  0.00     0.039 A 
ATOM     30  C   UNL A   1      42.207  21.826  25.725  1.00  0.00     0.014 A 
ATOM     31  C   UNL A   1      41.726  21.136  27.998  1.00  0.00     0.014 A 
ATOM     32  C   UNL A   1      42.605  23.076  26.197  1.00  0.00     0.010 A 
ATOM     33  C   UNL A   1      42.020  22.412  28.454  1.00  0.00     0.010 A 
ATOM     34  C   UNL A   1      42.479  23.390  27.561  1.00  0.00    -0.014 A 
BRANCH  34  35
ATOM     35  C   UNL A   1      42.851  24.723  28.085  1.00  0.00     0.031 A 
ATOM     36  C   UNL A   1      41.791  25.772  28.278  1.00  0.00     0.074 A 
ATOM     37  C   UNL A   1      44.145  25.003  28.335  1.00  0.00     0.049 A 
ATOM     38  N   UNL A   1      41.920  27.012  28.671  1.00  0.00    -0.248 NA
ATOM     39  C   UNL A   1      40.405  25.383  27.962  1.00  0.00     0.031 C 
ATOM     40  C   UNL A   1      45.264  24.077  28.142  1.00  0.00     0.029 A 
ATOM     41  N   UNL A   1      44.738  26.146  28.806  1.00  0.00    -0.354 N 
ATOM     42  C   UNL A   1      40.639  27.548  28.646  1.00  0.00     0.074 A 
ATOM     43  C   UNL A   1      39.759  26.527  28.127  1.00  0.00     0.031 C 
ATOM     44  C   UNL A   1      46.400  24.674  28.537  1.00  0.00     0.029 A 
ATOM     45  C   UNL A   1      46.097  26.033  28.971  1.00  0.00     0.049 A 
ATOM     46  H   UNL A   1      44.237  26.969  29.009  1.00  0.00     0.167 HD
ATOM     47  C   UNL A   1      40.228  28.769  29.056  1.00  0.00     0.037 A 
ATOM     48  C   UNL A   1      46.994  26.928  29.424  1.00  0.00     0.037 A 
ATOM     49  C   UNL A   1      41.106  29.770  29.597  1.00  0.00     0.049 A 
ATOM     50  C   UNL A   1      46.516  28.291  29.844  1.00  0.00     0.074 A 
ATOM     51  C   UNL A   1      40.786  31.027  30.077  1.00  0.00     0.029 A 
ATOM     52  N   UNL A   1      42.477  29.623  29.735  1.00  0.00    -0.354 N 
ATOM     53  N   UNL A   1      45.296  28.768  29.862  1.00  0.00    -0.248 NA
ATOM     54  C   UNL A   1      47.539  29.240  30.307  1.00  0.00     0.031 C 
ATOM     55  C   UNL A   1      41.970  31.657  30.468  1.00  0.00     0.029 A 
ATOM     56  C   UNL A   1      43.021  30.775  30.276  1.00  0.00     0.049 A 
ATOM     57  H   UNL A   1      42.989  28.819  29.486  1.00  0.00     0.167 HD
ATOM     58  C   UNL A   1      45.398  30.059  30.361  1.00  0.00     0.074 A 
ATOM     59  C   UNL A   1      46.800  30.288  30.645  1.00  0.00     0.031 C 
ATOM     60  C   UNL A   1      44.420  30.976  30.562  1.00  0.00     0.037 A 
BRANCH  47  61
ATOM     61  C   UNL A   1      38.763  29.078  28.963  1.00  0.00     0.057 A 
ATOM     62  C   UNL A   1      37.919  28.961  30.076  1.00  0.00     0.134 A 
ATOM     63  C   UNL A   1      38.197  29.542  27.770  1.00  0.00     0.134 A 
ATOM     64  F   UNL A   1      38.394  28.508  31.246  1.00  0.00    -0.206 F 
ATOM     65  C   UNL A   1      36.562  29.279  30.000  1.00  0.00     0.040 A 
ATOM     66  C   UNL A   1      36.848  29.890  27.689  1.00  0.00     0.040 A 
ATOM     67  F   UNL A   1      38.949  29.680  26.667  1.00  0.00    -0.206 F 
ATOM     68  C   UNL A   1      36.025  29.754  28.807  1.00  0.00     0.006 A 
ENDBRANCH  47  61
BRANCH  48  69
ATOM     69  C   UNL A   1      48.424  26.546  29.552  1.00  0.00     0.057 A 
ATOM     70  C   UNL A   1      49.338  26.843  28.534  1.00  0.00     0.134 A 
ATOM     71  C   UNL A   1      48.916  25.896  30.690  1.00  0.00     0.134 A 
ATOM     72  F   UNL A   1      48.924  27.452  27.413  1.00  0.00    -0.206 F 
ATOM     73  C   UNL A   1      50.686  26.498  28.636  1.00  0.00     0.040 A 
ATOM     74  C   UNL A   1      50.267  25.567  30.817  1.00  0.00     0.040 A 
ATOM     75  F   UNL A   1      48.095  25.593  31.705  1.00  0.00    -0.206 F 
ATOM     76  C   UNL A   1      51.156  25.864  29.785  1.00  0.00     0.006 A 
ENDBRANCH  48  69
BRANCH  60  77
ATOM     77  C   UNL A   1      44.818  32.302  31.135  1.00  0.00     0.057 A 
ATOM     78  C   UNL A   1      44.885  32.515  32.516  1.00  0.00     0.134 A 
ATOM     79  C   UNL A   1      45.229  33.347  30.295  1.00  0.00     0.134 A 
ATOM     80  F   UNL A   1      44.496  31.557  33.371  1.00  0.00    -0.206 F 
ATOM     81  C   UNL A   1      45.340  33.724  33.045  1.00  0.00     0.040 A 
ATOM     82  C   UNL A   1      45.710  34.550  30.812  1.00  0.00     0.040 A 
ATOM     83  F   UNL A   1      45.200  33.201  28.962  1.00  0.00    -0.206 F 
ATOM     84  C   UNL A   1      45.765  34.740  32.191  1.00  0.00     0.006 A 
ENDBRANCH  60  77
ENDBRANCH  34  35
ENDBRANCH  26  29
ENDBRANCH  24  25
ENDBRANCH   1  24
TORSDOF 11
ENDMDL
MODEL 3
REMARK VINA RESULT:     -12.5      1.556      2.071
REMARK SMILES Cc1c(Cl)cc2c(c1C)O[C@H](C(F)(F)F)C(C(=O)NCCCNC(=O)c1ccc(-c3c4nc(c(-c5c(F)cccc5F)c5ccc([nH]5)c(-c5c(F)cccc5F)c5nc(c(-c6c(F)cccc6F)c6ccc3[nH]6)C=C5)C=C4)cc1)=C2
REMARK SMILES IDX 21 1 20 2 19 3 17 4 18 5 16 7 1 8 2 9 3 10 8 11 4 12 5 13
REMARK SMILES IDX 7 14 9 15 6 16 10 17 80 18 11 19 12 20 13 21 14 22 15 23
REMARK SMILES IDX 22 24 23 25 24 26 25 28 26 29 27 30 79 31 28 32 78 33 29 34
REMARK SMILES IDX 30 35 31 36 72 37 32 38 77 39 71 40 73 41 33 42 76 43 70 44
REMARK SMILES IDX 69 45 34 47 60 48 43 49 59 50 44 51 47 52 58 53 74 54 45 55
REMARK SMILES IDX 46 56 57 58 75 59 48 60 35 61 36 62 41 63 37 64 38 65 40 66
REMARK SMILES IDX 42 67 39 68 61 69 62 70 67 71 63 72 64 73 66 74 68 75 65 76
REMARK SMILES IDX 49 77 50 78 55 79 51 80 52 81 54 82 56 83 53 84
REMARK H PARENT 19 6 23 27 73 46 47 57
REMARK Flexibility Score: inf
ROOT
ATOM      1  C   UNL A   1      37.820  19.507  24.905  1.00  0.00     0.042 C 
ENDROOT
BRANCH   1   2
ATOM      2  C   UNL A   1      36.542  20.326  24.991  1.00  0.00     0.118 C 
BRANCH   2   3
ATOM      3  N   UNL A   1      35.355  19.485  24.932  1.00  0.00    -0.352 N 
ATOM      4  C   UNL A   1      34.015  19.663  24.869  1.00  0.00     0.251 C 
ATOM      5  O   UNL A   1      33.348  18.624  24.839  1.00  0.00    -0.270 OA
ATOM      6  H   UNL A   1      35.592  18.530  24.941  1.00  0.00     0.163 HD
BRANCH   4   7
ATOM      7  C   UNL A   1      33.329  20.985  24.838  1.00  0.00     0.067 C 
ATOM      8  C   UNL A   1      30.580  26.723  23.323  1.00  0.00     0.046 C 
ATOM      9  C   UNL A   1      31.306  25.405  23.416  1.00  0.00    -0.026 A 
ATOM     10  C   UNL A   1      32.139  24.959  22.367  1.00  0.00     0.045 A 
ATOM     11  C   UNL A   1      31.208  24.611  24.582  1.00  0.00    -0.004 A 
ATOM     12  Cl  UNL A   1      32.396  25.897  20.935  1.00  0.00    -0.084 Cl
ATOM     13  C   UNL A   1      32.807  23.730  22.439  1.00  0.00     0.032 A 
ATOM     14  C   UNL A   1      31.875  23.373  24.624  1.00  0.00     0.131 A 
ATOM     15  C   UNL A   1      30.411  25.021  25.796  1.00  0.00     0.049 C 
ATOM     16  C   UNL A   1      32.668  22.926  23.566  1.00  0.00     0.019 A 
ATOM     17  O   UNL A   1      31.668  22.600  25.735  1.00  0.00    -0.475 OA
ATOM     18  C   UNL A   1      33.314  21.620  23.651  1.00  0.00     0.025 C 
ATOM     19  C   UNL A   1      32.695  21.624  26.036  1.00  0.00     0.314 C 
BRANCH  19  20
ATOM     20  C   UNL A   1      33.726  22.246  26.999  1.00  0.00     0.429 C 
ATOM     21  F   UNL A   1      34.268  21.286  27.789  1.00  0.00    -0.167 F 
ATOM     22  F   UNL A   1      34.758  22.834  26.348  1.00  0.00    -0.167 F 
ATOM     23  F   UNL A   1      33.189  23.184  27.809  1.00  0.00    -0.167 F 
ENDBRANCH  19  20
ENDBRANCH   4   7
ENDBRANCH   2   3
ENDBRANCH   1   2
BRANCH   1  24
ATOM     24  C   UNL A   1      38.950  20.131  25.714  1.00  0.00     0.118 C 
BRANCH  24  25
ATOM     25  N   UNL A   1      40.100  19.236  25.815  1.00  0.00    -0.352 N 
ATOM     26  C   UNL A   1      41.422  19.517  26.043  1.00  0.00     0.251 C 
ATOM     27  H   UNL A   1      39.893  18.279  25.702  1.00  0.00     0.163 HD
ATOM     28  O   UNL A   1      42.280  18.668  25.812  1.00  0.00    -0.269 OA
BRANCH  26  29
ATOM     29  C   UNL A   1      41.811  20.840  26.563  1.00  0.00     0.039 A 
ATOM     30  C   UNL A   1      42.259  21.823  25.677  1.00  0.00     0.014 A 
ATOM     31  C   UNL A   1      41.748  21.101  27.933  1.00  0.00     0.014 A 
ATOM     32  C   UNL A   1      42.576  23.091  26.164  1.00  0.00     0.010 A 
ATOM     33  C   UNL A   1      41.961  22.389  28.401  1.00  0.00     0.010 A 
ATOM     34  C   UNL A   1      42.393  23.392  27.524  1.00  0.00    -0.014 A 
BRANCH  34  35
ATOM     35  C   UNL A   1      42.680  24.741  28.062  1.00  0.00     0.031 A 
ATOM     36  C   UNL A   1      44.088  25.111  28.439  1.00  0.00     0.074 A 
ATOM     37  C   UNL A   1      41.668  25.609  28.259  1.00  0.00     0.049 A 
ATOM     38  N   UNL A   1      44.534  26.216  28.976  1.00  0.00    -0.248 NA
ATOM     39  C   UNL A   1      45.128  24.093  28.207  1.00  0.00     0.031 C 
ATOM     40  C   UNL A   1      40.257  25.343  27.971  1.00  0.00     0.029 A 
ATOM     41  N   UNL A   1      41.671  26.890  28.745  1.00  0.00    -0.354 N 
ATOM     42  C   UNL A   1      45.900  26.023  29.147  1.00  0.00     0.074 A 
ATOM     43  C   UNL A   1      46.197  24.673  28.730  1.00  0.00     0.031 C 
ATOM     44  C   UNL A   1      39.538  26.444  28.242  1.00  0.00     0.029 A 
ATOM     45  C   UNL A   1      40.429  27.477  28.760  1.00  0.00     0.049 A 
ATOM     46  H   UNL A   1      42.487  27.348  29.055  1.00  0.00     0.167 HD
ATOM     47  C   UNL A   1      46.828  26.908  29.576  1.00  0.00     0.037 A 
ATOM     48  C   UNL A   1      40.055  28.711  29.145  1.00  0.00     0.037 A 
ATOM     49  C   UNL A   1      46.529  28.260  29.962  1.00  0.00     0.049 A 
ATOM     50  C   UNL A   1      41.102  29.665  29.648  1.00  0.00     0.074 A 
ATOM     51  C   UNL A   1      47.402  29.250  30.376  1.00  0.00     0.029 A 
ATOM     52  N   UNL A   1      45.257  28.812  29.975  1.00  0.00    -0.354 N 
ATOM     53  N   UNL A   1      42.396  29.489  29.758  1.00  0.00    -0.248 NA
ATOM     54  C   UNL A   1      40.639  30.991  30.082  1.00  0.00     0.031 C 
ATOM     55  C   UNL A   1      46.653  30.390  30.680  1.00  0.00     0.029 A 
ATOM     56  C   UNL A   1      45.319  30.124  30.409  1.00  0.00     0.049 A 
ATOM     57  H   UNL A   1      44.433  28.341  29.715  1.00  0.00     0.167 HD
ATOM     58  C   UNL A   1      42.905  30.684  30.246  1.00  0.00     0.074 A 
ATOM     59  C   UNL A   1      41.781  31.585  30.400  1.00  0.00     0.031 C 
ATOM     60  C   UNL A   1      44.187  31.007  30.543  1.00  0.00     0.037 A 
BRANCH  47  61
ATOM     61  C   UNL A   1      48.256  26.452  29.619  1.00  0.00     0.057 A 
ATOM     62  C   UNL A   1      49.118  26.637  28.530  1.00  0.00     0.134 A 
ATOM     63  C   UNL A   1      48.792  25.868  30.773  1.00  0.00     0.134 A 
ATOM     64  F   UNL A   1      48.664  27.177  27.388  1.00  0.00    -0.206 F 
ATOM     65  C   UNL A   1      50.455  26.243  28.580  1.00  0.00     0.040 A 
ATOM     66  C   UNL A   1      50.136  25.496  30.846  1.00  0.00     0.040 A 
ATOM     67  F   UNL A   1      48.024  25.664  31.854  1.00  0.00    -0.206 F 
ATOM     68  C   UNL A   1      50.970  25.679  29.745  1.00  0.00     0.006 A 
ENDBRANCH  47  61
BRANCH  48  69
ATOM     69  C   UNL A   1      38.635  29.128  29.022  1.00  0.00     0.057 A 
ATOM     70  C   UNL A   1      38.126  29.582  27.799  1.00  0.00     0.134 A 
ATOM     71  C   UNL A   1      37.751  29.070  30.106  1.00  0.00     0.134 A 
ATOM     72  F   UNL A   1      38.928  29.674  26.728  1.00  0.00    -0.206 F 
ATOM     73  C   UNL A   1      36.794  29.974  27.660  1.00  0.00     0.040 A 
ATOM     74  C   UNL A   1      36.410  29.435  29.976  1.00  0.00     0.040 A 
ATOM     75  F   UNL A   1      38.172  28.635  31.302  1.00  0.00    -0.206 F 
ATOM     76  C   UNL A   1      35.929  29.893  28.750  1.00  0.00     0.006 A 
ENDBRANCH  48  69
BRANCH  60  77
ATOM     77  C   UNL A   1      44.456  32.394  31.045  1.00  0.00     0.057 A 
ATOM     78  C   UNL A   1      44.507  32.683  32.413  1.00  0.00     0.134 A 
ATOM     79  C   UNL A   1      44.761  33.428  30.150  1.00  0.00     0.134 A 
ATOM     80  F   UNL A   1      44.215  31.737  33.319  1.00  0.00    -0.206 F 
ATOM     81  C   UNL A   1      44.843  33.956  32.875  1.00  0.00     0.040 A 
ATOM     82  C   UNL A   1      45.125  34.698  30.601  1.00  0.00     0.040 A 
ATOM     83  F   UNL A   1      44.743  33.212  28.826  1.00  0.00    -0.206 F 
ATOM     84  C   UNL A   1      45.165  34.963  31.968  1.00  0.00     0.006 A 
ENDBRANCH  60  77
ENDBRANCH  34  35
ENDBRANCH  26  29
ENDBRANCH  24  25
ENDBRANCH   1  24
TORSDOF 11
ENDMDL
