MODEL 1
REMARK VINA RESULT:     -12.0      0.000      0.000
REMARK SMILES CCOc1ccc(C(=O)NNC(=O)[C@H]2CC=CC[C@H]2C(=O)NCCCNC(=O)c2ccc(-c3c4nc(c(-c5c(F)cccc5F)c5ccc([nH]5)c(-c5c(F)cccc5F)c5nc(c(-c6c(F)cccc6F)c6ccc3[nH]6)C=C5)C=C4)cc2)cc1
REMARK SMILES IDX 20 1 21 2 22 3 19 5 14 6 15 7 16 8 18 9 17 10 12 11 11 12
REMARK SMILES IDX 13 14 10 15 8 16 9 17 7 19 4 20 5 21 84 22 6 23 83 24 3 25
REMARK SMILES IDX 2 26 1 27 23 28 24 29 25 30 26 31 27 32 28 34 29 35 30 36
REMARK SMILES IDX 82 37 31 38 81 39 32 40 33 41 34 42 75 43 35 44 80 45 74 46
REMARK SMILES IDX 76 47 36 48 79 49 73 50 72 51 37 53 63 54 46 55 62 56 47 57
REMARK SMILES IDX 50 58 61 59 77 60 48 61 49 62 60 64 78 65 51 66 38 67 39 68
REMARK SMILES IDX 44 69 40 70 41 71 43 72 45 73 42 74 64 75 65 76 70 77 66 78
REMARK SMILES IDX 67 79 69 80 71 81 68 82 52 83 53 84 58 85 54 86 55 87 57 88
REMARK SMILES IDX 59 89 56 90
REMARK H PARENT 22 4 11 13 10 18 26 33 76 52 50 63
REMARK Flexibility Score: inf
ROOT
ATOM      1  C   UNL A   1      35.882  22.632  24.542  1.00  0.00     0.224 C 
ATOM      2  O   UNL A   1      36.349  23.771  24.652  1.00  0.00    -0.275 OA
ATOM      3  N   UNL A   1      36.688  21.610  24.922  1.00  0.00    -0.356 N 
ATOM      4  H   UNL A   1      37.567  21.910  25.251  1.00  0.00     0.163 HD
ENDROOT
BRANCH   1   5
ATOM      5  C   UNL A   1      34.470  22.452  24.000  1.00  0.00     0.095 C 
ATOM      6  C   UNL A   1      33.405  22.144  25.077  1.00  0.00     0.097 C 
ATOM      7  C   UNL A   1      32.017  21.965  24.445  1.00  0.00     0.041 C 
ATOM      8  C   UNL A   1      31.681  23.027  23.442  1.00  0.00    -0.030 C 
ATOM      9  C   UNL A   1      34.085  23.459  22.904  1.00  0.00     0.041 C 
ATOM     10  C   UNL A   1      32.614  23.704  22.763  1.00  0.00    -0.030 C 
BRANCH   6  11
ATOM     11  C   UNL A   1      33.427  23.059  26.299  1.00  0.00     0.242 C 
ATOM     12  N   UNL A   1      32.822  24.295  26.185  1.00  0.00    -0.267 N 
ATOM     13  H   UNL A   1      33.253  25.057  25.733  1.00  0.00     0.191 HD
ATOM     14  O   UNL A   1      33.981  22.725  27.345  1.00  0.00    -0.273 OA
BRANCH  12  15
ATOM     15  N   UNL A   1      31.539  24.385  26.767  1.00  0.00    -0.263 N 
ATOM     16  C   UNL A   1      30.475  25.162  26.360  1.00  0.00     0.269 C 
ATOM     17  O   UNL A   1      29.365  24.938  26.845  1.00  0.00    -0.267 OA
ATOM     18  H   UNL A   1      31.385  23.826  27.563  1.00  0.00     0.191 HD
BRANCH  16  19
ATOM     19  C   UNL A   1      30.602  26.257  25.364  1.00  0.00     0.041 A 
ATOM     20  C   UNL A   1      30.532  28.361  23.519  1.00  0.00     0.119 A 
ATOM     21  C   UNL A   1      29.797  27.208  23.269  1.00  0.00     0.047 A 
ATOM     22  C   UNL A   1      31.280  28.486  24.689  1.00  0.00     0.047 A 
ATOM     23  C   UNL A   1      29.837  26.155  24.189  1.00  0.00     0.018 A 
ATOM     24  C   UNL A   1      31.306  27.440  25.619  1.00  0.00     0.018 A 
BRANCH  20  25
ATOM     25  O   UNL A   1      30.387  29.446  22.700  1.00  0.00    -0.494 OA
BRANCH  25  26
ATOM     26  C   UNL A   1      29.025  29.675  22.326  1.00  0.00     0.226 C 
ATOM     27  C   UNL A   1      28.387  30.677  23.274  1.00  0.00     0.049 C 
ENDBRANCH  25  26
ENDBRANCH  20  25
ENDBRANCH  16  19
ENDBRANCH  12  15
ENDBRANCH   6  11
ENDBRANCH   1   5
BRANCH   3  28
ATOM     28  C   UNL A   1      36.526  20.167  24.946  1.00  0.00     0.117 C 
BRANCH  28  29
ATOM     29  C   UNL A   1      37.847  19.406  24.932  1.00  0.00     0.042 C 
BRANCH  29  30
ATOM     30  C   UNL A   1      38.981  20.069  25.694  1.00  0.00     0.118 C 
BRANCH  30  31
ATOM     31  N   UNL A   1      40.155  19.217  25.766  1.00  0.00    -0.352 N 
ATOM     32  C   UNL A   1      41.463  19.548  26.023  1.00  0.00     0.251 C 
ATOM     33  H   UNL A   1      39.987  18.259  25.609  1.00  0.00     0.163 HD
ATOM     34  O   UNL A   1      42.345  18.725  25.797  1.00  0.00    -0.269 OA
BRANCH  32  35
ATOM     35  C   UNL A   1      41.826  20.886  26.549  1.00  0.00     0.039 A 
ATOM     36  C   UNL A   1      41.641  21.142  27.912  1.00  0.00     0.014 A 
ATOM     37  C   UNL A   1      42.274  21.912  25.711  1.00  0.00     0.014 A 
ATOM     38  C   UNL A   1      41.933  22.407  28.433  1.00  0.00     0.010 A 
ATOM     39  C   UNL A   1      42.651  23.142  26.246  1.00  0.00     0.010 A 
ATOM     40  C   UNL A   1      42.454  23.415  27.606  1.00  0.00    -0.014 A 
BRANCH  40  41
ATOM     41  C   UNL A   1      42.723  24.777  28.131  1.00  0.00     0.031 A 
ATOM     42  C   UNL A   1      44.125  25.171  28.520  1.00  0.00     0.074 A 
ATOM     43  C   UNL A   1      41.712  25.652  28.297  1.00  0.00     0.049 A 
ATOM     44  N   UNL A   1      44.559  26.291  29.042  1.00  0.00    -0.248 NA
ATOM     45  C   UNL A   1      45.176  24.159  28.323  1.00  0.00     0.031 C 
ATOM     46  C   UNL A   1      40.302  25.384  28.010  1.00  0.00     0.029 A 
ATOM     47  N   UNL A   1      41.718  26.944  28.758  1.00  0.00    -0.354 N 
ATOM     48  C   UNL A   1      45.920  26.108  29.255  1.00  0.00     0.074 A 
ATOM     49  C   UNL A   1      46.232  24.753  28.855  1.00  0.00     0.031 C 
ATOM     50  C   UNL A   1      39.583  26.485  28.279  1.00  0.00     0.029 A 
ATOM     51  C   UNL A   1      40.475  27.527  28.781  1.00  0.00     0.049 A 
ATOM     52  H   UNL A   1      42.537  27.410  29.044  1.00  0.00     0.167 HD
ATOM     53  C   UNL A   1      46.836  26.994  29.717  1.00  0.00     0.037 A 
ATOM     54  C   UNL A   1      40.099  28.762  29.160  1.00  0.00     0.037 A 
ATOM     55  C   UNL A   1      46.538  28.354  30.074  1.00  0.00     0.049 A 
ATOM     56  C   UNL A   1      41.138  29.742  29.629  1.00  0.00     0.074 A 
ATOM     57  C   UNL A   1      47.406  29.345  30.499  1.00  0.00     0.029 A 
ATOM     58  N   UNL A   1      45.273  28.918  30.038  1.00  0.00    -0.354 N 
ATOM     59  N   UNL A   1      42.430  29.572  29.771  1.00  0.00    -0.248 NA
ATOM     60  C   UNL A   1      40.667  31.090  29.978  1.00  0.00     0.031 C 
ATOM     61  C   UNL A   1      46.661  30.504  30.743  1.00  0.00     0.029 A 
ATOM     62  C   UNL A   1      45.334  30.243  30.438  1.00  0.00     0.049 A 
ATOM     63  H   UNL A   1      44.451  28.447  29.769  1.00  0.00     0.167 HD
ATOM     64  C   UNL A   1      42.930  30.794  30.201  1.00  0.00     0.074 A 
ATOM     65  C   UNL A   1      41.804  31.701  30.284  1.00  0.00     0.031 C 
ATOM     66  C   UNL A   1      44.206  31.134  30.501  1.00  0.00     0.037 A 
BRANCH  53  67
ATOM     67  C   UNL A   1      48.251  26.513  29.846  1.00  0.00     0.057 A 
ATOM     68  C   UNL A   1      48.707  25.867  31.003  1.00  0.00     0.134 A 
ATOM     69  C   UNL A   1      49.165  26.683  28.798  1.00  0.00     0.134 A 
ATOM     70  F   UNL A   1      47.885  25.687  32.049  1.00  0.00    -0.206 F 
ATOM     71  C   UNL A   1      50.027  25.432  31.124  1.00  0.00     0.040 A 
ATOM     72  C   UNL A   1      50.481  26.229  28.898  1.00  0.00     0.040 A 
ATOM     73  F   UNL A   1      48.793  27.289  27.660  1.00  0.00    -0.206 F 
ATOM     74  C   UNL A   1      50.918  25.607  30.066  1.00  0.00     0.006 A 
ENDBRANCH  53  67
BRANCH  54  75
ATOM     75  C   UNL A   1      38.672  29.158  29.072  1.00  0.00     0.057 A 
ATOM     76  C   UNL A   1      37.829  29.067  30.185  1.00  0.00     0.134 A 
ATOM     77  C   UNL A   1      38.118  29.632  27.878  1.00  0.00     0.134 A 
ATOM     78  F   UNL A   1      38.300  28.601  31.351  1.00  0.00    -0.206 F 
ATOM     79  C   UNL A   1      36.481  29.420  30.113  1.00  0.00     0.040 A 
ATOM     80  C   UNL A   1      36.777  30.010  27.795  1.00  0.00     0.040 A 
ATOM     81  F   UNL A   1      38.876  29.745  26.778  1.00  0.00    -0.206 F 
ATOM     82  C   UNL A   1      35.953  29.899  28.914  1.00  0.00     0.006 A 
ENDBRANCH  54  75
BRANCH  66  83
ATOM     83  C   UNL A   1      44.458  32.554  30.911  1.00  0.00     0.057 A 
ATOM     84  C   UNL A   1      44.734  33.555  29.971  1.00  0.00     0.134 A 
ATOM     85  C   UNL A   1      44.389  32.929  32.258  1.00  0.00     0.134 A 
ATOM     86  F   UNL A   1      44.825  33.257  28.667  1.00  0.00    -0.206 F 
ATOM     87  C   UNL A   1      44.953  34.877  30.360  1.00  0.00     0.040 A 
ATOM     88  C   UNL A   1      44.585  34.252  32.657  1.00  0.00     0.040 A 
ATOM     89  F   UNL A   1      44.121  32.018  33.207  1.00  0.00    -0.206 F 
ATOM     90  C   UNL A   1      44.873  35.230  31.707  1.00  0.00     0.006 A 
ENDBRANCH  66  83
ENDBRANCH  40  41
ENDBRANCH  32  35
ENDBRANCH  30  31
ENDBRANCH  29  30
ENDBRANCH  28  29
ENDBRANCH   3  28
TORSDOF 15
ENDMDL
MODEL 2
REMARK VINA RESULT:     -11.9      1.220      6.234
REMARK SMILES CCOc1ccc(C(=O)NNC(=O)[C@H]2CC=CC[C@H]2C(=O)NCCCNC(=O)c2ccc(-c3c4nc(c(-c5c(F)cccc5F)c5ccc([nH]5)c(-c5c(F)cccc5F)c5nc(c(-c6c(F)cccc6F)c6ccc3[nH]6)C=C5)C=C4)cc2)cc1
REMARK SMILES IDX 20 1 21 2 22 3 19 5 14 6 15 7 16 8 18 9 17 10 12 11 11 12
REMARK SMILES IDX 13 14 10 15 8 16 9 17 7 19 4 20 5 21 84 22 6 23 83 24 3 25
REMARK SMILES IDX 2 26 1 27 23 28 24 29 25 30 26 31 27 32 28 34 29 35 30 36
REMARK SMILES IDX 82 37 31 38 81 39 32 40 33 41 34 42 75 43 35 44 80 45 74 46
REMARK SMILES IDX 76 47 36 48 79 49 73 50 72 51 37 53 63 54 46 55 62 56 47 57
REMARK SMILES IDX 50 58 61 59 77 60 48 61 49 62 60 64 78 65 51 66 38 67 39 68
REMARK SMILES IDX 44 69 40 70 41 71 43 72 45 73 42 74 64 75 65 76 70 77 66 78
REMARK SMILES IDX 67 79 69 80 71 81 68 82 52 83 53 84 58 85 54 86 55 87 57 88
REMARK SMILES IDX 59 89 56 90
REMARK H PARENT 22 4 11 13 10 18 26 33 76 52 50 63
REMARK Flexibility Score: inf
ROOT
ATOM      1  C   UNL A   1      34.984  22.173  25.697  1.00  0.00     0.224 C 
ATOM      2  O   UNL A   1      34.763  22.857  26.703  1.00  0.00    -0.275 OA
ATOM      3  N   UNL A   1      35.658  21.013  25.893  1.00  0.00    -0.356 N 
ATOM      4  H   UNL A   1      35.891  20.854  26.837  1.00  0.00     0.163 HD
ENDROOT
BRANCH   1   5
ATOM      5  C   UNL A   1      34.500  22.662  24.338  1.00  0.00     0.095 C 
ATOM      6  C   UNL A   1      33.114  22.122  23.920  1.00  0.00     0.097 C 
ATOM      7  C   UNL A   1      32.709  22.653  22.537  1.00  0.00     0.041 C 
ATOM      8  C   UNL A   1      32.940  24.125  22.376  1.00  0.00    -0.030 C 
ATOM      9  C   UNL A   1      34.780  24.150  24.070  1.00  0.00     0.041 C 
ATOM     10  C   UNL A   1      33.863  24.795  23.077  1.00  0.00    -0.030 C 
BRANCH   6  11
ATOM     11  C   UNL A   1      32.021  22.232  24.980  1.00  0.00     0.242 C 
ATOM     12  N   UNL A   1      31.759  23.483  25.503  1.00  0.00    -0.267 N 
ATOM     13  H   UNL A   1      32.328  23.901  26.190  1.00  0.00     0.191 HD
ATOM     14  O   UNL A   1      31.406  21.244  25.378  1.00  0.00    -0.273 OA
BRANCH  12  15
ATOM     15  N   UNL A   1      30.612  24.119  24.978  1.00  0.00    -0.263 N 
ATOM     16  C   UNL A   1      30.449  25.453  24.667  1.00  0.00     0.269 C 
ATOM     17  O   UNL A   1      29.466  25.784  24.003  1.00  0.00    -0.267 OA
ATOM     18  H   UNL A   1      29.833  23.540  24.815  1.00  0.00     0.191 HD
BRANCH  16  19
ATOM     19  C   UNL A   1      31.402  26.510  25.095  1.00  0.00     0.041 A 
ATOM     20  C   UNL A   1      32.971  28.707  25.832  1.00  0.00     0.119 A 
ATOM     21  C   UNL A   1      32.504  28.608  24.526  1.00  0.00     0.047 A 
ATOM     22  C   UNL A   1      32.642  27.738  26.779  1.00  0.00     0.047 A 
ATOM     23  C   UNL A   1      31.726  27.506  24.157  1.00  0.00     0.018 A 
ATOM     24  C   UNL A   1      31.847  26.644  26.415  1.00  0.00     0.018 A 
BRANCH  20  25
ATOM     25  O   UNL A   1      33.610  29.846  26.236  1.00  0.00    -0.494 OA
BRANCH  25  26
ATOM     26  C   UNL A   1      32.888  30.551  27.251  1.00  0.00     0.226 C 
ATOM     27  C   UNL A   1      31.776  31.375  26.621  1.00  0.00     0.049 C 
ENDBRANCH  25  26
ENDBRANCH  20  25
ENDBRANCH  16  19
ENDBRANCH  12  15
ENDBRANCH   6  11
ENDBRANCH   1   5
BRANCH   3  28
ATOM     28  C   UNL A   1      36.108  19.957  25.002  1.00  0.00     0.117 C 
BRANCH  28  29
ATOM     29  C   UNL A   1      37.576  20.078  24.610  1.00  0.00     0.042 C 
BRANCH  29  30
ATOM     30  C   UNL A   1      38.525  20.400  25.751  1.00  0.00     0.118 C 
BRANCH  30  31
ATOM     31  N   UNL A   1      39.593  19.423  25.858  1.00  0.00    -0.352 N 
ATOM     32  C   UNL A   1      40.932  19.612  26.102  1.00  0.00     0.251 C 
ATOM     33  H   UNL A   1      39.317  18.485  25.739  1.00  0.00     0.163 HD
ATOM     34  O   UNL A   1      41.713  18.685  25.910  1.00  0.00    -0.269 OA
BRANCH  32  35
ATOM     35  C   UNL A   1      41.447  20.920  26.574  1.00  0.00     0.039 A 
ATOM     36  C   UNL A   1      41.443  21.185  27.948  1.00  0.00     0.014 A 
ATOM     37  C   UNL A   1      41.866  21.913  25.683  1.00  0.00     0.014 A 
ATOM     38  C   UNL A   1      41.883  22.424  28.424  1.00  0.00     0.010 A 
ATOM     39  C   UNL A   1      42.389  23.112  26.163  1.00  0.00     0.010 A 
ATOM     40  C   UNL A   1      42.372  23.395  27.535  1.00  0.00    -0.014 A 
BRANCH  40  41
ATOM     41  C   UNL A   1      42.797  24.734  28.017  1.00  0.00     0.031 A 
ATOM     42  C   UNL A   1      41.763  25.792  28.308  1.00  0.00     0.074 A 
ATOM     43  C   UNL A   1      44.105  25.020  28.159  1.00  0.00     0.049 A 
ATOM     44  N   UNL A   1      41.929  27.034  28.689  1.00  0.00    -0.248 NA
ATOM     45  C   UNL A   1      40.354  25.411  28.117  1.00  0.00     0.031 C 
ATOM     46  C   UNL A   1      45.210  24.108  27.864  1.00  0.00     0.029 A 
ATOM     47  N   UNL A   1      44.725  26.169  28.583  1.00  0.00    -0.354 N 
ATOM     48  C   UNL A   1      40.654  27.583  28.759  1.00  0.00     0.074 A 
ATOM     49  C   UNL A   1      39.728  26.557  28.331  1.00  0.00     0.031 C 
ATOM     50  C   UNL A   1      46.372  24.724  28.138  1.00  0.00     0.029 A 
ATOM     51  C   UNL A   1      46.095  26.080  28.602  1.00  0.00     0.049 A 
ATOM     52  H   UNL A   1      44.234  26.980  28.849  1.00  0.00     0.167 HD
ATOM     53  C   UNL A   1      40.282  28.820  29.166  1.00  0.00     0.037 A 
ATOM     54  C   UNL A   1      47.022  26.989  28.958  1.00  0.00     0.037 A 
ATOM     55  C   UNL A   1      41.195  29.828  29.633  1.00  0.00     0.049 A 
ATOM     56  C   UNL A   1      46.585  28.342  29.447  1.00  0.00     0.074 A 
ATOM     57  C   UNL A   1      40.911  31.093  30.119  1.00  0.00     0.029 A 
ATOM     58  N   UNL A   1      42.572  29.681  29.680  1.00  0.00    -0.354 N 
ATOM     59  N   UNL A   1      45.372  28.826  29.561  1.00  0.00    -0.248 NA
ATOM     60  C   UNL A   1      47.645  29.268  29.869  1.00  0.00     0.031 C 
ATOM     61  C   UNL A   1      42.121  31.720  30.439  1.00  0.00     0.029 A 
ATOM     62  C   UNL A   1      43.154  30.833  30.183  1.00  0.00     0.049 A 
ATOM     63  H   UNL A   1      43.065  28.876  29.397  1.00  0.00     0.167 HD
ATOM     64  C   UNL A   1      45.521  30.102  30.090  1.00  0.00     0.074 A 
ATOM     65  C   UNL A   1      46.940  30.311  30.286  1.00  0.00     0.031 C 
ATOM     66  C   UNL A   1      44.567  31.018  30.385  1.00  0.00     0.037 A 
BRANCH  53  67
ATOM     67  C   UNL A   1      38.817  29.142  29.136  1.00  0.00     0.057 A 
ATOM     68  C   UNL A   1      38.016  29.038  30.281  1.00  0.00     0.134 A 
ATOM     69  C   UNL A   1      38.203  29.577  27.954  1.00  0.00     0.134 A 
ATOM     70  F   UNL A   1      38.541  28.613  31.440  1.00  0.00    -0.206 F 
ATOM     71  C   UNL A   1      36.652  29.327  30.246  1.00  0.00     0.040 A 
ATOM     72  C   UNL A   1      36.844  29.893  27.914  1.00  0.00     0.040 A 
ATOM     73  F   UNL A   1      38.912  29.703  26.823  1.00  0.00    -0.206 F 
ATOM     74  C   UNL A   1      36.062  29.762  29.060  1.00  0.00     0.006 A 
ENDBRANCH  53  67
BRANCH  54  75
ATOM     75  C   UNL A   1      48.461  26.634  28.903  1.00  0.00     0.057 A 
ATOM     76  C   UNL A   1      49.238  26.945  27.781  1.00  0.00     0.134 A 
ATOM     77  C   UNL A   1      49.092  25.977  29.965  1.00  0.00     0.134 A 
ATOM     78  F   UNL A   1      48.683  27.557  26.725  1.00  0.00    -0.206 F 
ATOM     79  C   UNL A   1      50.589  26.603  27.709  1.00  0.00     0.040 A 
ATOM     80  C   UNL A   1      50.448  25.648  29.917  1.00  0.00     0.040 A 
ATOM     81  F   UNL A   1      48.401  25.656  31.068  1.00  0.00    -0.206 F 
ATOM     82  C   UNL A   1      51.199  25.955  28.784  1.00  0.00     0.006 A 
ENDBRANCH  54  75
BRANCH  66  83
ATOM     83  C   UNL A   1      45.024  32.313  30.985  1.00  0.00     0.057 A 
ATOM     84  C   UNL A   1      45.416  33.397  30.190  1.00  0.00     0.134 A 
ATOM     85  C   UNL A   1      45.038  32.488  32.374  1.00  0.00     0.134 A 
ATOM     86  F   UNL A   1      45.435  33.288  28.853  1.00  0.00    -0.206 F 
ATOM     87  C   UNL A   1      45.825  34.605  30.757  1.00  0.00     0.040 A 
ATOM     88  C   UNL A   1      45.425  33.698  32.953  1.00  0.00     0.040 A 
ATOM     89  F   UNL A   1      44.667  31.490  33.191  1.00  0.00    -0.206 F 
ATOM     90  C   UNL A   1      45.825  34.759  32.143  1.00  0.00     0.006 A 
ENDBRANCH  66  83
ENDBRANCH  40  41
ENDBRANCH  32  35
ENDBRANCH  30  31
ENDBRANCH  29  30
ENDBRANCH  28  29
ENDBRANCH   3  28
TORSDOF 15
ENDMDL
MODEL 3
REMARK VINA RESULT:     -11.9      3.999      9.346
REMARK SMILES CCOc1ccc(C(=O)NNC(=O)[C@H]2CC=CC[C@H]2C(=O)NCCCNC(=O)c2ccc(-c3c4nc(c(-c5c(F)cccc5F)c5ccc([nH]5)c(-c5c(F)cccc5F)c5nc(c(-c6c(F)cccc6F)c6ccc3[nH]6)C=C5)C=C4)cc2)cc1
REMARK SMILES IDX 20 1 21 2 22 3 19 5 14 6 15 7 16 8 18 9 17 10 12 11 11 12
REMARK SMILES IDX 13 14 10 15 8 16 9 17 7 19 4 20 5 21 84 22 6 23 83 24 3 25
REMARK SMILES IDX 2 26 1 27 23 28 24 29 25 30 26 31 27 32 28 34 29 35 30 36
REMARK SMILES IDX 82 37 31 38 81 39 32 40 33 41 34 42 75 43 35 44 80 45 74 46
REMARK SMILES IDX 76 47 36 48 79 49 73 50 72 51 37 53 63 54 46 55 62 56 47 57
REMARK SMILES IDX 50 58 61 59 77 60 48 61 49 62 60 64 78 65 51 66 38 67 39 68
REMARK SMILES IDX 44 69 40 70 41 71 43 72 45 73 42 74 64 75 65 76 70 77 66 78
REMARK SMILES IDX 67 79 69 80 71 81 68 82 52 83 53 84 58 85 54 86 55 87 57 88
REMARK SMILES IDX 59 89 56 90
REMARK H PARENT 22 4 11 13 10 18 26 33 76 52 50 63
REMARK Flexibility Score: inf
ROOT
ATOM      1  C   UNL A   1      32.455  28.898  25.077  1.00  0.00     0.224 C 
ATOM      2  O   UNL A   1      33.609  28.596  24.756  1.00  0.00    -0.275 OA
ATOM      3  N   UNL A   1      32.150  30.219  25.061  1.00  0.00    -0.356 N 
ATOM      4  H   UNL A   1      32.905  30.789  24.786  1.00  0.00     0.163 HD
ENDROOT
BRANCH   1   5
ATOM      5  C   UNL A   1      31.473  27.799  25.461  1.00  0.00     0.095 C 
ATOM      6  C   UNL A   1      30.604  27.280  24.293  1.00  0.00     0.097 C 
ATOM      7  C   UNL A   1      29.637  26.186  24.768  1.00  0.00     0.041 C 
ATOM      8  C   UNL A   1      30.289  25.155  25.638  1.00  0.00    -0.030 C 
ATOM      9  C   UNL A   1      32.052  26.748  26.422  1.00  0.00     0.041 C 
ATOM     10  C   UNL A   1      31.382  25.409  26.369  1.00  0.00    -0.030 C 
BRANCH   6  11
ATOM     11  C   UNL A   1      31.365  26.935  23.015  1.00  0.00     0.242 C 
ATOM     12  N   UNL A   1      32.450  26.088  23.122  1.00  0.00    -0.267 N 
ATOM     13  H   UNL A   1      33.330  26.391  23.445  1.00  0.00     0.191 HD
ATOM     14  O   UNL A   1      31.043  27.408  21.925  1.00  0.00    -0.273 OA
BRANCH  12  15
ATOM     15  N   UNL A   1      32.202  24.752  22.736  1.00  0.00    -0.263 N 
ATOM     16  C   UNL A   1      32.927  23.626  23.063  1.00  0.00     0.269 C 
ATOM     17  O   UNL A   1      32.433  22.522  22.832  1.00  0.00    -0.267 OA
ATOM     18  H   UNL A   1      31.416  24.607  22.162  1.00  0.00     0.191 HD
BRANCH  16  19
ATOM     19  C   UNL A   1      34.278  23.680  23.682  1.00  0.00     0.041 A 
ATOM     20  C   UNL A   1      36.712  23.578  25.061  1.00  0.00     0.119 A 
ATOM     21  C   UNL A   1      35.572  24.028  25.718  1.00  0.00     0.047 A 
ATOM     22  C   UNL A   1      36.645  23.154  23.734  1.00  0.00     0.047 A 
ATOM     23  C   UNL A   1      34.358  24.084  25.026  1.00  0.00     0.018 A 
ATOM     24  C   UNL A   1      35.426  23.192  23.046  1.00  0.00     0.018 A 
BRANCH  20  25
ATOM     25  O   UNL A   1      37.866  23.386  25.766  1.00  0.00    -0.494 OA
BRANCH  25  26
ATOM     26  C   UNL A   1      38.248  22.008  25.832  1.00  0.00     0.226 C 
ATOM     27  C   UNL A   1      39.732  21.894  26.140  1.00  0.00     0.049 C 
ENDBRANCH  25  26
ENDBRANCH  20  25
ENDBRANCH  16  19
ENDBRANCH  12  15
ENDBRANCH   6  11
ENDBRANCH   1   5
BRANCH   3  28
ATOM     28  C   UNL A   1      30.944  30.970  25.366  1.00  0.00     0.117 C 
BRANCH  28  29
ATOM     29  C   UNL A   1      31.070  31.844  26.608  1.00  0.00     0.042 C 
BRANCH  29  30
ATOM     30  C   UNL A   1      32.459  32.400  26.868  1.00  0.00     0.118 C 
BRANCH  30  31
ATOM     31  N   UNL A   1      32.414  33.780  27.317  1.00  0.00    -0.352 N 
ATOM     32  C   UNL A   1      33.115  34.397  28.324  1.00  0.00     0.251 C 
ATOM     33  H   UNL A   1      31.788  34.360  26.825  1.00  0.00     0.163 HD
ATOM     34  O   UNL A   1      32.759  35.506  28.711  1.00  0.00    -0.269 OA
BRANCH  32  35
ATOM     35  C   UNL A   1      34.281  33.738  28.961  1.00  0.00     0.039 A 
ATOM     36  C   UNL A   1      35.561  34.236  28.694  1.00  0.00     0.014 A 
ATOM     37  C   UNL A   1      34.139  32.597  29.757  1.00  0.00     0.014 A 
ATOM     38  C   UNL A   1      36.684  33.612  29.245  1.00  0.00     0.010 A 
ATOM     39  C   UNL A   1      35.250  32.031  30.378  1.00  0.00     0.010 A 
ATOM     40  C   UNL A   1      36.537  32.510  30.104  1.00  0.00    -0.014 A 
BRANCH  40  41
ATOM     41  C   UNL A   1      37.721  31.805  30.658  1.00  0.00     0.031 A 
ATOM     42  C   UNL A   1      38.221  32.143  32.039  1.00  0.00     0.074 A 
ATOM     43  C   UNL A   1      38.373  30.889  29.916  1.00  0.00     0.049 A 
ATOM     44  N   UNL A   1      39.262  31.679  32.682  1.00  0.00    -0.248 NA
ATOM     45  C   UNL A   1      37.466  33.163  32.785  1.00  0.00     0.031 C 
ATOM     46  C   UNL A   1      38.027  30.503  28.547  1.00  0.00     0.029 A 
ATOM     47  N   UNL A   1      39.472  30.122  30.211  1.00  0.00    -0.354 N 
ATOM     48  C   UNL A   1      39.299  32.364  33.891  1.00  0.00     0.074 A 
ATOM     49  C   UNL A   1      38.207  33.313  33.872  1.00  0.00     0.031 C 
ATOM     50  C   UNL A   1      38.882  29.556  28.129  1.00  0.00     0.029 A 
ATOM     51  C   UNL A   1      39.850  29.286  29.189  1.00  0.00     0.049 A 
ATOM     52  H   UNL A   1      39.944  30.166  31.073  1.00  0.00     0.167 HD
ATOM     53  C   UNL A   1      40.146  32.202  34.936  1.00  0.00     0.037 A 
ATOM     54  C   UNL A   1      40.861  28.399  29.118  1.00  0.00     0.037 A 
ATOM     55  C   UNL A   1      41.205  31.231  34.977  1.00  0.00     0.049 A 
ATOM     56  C   UNL A   1      41.763  28.207  30.304  1.00  0.00     0.074 A 
ATOM     57  C   UNL A   1      42.082  30.952  36.011  1.00  0.00     0.029 A 
ATOM     58  N   UNL A   1      41.525  30.371  33.938  1.00  0.00    -0.354 N 
ATOM     59  N   UNL A   1      41.748  28.822  31.462  1.00  0.00    -0.248 NA
ATOM     60  C   UNL A   1      42.813  27.186  30.179  1.00  0.00     0.031 C 
ATOM     61  C   UNL A   1      42.948  29.938  35.588  1.00  0.00     0.029 A 
ATOM     62  C   UNL A   1      42.589  29.564  34.304  1.00  0.00     0.049 A 
ATOM     63  H   UNL A   1      41.064  30.340  33.068  1.00  0.00     0.167 HD
ATOM     64  C   UNL A   1      42.768  28.249  32.210  1.00  0.00     0.074 A 
ATOM     65  C   UNL A   1      43.373  27.227  31.381  1.00  0.00     0.031 C 
ATOM     66  C   UNL A   1      43.168  28.543  33.471  1.00  0.00     0.037 A 
BRANCH  53  67
ATOM     67  C   UNL A   1      39.946  33.093  36.126  1.00  0.00     0.057 A 
ATOM     68  C   UNL A   1      40.616  34.317  36.252  1.00  0.00     0.134 A 
ATOM     69  C   UNL A   1      39.061  32.733  37.151  1.00  0.00     0.134 A 
ATOM     70  F   UNL A   1      41.489  34.713  35.312  1.00  0.00    -0.206 F 
ATOM     71  C   UNL A   1      40.436  35.137  37.366  1.00  0.00     0.040 A 
ATOM     72  C   UNL A   1      38.854  33.558  38.257  1.00  0.00     0.040 A 
ATOM     73  F   UNL A   1      38.383  31.577  37.092  1.00  0.00    -0.206 F 
ATOM     74  C   UNL A   1      39.547  34.761  38.371  1.00  0.00     0.006 A 
ENDBRANCH  53  67
BRANCH  54  75
ATOM     75  C   UNL A   1      41.049  27.594  27.886  1.00  0.00     0.057 A 
ATOM     76  C   UNL A   1      41.829  28.069  26.827  1.00  0.00     0.134 A 
ATOM     77  C   UNL A   1      40.454  26.336  27.739  1.00  0.00     0.134 A 
ATOM     78  F   UNL A   1      42.407  29.276  26.903  1.00  0.00    -0.206 F 
ATOM     79  C   UNL A   1      42.001  27.329  25.656  1.00  0.00     0.040 A 
ATOM     80  C   UNL A   1      40.635  25.574  26.584  1.00  0.00     0.040 A 
ATOM     81  F   UNL A   1      39.698  25.825  28.722  1.00  0.00    -0.206 F 
ATOM     82  C   UNL A   1      41.406  26.073  25.535  1.00  0.00     0.006 A 
ENDBRANCH  54  75
BRANCH  66  83
ATOM     83  C   UNL A   1      44.287  27.726  34.042  1.00  0.00     0.057 A 
ATOM     84  C   UNL A   1      45.623  28.138  33.951  1.00  0.00     0.134 A 
ATOM     85  C   UNL A   1      44.021  26.531  34.722  1.00  0.00     0.134 A 
ATOM     86  F   UNL A   1      45.943  29.267  33.302  1.00  0.00    -0.206 F 
ATOM     87  C   UNL A   1      46.657  27.377  34.499  1.00  0.00     0.040 A 
ATOM     88  C   UNL A   1      45.045  25.774  35.293  1.00  0.00     0.040 A 
ATOM     89  F   UNL A   1      42.762  26.086  34.851  1.00  0.00    -0.206 F 
ATOM     90  C   UNL A   1      46.368  26.194  35.178  1.00  0.00     0.006 A 
ENDBRANCH  66  83
ENDBRANCH  40  41
ENDBRANCH  32  35
ENDBRANCH  30  31
ENDBRANCH  29  30
ENDBRANCH  28  29
ENDBRANCH   3  28
TORSDOF 15
ENDMDL
