MODEL 1
REMARK VINA RESULT:     -11.5      0.000      0.000
REMARK SMILES CSCc1ccc(C(=O)N[C@H]2C=C[C@@H](C(=O)NCCCNC(=O)c3ccc(-c4c5nc(c(-c6c(F)cccc6F)c6ccc([nH]6)c(-c6c(F)cccc6F)c6nc(c(-c7c(F)cccc7F)c7ccc4[nH]7)C=C6)C=C5)cc3)C2)o1
REMARK SMILES IDX 18 1 17 2 15 3 16 4 14 6 11 7 12 8 78 9 13 10 10 11 8 12
REMARK SMILES IDX 9 13 7 15 4 16 5 17 79 18 6 19 3 20 2 21 1 22 19 23 20 24
REMARK SMILES IDX 21 25 22 26 23 28 24 29 25 30 77 31 26 32 76 33 27 34 28 35
REMARK SMILES IDX 29 36 70 37 30 38 75 39 69 40 71 41 31 42 74 43 68 44 67 45
REMARK SMILES IDX 32 47 58 48 41 49 57 50 42 51 45 52 56 53 72 54 43 55 44 56
REMARK SMILES IDX 55 58 73 59 46 60 33 61 34 62 39 63 35 64 36 65 38 66 40 67
REMARK SMILES IDX 37 68 59 69 60 70 65 71 61 72 62 73 64 74 66 75 63 76 47 77
REMARK SMILES IDX 48 78 53 79 49 80 50 81 52 82 54 83 51 84
REMARK H PARENT 17 5 10 14 21 27 71 46 45 57
REMARK Flexibility Score: inf
ROOT
ATOM      1  C   UNL A   1      36.142  20.562  25.325  1.00  0.00     0.117 C 
ENDROOT
BRANCH   1   2
ATOM      2  N   UNL A   1      34.919  19.931  24.856  1.00  0.00    -0.356 N 
ATOM      3  C   UNL A   1      33.691  20.442  24.569  1.00  0.00     0.227 C 
ATOM      4  O   UNL A   1      32.822  19.648  24.196  1.00  0.00    -0.274 OA
ATOM      5  H   UNL A   1      34.993  18.958  24.720  1.00  0.00     0.163 HD
BRANCH   3   6
ATOM      6  C   UNL A   1      33.377  21.932  24.665  1.00  0.00     0.103 C 
ATOM      7  C   UNL A   1      33.041  23.856  23.196  1.00  0.00     0.106 C 
ATOM      8  C   UNL A   1      31.746  23.214  23.584  1.00  0.00    -0.006 C 
ATOM      9  C   UNL A   1      34.085  22.819  23.634  1.00  0.00     0.047 C 
ATOM     10  C   UNL A   1      31.922  22.200  24.434  1.00  0.00    -0.016 C 
BRANCH   7  11
ATOM     11  N   UNL A   1      33.039  24.129  21.783  1.00  0.00    -0.343 N 
ATOM     12  C   UNL A   1      32.831  25.321  21.121  1.00  0.00     0.287 C 
ATOM     13  O   UNL A   1      32.981  25.277  19.893  1.00  0.00    -0.266 OA
ATOM     14  H   UNL A   1      33.210  23.351  21.204  1.00  0.00     0.164 HD
BRANCH  12  15
ATOM     15  C   UNL A   1      32.437  26.531  21.829  1.00  0.00     0.191 A 
ATOM     16  C   UNL A   1      30.925  27.912  22.690  1.00  0.00     0.114 A 
ATOM     17  C   UNL A   1      32.152  28.407  23.060  1.00  0.00     0.047 A 
ATOM     18  O   UNL A   1      31.085  26.764  21.973  1.00  0.00    -0.455 OA
ATOM     19  C   UNL A   1      33.110  27.567  22.458  1.00  0.00     0.056 A 
BRANCH  16  20
ATOM     20  C   UNL A   1      29.542  28.378  22.944  1.00  0.00     0.144 C 
BRANCH  20  21
ATOM     21  S   UNL A   1      29.365  30.189  22.793  1.00  0.00    -0.157 SA
ATOM     22  C   UNL A   1      28.155  30.297  21.447  1.00  0.00     0.085 C 
ENDBRANCH  20  21
ENDBRANCH  16  20
ENDBRANCH  12  15
ENDBRANCH   7  11
ENDBRANCH   3   6
ENDBRANCH   1   2
BRANCH   1  23
ATOM     23  C   UNL A   1      37.377  19.754  24.955  1.00  0.00     0.042 C 
BRANCH  23  24
ATOM     24  C   UNL A   1      38.679  20.404  25.396  1.00  0.00     0.118 C 
BRANCH  24  25
ATOM     25  N   UNL A   1      39.731  19.427  25.635  1.00  0.00    -0.352 N 
ATOM     26  C   UNL A   1      41.015  19.614  26.081  1.00  0.00     0.251 C 
ATOM     27  H   UNL A   1      39.484  18.491  25.450  1.00  0.00     0.163 HD
ATOM     28  O   UNL A   1      41.821  18.689  26.025  1.00  0.00    -0.269 OA
BRANCH  26  29
ATOM     29  C   UNL A   1      41.434  20.929  26.610  1.00  0.00     0.039 A 
ATOM     30  C   UNL A   1      41.980  21.868  25.732  1.00  0.00     0.014 A 
ATOM     31  C   UNL A   1      41.305  21.230  27.968  1.00  0.00     0.014 A 
ATOM     32  C   UNL A   1      42.340  23.131  26.206  1.00  0.00     0.010 A 
ATOM     33  C   UNL A   1      41.580  22.515  28.422  1.00  0.00     0.010 A 
ATOM     34  C   UNL A   1      42.112  23.475  27.548  1.00  0.00    -0.014 A 
BRANCH  34  35
ATOM     35  C   UNL A   1      42.438  24.827  28.066  1.00  0.00     0.031 A 
ATOM     36  C   UNL A   1      43.850  25.160  28.465  1.00  0.00     0.074 A 
ATOM     37  C   UNL A   1      41.454  25.729  28.243  1.00  0.00     0.049 A 
ATOM     38  N   UNL A   1      44.321  26.253  29.009  1.00  0.00    -0.248 NA
ATOM     39  C   UNL A   1      44.862  24.111  28.255  1.00  0.00     0.031 C 
ATOM     40  C   UNL A   1      40.039  25.510  27.939  1.00  0.00     0.029 A 
ATOM     41  N   UNL A   1      41.496  27.011  28.731  1.00  0.00    -0.354 N 
ATOM     42  C   UNL A   1      45.671  26.014  29.228  1.00  0.00     0.074 A 
ATOM     43  C   UNL A   1      45.936  24.657  28.805  1.00  0.00     0.031 C 
ATOM     44  C   UNL A   1      39.351  26.630  28.219  1.00  0.00     0.029 A 
ATOM     45  C   UNL A   1      40.269  27.628  28.758  1.00  0.00     0.049 A 
ATOM     46  H   UNL A   1      42.325  27.446  29.034  1.00  0.00     0.167 HD
ATOM     47  C   UNL A   1      46.610  26.857  29.718  1.00  0.00     0.037 A 
ATOM     48  C   UNL A   1      39.925  28.862  29.173  1.00  0.00     0.037 A 
ATOM     49  C   UNL A   1      46.351  28.221  30.098  1.00  0.00     0.049 A 
ATOM     50  C   UNL A   1      40.988  29.781  29.706  1.00  0.00     0.074 A 
ATOM     51  C   UNL A   1      47.251  29.182  30.525  1.00  0.00     0.029 A 
ATOM     52  N   UNL A   1      45.099  28.816  30.096  1.00  0.00    -0.354 N 
ATOM     53  N   UNL A   1      42.274  29.568  29.838  1.00  0.00    -0.248 NA
ATOM     54  C   UNL A   1      40.550  31.114  30.143  1.00  0.00     0.031 C 
ATOM     55  C   UNL A   1      46.535  30.347  30.823  1.00  0.00     0.029 A 
ATOM     56  C   UNL A   1      45.198  30.124  30.538  1.00  0.00     0.049 A 
ATOM     57  H   UNL A   1      44.264  28.373  29.820  1.00  0.00     0.167 HD
ATOM     58  C   UNL A   1      42.804  30.748  30.346  1.00  0.00     0.074 A 
ATOM     59  C   UNL A   1      41.701  31.675  30.487  1.00  0.00     0.031 C 
ATOM     60  C   UNL A   1      44.090  31.036  30.665  1.00  0.00     0.037 A 
BRANCH  47  61
ATOM     61  C   UNL A   1      48.006  26.327  29.869  1.00  0.00     0.057 A 
ATOM     62  C   UNL A   1      48.949  26.416  28.836  1.00  0.00     0.134 A 
ATOM     63  C   UNL A   1      48.422  25.744  31.072  1.00  0.00     0.134 A 
ATOM     64  F   UNL A   1      48.612  26.952  27.652  1.00  0.00    -0.206 F 
ATOM     65  C   UNL A   1      50.244  25.918  28.984  1.00  0.00     0.040 A 
ATOM     66  C   UNL A   1      49.722  25.268  31.242  1.00  0.00     0.040 A 
ATOM     67  F   UNL A   1      47.571  25.632  32.104  1.00  0.00    -0.206 F 
ATOM     68  C   UNL A   1      50.636  25.348  30.193  1.00  0.00     0.006 A 
ENDBRANCH  47  61
BRANCH  48  69
ATOM     69  C   UNL A   1      38.515  29.314  29.069  1.00  0.00     0.057 A 
ATOM     70  C   UNL A   1      37.674  29.297  30.188  1.00  0.00     0.134 A 
ATOM     71  C   UNL A   1      37.974  29.769  27.861  1.00  0.00     0.134 A 
ATOM     72  F   UNL A   1      38.130  28.853  31.368  1.00  0.00    -0.206 F 
ATOM     73  C   UNL A   1      36.339  29.699  30.106  1.00  0.00     0.040 A 
ATOM     74  C   UNL A   1      36.648  30.197  27.770  1.00  0.00     0.040 A 
ATOM     75  F   UNL A   1      38.732  29.815  26.755  1.00  0.00    -0.206 F 
ATOM     76  C   UNL A   1      35.826  30.155  28.895  1.00  0.00     0.006 A 
ENDBRANCH  48  69
BRANCH  60  77
ATOM     77  C   UNL A   1      44.376  32.422  31.163  1.00  0.00     0.057 A 
ATOM     78  C   UNL A   1      44.364  32.734  32.527  1.00  0.00     0.134 A 
ATOM     79  C   UNL A   1      44.706  33.445  30.265  1.00  0.00     0.134 A 
ATOM     80  F   UNL A   1      44.042  31.801  33.435  1.00  0.00    -0.206 F 
ATOM     81  C   UNL A   1      44.650  34.022  32.981  1.00  0.00     0.040 A 
ATOM     82  C   UNL A   1      45.018  34.731  30.709  1.00  0.00     0.040 A 
ATOM     83  F   UNL A   1      44.745  33.209  28.945  1.00  0.00    -0.206 F 
ATOM     84  C   UNL A   1      44.986  35.024  32.070  1.00  0.00     0.006 A 
ENDBRANCH  60  77
ENDBRANCH  34  35
ENDBRANCH  26  29
ENDBRANCH  24  25
ENDBRANCH  23  24
ENDBRANCH   1  23
TORSDOF 14
ENDMDL
MODEL 2
REMARK VINA RESULT:     -11.5      1.271      2.057
REMARK SMILES CSCc1ccc(C(=O)N[C@H]2C=C[C@@H](C(=O)NCCCNC(=O)c3ccc(-c4c5nc(c(-c6c(F)cccc6F)c6ccc([nH]6)c(-c6c(F)cccc6F)c6nc(c(-c7c(F)cccc7F)c7ccc4[nH]7)C=C6)C=C5)cc3)C2)o1
REMARK SMILES IDX 18 1 17 2 15 3 16 4 14 6 11 7 12 8 78 9 13 10 10 11 8 12
REMARK SMILES IDX 9 13 7 15 4 16 5 17 79 18 6 19 3 20 2 21 1 22 19 23 20 24
REMARK SMILES IDX 21 25 22 26 23 28 24 29 25 30 77 31 26 32 76 33 27 34 28 35
REMARK SMILES IDX 29 36 70 37 30 38 75 39 69 40 71 41 31 42 74 43 68 44 67 45
REMARK SMILES IDX 32 47 58 48 41 49 57 50 42 51 45 52 56 53 72 54 43 55 44 56
REMARK SMILES IDX 55 58 73 59 46 60 33 61 34 62 39 63 35 64 36 65 38 66 40 67
REMARK SMILES IDX 37 68 59 69 60 70 65 71 61 72 62 73 64 74 66 75 63 76 47 77
REMARK SMILES IDX 48 78 53 79 49 80 50 81 52 82 54 83 51 84
REMARK H PARENT 17 5 10 14 21 27 71 46 45 57
REMARK Flexibility Score: inf
ROOT
ATOM      1  C   UNL A   1      36.966  20.669  24.818  1.00  0.00     0.117 C 
ENDROOT
BRANCH   1   2
ATOM      2  N   UNL A   1      35.664  20.095  25.119  1.00  0.00    -0.356 N 
ATOM      3  C   UNL A   1      34.421  20.648  25.158  1.00  0.00     0.227 C 
ATOM      4  O   UNL A   1      33.484  19.906  25.466  1.00  0.00    -0.274 OA
ATOM      5  H   UNL A   1      35.685  19.134  25.332  1.00  0.00     0.163 HD
BRANCH   3   6
ATOM      6  C   UNL A   1      34.159  22.111  24.815  1.00  0.00     0.103 C 
ATOM      7  C   UNL A   1      32.531  23.868  25.301  1.00  0.00     0.106 C 
ATOM      8  C   UNL A   1      33.724  23.943  26.202  1.00  0.00    -0.006 C 
ATOM      9  C   UNL A   1      32.682  22.489  24.643  1.00  0.00     0.047 C 
ATOM     10  C   UNL A   1      34.642  23.022  25.900  1.00  0.00    -0.016 C 
BRANCH   7  11
ATOM     11  N   UNL A   1      31.330  24.020  26.079  1.00  0.00    -0.343 N 
ATOM     12  C   UNL A   1      30.462  25.090  26.151  1.00  0.00     0.287 C 
ATOM     13  O   UNL A   1      29.450  24.905  26.839  1.00  0.00    -0.266 OA
ATOM     14  H   UNL A   1      31.093  23.249  26.644  1.00  0.00     0.164 HD
BRANCH  12  15
ATOM     15  C   UNL A   1      30.745  26.351  25.480  1.00  0.00     0.191 A 
ATOM     16  C   UNL A   1      30.364  27.887  23.920  1.00  0.00     0.114 A 
ATOM     17  C   UNL A   1      31.340  28.403  24.737  1.00  0.00     0.047 A 
ATOM     18  O   UNL A   1      29.976  26.662  24.377  1.00  0.00    -0.455 OA
ATOM     19  C   UNL A   1      31.626  27.401  25.685  1.00  0.00     0.056 A 
BRANCH  16  20
ATOM     20  C   UNL A   1      29.688  28.416  22.713  1.00  0.00     0.144 C 
BRANCH  20  21
ATOM     21  S   UNL A   1      29.074  30.122  22.935  1.00  0.00    -0.157 SA
ATOM     22  C   UNL A   1      28.246  30.390  21.345  1.00  0.00     0.085 C 
ENDBRANCH  20  21
ENDBRANCH  16  20
ENDBRANCH  12  15
ENDBRANCH   7  11
ENDBRANCH   3   6
ENDBRANCH   1   2
BRANCH   1  23
ATOM     23  C   UNL A   1      38.083  19.643  24.948  1.00  0.00     0.042 C 
BRANCH  23  24
ATOM     24  C   UNL A   1      39.139  20.027  25.972  1.00  0.00     0.118 C 
BRANCH  24  25
ATOM     25  N   UNL A   1      40.338  19.209  25.864  1.00  0.00    -0.352 N 
ATOM     26  C   UNL A   1      41.656  19.564  26.003  1.00  0.00     0.251 C 
ATOM     27  H   UNL A   1      40.179  18.258  25.660  1.00  0.00     0.163 HD
ATOM     28  O   UNL A   1      42.538  18.775  25.674  1.00  0.00    -0.269 OA
BRANCH  26  29
ATOM     29  C   UNL A   1      42.015  20.896  26.533  1.00  0.00     0.039 A 
ATOM     30  C   UNL A   1      42.366  21.907  25.635  1.00  0.00     0.014 A 
ATOM     31  C   UNL A   1      42.022  21.144  27.908  1.00  0.00     0.014 A 
ATOM     32  C   UNL A   1      42.666  23.184  26.114  1.00  0.00     0.010 A 
ATOM     33  C   UNL A   1      42.233  22.436  28.377  1.00  0.00     0.010 A 
ATOM     34  C   UNL A   1      42.569  23.466  27.486  1.00  0.00    -0.014 A 
BRANCH  34  35
ATOM     35  C   UNL A   1      42.832  24.827  28.017  1.00  0.00     0.031 A 
ATOM     36  C   UNL A   1      44.226  25.219  28.425  1.00  0.00     0.074 A 
ATOM     37  C   UNL A   1      41.808  25.683  28.196  1.00  0.00     0.049 A 
ATOM     38  N   UNL A   1      44.644  26.328  28.979  1.00  0.00    -0.248 NA
ATOM     39  C   UNL A   1      45.284  24.218  28.211  1.00  0.00     0.031 C 
ATOM     40  C   UNL A   1      40.405  25.403  27.884  1.00  0.00     0.029 A 
ATOM     41  N   UNL A   1      41.790  26.961  28.694  1.00  0.00    -0.354 N 
ATOM     42  C   UNL A   1      46.003  26.148  29.203  1.00  0.00     0.074 A 
ATOM     43  C   UNL A   1      46.331  24.807  28.770  1.00  0.00     0.031 C 
ATOM     44  C   UNL A   1      39.667  26.488  28.169  1.00  0.00     0.029 A 
ATOM     45  C   UNL A   1      40.537  27.523  28.720  1.00  0.00     0.049 A 
ATOM     46  H   UNL A   1      42.597  27.430  29.004  1.00  0.00     0.167 HD
ATOM     47  C   UNL A   1      46.902  27.028  29.704  1.00  0.00     0.037 A 
ATOM     48  C   UNL A   1      40.136  28.736  29.143  1.00  0.00     0.037 A 
ATOM     49  C   UNL A   1      46.580  28.376  30.093  1.00  0.00     0.049 A 
ATOM     50  C   UNL A   1      41.154  29.698  29.689  1.00  0.00     0.074 A 
ATOM     51  C   UNL A   1      47.434  29.373  30.533  1.00  0.00     0.029 A 
ATOM     52  N   UNL A   1      45.303  28.914  30.090  1.00  0.00    -0.354 N 
ATOM     53  N   UNL A   1      42.447  29.542  29.825  1.00  0.00    -0.248 NA
ATOM     54  C   UNL A   1      40.655  31.007  30.134  1.00  0.00     0.031 C 
ATOM     55  C   UNL A   1      46.666  30.502  30.836  1.00  0.00     0.029 A 
ATOM     56  C   UNL A   1      45.341  30.222  30.543  1.00  0.00     0.049 A 
ATOM     57  H   UNL A   1      44.489  28.437  29.807  1.00  0.00     0.167 HD
ATOM     58  C   UNL A   1      42.923  30.740  30.345  1.00  0.00     0.074 A 
ATOM     59  C   UNL A   1      41.778  31.615  30.488  1.00  0.00     0.031 C 
ATOM     60  C   UNL A   1      44.192  31.083  30.672  1.00  0.00     0.037 A 
BRANCH  47  61
ATOM     61  C   UNL A   1      48.319  26.560  29.857  1.00  0.00     0.057 A 
ATOM     62  C   UNL A   1      48.751  25.868  30.997  1.00  0.00     0.134 A 
ATOM     63  C   UNL A   1      49.257  26.779  28.841  1.00  0.00     0.134 A 
ATOM     64  F   UNL A   1      47.907  25.636  32.013  1.00  0.00    -0.206 F 
ATOM     65  C   UNL A   1      50.073  25.437  31.132  1.00  0.00     0.040 A 
ATOM     66  C   UNL A   1      50.574  26.329  28.953  1.00  0.00     0.040 A 
ATOM     67  F   UNL A   1      48.909  27.430  27.721  1.00  0.00    -0.206 F 
ATOM     68  C   UNL A   1      50.986  25.662  30.105  1.00  0.00     0.006 A 
ENDBRANCH  47  61
BRANCH  48  69
ATOM     69  C   UNL A   1      38.708  29.125  29.037  1.00  0.00     0.057 A 
ATOM     70  C   UNL A   1      38.174  29.568  27.820  1.00  0.00     0.134 A 
ATOM     71  C   UNL A   1      37.845  29.069  30.137  1.00  0.00     0.134 A 
ATOM     72  F   UNL A   1      38.957  29.661  26.736  1.00  0.00    -0.206 F 
ATOM     73  C   UNL A   1      36.838  29.956  27.705  1.00  0.00     0.040 A 
ATOM     74  C   UNL A   1      36.501  29.432  30.031  1.00  0.00     0.040 A 
ATOM     75  F   UNL A   1      38.294  28.647  31.329  1.00  0.00    -0.206 F 
ATOM     76  C   UNL A   1      35.997  29.884  28.813  1.00  0.00     0.006 A 
ENDBRANCH  48  69
BRANCH  60  77
ATOM     77  C   UNL A   1      44.415  32.475  31.182  1.00  0.00     0.057 A 
ATOM     78  C   UNL A   1      44.396  32.774  32.550  1.00  0.00     0.134 A 
ATOM     79  C   UNL A   1      44.688  33.523  30.293  1.00  0.00     0.134 A 
ATOM     80  F   UNL A   1      44.126  31.817  33.450  1.00  0.00    -0.206 F 
ATOM     81  C   UNL A   1      44.622  34.070  33.015  1.00  0.00     0.040 A 
ATOM     82  C   UNL A   1      44.940  34.817  30.748  1.00  0.00     0.040 A 
ATOM     83  F   UNL A   1      44.730  33.302  28.971  1.00  0.00    -0.206 F 
ATOM     84  C   UNL A   1      44.902  35.095  32.112  1.00  0.00     0.006 A 
ENDBRANCH  60  77
ENDBRANCH  34  35
ENDBRANCH  26  29
ENDBRANCH  24  25
ENDBRANCH  23  24
ENDBRANCH   1  23
TORSDOF 14
ENDMDL
MODEL 3
REMARK VINA RESULT:     -11.5      2.093      6.662
REMARK SMILES CSCc1ccc(C(=O)N[C@H]2C=C[C@@H](C(=O)NCCCNC(=O)c3ccc(-c4c5nc(c(-c6c(F)cccc6F)c6ccc([nH]6)c(-c6c(F)cccc6F)c6nc(c(-c7c(F)cccc7F)c7ccc4[nH]7)C=C6)C=C5)cc3)C2)o1
REMARK SMILES IDX 18 1 17 2 15 3 16 4 14 6 11 7 12 8 78 9 13 10 10 11 8 12
REMARK SMILES IDX 9 13 7 15 4 16 5 17 79 18 6 19 3 20 2 21 1 22 19 23 20 24
REMARK SMILES IDX 21 25 22 26 23 28 24 29 25 30 77 31 26 32 76 33 27 34 28 35
REMARK SMILES IDX 29 36 70 37 30 38 75 39 69 40 71 41 31 42 74 43 68 44 67 45
REMARK SMILES IDX 32 47 58 48 41 49 57 50 42 51 45 52 56 53 72 54 43 55 44 56
REMARK SMILES IDX 55 58 73 59 46 60 33 61 34 62 39 63 35 64 36 65 38 66 40 67
REMARK SMILES IDX 37 68 59 69 60 70 65 71 61 72 62 73 64 74 66 75 63 76 47 77
REMARK SMILES IDX 48 78 53 79 49 80 50 81 52 82 54 83 51 84
REMARK H PARENT 17 5 10 14 21 27 71 46 45 57
REMARK Flexibility Score: inf
ROOT
ATOM      1  C   UNL A   1      36.754  20.642  24.861  1.00  0.00     0.117 C 
ENDROOT
BRANCH   1   2
ATOM      2  N   UNL A   1      35.451  20.102  25.217  1.00  0.00    -0.356 N 
ATOM      3  C   UNL A   1      34.225  20.686  25.301  1.00  0.00     0.227 C 
ATOM      4  O   UNL A   1      33.282  19.969  25.650  1.00  0.00    -0.274 OA
ATOM      5  H   UNL A   1      35.457  19.142  25.435  1.00  0.00     0.163 HD
BRANCH   3   6
ATOM      6  C   UNL A   1      33.986  22.153  24.959  1.00  0.00     0.103 C 
ATOM      7  C   UNL A   1      32.362  23.923  25.412  1.00  0.00     0.106 C 
ATOM      8  C   UNL A   1      33.531  23.982  26.344  1.00  0.00    -0.006 C 
ATOM      9  C   UNL A   1      32.518  22.546  24.750  1.00  0.00     0.047 C 
ATOM     10  C   UNL A   1      34.448  23.054  26.061  1.00  0.00    -0.016 C 
BRANCH   7  11
ATOM     11  N   UNL A   1      31.142  24.083  26.158  1.00  0.00    -0.343 N 
ATOM     12  C   UNL A   1      30.240  25.126  26.150  1.00  0.00     0.287 C 
ATOM     13  O   UNL A   1      29.221  24.949  26.830  1.00  0.00    -0.266 OA
ATOM     14  H   UNL A   1      30.919  23.339  26.764  1.00  0.00     0.164 HD
BRANCH  12  15
ATOM     15  C   UNL A   1      30.494  26.353  25.407  1.00  0.00     0.191 A 
ATOM     16  C   UNL A   1      31.385  28.374  25.179  1.00  0.00     0.114 A 
ATOM     17  C   UNL A   1      30.818  28.066  23.967  1.00  0.00     0.047 A 
ATOM     18  O   UNL A   1      31.222  27.335  26.046  1.00  0.00    -0.455 OA
ATOM     19  C   UNL A   1      30.198  26.812  24.133  1.00  0.00     0.056 A 
BRANCH  16  20
ATOM     20  C   UNL A   1      32.119  29.566  25.665  1.00  0.00     0.144 C 
BRANCH  20  21
ATOM     21  S   UNL A   1      33.422  29.152  26.875  1.00  0.00    -0.157 SA
ATOM     22  C   UNL A   1      33.927  30.810  27.405  1.00  0.00     0.085 C 
ENDBRANCH  20  21
ENDBRANCH  16  20
ENDBRANCH  12  15
ENDBRANCH   7  11
ENDBRANCH   3   6
ENDBRANCH   1   2
BRANCH   1  23
ATOM     23  C   UNL A   1      37.857  19.602  25.000  1.00  0.00     0.042 C 
BRANCH  23  24
ATOM     24  C   UNL A   1      39.069  20.105  25.768  1.00  0.00     0.118 C 
BRANCH  24  25
ATOM     25  N   UNL A   1      40.107  19.092  25.888  1.00  0.00    -0.352 N 
ATOM     26  C   UNL A   1      41.453  19.240  26.108  1.00  0.00     0.251 C 
ATOM     27  H   UNL A   1      39.796  18.161  25.799  1.00  0.00     0.163 HD
ATOM     28  O   UNL A   1      42.202  18.275  25.975  1.00  0.00    -0.269 OA
BRANCH  26  29
ATOM     29  C   UNL A   1      42.004  20.557  26.488  1.00  0.00     0.039 A 
ATOM     30  C   UNL A   1      42.388  21.445  25.479  1.00  0.00     0.014 A 
ATOM     31  C   UNL A   1      42.157  20.912  27.831  1.00  0.00     0.014 A 
ATOM     32  C   UNL A   1      42.869  22.711  25.819  1.00  0.00     0.010 A 
ATOM     33  C   UNL A   1      42.552  22.202  28.166  1.00  0.00     0.010 A 
ATOM     34  C   UNL A   1      42.923  23.111  27.163  1.00  0.00    -0.014 A 
BRANCH  34  35
ATOM     35  C   UNL A   1      43.383  24.468  27.549  1.00  0.00     0.031 A 
ATOM     36  C   UNL A   1      42.382  25.514  27.960  1.00  0.00     0.074 A 
ATOM     37  C   UNL A   1      44.690  24.780  27.461  1.00  0.00     0.049 A 
ATOM     38  N   UNL A   1      42.576  26.773  28.257  1.00  0.00    -0.248 NA
ATOM     39  C   UNL A   1      40.972  25.095  28.014  1.00  0.00     0.031 C 
ATOM     40  C   UNL A   1      45.752  23.869  27.030  1.00  0.00     0.029 A 
ATOM     41  N   UNL A   1      45.347  25.956  27.723  1.00  0.00    -0.354 N 
ATOM     42  C   UNL A   1      41.315  27.300  28.506  1.00  0.00     0.074 A 
ATOM     43  C   UNL A   1      40.359  26.239  28.278  1.00  0.00     0.031 C 
ATOM     44  C   UNL A   1      46.930  24.510  27.085  1.00  0.00     0.029 A 
ATOM     45  C   UNL A   1      46.703  25.885  27.517  1.00  0.00     0.049 A 
ATOM     46  H   UNL A   1      44.890  26.772  28.029  1.00  0.00     0.167 HD
ATOM     47  C   UNL A   1      40.985  28.550  28.908  1.00  0.00     0.037 A 
ATOM     48  C   UNL A   1      47.655  26.827  27.660  1.00  0.00     0.037 A 
ATOM     49  C   UNL A   1      41.943  29.591  29.175  1.00  0.00     0.049 A 
ATOM     50  C   UNL A   1      47.263  28.204  28.114  1.00  0.00     0.074 A 
ATOM     51  C   UNL A   1      41.716  30.864  29.668  1.00  0.00     0.029 A 
ATOM     52  N   UNL A   1      43.309  29.477  28.970  1.00  0.00    -0.354 N 
ATOM     53  N   UNL A   1      46.076  28.668  28.417  1.00  0.00    -0.248 NA
ATOM     54  C   UNL A   1      48.347  29.188  28.251  1.00  0.00     0.031 C 
ATOM     55  C   UNL A   1      42.943  31.536  29.721  1.00  0.00     0.029 A 
ATOM     56  C   UNL A   1      43.937  30.665  29.303  1.00  0.00     0.049 A 
ATOM     57  H   UNL A   1      43.765  28.670  28.637  1.00  0.00     0.167 HD
ATOM     58  C   UNL A   1      46.271  29.987  28.808  1.00  0.00     0.074 A 
ATOM     59  C   UNL A   1      47.693  30.244  28.713  1.00  0.00     0.031 C 
ATOM     60  C   UNL A   1      45.355  30.902  29.210  1.00  0.00     0.037 A 
BRANCH  47  61
ATOM     61  C   UNL A   1      39.527  28.859  29.085  1.00  0.00     0.057 A 
ATOM     62  C   UNL A   1      38.730  29.304  28.022  1.00  0.00     0.134 A 
ATOM     63  C   UNL A   1      38.906  28.682  30.328  1.00  0.00     0.134 A 
ATOM     64  F   UNL A   1      39.265  29.506  26.808  1.00  0.00    -0.206 F 
ATOM     65  C   UNL A   1      37.375  29.590  28.197  1.00  0.00     0.040 A 
ATOM     66  C   UNL A   1      37.546  28.939  30.508  1.00  0.00     0.040 A 
ATOM     67  F   UNL A   1      39.610  28.253  31.387  1.00  0.00    -0.206 F 
ATOM     68  C   UNL A   1      36.778  29.402  29.441  1.00  0.00     0.006 A 
ENDBRANCH  47  61
BRANCH  48  69
ATOM     69  C   UNL A   1      49.077  26.490  27.401  1.00  0.00     0.057 A 
ATOM     70  C   UNL A   1      49.624  26.626  26.120  1.00  0.00     0.134 A 
ATOM     71  C   UNL A   1      49.919  26.025  28.417  1.00  0.00     0.134 A 
ATOM     72  F   UNL A   1      48.860  27.049  25.103  1.00  0.00    -0.206 F 
ATOM     73  C   UNL A   1      50.954  26.296  25.853  1.00  0.00     0.040 A 
ATOM     74  C   UNL A   1      51.258  25.714  28.171  1.00  0.00     0.040 A 
ATOM     75  F   UNL A   1      49.457  25.879  29.668  1.00  0.00    -0.206 F 
ATOM     76  C   UNL A   1      51.776  25.842  26.883  1.00  0.00     0.006 A 
ENDBRANCH  48  69
BRANCH  60  77
ATOM     77  C   UNL A   1      45.868  32.252  29.612  1.00  0.00     0.057 A 
ATOM     78  C   UNL A   1      46.287  32.525  30.920  1.00  0.00     0.134 A 
ATOM     79  C   UNL A   1      45.978  33.281  28.668  1.00  0.00     0.134 A 
ATOM     80  F   UNL A   1      46.193  31.586  31.873  1.00  0.00    -0.206 F 
ATOM     81  C   UNL A   1      46.778  33.780  31.280  1.00  0.00     0.040 A 
ATOM     82  C   UNL A   1      46.492  34.532  29.010  1.00  0.00     0.040 A 
ATOM     83  F   UNL A   1      45.602  33.082  27.396  1.00  0.00    -0.206 F 
ATOM     84  C   UNL A   1      46.889  34.787  30.321  1.00  0.00     0.006 A 
ENDBRANCH  60  77
ENDBRANCH  34  35
ENDBRANCH  26  29
ENDBRANCH  24  25
ENDBRANCH  23  24
ENDBRANCH   1  23
TORSDOF 14
ENDMDL
