MODEL 1
REMARK VINA RESULT:     -12.1      0.000      0.000
REMARK SMILES CSc1cccc(NC(=O)N[C@@H]2C=C[C@@H](C(=O)NCCCNC(=O)c3ccc(-c4c5nc(c(-c6c(F)cccc6F)c6ccc([nH]6)c(-c6c(F)cccc6F)c6nc(c(-c7c(F)cccc7F)c7ccc4[nH]7)C=C6)C=C5)cc3)C2)c1
REMARK SMILES IDX 19 1 18 2 16 3 17 4 15 6 12 7 13 8 79 9 14 10 11 11 8 12
REMARK SMILES IDX 9 13 10 15 7 17 3 18 4 19 80 20 5 21 6 22 2 23 1 24 20 25
REMARK SMILES IDX 21 26 22 27 23 28 24 30 25 31 26 32 78 33 27 34 77 35 28 36
REMARK SMILES IDX 29 37 30 38 71 39 31 40 76 41 70 42 72 43 32 44 75 45 69 46
REMARK SMILES IDX 68 47 33 49 59 50 42 51 58 52 43 53 46 54 57 55 73 56 44 57
REMARK SMILES IDX 45 58 56 60 74 61 47 62 34 63 35 64 40 65 36 66 37 67 39 68
REMARK SMILES IDX 41 69 38 70 60 71 61 72 66 73 62 74 63 75 65 76 67 77 64 78
REMARK SMILES IDX 48 79 49 80 54 81 50 82 51 83 53 84 55 85 52 86
REMARK H PARENT 18 5 8 14 11 16 22 29 72 48 46 59
REMARK Flexibility Score: inf
ROOT
ATOM      1  C   UNL A   1      36.630  20.725  24.995  1.00  0.00     0.117 C 
ENDROOT
BRANCH   1   2
ATOM      2  N   UNL A   1      36.374  21.791  24.040  1.00  0.00    -0.356 N 
ATOM      3  C   UNL A   1      35.265  22.506  23.716  1.00  0.00     0.227 C 
ATOM      4  O   UNL A   1      35.481  23.603  23.179  1.00  0.00    -0.274 OA
ATOM      5  H   UNL A   1      37.170  22.049  23.521  1.00  0.00     0.163 HD
BRANCH   3   6
ATOM      6  C   UNL A   1      33.807  22.069  23.928  1.00  0.00     0.103 C 
ATOM      7  C   UNL A   1      31.941  23.203  24.987  1.00  0.00     0.107 C 
ATOM      8  C   UNL A   1      31.706  23.050  23.524  1.00  0.00    -0.006 C 
ATOM      9  C   UNL A   1      33.146  22.313  25.277  1.00  0.00     0.047 C 
ATOM     10  C   UNL A   1      32.789  22.539  22.927  1.00  0.00    -0.016 C 
BRANCH   7  11
ATOM     11  N   UNL A   1      30.779  22.865  25.759  1.00  0.00    -0.332 N 
ATOM     12  N   UNL A   1      29.988  24.987  26.503  1.00  0.00    -0.308 N 
ATOM     13  C   UNL A   1      30.070  23.646  26.589  1.00  0.00     0.319 C 
ATOM     14  H   UNL A   1      29.850  25.399  27.386  1.00  0.00     0.171 HD
ATOM     15  O   UNL A   1      29.525  23.103  27.556  1.00  0.00    -0.248 OA
ATOM     16  H   UNL A   1      30.461  21.938  25.667  1.00  0.00     0.165 HD
BRANCH  12  17
ATOM     17  C   UNL A   1      30.048  25.955  25.485  1.00  0.00     0.043 A 
ATOM     18  C   UNL A   1      31.220  27.925  24.650  1.00  0.00     0.009 A 
ATOM     19  C   UNL A   1      30.307  28.026  23.601  1.00  0.00     0.015 A 
ATOM     20  C   UNL A   1      31.100  26.879  25.572  1.00  0.00     0.041 A 
ATOM     21  C   UNL A   1      29.264  27.118  23.500  1.00  0.00     0.003 A 
ATOM     22  C   UNL A   1      29.100  26.133  24.478  1.00  0.00     0.026 A 
BRANCH  18  23
ATOM     23  S   UNL A   1      32.489  29.153  24.862  1.00  0.00    -0.130 SA
ATOM     24  C   UNL A   1      33.339  28.953  23.282  1.00  0.00     0.091 C 
ENDBRANCH  18  23
ENDBRANCH  12  17
ENDBRANCH   7  11
ENDBRANCH   3   6
ENDBRANCH   1   2
BRANCH   1  25
ATOM     25  C   UNL A   1      37.989  20.035  24.840  1.00  0.00     0.042 C 
BRANCH  25  26
ATOM     26  C   UNL A   1      38.906  20.015  26.067  1.00  0.00     0.118 C 
BRANCH  26  27
ATOM     27  N   UNL A   1      40.114  19.215  25.905  1.00  0.00    -0.352 N 
ATOM     28  C   UNL A   1      41.457  19.497  26.028  1.00  0.00     0.251 C 
ATOM     29  H   UNL A   1      39.933  18.280  25.655  1.00  0.00     0.163 HD
ATOM     30  O   UNL A   1      42.256  18.599  25.752  1.00  0.00    -0.269 OA
BRANCH  28  31
ATOM     31  C   UNL A   1      41.999  20.829  26.420  1.00  0.00     0.039 A 
ATOM     32  C   UNL A   1      42.217  21.777  25.402  1.00  0.00     0.014 A 
ATOM     33  C   UNL A   1      42.336  21.174  27.728  1.00  0.00     0.014 A 
ATOM     34  C   UNL A   1      42.662  23.074  25.702  1.00  0.00     0.010 A 
ATOM     35  C   UNL A   1      42.735  22.482  28.037  1.00  0.00     0.010 A 
ATOM     36  C   UNL A   1      42.891  23.450  27.031  1.00  0.00    -0.014 A 
BRANCH  36  37
ATOM     37  C   UNL A   1      43.352  24.819  27.392  1.00  0.00     0.031 A 
ATOM     38  C   UNL A   1      42.371  25.809  27.942  1.00  0.00     0.074 A 
ATOM     39  C   UNL A   1      44.619  25.212  27.155  1.00  0.00     0.049 A 
ATOM     40  N   UNL A   1      42.539  27.078  28.211  1.00  0.00    -0.248 NA
ATOM     41  C   UNL A   1      41.014  25.308  28.202  1.00  0.00     0.031 C 
ATOM     42  C   UNL A   1      45.663  24.366  26.594  1.00  0.00     0.029 A 
ATOM     43  N   UNL A   1      45.238  26.427  27.322  1.00  0.00    -0.354 N 
ATOM     44  C   UNL A   1      41.308  27.534  28.655  1.00  0.00     0.074 A 
ATOM     45  C   UNL A   1      40.392  26.414  28.586  1.00  0.00     0.031 C 
ATOM     46  C   UNL A   1      46.793  25.077  26.452  1.00  0.00     0.029 A 
ATOM     47  C   UNL A   1      46.541  26.448  26.880  1.00  0.00     0.049 A 
ATOM     48  H   UNL A   1      44.793  27.209  27.721  1.00  0.00     0.167 HD
ATOM     49  C   UNL A   1      40.971  28.770  29.092  1.00  0.00     0.037 A 
ATOM     50  C   UNL A   1      47.427  27.459  26.799  1.00  0.00     0.037 A 
ATOM     51  C   UNL A   1      41.880  29.882  29.175  1.00  0.00     0.049 A 
ATOM     52  C   UNL A   1      47.025  28.828  27.269  1.00  0.00     0.074 A 
ATOM     53  C   UNL A   1      41.645  31.152  29.671  1.00  0.00     0.029 A 
ATOM     54  N   UNL A   1      43.197  29.858  28.741  1.00  0.00    -0.354 N 
ATOM     55  N   UNL A   1      45.876  29.226  27.757  1.00  0.00    -0.248 NA
ATOM     56  C   UNL A   1      48.041  29.887  27.182  1.00  0.00     0.031 C 
ATOM     57  C   UNL A   1      42.809  31.911  29.501  1.00  0.00     0.029 A 
ATOM     58  C   UNL A   1      43.779  31.100  28.934  1.00  0.00     0.049 A 
ATOM     59  H   UNL A   1      43.652  29.076  28.354  1.00  0.00     0.167 HD
ATOM     60  C   UNL A   1      46.038  30.572  28.059  1.00  0.00     0.074 A 
ATOM     61  C   UNL A   1      47.398  30.921  27.706  1.00  0.00     0.031 C 
ATOM     62  C   UNL A   1      45.136  31.437  28.584  1.00  0.00     0.037 A 
BRANCH  49  63
ATOM     63  C   UNL A   1      39.546  28.977  29.502  1.00  0.00     0.057 A 
ATOM     64  C   UNL A   1      39.113  28.731  30.811  1.00  0.00     0.134 A 
ATOM     65  C   UNL A   1      38.595  29.421  28.576  1.00  0.00     0.134 A 
ATOM     66  F   UNL A   1      39.974  28.287  31.740  1.00  0.00    -0.206 F 
ATOM     67  C   UNL A   1      37.777  28.890  31.178  1.00  0.00     0.040 A 
ATOM     68  C   UNL A   1      37.260  29.605  28.937  1.00  0.00     0.040 A 
ATOM     69  F   UNL A   1      38.946  29.676  27.307  1.00  0.00    -0.206 F 
ATOM     70  C   UNL A   1      36.846  29.331  30.239  1.00  0.00     0.006 A 
ENDBRANCH  49  63
BRANCH  50  71
ATOM     71  C   UNL A   1      48.785  27.220  26.248  1.00  0.00     0.057 A 
ATOM     72  C   UNL A   1      49.036  27.324  24.875  1.00  0.00     0.134 A 
ATOM     73  C   UNL A   1      49.857  26.868  27.076  1.00  0.00     0.134 A 
ATOM     74  F   UNL A   1      48.042  27.637  24.031  1.00  0.00    -0.206 F 
ATOM     75  C   UNL A   1      50.301  27.073  24.343  1.00  0.00     0.040 A 
ATOM     76  C   UNL A   1      51.132  26.632  26.559  1.00  0.00     0.040 A 
ATOM     77  F   UNL A   1      49.681  26.751  28.400  1.00  0.00    -0.206 F 
ATOM     78  C   UNL A   1      51.356  26.729  25.186  1.00  0.00     0.006 A 
ENDBRANCH  50  71
BRANCH  62  79
ATOM     79  C   UNL A   1      45.600  32.839  28.838  1.00  0.00     0.057 A 
ATOM     80  C   UNL A   1      46.233  33.201  30.033  1.00  0.00     0.134 A 
ATOM     81  C   UNL A   1      45.455  33.827  27.856  1.00  0.00     0.134 A 
ATOM     82  F   UNL A   1      46.387  32.304  31.019  1.00  0.00    -0.206 F 
ATOM     83  C   UNL A   1      46.696  34.500  30.247  1.00  0.00     0.040 A 
ATOM     84  C   UNL A   1      45.933  35.123  28.049  1.00  0.00     0.040 A 
ATOM     85  F   UNL A   1      44.859  33.542  26.687  1.00  0.00    -0.206 F 
ATOM     86  C   UNL A   1      46.553  35.463  29.249  1.00  0.00     0.006 A 
ENDBRANCH  62  79
ENDBRANCH  36  37
ENDBRANCH  28  31
ENDBRANCH  26  27
ENDBRANCH  25  26
ENDBRANCH   1  25
TORSDOF 13
ENDMDL
MODEL 2
REMARK VINA RESULT:     -12.1      3.340      7.826
REMARK SMILES CSc1cccc(NC(=O)N[C@@H]2C=C[C@@H](C(=O)NCCCNC(=O)c3ccc(-c4c5nc(c(-c6c(F)cccc6F)c6ccc([nH]6)c(-c6c(F)cccc6F)c6nc(c(-c7c(F)cccc7F)c7ccc4[nH]7)C=C6)C=C5)cc3)C2)c1
REMARK SMILES IDX 19 1 18 2 16 3 17 4 15 6 12 7 13 8 79 9 14 10 11 11 8 12
REMARK SMILES IDX 9 13 10 15 7 17 3 18 4 19 80 20 5 21 6 22 2 23 1 24 20 25
REMARK SMILES IDX 21 26 22 27 23 28 24 30 25 31 26 32 78 33 27 34 77 35 28 36
REMARK SMILES IDX 29 37 30 38 71 39 31 40 76 41 70 42 72 43 32 44 75 45 69 46
REMARK SMILES IDX 68 47 33 49 59 50 42 51 58 52 43 53 46 54 57 55 73 56 44 57
REMARK SMILES IDX 45 58 56 60 74 61 47 62 34 63 35 64 40 65 36 66 37 67 39 68
REMARK SMILES IDX 41 69 38 70 60 71 61 72 66 73 62 74 63 75 65 76 67 77 64 78
REMARK SMILES IDX 48 79 49 80 54 81 50 82 51 83 53 84 55 85 52 86
REMARK H PARENT 18 5 8 14 11 16 22 29 72 48 46 59
REMARK Flexibility Score: inf
ROOT
ATOM      1  C   UNL A   1      31.527  29.559  25.685  1.00  0.00     0.117 C 
ENDROOT
BRANCH   1   2
ATOM      2  N   UNL A   1      30.816  30.513  24.850  1.00  0.00    -0.356 N 
ATOM      3  C   UNL A   1      29.929  30.380  23.829  1.00  0.00     0.227 C 
ATOM      4  O   UNL A   1      29.206  31.366  23.625  1.00  0.00    -0.274 OA
ATOM      5  H   UNL A   1      31.018  31.451  25.071  1.00  0.00     0.163 HD
BRANCH   3   6
ATOM      6  C   UNL A   1      29.771  29.154  22.916  1.00  0.00     0.103 C 
ATOM      7  C   UNL A   1      31.263  27.290  22.477  1.00  0.00     0.107 C 
ATOM      8  C   UNL A   1      30.040  26.832  23.194  1.00  0.00    -0.006 C 
ATOM      9  C   UNL A   1      30.943  28.718  22.046  1.00  0.00     0.047 C 
ATOM     10  C   UNL A   1      29.283  27.879  23.544  1.00  0.00    -0.016 C 
BRANCH   7  11
ATOM     11  N   UNL A   1      31.604  26.424  21.385  1.00  0.00    -0.332 N 
ATOM     12  N   UNL A   1      33.616  25.385  22.127  1.00  0.00    -0.308 N 
ATOM     13  C   UNL A   1      32.753  25.765  21.167  1.00  0.00     0.319 C 
ATOM     14  H   UNL A   1      34.541  25.360  21.793  1.00  0.00     0.171 HD
ATOM     15  O   UNL A   1      33.086  25.573  19.993  1.00  0.00    -0.248 OA
ATOM     16  H   UNL A   1      30.902  26.297  20.706  1.00  0.00     0.165 HD
BRANCH  12  17
ATOM     17  C   UNL A   1      33.546  25.013  23.482  1.00  0.00     0.043 A 
ATOM     18  C   UNL A   1      32.629  23.419  25.084  1.00  0.00     0.009 A 
ATOM     19  C   UNL A   1      33.208  24.134  26.130  1.00  0.00     0.015 A 
ATOM     20  C   UNL A   1      32.819  23.848  23.766  1.00  0.00     0.041 A 
ATOM     21  C   UNL A   1      33.933  25.286  25.865  1.00  0.00     0.003 A 
ATOM     22  C   UNL A   1      34.040  25.756  24.553  1.00  0.00     0.026 A 
BRANCH  18  23
ATOM     23  S   UNL A   1      31.595  22.010  25.418  1.00  0.00    -0.130 SA
ATOM     24  C   UNL A   1      30.458  22.770  26.597  1.00  0.00     0.091 C 
ENDBRANCH  18  23
ENDBRANCH  12  17
ENDBRANCH   7  11
ENDBRANCH   3   6
ENDBRANCH   1   2
BRANCH   1  25
ATOM     25  C   UNL A   1      33.011  29.385  25.343  1.00  0.00     0.042 C 
BRANCH  25  26
ATOM     26  C   UNL A   1      33.988  29.260  26.517  1.00  0.00     0.118 C 
BRANCH  26  27
ATOM     27  N   UNL A   1      33.932  30.363  27.469  1.00  0.00    -0.352 N 
ATOM     28  C   UNL A   1      34.815  30.842  28.411  1.00  0.00     0.251 C 
ATOM     29  H   UNL A   1      33.089  30.869  27.431  1.00  0.00     0.163 HD
ATOM     30  O   UNL A   1      34.437  31.774  29.125  1.00  0.00    -0.269 OA
BRANCH  28  31
ATOM     31  C   UNL A   1      36.171  30.272  28.652  1.00  0.00     0.039 A 
ATOM     32  C   UNL A   1      37.089  30.280  27.585  1.00  0.00     0.014 A 
ATOM     33  C   UNL A   1      36.566  29.696  29.859  1.00  0.00     0.014 A 
ATOM     34  C   UNL A   1      38.404  29.821  27.755  1.00  0.00     0.010 A 
ATOM     35  C   UNL A   1      37.892  29.281  30.047  1.00  0.00     0.010 A 
ATOM     36  C   UNL A   1      38.829  29.349  29.003  1.00  0.00    -0.014 A 
BRANCH  36  37
ATOM     37  C   UNL A   1      40.218  28.864  29.228  1.00  0.00     0.031 A 
ATOM     38  C   UNL A   1      41.244  29.797  29.798  1.00  0.00     0.074 A 
ATOM     39  C   UNL A   1      40.594  27.626  28.851  1.00  0.00     0.049 A 
ATOM     40  N   UNL A   1      42.528  29.611  29.965  1.00  0.00    -0.248 NA
ATOM     41  C   UNL A   1      40.763  31.122  30.213  1.00  0.00     0.031 C 
ATOM     42  C   UNL A   1      39.711  26.633  28.255  1.00  0.00     0.029 A 
ATOM     43  N   UNL A   1      41.817  27.001  28.880  1.00  0.00    -0.354 N 
ATOM     44  C   UNL A   1      43.014  30.800  30.487  1.00  0.00     0.074 A 
ATOM     45  C   UNL A   1      41.893  31.712  30.577  1.00  0.00     0.031 C 
ATOM     46  C   UNL A   1      40.409  25.525  27.964  1.00  0.00     0.029 A 
ATOM     47  C   UNL A   1      41.806  25.743  28.320  1.00  0.00     0.049 A 
ATOM     48  H   UNL A   1      42.624  27.412  29.264  1.00  0.00     0.167 HD
ATOM     49  C   UNL A   1      44.277  31.101  30.869  1.00  0.00     0.037 A 
ATOM     50  C   UNL A   1      42.809  24.874  28.092  1.00  0.00     0.037 A 
ATOM     51  C   UNL A   1      45.391  30.194  30.795  1.00  0.00     0.049 A 
ATOM     52  C   UNL A   1      44.207  25.238  28.504  1.00  0.00     0.074 A 
ATOM     53  C   UNL A   1      46.692  30.391  31.224  1.00  0.00     0.029 A 
ATOM     54  N   UNL A   1      45.337  28.922  30.246  1.00  0.00    -0.354 N 
ATOM     55  N   UNL A   1      44.638  26.340  29.066  1.00  0.00    -0.248 NA
ATOM     56  C   UNL A   1      45.257  24.240  28.254  1.00  0.00     0.031 C 
ATOM     57  C   UNL A   1      47.436  29.251  30.899  1.00  0.00     0.029 A 
ATOM     58  C   UNL A   1      46.589  28.331  30.301  1.00  0.00     0.049 A 
ATOM     59  H   UNL A   1      44.530  28.501  29.872  1.00  0.00     0.167 HD
ATOM     60  C   UNL A   1      46.001  26.159  29.261  1.00  0.00     0.074 A 
ATOM     61  C   UNL A   1      46.324  24.838  28.764  1.00  0.00     0.031 C 
ATOM     62  C   UNL A   1      46.900  27.014  29.807  1.00  0.00     0.037 A 
BRANCH  49  63
ATOM     63  C   UNL A   1      44.512  32.485  31.393  1.00  0.00     0.057 A 
ATOM     64  C   UNL A   1      44.870  33.541  30.545  1.00  0.00     0.134 A 
ATOM     65  C   UNL A   1      44.387  32.761  32.759  1.00  0.00     0.134 A 
ATOM     66  F   UNL A   1      45.023  33.335  29.228  1.00  0.00    -0.206 F 
ATOM     67  C   UNL A   1      45.125  34.819  31.043  1.00  0.00     0.040 A 
ATOM     68  C   UNL A   1      44.617  34.041  33.265  1.00  0.00     0.040 A 
ATOM     69  F   UNL A   1      44.046  31.793  33.622  1.00  0.00    -0.206 F 
ATOM     70  C   UNL A   1      44.996  35.072  32.408  1.00  0.00     0.006 A 
ENDBRANCH  49  63
BRANCH  50  71
ATOM     71  C   UNL A   1      42.532  23.570  27.437  1.00  0.00     0.057 A 
ATOM     72  C   UNL A   1      42.179  22.444  28.188  1.00  0.00     0.134 A 
ATOM     73  C   UNL A   1      42.630  23.416  26.048  1.00  0.00     0.134 A 
ATOM     74  F   UNL A   1      42.092  22.526  29.524  1.00  0.00    -0.206 F 
ATOM     75  C   UNL A   1      41.946  21.208  27.586  1.00  0.00     0.040 A 
ATOM     76  C   UNL A   1      42.380  22.190  25.431  1.00  0.00     0.040 A 
ATOM     77  F   UNL A   1      42.965  24.458  25.273  1.00  0.00    -0.206 F 
ATOM     78  C   UNL A   1      42.043  21.078  26.201  1.00  0.00     0.006 A 
ENDBRANCH  50  71
BRANCH  62  79
ATOM     79  C   UNL A   1      48.316  26.536  29.924  1.00  0.00     0.057 A 
ATOM     80  C   UNL A   1      49.277  26.835  28.952  1.00  0.00     0.134 A 
ATOM     81  C   UNL A   1      48.733  25.812  31.049  1.00  0.00     0.134 A 
ATOM     82  F   UNL A   1      48.936  27.512  27.845  1.00  0.00    -0.206 F 
ATOM     83  C   UNL A   1      50.602  26.419  29.087  1.00  0.00     0.040 A 
ATOM     84  C   UNL A   1      50.059  25.410  31.205  1.00  0.00     0.040 A 
ATOM     85  F   UNL A   1      47.860  25.498  32.018  1.00  0.00    -0.206 F 
ATOM     86  C   UNL A   1      50.998  25.711  30.221  1.00  0.00     0.006 A 
ENDBRANCH  62  79
ENDBRANCH  36  37
ENDBRANCH  28  31
ENDBRANCH  26  27
ENDBRANCH  25  26
ENDBRANCH   1  25
TORSDOF 13
ENDMDL
MODEL 3
REMARK VINA RESULT:     -12.0      5.293     10.282
REMARK SMILES CSc1cccc(NC(=O)N[C@@H]2C=C[C@@H](C(=O)NCCCNC(=O)c3ccc(-c4c5nc(c(-c6c(F)cccc6F)c6ccc([nH]6)c(-c6c(F)cccc6F)c6nc(c(-c7c(F)cccc7F)c7ccc4[nH]7)C=C6)C=C5)cc3)C2)c1
REMARK SMILES IDX 19 1 18 2 16 3 17 4 15 6 12 7 13 8 79 9 14 10 11 11 8 12
REMARK SMILES IDX 9 13 10 15 7 17 3 18 4 19 80 20 5 21 6 22 2 23 1 24 20 25
REMARK SMILES IDX 21 26 22 27 23 28 24 30 25 31 26 32 78 33 27 34 77 35 28 36
REMARK SMILES IDX 29 37 30 38 71 39 31 40 76 41 70 42 72 43 32 44 75 45 69 46
REMARK SMILES IDX 68 47 33 49 59 50 42 51 58 52 43 53 46 54 57 55 73 56 44 57
REMARK SMILES IDX 45 58 56 60 74 61 47 62 34 63 35 64 40 65 36 66 37 67 39 68
REMARK SMILES IDX 41 69 38 70 60 71 61 72 66 73 62 74 63 75 65 76 67 77 64 78
REMARK SMILES IDX 48 79 49 80 54 81 50 82 51 83 53 84 55 85 52 86
REMARK H PARENT 18 5 8 14 11 16 22 29 72 48 46 59
REMARK Flexibility Score: inf
ROOT
ATOM      1  C   UNL A   1      31.068  30.829  26.120  1.00  0.00     0.117 C 
ENDROOT
BRANCH   1   2
ATOM      2  N   UNL A   1      32.160  30.363  25.280  1.00  0.00    -0.356 N 
ATOM      3  C   UNL A   1      32.745  29.150  25.101  1.00  0.00     0.227 C 
ATOM      4  O   UNL A   1      33.348  29.007  24.027  1.00  0.00    -0.274 OA
ATOM      5  H   UNL A   1      32.557  31.073  24.726  1.00  0.00     0.163 HD
BRANCH   3   6
ATOM      6  C   UNL A   1      32.745  27.983  26.100  1.00  0.00     0.103 C 
ATOM      7  C   UNL A   1      31.637  25.824  26.030  1.00  0.00     0.107 C 
ATOM      8  C   UNL A   1      33.116  25.663  25.944  1.00  0.00    -0.006 C 
ATOM      9  C   UNL A   1      31.432  27.283  26.427  1.00  0.00     0.047 C 
ATOM     10  C   UNL A   1      33.712  26.859  25.856  1.00  0.00    -0.016 C 
BRANCH   7  11
ATOM     11  N   UNL A   1      31.046  24.892  26.948  1.00  0.00    -0.332 N 
ATOM     12  N   UNL A   1      30.590  22.997  25.575  1.00  0.00    -0.308 N 
ATOM     13  C   UNL A   1      30.400  23.747  26.676  1.00  0.00     0.319 C 
ATOM     14  H   UNL A   1      29.773  22.512  25.321  1.00  0.00     0.171 HD
ATOM     15  O   UNL A   1      29.501  23.402  27.451  1.00  0.00    -0.248 OA
ATOM     16  H   UNL A   1      31.125  25.123  27.902  1.00  0.00     0.165 HD
BRANCH  12  17
ATOM     17  C   UNL A   1      31.649  22.724  24.690  1.00  0.00     0.043 A 
ATOM     18  C   UNL A   1      33.882  21.768  24.462  1.00  0.00     0.009 A 
ATOM     19  C   UNL A   1      33.909  22.147  23.121  1.00  0.00     0.015 A 
ATOM     20  C   UNL A   1      32.745  22.037  25.233  1.00  0.00     0.041 A 
ATOM     21  C   UNL A   1      32.831  22.824  22.569  1.00  0.00     0.003 A 
ATOM     22  C   UNL A   1      31.739  23.168  23.372  1.00  0.00     0.026 A 
BRANCH  18  23
ATOM     23  S   UNL A   1      35.305  21.010  25.213  1.00  0.00    -0.130 SA
ATOM     24  C   UNL A   1      36.598  21.861  24.284  1.00  0.00     0.091 C 
ENDBRANCH  18  23
ENDBRANCH  12  17
ENDBRANCH   7  11
ENDBRANCH   3   6
ENDBRANCH   1   2
BRANCH   1  25
ATOM     25  C   UNL A   1      31.097  32.328  26.438  1.00  0.00     0.042 C 
BRANCH  25  26
ATOM     26  C   UNL A   1      32.376  32.884  27.071  1.00  0.00     0.118 C 
BRANCH  26  27
ATOM     27  N   UNL A   1      32.247  34.232  27.609  1.00  0.00    -0.352 N 
ATOM     28  C   UNL A   1      32.985  34.963  28.514  1.00  0.00     0.251 C 
ATOM     29  H   UNL A   1      31.471  34.723  27.252  1.00  0.00     0.163 HD
ATOM     30  O   UNL A   1      32.567  36.082  28.819  1.00  0.00    -0.269 OA
BRANCH  28  31
ATOM     31  C   UNL A   1      34.220  34.463  29.182  1.00  0.00     0.039 A 
ATOM     32  C   UNL A   1      34.081  33.806  30.419  1.00  0.00     0.014 A 
ATOM     33  C   UNL A   1      35.505  34.643  28.671  1.00  0.00     0.014 A 
ATOM     34  C   UNL A   1      35.190  33.250  31.075  1.00  0.00     0.010 A 
ATOM     35  C   UNL A   1      36.609  34.049  29.298  1.00  0.00     0.010 A 
ATOM     36  C   UNL A   1      36.463  33.336  30.500  1.00  0.00    -0.014 A 
BRANCH  36  37
ATOM     37  C   UNL A   1      37.664  32.750  31.157  1.00  0.00     0.031 A 
ATOM     38  C   UNL A   1      38.330  31.553  30.549  1.00  0.00     0.074 A 
ATOM     39  C   UNL A   1      38.114  33.224  32.336  1.00  0.00     0.049 A 
ATOM     40  N   UNL A   1      39.310  30.824  31.018  1.00  0.00    -0.248 NA
ATOM     41  C   UNL A   1      37.807  31.103  29.251  1.00  0.00     0.031 C 
ATOM     42  C   UNL A   1      37.542  34.355  33.052  1.00  0.00     0.029 A 
ATOM     43  N   UNL A   1      39.131  32.799  33.156  1.00  0.00    -0.354 N 
ATOM     44  C   UNL A   1      39.511  29.820  30.085  1.00  0.00     0.074 A 
ATOM     45  C   UNL A   1      38.529  30.012  29.038  1.00  0.00     0.031 C 
ATOM     46  C   UNL A   1      38.201  34.539  34.207  1.00  0.00     0.029 A 
ATOM     47  C   UNL A   1      39.225  33.509  34.331  1.00  0.00     0.049 A 
ATOM     48  H   UNL A   1      39.736  32.057  32.925  1.00  0.00     0.167 HD
ATOM     49  C   UNL A   1      40.438  28.834  30.090  1.00  0.00     0.037 A 
ATOM     50  C   UNL A   1      40.023  33.336  35.402  1.00  0.00     0.037 A 
ATOM     51  C   UNL A   1      41.426  28.647  31.120  1.00  0.00     0.049 A 
ATOM     52  C   UNL A   1      41.030  32.221  35.397  1.00  0.00     0.074 A 
ATOM     53  C   UNL A   1      42.449  27.717  31.175  1.00  0.00     0.029 A 
ATOM     54  N   UNL A   1      41.505  29.400  32.282  1.00  0.00    -0.354 N 
ATOM     55  N   UNL A   1      41.258  31.323  34.470  1.00  0.00    -0.248 NA
ATOM     56  C   UNL A   1      41.892  32.096  36.581  1.00  0.00     0.031 C 
ATOM     57  C   UNL A   1      43.125  27.882  32.389  1.00  0.00     0.029 A 
ATOM     58  C   UNL A   1      42.545  28.938  33.073  1.00  0.00     0.049 A 
ATOM     59  H   UNL A   1      40.912  30.151  32.511  1.00  0.00     0.167 HD
ATOM     60  C   UNL A   1      42.304  30.544  34.946  1.00  0.00     0.074 A 
ATOM     61  C   UNL A   1      42.672  31.079  36.240  1.00  0.00     0.031 C 
ATOM     62  C   UNL A   1      42.906  29.481  34.358  1.00  0.00     0.037 A 
BRANCH  49  63
ATOM     63  C   UNL A   1      40.411  27.874  28.942  1.00  0.00     0.057 A 
ATOM     64  C   UNL A   1      39.654  26.695  28.985  1.00  0.00     0.134 A 
ATOM     65  C   UNL A   1      41.153  28.126  27.783  1.00  0.00     0.134 A 
ATOM     66  F   UNL A   1      38.936  26.389  30.076  1.00  0.00    -0.206 F 
ATOM     67  C   UNL A   1      39.662  25.786  27.928  1.00  0.00     0.040 A 
ATOM     68  C   UNL A   1      41.151  27.235  26.709  1.00  0.00     0.040 A 
ATOM     69  F   UNL A   1      41.897  29.237  27.678  1.00  0.00    -0.206 F 
ATOM     70  C   UNL A   1      40.411  26.056  26.783  1.00  0.00     0.006 A 
ENDBRANCH  49  63
BRANCH  50  71
ATOM     71  C   UNL A   1      39.904  34.238  36.575  1.00  0.00     0.057 A 
ATOM     72  C   UNL A   1      40.607  35.446  36.632  1.00  0.00     0.134 A 
ATOM     73  C   UNL A   1      39.099  33.907  37.672  1.00  0.00     0.134 A 
ATOM     74  F   UNL A   1      41.412  35.806  35.621  1.00  0.00    -0.206 F 
ATOM     75  C   UNL A   1      40.526  36.288  37.742  1.00  0.00     0.040 A 
ATOM     76  C   UNL A   1      38.993  34.748  38.780  1.00  0.00     0.040 A 
ATOM     77  F   UNL A   1      38.401  32.762  37.678  1.00  0.00    -0.206 F 
ATOM     78  C   UNL A   1      39.714  35.941  38.821  1.00  0.00     0.006 A 
ENDBRANCH  50  71
BRANCH  62  79
ATOM     79  C   UNL A   1      44.046  28.845  35.094  1.00  0.00     0.057 A 
ATOM     80  C   UNL A   1      43.850  27.766  35.964  1.00  0.00     0.134 A 
ATOM     81  C   UNL A   1      45.360  29.285  34.891  1.00  0.00     0.134 A 
ATOM     82  F   UNL A   1      42.613  27.309  36.212  1.00  0.00    -0.206 F 
ATOM     83  C   UNL A   1      44.921  27.154  36.616  1.00  0.00     0.040 A 
ATOM     84  C   UNL A   1      46.441  28.667  35.520  1.00  0.00     0.040 A 
ATOM     85  F   UNL A   1      45.614  30.312  34.065  1.00  0.00    -0.206 F 
ATOM     86  C   UNL A   1      46.222  27.600  36.388  1.00  0.00     0.006 A 
ENDBRANCH  62  79
ENDBRANCH  36  37
ENDBRANCH  28  31
ENDBRANCH  26  27
ENDBRANCH  25  26
ENDBRANCH   1  25
TORSDOF 13
ENDMDL
