MODEL 1
REMARK VINA RESULT:     -10.1      0.000      0.000
REMARK SMILES O=C(NCCCNC(=O)c1ccc(S(=O)(=O)[O-])cc1N1C(=O)/C(=C\C=C\c2ccccc2)[NH+]=C1c1ccccc1)c1ccc(-c2c3nc(c(-c4c(F)cccc4F)c4ccc([nH]4)c(-c4c(F)cccc4F)c4nc(c(-c5c(F)cccc5F)c5ccc2[nH]5)C=C4)C=C3)cc1
REMARK SMILES IDX 5 1 4 2 3 3 1 4 2 5 41 7 42 8 94 9 43 10 93 11 44 12 45 13
REMARK SMILES IDX 46 14 87 15 47 16 92 17 86 18 88 19 48 20 91 21 85 22 84 23
REMARK SMILES IDX 49 25 75 26 58 27 74 28 59 29 62 30 73 31 89 32 60 33 61 34
REMARK SMILES IDX 72 36 90 37 63 38 50 39 51 40 56 41 52 42 53 43 55 44 57 45
REMARK SMILES IDX 54 46 76 47 77 48 82 49 78 50 79 51 81 52 83 53 80 54 64 55
REMARK SMILES IDX 65 56 70 57 66 58 67 59 69 60 71 61 68 62 6 63 7 64 8 65
REMARK SMILES IDX 9 67 10 68 11 69 19 70 12 71 18 72 13 73 20 74 21 75 34 76
REMARK SMILES IDX 22 77 23 78 33 79 24 80 35 82 36 83 40 84 37 85 39 86 38 87
REMARK SMILES IDX 25 88 26 89 27 90 28 91 32 92 29 93 31 94 30 95 14 96 15 97
REMARK SMILES IDX 16 98 17 99
REMARK H PARENT 3 6 88 24 62 35 7 66 33 81
REMARK Flexibility Score: inf
ROOT
ATOM      1  C   UNL A   1      34.506  32.743  30.288  1.00  0.00     0.042 C 
ENDROOT
BRANCH   1   2
ATOM      2  C   UNL A   1      34.787  32.434  28.834  1.00  0.00     0.118 C 
BRANCH   2   3
ATOM      3  N   UNL A   1      34.255  31.139  28.405  1.00  0.00    -0.352 N 
ATOM      4  O   UNL A   1      34.222  29.017  27.644  1.00  0.00    -0.269 OA
ATOM      5  C   UNL A   1      34.870  29.937  28.134  1.00  0.00     0.251 C 
ATOM      6  H   UNL A   1      33.278  31.125  28.289  1.00  0.00     0.163 HD
BRANCH   5   7
ATOM      7  C   UNL A   1      36.315  29.757  28.394  1.00  0.00     0.039 A 
ATOM      8  C   UNL A   1      37.252  30.133  27.439  1.00  0.00     0.014 A 
ATOM      9  C   UNL A   1      36.748  29.197  29.599  1.00  0.00     0.014 A 
ATOM     10  C   UNL A   1      38.561  29.701  27.554  1.00  0.00     0.010 A 
ATOM     11  C   UNL A   1      38.108  28.924  29.792  1.00  0.00     0.010 A 
ATOM     12  C   UNL A   1      39.020  29.120  28.745  1.00  0.00    -0.014 A 
BRANCH  12  13
ATOM     13  C   UNL A   1      40.465  28.789  28.855  1.00  0.00     0.031 A 
ATOM     14  C   UNL A   1      41.434  29.718  29.533  1.00  0.00     0.074 A 
ATOM     15  C   UNL A   1      40.882  27.590  28.397  1.00  0.00     0.049 A 
ATOM     16  N   UNL A   1      42.713  29.545  29.762  1.00  0.00    -0.248 NA
ATOM     17  C   UNL A   1      40.914  31.010  30.004  1.00  0.00     0.031 C 
ATOM     18  C   UNL A   1      40.034  26.607  27.716  1.00  0.00     0.029 A 
ATOM     19  N   UNL A   1      42.102  26.973  28.472  1.00  0.00    -0.354 N 
ATOM     20  C   UNL A   1      43.155  30.715  30.367  1.00  0.00     0.074 A 
ATOM     21  C   UNL A   1      42.014  31.600  30.453  1.00  0.00     0.031 C 
ATOM     22  C   UNL A   1      40.731  25.481  27.520  1.00  0.00     0.029 A 
ATOM     23  C   UNL A   1      42.099  25.694  27.967  1.00  0.00     0.049 A 
ATOM     24  H   UNL A   1      42.904  27.403  28.849  1.00  0.00     0.167 HD
ATOM     25  C   UNL A   1      44.399  31.019  30.812  1.00  0.00     0.037 A 
ATOM     26  C   UNL A   1      43.091  24.793  27.858  1.00  0.00     0.037 A 
ATOM     27  C   UNL A   1      45.524  30.119  30.746  1.00  0.00     0.049 A 
ATOM     28  C   UNL A   1      44.459  25.166  28.343  1.00  0.00     0.074 A 
ATOM     29  C   UNL A   1      46.815  30.317  31.207  1.00  0.00     0.029 A 
ATOM     30  N   UNL A   1      45.493  28.852  30.180  1.00  0.00    -0.354 N 
ATOM     31  N   UNL A   1      44.853  26.266  28.936  1.00  0.00    -0.248 NA
ATOM     32  C   UNL A   1      45.521  24.175  28.133  1.00  0.00     0.031 C 
ATOM     33  C   UNL A   1      47.577  29.193  30.870  1.00  0.00     0.029 A 
ATOM     34  C   UNL A   1      46.748  28.269  30.254  1.00  0.00     0.049 A 
ATOM     35  H   UNL A   1      44.697  28.431  29.783  1.00  0.00     0.167 HD
ATOM     36  C   UNL A   1      46.205  26.093  29.191  1.00  0.00     0.074 A 
ATOM     37  C   UNL A   1      46.556  24.773  28.706  1.00  0.00     0.031 C 
ATOM     38  C   UNL A   1      47.080  26.952  29.772  1.00  0.00     0.037 A 
BRANCH  25  39
ATOM     39  C   UNL A   1      44.622  32.393  31.379  1.00  0.00     0.057 A 
ATOM     40  C   UNL A   1      44.987  33.485  30.581  1.00  0.00     0.134 A 
ATOM     41  C   UNL A   1      44.430  32.634  32.747  1.00  0.00     0.134 A 
ATOM     42  F   UNL A   1      45.200  33.325  29.266  1.00  0.00    -0.206 F 
ATOM     43  C   UNL A   1      45.179  34.758  31.124  1.00  0.00     0.040 A 
ATOM     44  C   UNL A   1      44.591  33.906  33.297  1.00  0.00     0.040 A 
ATOM     45  F   UNL A   1      44.072  31.637  33.570  1.00  0.00    -0.206 F 
ATOM     46  C   UNL A   1      44.973  34.972  32.486  1.00  0.00     0.006 A 
ENDBRANCH  25  39
BRANCH  26  47
ATOM     47  C   UNL A   1      42.822  23.463  27.258  1.00  0.00     0.057 A 
ATOM     48  C   UNL A   1      43.022  23.230  25.893  1.00  0.00     0.134 A 
ATOM     49  C   UNL A   1      42.369  22.388  28.035  1.00  0.00     0.134 A 
ATOM     50  F   UNL A   1      43.442  24.222  25.093  1.00  0.00    -0.206 F 
ATOM     51  C   UNL A   1      42.766  21.984  25.318  1.00  0.00     0.040 A 
ATOM     52  C   UNL A   1      42.140  21.130  27.481  1.00  0.00     0.040 A 
ATOM     53  F   UNL A   1      42.168  22.542  29.352  1.00  0.00    -0.206 F 
ATOM     54  C   UNL A   1      42.329  20.927  26.115  1.00  0.00     0.006 A 
ENDBRANCH  26  47
BRANCH  38  55
ATOM     55  C   UNL A   1      48.487  26.464  29.953  1.00  0.00     0.057 A 
ATOM     56  C   UNL A   1      49.479  26.680  28.987  1.00  0.00     0.134 A 
ATOM     57  C   UNL A   1      48.853  25.772  31.114  1.00  0.00     0.134 A 
ATOM     58  F   UNL A   1      49.188  27.320  27.844  1.00  0.00    -0.206 F 
ATOM     59  C   UNL A   1      50.777  26.196  29.156  1.00  0.00     0.040 A 
ATOM     60  C   UNL A   1      50.155  25.312  31.308  1.00  0.00     0.040 A 
ATOM     61  F   UNL A   1      47.954  25.538  32.081  1.00  0.00    -0.206 F 
ATOM     62  C   UNL A   1      51.119  25.515  30.323  1.00  0.00     0.006 A 
ENDBRANCH  38  55
ENDBRANCH  12  13
ENDBRANCH   5   7
ENDBRANCH   2   3
ENDBRANCH   1   2
BRANCH   1  63
ATOM     63  C   UNL A   1      35.621  32.293  31.199  1.00  0.00     0.118 C 
BRANCH  63  64
ATOM     64  N   UNL A   1      35.565  32.790  32.552  1.00  0.00    -0.352 N 
ATOM     65  C   UNL A   1      36.408  32.580  33.619  1.00  0.00     0.255 C 
ATOM     66  H   UNL A   1      34.798  33.375  32.745  1.00  0.00     0.163 HD
ATOM     67  O   UNL A   1      36.101  33.095  34.694  1.00  0.00    -0.269 OA
BRANCH  65  68
ATOM     68  C   UNL A   1      37.603  31.679  33.574  1.00  0.00     0.087 A 
ATOM     69  C   UNL A   1      37.313  30.376  33.114  1.00  0.00     0.019 A 
ATOM     70  C   UNL A   1      38.942  31.995  33.915  1.00  0.00     0.150 A 
ATOM     71  C   UNL A   1      38.312  29.409  32.987  1.00  0.00     0.020 A 
ATOM     72  C   UNL A   1      39.941  31.014  33.787  1.00  0.00     0.072 A 
ATOM     73  C   UNL A   1      39.621  29.736  33.329  1.00  0.00     0.059 A 
BRANCH  70  74
ATOM     74  N   UNL A   1      39.341  33.252  34.407  1.00  0.00    -0.153 N 
ATOM     75  C   UNL A   1      39.294  33.571  35.741  1.00  0.00     0.385 C 
ATOM     76  C   UNL A   1      39.833  34.339  33.719  1.00  0.00     0.295 C 
ATOM     77  O   UNL A   1      39.015  32.860  36.689  1.00  0.00    -0.236 OA
ATOM     78  C   UNL A   1      39.718  35.006  35.748  1.00  0.00     0.215 C 
ATOM     79  N   UNL A   1      40.095  35.376  34.469  1.00  0.00    -0.233 N 
ATOM     80  C   UNL A   1      39.645  35.852  36.787  1.00  0.00     0.060 C 
ATOM     81  H   UNL A   1      40.478  36.237  34.186  1.00  0.00     0.312 HD
BRANCH  76  82
ATOM     82  C   UNL A   1      39.950  34.420  32.230  1.00  0.00     0.065 A 
ATOM     83  C   UNL A   1      41.222  34.617  31.681  1.00  0.00     0.017 A 
ATOM     84  C   UNL A   1      38.839  34.445  31.370  1.00  0.00     0.017 A 
ATOM     85  C   UNL A   1      41.375  34.825  30.305  1.00  0.00     0.001 A 
ATOM     86  C   UNL A   1      38.991  34.675  30.001  1.00  0.00     0.001 A 
ATOM     87  C   UNL A   1      40.260  34.864  29.469  1.00  0.00     0.000 A 
ENDBRANCH  76  82
BRANCH  80  88
ATOM     88  C   UNL A   1      39.200  35.517  38.123  1.00  0.00     0.005 C 
ATOM     89  C   UNL A   1      39.985  35.024  39.094  1.00  0.00     0.008 C 
BRANCH  89  90
ATOM     90  C   UNL A   1      39.437  34.594  40.393  1.00  0.00    -0.026 A 
ATOM     91  C   UNL A   1      38.666  35.477  41.159  1.00  0.00     0.008 A 
ATOM     92  C   UNL A   1      39.731  33.327  40.921  1.00  0.00     0.008 A 
ATOM     93  C   UNL A   1      38.180  35.089  42.413  1.00  0.00     0.001 A 
ATOM     94  C   UNL A   1      39.244  32.939  42.171  1.00  0.00     0.001 A 
ATOM     95  C   UNL A   1      38.468  33.820  42.917  1.00  0.00     0.000 A 
ENDBRANCH  89  90
ENDBRANCH  80  88
ENDBRANCH  70  74
BRANCH  73  96
ATOM     96  S   UNL A   1      40.876  28.499  33.193  1.00  0.00     0.124 S 
ATOM     97  O   UNL A   1      40.530  27.638  32.086  1.00  0.00    -0.237 OA
ATOM     98  O   UNL A   1      42.154  29.167  33.277  1.00  0.00    -0.237 OA
ATOM     99  O   UNL A   1      40.742  27.596  34.525  1.00  0.00    -0.744 OA
ENDBRANCH  73  96
ENDBRANCH  65  68
ENDBRANCH  63  64
ENDBRANCH   1  63
TORSDOF 15
ENDMDL
MODEL 2
REMARK VINA RESULT:     -10.0      0.424      5.840
REMARK SMILES O=C(NCCCNC(=O)c1ccc(S(=O)(=O)[O-])cc1N1C(=O)/C(=C\C=C\c2ccccc2)[NH+]=C1c1ccccc1)c1ccc(-c2c3nc(c(-c4c(F)cccc4F)c4ccc([nH]4)c(-c4c(F)cccc4F)c4nc(c(-c5c(F)cccc5F)c5ccc2[nH]5)C=C4)C=C3)cc1
REMARK SMILES IDX 5 1 4 2 3 3 1 4 2 5 41 7 42 8 94 9 43 10 93 11 44 12 45 13
REMARK SMILES IDX 46 14 87 15 47 16 92 17 86 18 88 19 48 20 91 21 85 22 84 23
REMARK SMILES IDX 49 25 75 26 58 27 74 28 59 29 62 30 73 31 89 32 60 33 61 34
REMARK SMILES IDX 72 36 90 37 63 38 50 39 51 40 56 41 52 42 53 43 55 44 57 45
REMARK SMILES IDX 54 46 76 47 77 48 82 49 78 50 79 51 81 52 83 53 80 54 64 55
REMARK SMILES IDX 65 56 70 57 66 58 67 59 69 60 71 61 68 62 6 63 7 64 8 65
REMARK SMILES IDX 9 67 10 68 11 69 19 70 12 71 18 72 13 73 20 74 21 75 34 76
REMARK SMILES IDX 22 77 23 78 33 79 24 80 35 82 36 83 40 84 37 85 39 86 38 87
REMARK SMILES IDX 25 88 26 89 27 90 28 91 32 92 29 93 31 94 30 95 14 96 15 97
REMARK SMILES IDX 16 98 17 99
REMARK H PARENT 3 6 88 24 62 35 7 66 33 81
REMARK Flexibility Score: inf
ROOT
ATOM      1  C   UNL A   1      34.565  32.828  30.229  1.00  0.00     0.042 C 
ENDROOT
BRANCH   1   2
ATOM      2  C   UNL A   1      34.845  32.503  28.779  1.00  0.00     0.118 C 
BRANCH   2   3
ATOM      3  N   UNL A   1      34.271  31.226  28.351  1.00  0.00    -0.352 N 
ATOM      4  O   UNL A   1      34.168  29.098  27.613  1.00  0.00    -0.269 OA
ATOM      5  C   UNL A   1      34.842  29.996  28.109  1.00  0.00     0.251 C 
ATOM      6  H   UNL A   1      33.297  31.251  28.211  1.00  0.00     0.163 HD
BRANCH   5   7
ATOM      7  C   UNL A   1      36.271  29.760  28.407  1.00  0.00     0.039 A 
ATOM      8  C   UNL A   1      37.245  30.075  27.467  1.00  0.00     0.014 A 
ATOM      9  C   UNL A   1      36.652  29.208  29.634  1.00  0.00     0.014 A 
ATOM     10  C   UNL A   1      38.531  29.591  27.623  1.00  0.00     0.010 A 
ATOM     11  C   UNL A   1      37.994  28.881  29.864  1.00  0.00     0.010 A 
ATOM     12  C   UNL A   1      38.937  29.015  28.836  1.00  0.00    -0.014 A 
BRANCH  12  13
ATOM     13  C   UNL A   1      40.363  28.625  28.987  1.00  0.00     0.031 A 
ATOM     14  C   UNL A   1      40.872  27.298  28.494  1.00  0.00     0.074 A 
ATOM     15  C   UNL A   1      41.219  29.526  29.512  1.00  0.00     0.049 A 
ATOM     16  N   UNL A   1      42.098  26.836  28.498  1.00  0.00    -0.248 NA
ATOM     17  C   UNL A   1      39.885  26.361  27.937  1.00  0.00     0.031 C 
ATOM     18  C   UNL A   1      40.842  30.845  30.030  1.00  0.00     0.029 A 
ATOM     19  N   UNL A   1      42.581  29.496  29.657  1.00  0.00    -0.354 N 
ATOM     20  C   UNL A   1      42.024  25.548  27.982  1.00  0.00     0.074 A 
ATOM     21  C   UNL A   1      40.630  25.292  27.693  1.00  0.00     0.031 C 
ATOM     22  C   UNL A   1      41.947  31.530  30.348  1.00  0.00     0.029 A 
ATOM     23  C   UNL A   1      43.104  30.668  30.153  1.00  0.00     0.049 A 
ATOM     24  H   UNL A   1      43.132  28.713  29.430  1.00  0.00     0.167 HD
ATOM     25  C   UNL A   1      43.029  24.664  27.767  1.00  0.00     0.037 A 
ATOM     26  C   UNL A   1      44.372  31.009  30.437  1.00  0.00     0.037 A 
ATOM     27  C   UNL A   1      44.419  24.939  28.034  1.00  0.00     0.049 A 
ATOM     28  C   UNL A   1      45.458  30.004  30.206  1.00  0.00     0.074 A 
ATOM     29  C   UNL A   1      45.517  24.126  27.812  1.00  0.00     0.029 A 
ATOM     30  N   UNL A   1      44.901  26.119  28.585  1.00  0.00    -0.354 N 
ATOM     31  N   UNL A   1      45.374  28.800  29.694  1.00  0.00    -0.248 NA
ATOM     32  C   UNL A   1      46.814  30.400  30.603  1.00  0.00     0.031 C 
ATOM     33  C   UNL A   1      46.656  24.791  28.279  1.00  0.00     0.029 A 
ATOM     34  C   UNL A   1      46.278  26.042  28.737  1.00  0.00     0.049 A 
ATOM     35  H   UNL A   1      44.348  26.894  28.832  1.00  0.00     0.167 HD
ATOM     36  C   UNL A   1      46.668  28.302  29.685  1.00  0.00     0.074 A 
ATOM     37  C   UNL A   1      47.520  29.344  30.224  1.00  0.00     0.031 C 
ATOM     38  C   UNL A   1      47.111  27.089  29.271  1.00  0.00     0.037 A 
BRANCH  25  39
ATOM     39  C   UNL A   1      42.662  23.302  27.250  1.00  0.00     0.057 A 
ATOM     40  C   UNL A   1      42.735  22.970  25.890  1.00  0.00     0.134 A 
ATOM     41  C   UNL A   1      42.263  22.291  28.136  1.00  0.00     0.134 A 
ATOM     42  F   UNL A   1      43.097  23.891  24.984  1.00  0.00    -0.206 F 
ATOM     43  C   UNL A   1      42.400  21.694  25.428  1.00  0.00     0.040 A 
ATOM     44  C   UNL A   1      41.953  21.005  27.690  1.00  0.00     0.040 A 
ATOM     45  F   UNL A   1      42.178  22.535  29.452  1.00  0.00    -0.206 F 
ATOM     46  C   UNL A   1      42.015  20.706  26.332  1.00  0.00     0.006 A 
ENDBRANCH  25  39
BRANCH  26  47
ATOM     47  C   UNL A   1      44.673  32.358  30.980  1.00  0.00     0.057 A 
ATOM     48  C   UNL A   1      44.680  32.599  32.358  1.00  0.00     0.134 A 
ATOM     49  C   UNL A   1      44.972  33.436  30.135  1.00  0.00     0.134 A 
ATOM     50  F   UNL A   1      44.389  31.612  33.218  1.00  0.00    -0.206 F 
ATOM     51  C   UNL A   1      44.956  33.866  32.877  1.00  0.00     0.040 A 
ATOM     52  C   UNL A   1      45.281  34.698  30.640  1.00  0.00     0.040 A 
ATOM     53  F   UNL A   1      44.993  33.267  28.805  1.00  0.00    -0.206 F 
ATOM     54  C   UNL A   1      45.264  34.918  32.016  1.00  0.00     0.006 A 
ENDBRANCH  26  47
BRANCH  38  55
ATOM     55  C   UNL A   1      48.590  26.850  29.345  1.00  0.00     0.057 A 
ATOM     56  C   UNL A   1      49.191  26.246  30.457  1.00  0.00     0.134 A 
ATOM     57  C   UNL A   1      49.424  27.225  28.283  1.00  0.00     0.134 A 
ATOM     58  F   UNL A   1      48.451  25.879  31.515  1.00  0.00    -0.206 F 
ATOM     59  C   UNL A   1      50.572  26.054  30.525  1.00  0.00     0.040 A 
ATOM     60  C   UNL A   1      50.801  27.010  28.326  1.00  0.00     0.040 A 
ATOM     61  F   UNL A   1      48.912  27.801  27.186  1.00  0.00    -0.206 F 
ATOM     62  C   UNL A   1      51.380  26.431  29.453  1.00  0.00     0.006 A 
ENDBRANCH  38  55
ENDBRANCH  12  13
ENDBRANCH   5   7
ENDBRANCH   2   3
ENDBRANCH   1   2
BRANCH   1  63
ATOM     63  C   UNL A   1      35.718  32.473  31.134  1.00  0.00     0.118 C 
BRANCH  63  64
ATOM     64  N   UNL A   1      35.628  32.961  32.488  1.00  0.00    -0.352 N 
ATOM     65  C   UNL A   1      36.419  32.710  33.585  1.00  0.00     0.255 C 
ATOM     66  H   UNL A   1      34.878  33.575  32.655  1.00  0.00     0.163 HD
ATOM     67  O   UNL A   1      36.089  33.228  34.653  1.00  0.00    -0.269 OA
BRANCH  65  68
ATOM     68  C   UNL A   1      37.578  31.762  33.580  1.00  0.00     0.087 A 
ATOM     69  C   UNL A   1      37.244  30.461  33.143  1.00  0.00     0.019 A 
ATOM     70  C   UNL A   1      38.921  32.033  33.937  1.00  0.00     0.150 A 
ATOM     71  C   UNL A   1      38.205  29.454  33.053  1.00  0.00     0.020 A 
ATOM     72  C   UNL A   1      39.883  31.011  33.846  1.00  0.00     0.072 A 
ATOM     73  C   UNL A   1      39.520  29.736  33.411  1.00  0.00     0.059 A 
BRANCH  70  74
ATOM     74  N   UNL A   1      39.362  33.283  34.409  1.00  0.00    -0.153 N 
ATOM     75  C   UNL A   1      39.352  33.614  35.741  1.00  0.00     0.385 C 
ATOM     76  C   UNL A   1      39.866  34.352  33.702  1.00  0.00     0.295 C 
ATOM     77  O   UNL A   1      39.075  32.918  36.700  1.00  0.00    -0.236 OA
ATOM     78  C   UNL A   1      39.811  35.038  35.726  1.00  0.00     0.215 C 
ATOM     79  N   UNL A   1      40.169  35.388  34.437  1.00  0.00    -0.233 N 
ATOM     80  C   UNL A   1      39.781  35.894  36.758  1.00  0.00     0.060 C 
ATOM     81  H   UNL A   1      40.567  36.237  34.137  1.00  0.00     0.312 HD
BRANCH  76  82
ATOM     82  C   UNL A   1      39.954  34.418  32.210  1.00  0.00     0.065 A 
ATOM     83  C   UNL A   1      41.220  34.551  31.630  1.00  0.00     0.017 A 
ATOM     84  C   UNL A   1      38.826  34.488  31.374  1.00  0.00     0.017 A 
ATOM     85  C   UNL A   1      41.352  34.742  30.250  1.00  0.00     0.001 A 
ATOM     86  C   UNL A   1      38.957  34.702  30.000  1.00  0.00     0.001 A 
ATOM     87  C   UNL A   1      40.222  34.828  29.439  1.00  0.00     0.000 A 
ENDBRANCH  76  82
BRANCH  80  88
ATOM     88  C   UNL A   1      39.357  35.582  38.106  1.00  0.00     0.005 C 
ATOM     89  C   UNL A   1      40.119  34.980  39.033  1.00  0.00     0.008 C 
BRANCH  89  90
ATOM     90  C   UNL A   1      39.580  34.586  40.347  1.00  0.00    -0.026 A 
ATOM     91  C   UNL A   1      40.390  33.912  41.268  1.00  0.00     0.008 A 
ATOM     92  C   UNL A   1      38.233  34.812  40.676  1.00  0.00     0.008 A 
ATOM     93  C   UNL A   1      39.870  33.497  42.500  1.00  0.00     0.001 A 
ATOM     94  C   UNL A   1      37.715  34.400  41.905  1.00  0.00     0.001 A 
ATOM     95  C   UNL A   1      38.534  33.743  42.818  1.00  0.00     0.000 A 
ENDBRANCH  89  90
ENDBRANCH  80  88
ENDBRANCH  70  74
BRANCH  73  96
ATOM     96  S   UNL A   1      40.728  28.449  33.322  1.00  0.00     0.124 S 
ATOM     97  O   UNL A   1      40.907  27.918  34.654  1.00  0.00    -0.237 OA
ATOM     98  O   UNL A   1      40.383  27.606  32.200  1.00  0.00    -0.237 OA
ATOM     99  O   UNL A   1      42.115  29.180  32.937  1.00  0.00    -0.744 OA
ENDBRANCH  73  96
ENDBRANCH  65  68
ENDBRANCH  63  64
ENDBRANCH   1  63
TORSDOF 15
ENDMDL
MODEL 3
REMARK VINA RESULT:     -10.0      2.682      7.566
REMARK SMILES O=C(NCCCNC(=O)c1ccc(S(=O)(=O)[O-])cc1N1C(=O)/C(=C\C=C\c2ccccc2)[NH+]=C1c1ccccc1)c1ccc(-c2c3nc(c(-c4c(F)cccc4F)c4ccc([nH]4)c(-c4c(F)cccc4F)c4nc(c(-c5c(F)cccc5F)c5ccc2[nH]5)C=C4)C=C3)cc1
REMARK SMILES IDX 5 1 4 2 3 3 1 4 2 5 41 7 42 8 94 9 43 10 93 11 44 12 45 13
REMARK SMILES IDX 46 14 87 15 47 16 92 17 86 18 88 19 48 20 91 21 85 22 84 23
REMARK SMILES IDX 49 25 75 26 58 27 74 28 59 29 62 30 73 31 89 32 60 33 61 34
REMARK SMILES IDX 72 36 90 37 63 38 50 39 51 40 56 41 52 42 53 43 55 44 57 45
REMARK SMILES IDX 54 46 76 47 77 48 82 49 78 50 79 51 81 52 83 53 80 54 64 55
REMARK SMILES IDX 65 56 70 57 66 58 67 59 69 60 71 61 68 62 6 63 7 64 8 65
REMARK SMILES IDX 9 67 10 68 11 69 19 70 12 71 18 72 13 73 20 74 21 75 34 76
REMARK SMILES IDX 22 77 23 78 33 79 24 80 35 82 36 83 40 84 37 85 39 86 38 87
REMARK SMILES IDX 25 88 26 89 27 90 28 91 32 92 29 93 31 94 30 95 14 96 15 97
REMARK SMILES IDX 16 98 17 99
REMARK H PARENT 3 6 88 24 62 35 7 66 33 81
REMARK Flexibility Score: inf
ROOT
ATOM      1  C   UNL A   1      35.385  32.245  31.572  1.00  0.00     0.042 C 
ENDROOT
BRANCH   1   2
ATOM      2  C   UNL A   1      35.952  32.015  30.188  1.00  0.00     0.118 C 
BRANCH   2   3
ATOM      3  N   UNL A   1      35.267  30.951  29.452  1.00  0.00    -0.352 N 
ATOM      4  O   UNL A   1      34.963  29.205  28.058  1.00  0.00    -0.269 OA
ATOM      5  C   UNL A   1      35.744  29.892  28.711  1.00  0.00     0.251 C 
ATOM      6  H   UNL A   1      34.285  31.001  29.496  1.00  0.00     0.163 HD
BRANCH   5   7
ATOM      7  C   UNL A   1      37.193  29.599  28.664  1.00  0.00     0.039 A 
ATOM      8  C   UNL A   1      37.943  29.948  27.547  1.00  0.00     0.014 A 
ATOM      9  C   UNL A   1      37.816  28.960  29.740  1.00  0.00     0.014 A 
ATOM     10  C   UNL A   1      39.210  29.420  27.381  1.00  0.00     0.010 A 
ATOM     11  C   UNL A   1      39.161  28.584  29.642  1.00  0.00     0.010 A 
ATOM     12  C   UNL A   1      39.854  28.758  28.436  1.00  0.00    -0.014 A 
BRANCH  12  13
ATOM     13  C   UNL A   1      41.261  28.322  28.238  1.00  0.00     0.031 A 
ATOM     14  C   UNL A   1      41.599  26.903  27.869  1.00  0.00     0.074 A 
ATOM     15  C   UNL A   1      42.236  29.251  28.324  1.00  0.00     0.049 A 
ATOM     16  N   UNL A   1      42.771  26.381  27.603  1.00  0.00    -0.248 NA
ATOM     17  C   UNL A   1      40.490  25.941  27.798  1.00  0.00     0.031 C 
ATOM     18  C   UNL A   1      42.030  30.658  28.680  1.00  0.00     0.029 A 
ATOM     19  N   UNL A   1      43.580  29.170  28.074  1.00  0.00    -0.354 N 
ATOM     20  C   UNL A   1      42.546  25.030  27.372  1.00  0.00     0.074 A 
ATOM     21  C   UNL A   1      41.128  24.806  27.548  1.00  0.00     0.031 C 
ATOM     22  C   UNL A   1      43.182  31.325  28.537  1.00  0.00     0.029 A 
ATOM     23  C   UNL A   1      44.228  30.379  28.177  1.00  0.00     0.049 A 
ATOM     24  H   UNL A   1      44.039  28.330  27.843  1.00  0.00     0.167 HD
ATOM     25  C   UNL A   1      43.442  24.068  27.042  1.00  0.00     0.037 A 
ATOM     26  C   UNL A   1      45.525  30.693  28.019  1.00  0.00     0.037 A 
ATOM     27  C   UNL A   1      44.849  24.307  26.842  1.00  0.00     0.049 A 
ATOM     28  C   UNL A   1      46.493  29.604  27.670  1.00  0.00     0.074 A 
ATOM     29  C   UNL A   1      45.833  23.408  26.465  1.00  0.00     0.029 A 
ATOM     30  N   UNL A   1      45.476  25.535  27.009  1.00  0.00    -0.354 N 
ATOM     31  N   UNL A   1      46.259  28.337  27.431  1.00  0.00    -0.248 NA
ATOM     32  C   UNL A   1      47.907  29.987  27.582  1.00  0.00     0.031 C 
ATOM     33  C   UNL A   1      47.060  24.079  26.457  1.00  0.00     0.029 A 
ATOM     34  C   UNL A   1      46.836  25.410  26.769  1.00  0.00     0.049 A 
ATOM     35  H   UNL A   1      45.021  26.371  27.260  1.00  0.00     0.167 HD
ATOM     36  C   UNL A   1      47.492  27.774  27.141  1.00  0.00     0.074 A 
ATOM     37  C   UNL A   1      48.468  28.844  27.214  1.00  0.00     0.031 C 
ATOM     38  C   UNL A   1      47.792  26.485  26.843  1.00  0.00     0.037 A 
BRANCH  25  39
ATOM     39  C   UNL A   1      42.936  22.659  26.907  1.00  0.00     0.057 A 
ATOM     40  C   UNL A   1      42.803  22.025  25.664  1.00  0.00     0.134 A 
ATOM     41  C   UNL A   1      42.610  21.911  28.047  1.00  0.00     0.134 A 
ATOM     42  F   UNL A   1      43.084  22.684  24.530  1.00  0.00    -0.206 F 
ATOM     43  C   UNL A   1      42.340  20.710  25.559  1.00  0.00     0.040 A 
ATOM     44  C   UNL A   1      42.175  20.588  27.957  1.00  0.00     0.040 A 
ATOM     45  F   UNL A   1      42.721  22.451  29.270  1.00  0.00    -0.206 F 
ATOM     46  C   UNL A   1      42.032  19.986  26.709  1.00  0.00     0.006 A 
ENDBRANCH  25  39
BRANCH  26  47
ATOM     47  C   UNL A   1      45.976  32.096  28.198  1.00  0.00     0.057 A 
ATOM     48  C   UNL A   1      45.931  33.013  27.142  1.00  0.00     0.134 A 
ATOM     49  C   UNL A   1      46.453  32.559  29.433  1.00  0.00     0.134 A 
ATOM     50  F   UNL A   1      45.497  32.628  25.932  1.00  0.00    -0.206 F 
ATOM     51  C   UNL A   1      46.358  34.332  27.300  1.00  0.00     0.040 A 
ATOM     52  C   UNL A   1      46.853  33.881  29.614  1.00  0.00     0.040 A 
ATOM     53  F   UNL A   1      46.510  31.733  30.488  1.00  0.00    -0.206 F 
ATOM     54  C   UNL A   1      46.815  34.771  28.541  1.00  0.00     0.006 A 
ENDBRANCH  26  47
BRANCH  38  55
ATOM     55  C   UNL A   1      49.227  26.180  26.530  1.00  0.00     0.057 A 
ATOM     56  C   UNL A   1      49.773  26.390  25.257  1.00  0.00     0.134 A 
ATOM     57  C   UNL A   1      50.076  25.673  27.522  1.00  0.00     0.134 A 
ATOM     58  F   UNL A   1      49.007  26.857  24.258  1.00  0.00    -0.206 F 
ATOM     59  C   UNL A   1      51.103  26.076  24.973  1.00  0.00     0.040 A 
ATOM     60  C   UNL A   1      51.415  25.385  27.259  1.00  0.00     0.040 A 
ATOM     61  F   UNL A   1      49.620  25.455  28.765  1.00  0.00    -0.206 F 
ATOM     62  C   UNL A   1      51.929  25.577  25.978  1.00  0.00     0.006 A 
ENDBRANCH  38  55
ENDBRANCH  12  13
ENDBRANCH   5   7
ENDBRANCH   2   3
ENDBRANCH   1   2
BRANCH   1  63
ATOM     63  C   UNL A   1      36.371  31.912  32.664  1.00  0.00     0.118 C 
BRANCH  63  64
ATOM     64  N   UNL A   1      36.741  30.522  32.773  1.00  0.00    -0.352 N 
ATOM     65  C   UNL A   1      37.656  29.901  33.591  1.00  0.00     0.255 C 
ATOM     66  H   UNL A   1      36.260  29.919  32.163  1.00  0.00     0.163 HD
ATOM     67  O   UNL A   1      37.812  28.687  33.448  1.00  0.00    -0.269 OA
BRANCH  65  68
ATOM     68  C   UNL A   1      38.543  30.626  34.554  1.00  0.00     0.087 A 
ATOM     69  C   UNL A   1      37.841  31.276  35.592  1.00  0.00     0.019 A 
ATOM     70  C   UNL A   1      39.957  30.706  34.539  1.00  0.00     0.150 A 
ATOM     71  C   UNL A   1      38.509  31.983  36.593  1.00  0.00     0.020 A 
ATOM     72  C   UNL A   1      40.623  31.422  35.549  1.00  0.00     0.072 A 
ATOM     73  C   UNL A   1      39.899  32.054  36.561  1.00  0.00     0.059 A 
BRANCH  70  74
ATOM     74  N   UNL A   1      40.757  30.119  33.541  1.00  0.00    -0.153 N 
ATOM     75  C   UNL A   1      41.365  28.899  33.705  1.00  0.00     0.385 C 
ATOM     76  C   UNL A   1      41.070  30.593  32.286  1.00  0.00     0.295 C 
ATOM     77  O   UNL A   1      41.263  28.111  34.626  1.00  0.00    -0.236 OA
ATOM     78  C   UNL A   1      42.155  28.757  32.442  1.00  0.00     0.215 C 
ATOM     79  N   UNL A   1      41.861  29.813  31.598  1.00  0.00    -0.233 N 
ATOM     80  C   UNL A   1      43.091  27.829  32.189  1.00  0.00     0.060 C 
ATOM     81  H   UNL A   1      42.180  29.948  30.677  1.00  0.00     0.312 HD
BRANCH  76  82
ATOM     82  C   UNL A   1      40.671  31.936  31.761  1.00  0.00     0.065 A 
ATOM     83  C   UNL A   1      39.670  31.990  30.786  1.00  0.00     0.017 A 
ATOM     84  C   UNL A   1      41.342  33.124  32.098  1.00  0.00     0.017 A 
ATOM     85  C   UNL A   1      39.344  33.204  30.171  1.00  0.00     0.001 A 
ATOM     86  C   UNL A   1      41.032  34.331  31.467  1.00  0.00     0.001 A 
ATOM     87  C   UNL A   1      40.032  34.370  30.504  1.00  0.00     0.000 A 
ENDBRANCH  76  82
BRANCH  80  88
ATOM     88  C   UNL A   1      43.469  26.745  33.071  1.00  0.00     0.005 C 
ATOM     89  C   UNL A   1      44.292  25.737  32.740  1.00  0.00     0.008 C 
BRANCH  89  90
ATOM     90  C   UNL A   1      44.537  24.604  33.651  1.00  0.00    -0.026 A 
ATOM     91  C   UNL A   1      45.822  24.060  33.769  1.00  0.00     0.008 A 
ATOM     92  C   UNL A   1      43.486  24.003  34.361  1.00  0.00     0.008 A 
ATOM     93  C   UNL A   1      46.051  22.956  34.599  1.00  0.00     0.001 A 
ATOM     94  C   UNL A   1      43.714  22.904  35.190  1.00  0.00     0.001 A 
ATOM     95  C   UNL A   1      44.998  22.380  35.310  1.00  0.00     0.000 A 
ENDBRANCH  89  90
ENDBRANCH  80  88
ENDBRANCH  70  74
BRANCH  73  96
ATOM     96  S   UNL A   1      40.739  32.974  37.815  1.00  0.00     0.124 S 
ATOM     97  O   UNL A   1      40.468  32.341  39.084  1.00  0.00    -0.237 OA
ATOM     98  O   UNL A   1      42.084  33.216  37.348  1.00  0.00    -0.237 OA
ATOM     99  O   UNL A   1      40.005  34.412  37.863  1.00  0.00    -0.744 OA
ENDBRANCH  73  96
ENDBRANCH  65  68
ENDBRANCH  63  64
ENDBRANCH   1  63
TORSDOF 15
ENDMDL
