MODEL 1
REMARK VINA RESULT:     -12.0      0.000      0.000
REMARK SMILES Cn1ccc(C(=O)NCc2ccc(C(=O)NCCCNC(=O)c3ccc(-c4c5nc(c(-c6c(F)cccc6F)c6ccc([nH]6)c(-c6c(F)cccc6F)c6nc(c(-c7c(F)cccc7F)c7ccc4[nH]7)C=C6)C=C5)cc3)cc2)cc1=O
REMARK SMILES IDX 17 1 16 2 14 3 15 4 13 6 10 7 11 8 78 9 12 10 77 11 9 12
REMARK SMILES IDX 8 13 6 14 7 15 5 17 1 18 2 19 3 20 80 21 4 22 79 23 81 24
REMARK SMILES IDX 18 25 19 26 20 27 21 28 22 30 23 31 24 32 76 33 25 34 75 35
REMARK SMILES IDX 26 36 27 37 28 38 69 39 29 40 74 41 68 42 70 43 30 44 73 45
REMARK SMILES IDX 67 46 66 47 31 49 57 50 40 51 56 52 41 53 44 54 55 55 71 56
REMARK SMILES IDX 42 57 43 58 54 60 72 61 45 62 32 63 33 64 38 65 34 66 35 67
REMARK SMILES IDX 37 68 39 69 36 70 58 71 59 72 64 73 60 74 61 75 63 76 65 77
REMARK SMILES IDX 62 78 46 79 47 80 52 81 48 82 49 83 51 84 53 85 50 86
REMARK H PARENT 16 5 8 16 20 29 70 48 44 59
REMARK Flexibility Score: inf
ROOT
ATOM      1  C   UNL A   1      35.999  20.063  25.025  1.00  0.00     0.118 C 
ENDROOT
BRANCH   1   2
ATOM      2  N   UNL A   1      35.001  19.007  25.029  1.00  0.00    -0.352 N 
ATOM      3  C   UNL A   1      33.679  18.993  24.659  1.00  0.00     0.251 C 
ATOM      4  O   UNL A   1      33.100  17.906  24.649  1.00  0.00    -0.269 OA
ATOM      5  H   UNL A   1      35.335  18.141  25.357  1.00  0.00     0.163 HD
BRANCH   3   6
ATOM      6  C   UNL A   1      32.927  20.212  24.252  1.00  0.00     0.039 A 
ATOM      7  C   UNL A   1      31.560  22.615  23.604  1.00  0.00    -0.029 A 
ATOM      8  C   UNL A   1      31.950  22.349  24.922  1.00  0.00     0.006 A 
ATOM      9  C   UNL A   1      31.903  21.680  22.616  1.00  0.00     0.006 A 
ATOM     10  C   UNL A   1      32.622  21.160  25.242  1.00  0.00     0.014 A 
ATOM     11  C   UNL A   1      32.586  20.504  22.934  1.00  0.00     0.014 A 
BRANCH   7  12
ATOM     12  C   UNL A   1      30.875  23.917  23.247  1.00  0.00     0.152 C 
BRANCH  12  13
ATOM     13  N   UNL A   1      31.645  24.673  22.275  1.00  0.00    -0.348 N 
ATOM     14  C   UNL A   1      32.918  25.130  22.226  1.00  0.00     0.251 C 
ATOM     15  O   UNL A   1      33.186  25.912  21.308  1.00  0.00    -0.269 OA
ATOM     16  H   UNL A   1      31.123  24.904  21.474  1.00  0.00     0.164 HD
BRANCH  14  17
ATOM     17  C   UNL A   1      34.011  24.659  23.134  1.00  0.00     0.046 A 
ATOM     18  C   UNL A   1      37.057  23.773  25.962  1.00  0.00     0.153 C 
ATOM     19  N   UNL A   1      36.000  24.031  24.996  1.00  0.00    -0.319 N 
ATOM     20  C   UNL A   1      34.966  24.867  25.362  1.00  0.00     0.089 A 
ATOM     21  C   UNL A   1      36.048  23.420  23.748  1.00  0.00     0.251 A 
ATOM     22  C   UNL A   1      34.003  25.186  24.492  1.00  0.00     0.032 A 
ATOM     23  C   UNL A   1      34.941  23.750  22.806  1.00  0.00     0.085 A 
ATOM     24  O   UNL A   1      36.934  22.657  23.370  1.00  0.00    -0.269 OA
ENDBRANCH  14  17
ENDBRANCH  12  13
ENDBRANCH   7  12
ENDBRANCH   3   6
ENDBRANCH   1   2
BRANCH   1  25
ATOM     25  C   UNL A   1      37.390  19.529  24.681  1.00  0.00     0.042 C 
BRANCH  25  26
ATOM     26  C   UNL A   1      38.512  20.141  25.513  1.00  0.00     0.118 C 
BRANCH  26  27
ATOM     27  N   UNL A   1      39.629  19.225  25.689  1.00  0.00    -0.352 N 
ATOM     28  C   UNL A   1      40.925  19.478  26.056  1.00  0.00     0.251 C 
ATOM     29  H   UNL A   1      39.423  18.278  25.516  1.00  0.00     0.163 HD
ATOM     30  O   UNL A   1      41.768  18.586  25.947  1.00  0.00    -0.269 OA
BRANCH  28  31
ATOM     31  C   UNL A   1      41.331  20.804  26.573  1.00  0.00     0.039 A 
ATOM     32  C   UNL A   1      41.207  21.057  27.944  1.00  0.00     0.014 A 
ATOM     33  C   UNL A   1      41.773  21.816  25.718  1.00  0.00     0.014 A 
ATOM     34  C   UNL A   1      41.568  22.303  28.460  1.00  0.00     0.010 A 
ATOM     35  C   UNL A   1      42.197  23.036  26.242  1.00  0.00     0.010 A 
ATOM     36  C   UNL A   1      42.087  23.297  27.616  1.00  0.00    -0.014 A 
BRANCH  36  37
ATOM     37  C   UNL A   1      42.505  24.618  28.146  1.00  0.00     0.031 A 
ATOM     38  C   UNL A   1      41.486  25.702  28.360  1.00  0.00     0.074 A 
ATOM     39  C   UNL A   1      43.808  24.864  28.373  1.00  0.00     0.049 A 
ATOM     40  N   UNL A   1      41.662  26.941  28.747  1.00  0.00    -0.248 NA
ATOM     41  C   UNL A   1      40.085  25.355  28.077  1.00  0.00     0.031 C 
ATOM     42  C   UNL A   1      44.897  23.908  28.173  1.00  0.00     0.029 A 
ATOM     43  N   UNL A   1      44.439  26.000  28.815  1.00  0.00    -0.354 N 
ATOM     44  C   UNL A   1      40.402  27.525  28.731  1.00  0.00     0.074 A 
ATOM     45  C   UNL A   1      39.477  26.519  28.253  1.00  0.00     0.031 C 
ATOM     46  C   UNL A   1      46.058  24.486  28.519  1.00  0.00     0.029 A 
ATOM     47  C   UNL A   1      45.801  25.864  28.928  1.00  0.00     0.049 A 
ATOM     48  H   UNL A   1      43.960  26.832  29.031  1.00  0.00     0.167 HD
ATOM     49  C   UNL A   1      40.044  28.779  29.096  1.00  0.00     0.037 A 
ATOM     50  C   UNL A   1      46.735  26.751  29.316  1.00  0.00     0.037 A 
ATOM     51  C   UNL A   1      40.962  29.769  29.597  1.00  0.00     0.049 A 
ATOM     52  C   UNL A   1      46.317  28.139  29.707  1.00  0.00     0.074 A 
ATOM     53  C   UNL A   1      40.688  31.043  30.063  1.00  0.00     0.029 A 
ATOM     54  N   UNL A   1      42.334  29.593  29.694  1.00  0.00    -0.354 N 
ATOM     55  N   UNL A   1      45.116  28.661  29.745  1.00  0.00    -0.248 NA
ATOM     56  C   UNL A   1      47.388  29.063  30.109  1.00  0.00     0.031 C 
ATOM     57  C   UNL A   1      41.900  31.653  30.403  1.00  0.00     0.029 A 
ATOM     58  C   UNL A   1      42.925  30.745  30.189  1.00  0.00     0.049 A 
ATOM     59  H   UNL A   1      42.817  28.771  29.449  1.00  0.00     0.167 HD
ATOM     60  C   UNL A   1      45.278  29.962  30.202  1.00  0.00     0.074 A 
ATOM     61  C   UNL A   1      46.698  30.148  30.432  1.00  0.00     0.031 C 
ATOM     62  C   UNL A   1      44.338  30.914  30.415  1.00  0.00     0.037 A 
BRANCH  49  63
ATOM     63  C   UNL A   1      38.595  29.147  28.954  1.00  0.00     0.057 A 
ATOM     64  C   UNL A   1      38.062  29.612  27.743  1.00  0.00     0.134 A 
ATOM     65  C   UNL A   1      37.721  29.039  30.043  1.00  0.00     0.134 A 
ATOM     66  F   UNL A   1      38.848  29.751  26.664  1.00  0.00    -0.206 F 
ATOM     67  C   UNL A   1      36.723  29.991  27.633  1.00  0.00     0.040 A 
ATOM     68  C   UNL A   1      36.374  29.388  29.937  1.00  0.00     0.040 A 
ATOM     69  F   UNL A   1      38.162  28.595  31.229  1.00  0.00    -0.206 F 
ATOM     70  C   UNL A   1      35.873  29.876  28.731  1.00  0.00     0.006 A 
ENDBRANCH  49  63
BRANCH  50  71
ATOM     71  C   UNL A   1      48.156  26.333  29.395  1.00  0.00     0.057 A 
ATOM     72  C   UNL A   1      49.020  26.533  28.312  1.00  0.00     0.134 A 
ATOM     73  C   UNL A   1      48.690  25.751  30.551  1.00  0.00     0.134 A 
ATOM     74  F   UNL A   1      48.559  27.071  27.174  1.00  0.00    -0.206 F 
ATOM     75  C   UNL A   1      50.364  26.162  28.371  1.00  0.00     0.040 A 
ATOM     76  C   UNL A   1      50.037  25.394  30.630  1.00  0.00     0.040 A 
ATOM     77  F   UNL A   1      47.914  25.540  31.624  1.00  0.00    -0.206 F 
ATOM     78  C   UNL A   1      50.877  25.598  29.537  1.00  0.00     0.006 A 
ENDBRANCH  50  71
BRANCH  62  79
ATOM     79  C   UNL A   1      44.810  32.232  30.954  1.00  0.00     0.057 A 
ATOM     80  C   UNL A   1      45.147  33.297  30.111  1.00  0.00     0.134 A 
ATOM     81  C   UNL A   1      44.891  32.447  32.336  1.00  0.00     0.134 A 
ATOM     82  F   UNL A   1      45.103  33.150  28.778  1.00  0.00    -0.206 F 
ATOM     83  C   UNL A   1      45.568  34.526  30.622  1.00  0.00     0.040 A 
ATOM     84  C   UNL A   1      45.287  33.678  32.860  1.00  0.00     0.040 A 
ATOM     85  F   UNL A   1      44.575  31.469  33.198  1.00  0.00    -0.206 F 
ATOM     86  C   UNL A   1      45.632  34.720  32.002  1.00  0.00     0.006 A 
ENDBRANCH  62  79
ENDBRANCH  36  37
ENDBRANCH  28  31
ENDBRANCH  26  27
ENDBRANCH  25  26
ENDBRANCH   1  25
TORSDOF 13
ENDMDL
MODEL 2
REMARK VINA RESULT:     -12.0      0.306      6.191
REMARK SMILES Cn1ccc(C(=O)NCc2ccc(C(=O)NCCCNC(=O)c3ccc(-c4c5nc(c(-c6c(F)cccc6F)c6ccc([nH]6)c(-c6c(F)cccc6F)c6nc(c(-c7c(F)cccc7F)c7ccc4[nH]7)C=C6)C=C5)cc3)cc2)cc1=O
REMARK SMILES IDX 17 1 16 2 14 3 15 4 13 6 10 7 11 8 78 9 12 10 77 11 9 12
REMARK SMILES IDX 8 13 6 14 7 15 5 17 1 18 2 19 3 20 80 21 4 22 79 23 81 24
REMARK SMILES IDX 18 25 19 26 20 27 21 28 22 30 23 31 24 32 76 33 25 34 75 35
REMARK SMILES IDX 26 36 27 37 28 38 69 39 29 40 74 41 68 42 70 43 30 44 73 45
REMARK SMILES IDX 67 46 66 47 31 49 57 50 40 51 56 52 41 53 44 54 55 55 71 56
REMARK SMILES IDX 42 57 43 58 54 60 72 61 45 62 32 63 33 64 38 65 34 66 35 67
REMARK SMILES IDX 37 68 39 69 36 70 58 71 59 72 64 73 60 74 61 75 63 76 65 77
REMARK SMILES IDX 62 78 46 79 47 80 52 81 48 82 49 83 51 84 53 85 50 86
REMARK H PARENT 16 5 8 16 20 29 70 48 44 59
REMARK Flexibility Score: inf
ROOT
ATOM      1  C   UNL A   1      36.051  19.879  25.007  1.00  0.00     0.118 C 
ENDROOT
BRANCH   1   2
ATOM      2  N   UNL A   1      35.049  18.828  24.978  1.00  0.00    -0.352 N 
ATOM      3  C   UNL A   1      33.727  18.830  24.605  1.00  0.00     0.251 C 
ATOM      4  O   UNL A   1      33.143  17.746  24.563  1.00  0.00    -0.269 OA
ATOM      5  H   UNL A   1      35.378  17.951  25.283  1.00  0.00     0.163 HD
BRANCH   3   6
ATOM      6  C   UNL A   1      32.981  20.064  24.232  1.00  0.00     0.039 A 
ATOM      7  C   UNL A   1      31.633  22.493  23.645  1.00  0.00    -0.029 A 
ATOM      8  C   UNL A   1      32.072  22.216  24.946  1.00  0.00     0.006 A 
ATOM      9  C   UNL A   1      31.919  21.555  22.642  1.00  0.00     0.006 A 
ATOM     10  C   UNL A   1      32.734  21.014  25.235  1.00  0.00     0.014 A 
ATOM     11  C   UNL A   1      32.593  20.366  22.929  1.00  0.00     0.014 A 
BRANCH   7  12
ATOM     12  C   UNL A   1      30.958  23.809  23.319  1.00  0.00     0.152 C 
BRANCH  12  13
ATOM     13  N   UNL A   1      31.714  24.563  22.337  1.00  0.00    -0.348 N 
ATOM     14  C   UNL A   1      32.984  25.027  22.272  1.00  0.00     0.251 C 
ATOM     15  O   UNL A   1      33.239  25.806  21.348  1.00  0.00    -0.269 OA
ATOM     16  H   UNL A   1      31.183  24.790  21.540  1.00  0.00     0.164 HD
BRANCH  14  17
ATOM     17  C   UNL A   1      34.089  24.564  23.170  1.00  0.00     0.046 A 
ATOM     18  C   UNL A   1      37.178  23.707  25.961  1.00  0.00     0.153 C 
ATOM     19  N   UNL A   1      36.106  23.955  25.008  1.00  0.00    -0.319 N 
ATOM     20  C   UNL A   1      35.087  24.809  25.375  1.00  0.00     0.089 A 
ATOM     21  C   UNL A   1      36.125  23.317  23.773  1.00  0.00     0.251 A 
ATOM     22  C   UNL A   1      34.111  25.119  24.516  1.00  0.00     0.032 A 
ATOM     23  C   UNL A   1      35.004  23.639  22.845  1.00  0.00     0.085 A 
ATOM     24  O   UNL A   1      36.996  22.538  23.395  1.00  0.00    -0.269 OA
ENDBRANCH  14  17
ENDBRANCH  12  13
ENDBRANCH   7  12
ENDBRANCH   3   6
ENDBRANCH   1   2
BRANCH   1  25
ATOM     25  C   UNL A   1      37.447  19.342  24.685  1.00  0.00     0.042 C 
BRANCH  25  26
ATOM     26  C   UNL A   1      38.569  20.041  25.445  1.00  0.00     0.118 C 
BRANCH  26  27
ATOM     27  N   UNL A   1      39.709  19.165  25.670  1.00  0.00    -0.352 N 
ATOM     28  C   UNL A   1      40.985  19.465  26.074  1.00  0.00     0.251 C 
ATOM     29  H   UNL A   1      39.539  18.209  25.507  1.00  0.00     0.163 HD
ATOM     30  O   UNL A   1      41.858  18.600  26.005  1.00  0.00    -0.269 OA
BRANCH  28  31
ATOM     31  C   UNL A   1      41.331  20.811  26.582  1.00  0.00     0.039 A 
ATOM     32  C   UNL A   1      41.867  21.748  25.691  1.00  0.00     0.014 A 
ATOM     33  C   UNL A   1      41.191  21.139  27.933  1.00  0.00     0.014 A 
ATOM     34  C   UNL A   1      42.217  23.022  26.144  1.00  0.00     0.010 A 
ATOM     35  C   UNL A   1      41.476  22.431  28.370  1.00  0.00     0.010 A 
ATOM     36  C   UNL A   1      42.004  23.381  27.483  1.00  0.00    -0.014 A 
BRANCH  36  37
ATOM     37  C   UNL A   1      42.341  24.738  27.980  1.00  0.00     0.031 A 
ATOM     38  C   UNL A   1      43.759  25.079  28.344  1.00  0.00     0.074 A 
ATOM     39  C   UNL A   1      41.363  25.644  28.165  1.00  0.00     0.049 A 
ATOM     40  N   UNL A   1      44.241  26.182  28.860  1.00  0.00    -0.248 NA
ATOM     41  C   UNL A   1      44.767  24.030  28.122  1.00  0.00     0.031 C 
ATOM     42  C   UNL A   1      39.943  25.425  27.882  1.00  0.00     0.029 A 
ATOM     43  N   UNL A   1      41.413  26.928  28.645  1.00  0.00    -0.354 N 
ATOM     44  C   UNL A   1      45.598  25.951  29.046  1.00  0.00     0.074 A 
ATOM     45  C   UNL A   1      45.855  24.589  28.630  1.00  0.00     0.031 C 
ATOM     46  C   UNL A   1      39.262  26.546  28.165  1.00  0.00     0.029 A 
ATOM     47  C   UNL A   1      40.188  27.548  28.685  1.00  0.00     0.049 A 
ATOM     48  H   UNL A   1      42.247  27.363  28.933  1.00  0.00     0.167 HD
ATOM     49  C   UNL A   1      46.547  26.801  29.506  1.00  0.00     0.037 A 
ATOM     50  C   UNL A   1      39.851  28.784  29.096  1.00  0.00     0.037 A 
ATOM     51  C   UNL A   1      46.293  28.165  29.892  1.00  0.00     0.049 A 
ATOM     52  C   UNL A   1      40.918  29.707  29.611  1.00  0.00     0.074 A 
ATOM     53  C   UNL A   1      47.198  29.129  30.301  1.00  0.00     0.029 A 
ATOM     54  N   UNL A   1      45.039  28.755  29.920  1.00  0.00    -0.354 N 
ATOM     55  N   UNL A   1      42.207  29.498  29.725  1.00  0.00    -0.248 NA
ATOM     56  C   UNL A   1      40.482  31.039  30.055  1.00  0.00     0.031 C 
ATOM     57  C   UNL A   1      46.485  30.291  30.616  1.00  0.00     0.029 A 
ATOM     58  C   UNL A   1      45.141  30.064  30.364  1.00  0.00     0.049 A 
ATOM     59  H   UNL A   1      44.199  28.311  29.663  1.00  0.00     0.167 HD
ATOM     60  C   UNL A   1      42.742  30.678  30.225  1.00  0.00     0.074 A 
ATOM     61  C   UNL A   1      41.636  31.601  30.388  1.00  0.00     0.031 C 
ATOM     62  C   UNL A   1      44.032  30.971  30.519  1.00  0.00     0.037 A 
BRANCH  49  63
ATOM     63  C   UNL A   1      47.946  26.269  29.621  1.00  0.00     0.057 A 
ATOM     64  C   UNL A   1      48.837  26.281  28.539  1.00  0.00     0.134 A 
ATOM     65  C   UNL A   1      48.409  25.733  30.830  1.00  0.00     0.134 A 
ATOM     66  F   UNL A   1      48.453  26.769  27.349  1.00  0.00    -0.206 F 
ATOM     67  C   UNL A   1      50.122  25.746  28.644  1.00  0.00     0.040 A 
ATOM     68  C   UNL A   1      49.701  25.220  30.955  1.00  0.00     0.040 A 
ATOM     69  F   UNL A   1      47.612  25.697  31.908  1.00  0.00    -0.206 F 
ATOM     70  C   UNL A   1      50.559  25.216  29.856  1.00  0.00     0.006 A 
ENDBRANCH  49  63
BRANCH  50  71
ATOM     71  C   UNL A   1      38.442  29.234  28.992  1.00  0.00     0.057 A 
ATOM     72  C   UNL A   1      37.589  29.171  30.101  1.00  0.00     0.134 A 
ATOM     73  C   UNL A   1      37.919  29.755  27.803  1.00  0.00     0.134 A 
ATOM     74  F   UNL A   1      38.031  28.666  31.262  1.00  0.00    -0.206 F 
ATOM     75  C   UNL A   1      36.265  29.604  30.030  1.00  0.00     0.040 A 
ATOM     76  C   UNL A   1      36.602  30.210  27.723  1.00  0.00     0.040 A 
ATOM     77  F   UNL A   1      38.688  29.847  26.708  1.00  0.00    -0.206 F 
ATOM     78  C   UNL A   1      35.770  30.132  28.839  1.00  0.00     0.006 A 
ENDBRANCH  50  71
BRANCH  62  79
ATOM     79  C   UNL A   1      44.322  32.357  31.015  1.00  0.00     0.057 A 
ATOM     80  C   UNL A   1      44.583  33.416  30.138  1.00  0.00     0.134 A 
ATOM     81  C   UNL A   1      44.301  32.640  32.387  1.00  0.00     0.134 A 
ATOM     82  F   UNL A   1      44.631  33.206  28.813  1.00  0.00    -0.206 F 
ATOM     83  C   UNL A   1      44.834  34.706  30.608  1.00  0.00     0.040 A 
ATOM     84  C   UNL A   1      44.527  33.930  32.868  1.00  0.00     0.040 A 
ATOM     85  F   UNL A   1      44.050  31.670  33.279  1.00  0.00    -0.206 F 
ATOM     86  C   UNL A   1      44.799  34.966  31.978  1.00  0.00     0.006 A 
ENDBRANCH  62  79
ENDBRANCH  36  37
ENDBRANCH  28  31
ENDBRANCH  26  27
ENDBRANCH  25  26
ENDBRANCH   1  25
TORSDOF 13
ENDMDL
MODEL 3
REMARK VINA RESULT:     -11.9      4.186      8.841
REMARK SMILES Cn1ccc(C(=O)NCc2ccc(C(=O)NCCCNC(=O)c3ccc(-c4c5nc(c(-c6c(F)cccc6F)c6ccc([nH]6)c(-c6c(F)cccc6F)c6nc(c(-c7c(F)cccc7F)c7ccc4[nH]7)C=C6)C=C5)cc3)cc2)cc1=O
REMARK SMILES IDX 17 1 16 2 14 3 15 4 13 6 10 7 11 8 78 9 12 10 77 11 9 12
REMARK SMILES IDX 8 13 6 14 7 15 5 17 1 18 2 19 3 20 80 21 4 22 79 23 81 24
REMARK SMILES IDX 18 25 19 26 20 27 21 28 22 30 23 31 24 32 76 33 25 34 75 35
REMARK SMILES IDX 26 36 27 37 28 38 69 39 29 40 74 41 68 42 70 43 30 44 73 45
REMARK SMILES IDX 67 46 66 47 31 49 57 50 40 51 56 52 41 53 44 54 55 55 71 56
REMARK SMILES IDX 42 57 43 58 54 60 72 61 45 62 32 63 33 64 38 65 34 66 35 67
REMARK SMILES IDX 37 68 39 69 36 70 58 71 59 72 64 73 60 74 61 75 63 76 65 77
REMARK SMILES IDX 62 78 46 79 47 80 52 81 48 82 49 83 51 84 53 85 50 86
REMARK H PARENT 16 5 8 16 20 29 70 48 44 59
REMARK Flexibility Score: inf
ROOT
ATOM      1  C   UNL A   1      31.034  30.657  25.088  1.00  0.00     0.118 C 
ENDROOT
BRANCH   1   2
ATOM      2  N   UNL A   1      30.166  30.811  23.933  1.00  0.00    -0.352 N 
ATOM      3  C   UNL A   1      29.538  29.892  23.129  1.00  0.00     0.251 C 
ATOM      4  O   UNL A   1      28.747  30.317  22.286  1.00  0.00    -0.269 OA
ATOM      5  H   UNL A   1      29.996  31.747  23.681  1.00  0.00     0.163 HD
BRANCH   3   6
ATOM      6  C   UNL A   1      29.749  28.422  23.240  1.00  0.00     0.039 A 
ATOM      7  C   UNL A   1      30.312  25.649  23.465  1.00  0.00    -0.029 A 
ATOM      8  C   UNL A   1      31.267  26.531  22.946  1.00  0.00     0.006 A 
ATOM      9  C   UNL A   1      29.093  26.184  23.906  1.00  0.00     0.006 A 
ATOM     10  C   UNL A   1      30.987  27.901  22.832  1.00  0.00     0.014 A 
ATOM     11  C   UNL A   1      28.822  27.551  23.807  1.00  0.00     0.014 A 
BRANCH   7  12
ATOM     12  C   UNL A   1      30.628  24.177  23.632  1.00  0.00     0.152 C 
BRANCH  12  13
ATOM     13  N   UNL A   1      30.503  23.761  25.017  1.00  0.00    -0.348 N 
ATOM     14  C   UNL A   1      31.074  24.157  26.178  1.00  0.00     0.251 C 
ATOM     15  O   UNL A   1      30.867  23.443  27.165  1.00  0.00    -0.269 OA
ATOM     16  H   UNL A   1      29.860  23.026  25.137  1.00  0.00     0.164 HD
BRANCH  14  17
ATOM     17  C   UNL A   1      31.825  25.441  26.345  1.00  0.00     0.046 A 
ATOM     18  C   UNL A   1      34.390  28.798  26.811  1.00  0.00     0.153 C 
ATOM     19  N   UNL A   1      33.484  27.676  26.623  1.00  0.00    -0.319 N 
ATOM     20  C   UNL A   1      33.951  26.560  25.959  1.00  0.00     0.089 A 
ATOM     21  C   UNL A   1      32.179  27.760  27.094  1.00  0.00     0.251 A 
ATOM     22  C   UNL A   1      33.181  25.478  25.813  1.00  0.00     0.032 A 
ATOM     23  C   UNL A   1      31.319  26.562  26.882  1.00  0.00     0.085 A 
ATOM     24  O   UNL A   1      31.702  28.730  27.679  1.00  0.00    -0.269 OA
ENDBRANCH  14  17
ENDBRANCH  12  13
ENDBRANCH   7  12
ENDBRANCH   3   6
ENDBRANCH   1   2
BRANCH   1  25
ATOM     25  C   UNL A   1      30.841  31.788  26.099  1.00  0.00     0.042 C 
BRANCH  25  26
ATOM     26  C   UNL A   1      32.122  32.205  26.814  1.00  0.00     0.118 C 
BRANCH  26  27
ATOM     27  N   UNL A   1      32.090  33.598  27.232  1.00  0.00    -0.352 N 
ATOM     28  C   UNL A   1      32.894  34.271  28.116  1.00  0.00     0.251 C 
ATOM     29  H   UNL A   1      31.381  34.141  26.818  1.00  0.00     0.163 HD
ATOM     30  O   UNL A   1      32.569  35.400  28.486  1.00  0.00    -0.269 OA
BRANCH  28  31
ATOM     31  C   UNL A   1      34.137  33.663  28.637  1.00  0.00     0.039 A 
ATOM     32  C   UNL A   1      34.076  32.915  29.819  1.00  0.00     0.014 A 
ATOM     33  C   UNL A   1      35.369  33.870  28.010  1.00  0.00     0.014 A 
ATOM     34  C   UNL A   1      35.236  32.341  30.344  1.00  0.00     0.010 A 
ATOM     35  C   UNL A   1      36.513  33.241  28.496  1.00  0.00     0.010 A 
ATOM     36  C   UNL A   1      36.461  32.481  29.674  1.00  0.00    -0.014 A 
BRANCH  36  37
ATOM     37  C   UNL A   1      37.701  31.855  30.197  1.00  0.00     0.031 A 
ATOM     38  C   UNL A   1      38.452  32.497  31.329  1.00  0.00     0.074 A 
ATOM     39  C   UNL A   1      38.186  30.744  29.612  1.00  0.00     0.049 A 
ATOM     40  N   UNL A   1      39.588  32.143  31.877  1.00  0.00    -0.248 NA
ATOM     41  C   UNL A   1      37.861  33.715  31.905  1.00  0.00     0.031 C 
ATOM     42  C   UNL A   1      37.569  30.043  28.485  1.00  0.00     0.029 A 
ATOM     43  N   UNL A   1      39.316  30.013  29.880  1.00  0.00    -0.354 N 
ATOM     44  C   UNL A   1      39.858  33.105  32.842  1.00  0.00     0.074 A 
ATOM     45  C   UNL A   1      38.791  34.081  32.774  1.00  0.00     0.031 C 
ATOM     46  C   UNL A   1      38.311  28.968  28.177  1.00  0.00     0.029 A 
ATOM     47  C   UNL A   1      39.475  28.925  29.058  1.00  0.00     0.049 A 
ATOM     48  H   UNL A   1      39.952  30.247  30.594  1.00  0.00     0.167 HD
ATOM     49  C   UNL A   1      40.891  33.163  33.717  1.00  0.00     0.037 A 
ATOM     50  C   UNL A   1      40.450  27.999  29.018  1.00  0.00     0.037 A 
ATOM     51  C   UNL A   1      41.935  32.175  33.800  1.00  0.00     0.049 A 
ATOM     52  C   UNL A   1      41.591  28.086  29.991  1.00  0.00     0.074 A 
ATOM     53  C   UNL A   1      42.985  32.104  34.699  1.00  0.00     0.029 A 
ATOM     54  N   UNL A   1      42.062  31.089  32.948  1.00  0.00    -0.354 N 
ATOM     55  N   UNL A   1      41.803  28.967  30.938  1.00  0.00    -0.248 NA
ATOM     56  C   UNL A   1      42.629  27.051  29.887  1.00  0.00     0.031 C 
ATOM     57  C   UNL A   1      43.771  30.995  34.364  1.00  0.00     0.029 A 
ATOM     58  C   UNL A   1      43.188  30.353  33.283  1.00  0.00     0.049 A 
ATOM     59  H   UNL A   1      41.444  30.871  32.213  1.00  0.00     0.167 HD
ATOM     60  C   UNL A   1      42.980  28.578  31.563  1.00  0.00     0.074 A 
ATOM     61  C   UNL A   1      43.434  27.378  30.889  1.00  0.00     0.031 C 
ATOM     62  C   UNL A   1      43.625  29.160  32.604  1.00  0.00     0.037 A 
BRANCH  49  63
ATOM     63  C   UNL A   1      40.938  34.342  34.645  1.00  0.00     0.057 A 
ATOM     64  C   UNL A   1      41.631  35.516  34.319  1.00  0.00     0.134 A 
ATOM     65  C   UNL A   1      40.285  34.302  35.883  1.00  0.00     0.134 A 
ATOM     66  F   UNL A   1      42.290  35.615  33.154  1.00  0.00    -0.206 F 
ATOM     67  C   UNL A   1      41.705  36.592  35.206  1.00  0.00     0.040 A 
ATOM     68  C   UNL A   1      40.328  35.383  36.767  1.00  0.00     0.040 A 
ATOM     69  F   UNL A   1      39.597  33.214  36.256  1.00  0.00    -0.206 F 
ATOM     70  C   UNL A   1      41.048  36.528  36.433  1.00  0.00     0.006 A 
ENDBRANCH  49  63
BRANCH  50  71
ATOM     71  C   UNL A   1      40.362  26.881  28.048  1.00  0.00     0.057 A 
ATOM     72  C   UNL A   1      39.601  25.742  28.338  1.00  0.00     0.134 A 
ATOM     73  C   UNL A   1      41.008  26.928  26.807  1.00  0.00     0.134 A 
ATOM     74  F   UNL A   1      38.974  25.635  29.518  1.00  0.00    -0.206 F 
ATOM     75  C   UNL A   1      39.490  24.686  27.433  1.00  0.00     0.040 A 
ATOM     76  C   UNL A   1      40.889  25.888  25.884  1.00  0.00     0.040 A 
ATOM     77  F   UNL A   1      41.746  27.995  26.467  1.00  0.00    -0.206 F 
ATOM     78  C   UNL A   1      40.131  24.762  26.198  1.00  0.00     0.006 A 
ENDBRANCH  50  71
BRANCH  62  79
ATOM     79  C   UNL A   1      44.871  28.487  33.098  1.00  0.00     0.057 A 
ATOM     80  C   UNL A   1      44.832  27.479  34.068  1.00  0.00     0.134 A 
ATOM     81  C   UNL A   1      46.122  28.829  32.567  1.00  0.00     0.134 A 
ATOM     82  F   UNL A   1      43.667  27.116  34.625  1.00  0.00    -0.206 F 
ATOM     83  C   UNL A   1      45.996  26.846  34.508  1.00  0.00     0.040 A 
ATOM     84  C   UNL A   1      47.290  28.188  32.982  1.00  0.00     0.040 A 
ATOM     85  F   UNL A   1      46.227  29.783  31.630  1.00  0.00    -0.206 F 
ATOM     86  C   UNL A   1      47.229  27.196  33.958  1.00  0.00     0.006 A 
ENDBRANCH  62  79
ENDBRANCH  36  37
ENDBRANCH  28  31
ENDBRANCH  26  27
ENDBRANCH  25  26
ENDBRANCH   1  25
TORSDOF 13
ENDMDL
