MODEL 1
REMARK VINA RESULT:     -12.0      0.000      0.000
REMARK SMILES O=C(NCCCNC(=O)c1cccc(CSc2nc(-c3ccccc3)n[nH]2)c1)c1ccc(-c2c3nc(c(-c4c(F)cccc4F)c4ccc([nH]4)c(-c4c(F)cccc4F)c4nc(c(-c5c(F)cccc5F)c5ccc2[nH]5)C=C4)C=C3)cc1
REMARK SMILES IDX 6 1 5 2 4 3 3 4 1 5 2 6 29 8 30 9 82 10 31 11 81 12 32 13
REMARK SMILES IDX 33 14 34 15 75 16 35 17 80 18 74 19 76 20 36 21 79 22 73 23
REMARK SMILES IDX 72 24 37 26 63 27 46 28 62 29 47 30 50 31 61 32 77 33 48 34
REMARK SMILES IDX 49 35 60 37 78 38 51 39 38 40 39 41 44 42 40 43 41 44 43 45
REMARK SMILES IDX 45 46 42 47 64 48 65 49 70 50 66 51 67 52 69 53 71 54 68 55
REMARK SMILES IDX 52 56 53 57 58 58 54 59 55 60 57 61 59 62 56 63 7 64 8 65
REMARK SMILES IDX 9 67 10 68 11 69 28 70 12 71 14 72 13 73 15 74 16 75 17 76
REMARK SMILES IDX 18 77 27 78 19 79 26 80 20 82 21 83 25 84 22 85 24 86 23 87
REMARK H PARENT 3 7 76 25 50 36 7 66 27 81
REMARK Flexibility Score: inf
ROOT
ATOM      1  C   UNL A   1      31.816  30.655  26.620  1.00  0.00     0.118 C 
ENDROOT
BRANCH   1   2
ATOM      2  C   UNL A   1      31.419  32.100  26.873  1.00  0.00     0.042 C 
BRANCH   2   3
ATOM      3  C   UNL A   1      32.568  33.089  26.761  1.00  0.00     0.118 C 
BRANCH   3   4
ATOM      4  N   UNL A   1      32.405  34.256  27.619  1.00  0.00    -0.352 N 
ATOM      5  O   UNL A   1      32.686  35.585  29.415  1.00  0.00    -0.269 OA
ATOM      6  C   UNL A   1      33.091  34.636  28.747  1.00  0.00     0.251 C 
ATOM      7  H   UNL A   1      31.687  34.871  27.345  1.00  0.00     0.163 HD
BRANCH   6   8
ATOM      8  C   UNL A   1      34.291  33.891  29.186  1.00  0.00     0.039 A 
ATOM      9  C   UNL A   1      34.180  32.656  29.823  1.00  0.00     0.014 A 
ATOM     10  C   UNL A   1      35.556  34.436  28.943  1.00  0.00     0.014 A 
ATOM     11  C   UNL A   1      35.304  32.063  30.385  1.00  0.00     0.010 A 
ATOM     12  C   UNL A   1      36.699  33.782  29.414  1.00  0.00     0.010 A 
ATOM     13  C   UNL A   1      36.580  32.614  30.181  1.00  0.00    -0.014 A 
BRANCH  13  14
ATOM     14  C   UNL A   1      37.766  31.931  30.757  1.00  0.00     0.031 A 
ATOM     15  C   UNL A   1      38.219  32.210  32.164  1.00  0.00     0.074 A 
ATOM     16  C   UNL A   1      38.417  31.018  30.010  1.00  0.00     0.049 A 
ATOM     17  N   UNL A   1      39.210  31.675  32.833  1.00  0.00    -0.248 NA
ATOM     18  C   UNL A   1      37.471  33.228  32.918  1.00  0.00     0.031 C 
ATOM     19  C   UNL A   1      38.079  30.665  28.628  1.00  0.00     0.029 A 
ATOM     20  N   UNL A   1      39.477  30.202  30.310  1.00  0.00    -0.354 N 
ATOM     21  C   UNL A   1      39.223  32.307  34.069  1.00  0.00     0.074 A 
ATOM     22  C   UNL A   1      38.155  33.284  34.052  1.00  0.00     0.031 C 
ATOM     23  C   UNL A   1      38.873  29.664  28.224  1.00  0.00     0.029 A 
ATOM     24  C   UNL A   1      39.818  29.350  29.290  1.00  0.00     0.049 A 
ATOM     25  H   UNL A   1      39.949  30.227  31.174  1.00  0.00     0.167 HD
ATOM     26  C   UNL A   1      40.044  32.088  35.125  1.00  0.00     0.037 A 
ATOM     27  C   UNL A   1      40.786  28.420  29.214  1.00  0.00     0.037 A 
ATOM     28  C   UNL A   1      41.090  31.097  35.149  1.00  0.00     0.049 A 
ATOM     29  C   UNL A   1      41.689  28.206  30.393  1.00  0.00     0.074 A 
ATOM     30  C   UNL A   1      41.945  30.769  36.187  1.00  0.00     0.029 A 
ATOM     31  N   UNL A   1      41.426  30.276  34.083  1.00  0.00    -0.354 N 
ATOM     32  N   UNL A   1      41.667  28.789  31.565  1.00  0.00    -0.248 NA
ATOM     33  C   UNL A   1      42.756  27.209  30.232  1.00  0.00     0.031 C 
ATOM     34  C   UNL A   1      42.828  29.781  35.734  1.00  0.00     0.029 A 
ATOM     35  C   UNL A   1      42.490  29.459  34.430  1.00  0.00     0.049 A 
ATOM     36  H   UNL A   1      40.974  30.274  33.207  1.00  0.00     0.167 HD
ATOM     37  C   UNL A   1      42.698  28.213  32.294  1.00  0.00     0.074 A 
ATOM     38  C   UNL A   1      43.318  27.227  31.433  1.00  0.00     0.031 C 
ATOM     39  C   UNL A   1      43.094  28.477  33.564  1.00  0.00     0.037 A 
BRANCH  26  40
ATOM     40  C   UNL A   1      39.859  32.956  36.337  1.00  0.00     0.057 A 
ATOM     41  C   UNL A   1      38.945  32.638  37.350  1.00  0.00     0.134 A 
ATOM     42  C   UNL A   1      40.628  34.116  36.504  1.00  0.00     0.134 A 
ATOM     43  F   UNL A   1      38.169  31.549  37.249  1.00  0.00    -0.206 F 
ATOM     44  C   UNL A   1      38.782  33.457  38.470  1.00  0.00     0.040 A 
ATOM     45  C   UNL A   1      40.493  34.928  37.632  1.00  0.00     0.040 A 
ATOM     46  F   UNL A   1      41.529  34.474  35.577  1.00  0.00    -0.206 F 
ATOM     47  C   UNL A   1      39.561  34.603  38.615  1.00  0.00     0.006 A 
ENDBRANCH  26  40
BRANCH  27  48
ATOM     48  C   UNL A   1      40.933  27.612  27.980  1.00  0.00     0.057 A 
ATOM     49  C   UNL A   1      41.733  28.053  26.920  1.00  0.00     0.134 A 
ATOM     50  C   UNL A   1      40.302  26.370  27.839  1.00  0.00     0.134 A 
ATOM     51  F   UNL A   1      42.350  29.242  26.991  1.00  0.00    -0.206 F 
ATOM     52  C   UNL A   1      41.893  27.294  25.760  1.00  0.00     0.040 A 
ATOM     53  C   UNL A   1      40.473  25.588  26.697  1.00  0.00     0.040 A 
ATOM     54  F   UNL A   1      39.530  25.887  28.825  1.00  0.00    -0.206 F 
ATOM     55  C   UNL A   1      41.267  26.053  25.651  1.00  0.00     0.006 A 
ENDBRANCH  27  48
BRANCH  39  56
ATOM     56  C   UNL A   1      44.227  27.658  34.107  1.00  0.00     0.057 A 
ATOM     57  C   UNL A   1      44.020  26.412  34.710  1.00  0.00     0.134 A 
ATOM     58  C   UNL A   1      45.546  28.118  34.006  1.00  0.00     0.134 A 
ATOM     59  F   UNL A   1      42.778  25.923  34.851  1.00  0.00    -0.206 F 
ATOM     60  C   UNL A   1      45.082  25.663  35.219  1.00  0.00     0.040 A 
ATOM     61  C   UNL A   1      46.620  27.367  34.487  1.00  0.00     0.040 A 
ATOM     62  F   UNL A   1      45.814  29.301  33.432  1.00  0.00    -0.206 F 
ATOM     63  C   UNL A   1      46.387  26.138  35.103  1.00  0.00     0.006 A 
ENDBRANCH  39  56
ENDBRANCH  13  14
ENDBRANCH   6   8
ENDBRANCH   3   4
ENDBRANCH   2   3
ENDBRANCH   1   2
BRANCH   1  64
ATOM     64  N   UNL A   1      33.221  30.406  26.913  1.00  0.00    -0.352 N 
ATOM     65  C   UNL A   1      33.946  29.242  26.860  1.00  0.00     0.251 C 
ATOM     66  H   UNL A   1      33.732  31.199  27.193  1.00  0.00     0.163 HD
ATOM     67  O   UNL A   1      35.080  29.210  27.330  1.00  0.00    -0.269 OA
BRANCH  65  68
ATOM     68  C   UNL A   1      33.371  28.028  26.242  1.00  0.00     0.040 A 
ATOM     69  C   UNL A   1      32.595  27.163  27.016  1.00  0.00     0.014 A 
ATOM     70  C   UNL A   1      33.653  27.708  24.913  1.00  0.00     0.018 A 
ATOM     71  C   UNL A   1      32.053  26.015  26.435  1.00  0.00     0.001 A 
ATOM     72  C   UNL A   1      33.092  26.575  24.312  1.00  0.00    -0.037 A 
ATOM     73  C   UNL A   1      32.286  25.731  25.087  1.00  0.00     0.004 A 
BRANCH  72  74
ATOM     74  C   UNL A   1      33.389  26.286  22.862  1.00  0.00     0.113 C 
BRANCH  74  75
ATOM     75  S   UNL A   1      31.924  25.849  21.891  1.00  0.00    -0.082 SA
BRANCH  75  76
ATOM     76  C   UNL A   1      30.812  27.086  22.330  1.00  0.00     0.184 A 
ATOM     77  N   UNL A   1      30.778  28.346  21.977  1.00  0.00    -0.201 NA
ATOM     78  N   UNL A   1      29.769  26.809  23.150  1.00  0.00    -0.254 N 
ATOM     79  C   UNL A   1      29.649  28.817  22.615  1.00  0.00     0.182 A 
ATOM     80  N   UNL A   1      29.027  27.903  23.379  1.00  0.00    -0.153 NA
ATOM     81  H   UNL A   1      29.580  25.920  23.530  1.00  0.00     0.192 HD
BRANCH  79  82
ATOM     82  C   UNL A   1      29.183  30.185  22.471  1.00  0.00     0.021 A 
ATOM     83  C   UNL A   1      29.137  31.032  23.587  1.00  0.00     0.012 A 
ATOM     84  C   UNL A   1      28.747  30.662  21.229  1.00  0.00     0.012 A 
ATOM     85  C   UNL A   1      28.663  32.339  23.462  1.00  0.00     0.001 A 
ATOM     86  C   UNL A   1      28.257  31.965  21.109  1.00  0.00     0.001 A 
ATOM     87  C   UNL A   1      28.218  32.802  22.225  1.00  0.00     0.000 A 
ENDBRANCH  79  82
ENDBRANCH  75  76
ENDBRANCH  74  75
ENDBRANCH  72  74
ENDBRANCH  65  68
ENDBRANCH   1  64
TORSDOF 14
ENDMDL
MODEL 2
REMARK VINA RESULT:     -12.0      5.805     10.670
REMARK SMILES O=C(NCCCNC(=O)c1cccc(CSc2nc(-c3ccccc3)n[nH]2)c1)c1ccc(-c2c3nc(c(-c4c(F)cccc4F)c4ccc([nH]4)c(-c4c(F)cccc4F)c4nc(c(-c5c(F)cccc5F)c5ccc2[nH]5)C=C4)C=C3)cc1
REMARK SMILES IDX 6 1 5 2 4 3 3 4 1 5 2 6 29 8 30 9 82 10 31 11 81 12 32 13
REMARK SMILES IDX 33 14 34 15 75 16 35 17 80 18 74 19 76 20 36 21 79 22 73 23
REMARK SMILES IDX 72 24 37 26 63 27 46 28 62 29 47 30 50 31 61 32 77 33 48 34
REMARK SMILES IDX 49 35 60 37 78 38 51 39 38 40 39 41 44 42 40 43 41 44 43 45
REMARK SMILES IDX 45 46 42 47 64 48 65 49 70 50 66 51 67 52 69 53 71 54 68 55
REMARK SMILES IDX 52 56 53 57 58 58 54 59 55 60 57 61 59 62 56 63 7 64 8 65
REMARK SMILES IDX 9 67 10 68 11 69 28 70 12 71 14 72 13 73 15 74 16 75 17 76
REMARK SMILES IDX 18 77 27 78 19 79 26 80 20 82 21 83 25 84 22 85 24 86 23 87
REMARK H PARENT 3 7 76 25 50 36 7 66 27 81
REMARK Flexibility Score: inf
ROOT
ATOM      1  C   UNL A   1      37.453  20.825  24.699  1.00  0.00     0.118 C 
ENDROOT
BRANCH   1   2
ATOM      2  C   UNL A   1      38.281  19.584  24.992  1.00  0.00     0.042 C 
BRANCH   2   3
ATOM      3  C   UNL A   1      39.339  19.783  26.066  1.00  0.00     0.118 C 
BRANCH   3   4
ATOM      4  N   UNL A   1      40.460  18.860  25.944  1.00  0.00    -0.352 N 
ATOM      5  O   UNL A   1      42.598  18.185  25.730  1.00  0.00    -0.269 OA
ATOM      6  C   UNL A   1      41.814  19.085  26.020  1.00  0.00     0.251 C 
ATOM      7  H   UNL A   1      40.206  17.923  25.779  1.00  0.00     0.163 HD
BRANCH   6   8
ATOM      8  C   UNL A   1      42.335  20.412  26.415  1.00  0.00     0.039 A 
ATOM      9  C   UNL A   1      42.319  20.826  27.747  1.00  0.00     0.014 A 
ATOM     10  C   UNL A   1      42.862  21.256  25.432  1.00  0.00     0.014 A 
ATOM     11  C   UNL A   1      42.644  22.138  28.068  1.00  0.00     0.010 A 
ATOM     12  C   UNL A   1      43.293  22.541  25.775  1.00  0.00     0.010 A 
ATOM     13  C   UNL A   1      43.143  23.011  27.088  1.00  0.00    -0.014 A 
BRANCH  13  14
ATOM     14  C   UNL A   1      43.524  24.394  27.473  1.00  0.00     0.031 A 
ATOM     15  C   UNL A   1      44.948  24.867  27.367  1.00  0.00     0.074 A 
ATOM     16  C   UNL A   1      42.563  25.242  27.886  1.00  0.00     0.049 A 
ATOM     17  N   UNL A   1      45.445  26.050  27.627  1.00  0.00    -0.248 NA
ATOM     18  C   UNL A   1      45.948  23.884  26.922  1.00  0.00     0.031 C 
ATOM     19  C   UNL A   1      41.146  24.900  28.038  1.00  0.00     0.029 A 
ATOM     20  N   UNL A   1      42.621  26.568  28.227  1.00  0.00    -0.354 N 
ATOM     21  C   UNL A   1      46.812  25.949  27.405  1.00  0.00     0.074 A 
ATOM     22  C   UNL A   1      47.072  24.580  27.012  1.00  0.00     0.031 C 
ATOM     23  C   UNL A   1      40.462  26.000  28.381  1.00  0.00     0.029 A 
ATOM     24  C   UNL A   1      41.398  27.108  28.537  1.00  0.00     0.049 A 
ATOM     25  H   UNL A   1      43.460  27.083  28.249  1.00  0.00     0.167 HD
ATOM     26  C   UNL A   1      47.763  26.909  27.512  1.00  0.00     0.037 A 
ATOM     27  C   UNL A   1      41.062  28.355  28.912  1.00  0.00     0.037 A 
ATOM     28  C   UNL A   1      47.497  28.277  27.878  1.00  0.00     0.049 A 
ATOM     29  C   UNL A   1      42.136  29.396  29.035  1.00  0.00     0.074 A 
ATOM     30  C   UNL A   1      48.386  29.335  27.970  1.00  0.00     0.029 A 
ATOM     31  N   UNL A   1      46.249  28.777  28.218  1.00  0.00    -0.354 N 
ATOM     32  N   UNL A   1      43.418  29.292  28.790  1.00  0.00    -0.248 NA
ATOM     33  C   UNL A   1      41.713  30.727  29.492  1.00  0.00     0.031 C 
ATOM     34  C   UNL A   1      47.683  30.463  28.409  1.00  0.00     0.029 A 
ATOM     35  C   UNL A   1      46.348  30.121  28.542  1.00  0.00     0.049 A 
ATOM     36  H   UNL A   1      45.414  28.253  28.228  1.00  0.00     0.167 HD
ATOM     37  C   UNL A   1      43.954  30.548  29.037  1.00  0.00     0.074 A 
ATOM     38  C   UNL A   1      42.854  31.400  29.441  1.00  0.00     0.031 C 
ATOM     39  C   UNL A   1      45.243  30.958  28.938  1.00  0.00     0.037 A 
BRANCH  26  40
ATOM     40  C   UNL A   1      49.186  26.506  27.251  1.00  0.00     0.057 A 
ATOM     41  C   UNL A   1      50.009  25.981  28.256  1.00  0.00     0.134 A 
ATOM     42  C   UNL A   1      49.734  26.623  25.967  1.00  0.00     0.134 A 
ATOM     43  F   UNL A   1      49.553  25.853  29.511  1.00  0.00    -0.206 F 
ATOM     44  C   UNL A   1      51.332  25.614  28.000  1.00  0.00     0.040 A 
ATOM     45  C   UNL A   1      51.047  26.235  25.692  1.00  0.00     0.040 A 
ATOM     46  F   UNL A   1      49.000  27.110  24.955  1.00  0.00    -0.206 F 
ATOM     47  C   UNL A   1      51.853  25.736  26.713  1.00  0.00     0.006 A 
ENDBRANCH  26  40
BRANCH  27  48
ATOM     48  C   UNL A   1      39.642  28.685  29.180  1.00  0.00     0.057 A 
ATOM     49  C   UNL A   1      39.090  28.512  30.453  1.00  0.00     0.134 A 
ATOM     50  C   UNL A   1      38.810  29.202  28.179  1.00  0.00     0.134 A 
ATOM     51  F   UNL A   1      39.833  28.005  31.449  1.00  0.00    -0.206 F 
ATOM     52  C   UNL A   1      37.759  28.834  30.722  1.00  0.00     0.040 A 
ATOM     53  C   UNL A   1      37.486  29.553  28.439  1.00  0.00     0.040 A 
ATOM     54  F   UNL A   1      39.285  29.400  26.940  1.00  0.00    -0.206 F 
ATOM     55  C   UNL A   1      36.955  29.364  29.713  1.00  0.00     0.006 A 
ENDBRANCH  27  48
BRANCH  39  56
ATOM     56  C   UNL A   1      45.521  32.402  29.233  1.00  0.00     0.057 A 
ATOM     57  C   UNL A   1      45.408  33.396  28.254  1.00  0.00     0.134 A 
ATOM     58  C   UNL A   1      45.890  32.803  30.524  1.00  0.00     0.134 A 
ATOM     59  F   UNL A   1      45.074  33.074  26.995  1.00  0.00    -0.206 F 
ATOM     60  C   UNL A   1      45.679  34.734  28.540  1.00  0.00     0.040 A 
ATOM     61  C   UNL A   1      46.138  34.142  30.829  1.00  0.00     0.040 A 
ATOM     62  F   UNL A   1      46.009  31.901  31.510  1.00  0.00    -0.206 F 
ATOM     63  C   UNL A   1      46.038  35.111  29.833  1.00  0.00     0.006 A 
ENDBRANCH  39  56
ENDBRANCH  13  14
ENDBRANCH   6   8
ENDBRANCH   3   4
ENDBRANCH   2   3
ENDBRANCH   1   2
BRANCH   1  64
ATOM     64  N   UNL A   1      37.885  21.977  25.478  1.00  0.00    -0.352 N 
ATOM     65  C   UNL A   1      37.373  23.249  25.538  1.00  0.00     0.251 C 
ATOM     66  H   UNL A   1      38.668  21.818  26.053  1.00  0.00     0.163 HD
ATOM     67  O   UNL A   1      38.001  24.130  26.119  1.00  0.00    -0.269 OA
BRANCH  65  68
ATOM     68  C   UNL A   1      36.073  23.565  24.910  1.00  0.00     0.040 A 
ATOM     69  C   UNL A   1      35.918  23.407  23.532  1.00  0.00     0.014 A 
ATOM     70  C   UNL A   1      35.024  24.081  25.672  1.00  0.00     0.018 A 
ATOM     71  C   UNL A   1      34.692  23.707  22.935  1.00  0.00     0.001 A 
ATOM     72  C   UNL A   1      33.781  24.359  25.091  1.00  0.00    -0.037 A 
ATOM     73  C   UNL A   1      33.624  24.164  23.712  1.00  0.00     0.004 A 
BRANCH  72  74
ATOM     74  C   UNL A   1      32.660  24.876  25.956  1.00  0.00     0.113 C 
BRANCH  74  75
ATOM     75  S   UNL A   1      31.266  23.730  26.108  1.00  0.00    -0.082 SA
BRANCH  75  76
ATOM     76  C   UNL A   1      32.030  22.200  25.930  1.00  0.00     0.184 A 
ATOM     77  N   UNL A   1      32.012  21.367  24.920  1.00  0.00    -0.201 NA
ATOM     78  N   UNL A   1      32.801  21.699  26.926  1.00  0.00    -0.254 N 
ATOM     79  C   UNL A   1      32.827  20.340  25.350  1.00  0.00     0.182 A 
ATOM     80  N   UNL A   1      33.297  20.496  26.599  1.00  0.00    -0.153 NA
ATOM     81  H   UNL A   1      32.975  22.158  27.780  1.00  0.00     0.192 HD
BRANCH  79  82
ATOM     82  C   UNL A   1      33.142  19.191  24.519  1.00  0.00     0.021 A 
ATOM     83  C   UNL A   1      34.295  18.436  24.773  1.00  0.00     0.012 A 
ATOM     84  C   UNL A   1      32.317  18.843  23.443  1.00  0.00     0.012 A 
ATOM     85  C   UNL A   1      34.619  17.348  23.961  1.00  0.00     0.001 A 
ATOM     86  C   UNL A   1      32.651  17.763  22.621  1.00  0.00     0.001 A 
ATOM     87  C   UNL A   1      33.799  17.015  22.883  1.00  0.00     0.000 A 
ENDBRANCH  79  82
ENDBRANCH  75  76
ENDBRANCH  74  75
ENDBRANCH  72  74
ENDBRANCH  65  68
ENDBRANCH   1  64
TORSDOF 14
ENDMDL
MODEL 3
REMARK VINA RESULT:     -12.0      5.046      9.610
REMARK SMILES O=C(NCCCNC(=O)c1cccc(CSc2nc(-c3ccccc3)n[nH]2)c1)c1ccc(-c2c3nc(c(-c4c(F)cccc4F)c4ccc([nH]4)c(-c4c(F)cccc4F)c4nc(c(-c5c(F)cccc5F)c5ccc2[nH]5)C=C4)C=C3)cc1
REMARK SMILES IDX 6 1 5 2 4 3 3 4 1 5 2 6 29 8 30 9 82 10 31 11 81 12 32 13
REMARK SMILES IDX 33 14 34 15 75 16 35 17 80 18 74 19 76 20 36 21 79 22 73 23
REMARK SMILES IDX 72 24 37 26 63 27 46 28 62 29 47 30 50 31 61 32 77 33 48 34
REMARK SMILES IDX 49 35 60 37 78 38 51 39 38 40 39 41 44 42 40 43 41 44 43 45
REMARK SMILES IDX 45 46 42 47 64 48 65 49 70 50 66 51 67 52 69 53 71 54 68 55
REMARK SMILES IDX 52 56 53 57 58 58 54 59 55 60 57 61 59 62 56 63 7 64 8 65
REMARK SMILES IDX 9 67 10 68 11 69 28 70 12 71 14 72 13 73 15 74 16 75 17 76
REMARK SMILES IDX 18 77 27 78 19 79 26 80 20 82 21 83 25 84 22 85 24 86 23 87
REMARK H PARENT 3 7 76 25 50 36 7 66 27 81
REMARK Flexibility Score: inf
ROOT
ATOM      1  C   UNL A   1      37.332  21.214  24.609  1.00  0.00     0.118 C 
ENDROOT
BRANCH   1   2
ATOM      2  C   UNL A   1      38.010  19.899  24.958  1.00  0.00     0.042 C 
BRANCH   2   3
ATOM      3  C   UNL A   1      39.017  20.002  26.093  1.00  0.00     0.118 C 
BRANCH   3   4
ATOM      4  N   UNL A   1      40.111  19.046  25.976  1.00  0.00    -0.352 N 
ATOM      5  O   UNL A   1      42.227  18.307  25.751  1.00  0.00    -0.269 OA
ATOM      6  C   UNL A   1      41.471  19.234  26.032  1.00  0.00     0.251 C 
ATOM      7  H   UNL A   1      39.829  18.113  25.834  1.00  0.00     0.163 HD
BRANCH   6   8
ATOM      8  C   UNL A   1      42.034  20.554  26.394  1.00  0.00     0.039 A 
ATOM      9  C   UNL A   1      42.286  20.890  27.723  1.00  0.00     0.014 A 
ATOM     10  C   UNL A   1      42.325  21.470  25.378  1.00  0.00     0.014 A 
ATOM     11  C   UNL A   1      42.642  22.193  28.053  1.00  0.00     0.010 A 
ATOM     12  C   UNL A   1      42.790  22.748  25.705  1.00  0.00     0.010 A 
ATOM     13  C   UNL A   1      42.906  23.137  27.047  1.00  0.00    -0.014 A 
BRANCH  13  14
ATOM     14  C   UNL A   1      43.328  24.508  27.432  1.00  0.00     0.031 A 
ATOM     15  C   UNL A   1      44.762  24.944  27.307  1.00  0.00     0.074 A 
ATOM     16  C   UNL A   1      42.395  25.379  27.862  1.00  0.00     0.049 A 
ATOM     17  N   UNL A   1      45.294  26.114  27.563  1.00  0.00    -0.248 NA
ATOM     18  C   UNL A   1      45.730  23.938  26.843  1.00  0.00     0.031 C 
ATOM     19  C   UNL A   1      40.973  25.072  28.034  1.00  0.00     0.029 A 
ATOM     20  N   UNL A   1      42.494  26.702  28.207  1.00  0.00    -0.354 N 
ATOM     21  C   UNL A   1      46.654  25.978  27.321  1.00  0.00     0.074 A 
ATOM     22  C   UNL A   1      46.873  24.605  26.919  1.00  0.00     0.031 C 
ATOM     23  C   UNL A   1      40.323  26.189  28.391  1.00  0.00     0.029 A 
ATOM     24  C   UNL A   1      41.289  27.272  28.538  1.00  0.00     0.049 A 
ATOM     25  H   UNL A   1      43.345  27.195  28.218  1.00  0.00     0.167 HD
ATOM     26  C   UNL A   1      47.631  26.913  27.416  1.00  0.00     0.037 A 
ATOM     27  C   UNL A   1      40.991  28.526  28.922  1.00  0.00     0.037 A 
ATOM     28  C   UNL A   1      47.406  28.286  27.792  1.00  0.00     0.049 A 
ATOM     29  C   UNL A   1      42.093  29.538  29.032  1.00  0.00     0.074 A 
ATOM     30  C   UNL A   1      48.323  29.320  27.875  1.00  0.00     0.029 A 
ATOM     31  N   UNL A   1      46.176  28.817  28.152  1.00  0.00    -0.354 N 
ATOM     32  N   UNL A   1      43.368  29.402  28.768  1.00  0.00    -0.248 NA
ATOM     33  C   UNL A   1      41.711  30.877  29.500  1.00  0.00     0.031 C 
ATOM     34  C   UNL A   1      47.656  30.464  28.328  1.00  0.00     0.029 A 
ATOM     35  C   UNL A   1      46.315  30.156  28.480  1.00  0.00     0.049 A 
ATOM     36  H   UNL A   1      45.329  28.315  28.172  1.00  0.00     0.167 HD
ATOM     37  C   UNL A   1      43.940  30.642  29.012  1.00  0.00     0.074 A 
ATOM     38  C   UNL A   1      42.869  31.521  29.434  1.00  0.00     0.031 C 
ATOM     39  C   UNL A   1      45.237  31.020  28.894  1.00  0.00     0.037 A 
BRANCH  26  40
ATOM     40  C   UNL A   1      49.039  26.475  27.134  1.00  0.00     0.057 A 
ATOM     41  C   UNL A   1      49.896  26.020  28.144  1.00  0.00     0.134 A 
ATOM     42  C   UNL A   1      49.537  26.485  25.824  1.00  0.00     0.134 A 
ATOM     43  F   UNL A   1      49.489  25.995  29.422  1.00  0.00    -0.206 F 
ATOM     44  C   UNL A   1      51.205  25.618  27.866  1.00  0.00     0.040 A 
ATOM     45  C   UNL A   1      50.834  26.062  25.530  1.00  0.00     0.040 A 
ATOM     46  F   UNL A   1      48.768  26.901  24.807  1.00  0.00    -0.206 F 
ATOM     47  C   UNL A   1      51.676  25.634  26.555  1.00  0.00     0.006 A 
ENDBRANCH  26  40
BRANCH  27  48
ATOM     48  C   UNL A   1      39.584  28.891  29.212  1.00  0.00     0.057 A 
ATOM     49  C   UNL A   1      38.745  29.383  28.206  1.00  0.00     0.134 A 
ATOM     50  C   UNL A   1      39.036  28.733  30.491  1.00  0.00     0.134 A 
ATOM     51  F   UNL A   1      39.218  29.571  26.965  1.00  0.00    -0.206 F 
ATOM     52  C   UNL A   1      37.414  29.714  28.463  1.00  0.00     0.040 A 
ATOM     53  C   UNL A   1      37.701  29.035  30.756  1.00  0.00     0.040 A 
ATOM     54  F   UNL A   1      39.788  28.255  31.494  1.00  0.00    -0.206 F 
ATOM     55  C   UNL A   1      36.887  29.532  29.741  1.00  0.00     0.006 A 
ENDBRANCH  27  48
BRANCH  39  56
ATOM     56  C   UNL A   1      45.557  32.455  29.191  1.00  0.00     0.057 A 
ATOM     57  C   UNL A   1      45.480  33.451  28.211  1.00  0.00     0.134 A 
ATOM     58  C   UNL A   1      45.931  32.845  30.484  1.00  0.00     0.134 A 
ATOM     59  F   UNL A   1      45.144  33.139  26.950  1.00  0.00    -0.206 F 
ATOM     60  C   UNL A   1      45.789  34.781  28.498  1.00  0.00     0.040 A 
ATOM     61  C   UNL A   1      46.216  34.176  30.790  1.00  0.00     0.040 A 
ATOM     62  F   UNL A   1      46.017  31.941  31.471  1.00  0.00    -0.206 F 
ATOM     63  C   UNL A   1      46.152  35.148  29.792  1.00  0.00     0.006 A 
ENDBRANCH  39  56
ENDBRANCH  13  14
ENDBRANCH   6   8
ENDBRANCH   3   4
ENDBRANCH   2   3
ENDBRANCH   1   2
BRANCH   1  64
ATOM     64  N   UNL A   1      37.912  22.344  25.322  1.00  0.00    -0.352 N 
ATOM     65  C   UNL A   1      37.331  23.508  25.761  1.00  0.00     0.251 C 
ATOM     66  H   UNL A   1      38.872  22.259  25.521  1.00  0.00     0.163 HD
ATOM     67  O   UNL A   1      38.040  24.420  26.179  1.00  0.00    -0.269 OA
BRANCH  65  68
ATOM     68  C   UNL A   1      35.863  23.669  25.735  1.00  0.00     0.040 A 
ATOM     69  C   UNL A   1      35.081  23.017  26.690  1.00  0.00     0.014 A 
ATOM     70  C   UNL A   1      35.249  24.413  24.725  1.00  0.00     0.018 A 
ATOM     71  C   UNL A   1      33.693  23.165  26.666  1.00  0.00     0.001 A 
ATOM     72  C   UNL A   1      33.860  24.593  24.707  1.00  0.00    -0.037 A 
ATOM     73  C   UNL A   1      33.087  23.963  25.691  1.00  0.00     0.004 A 
BRANCH  72  74
ATOM     74  C   UNL A   1      33.240  25.437  23.623  1.00  0.00     0.113 C 
BRANCH  74  75
ATOM     75  S   UNL A   1      31.430  25.381  23.600  1.00  0.00    -0.082 SA
BRANCH  75  76
ATOM     76  C   UNL A   1      31.011  27.046  23.693  1.00  0.00     0.184 A 
ATOM     77  N   UNL A   1      30.271  27.770  22.891  1.00  0.00    -0.201 NA
ATOM     78  N   UNL A   1      31.454  27.808  24.723  1.00  0.00    -0.254 N 
ATOM     79  C   UNL A   1      30.274  29.008  23.498  1.00  0.00     0.182 A 
ATOM     80  N   UNL A   1      31.028  29.075  24.609  1.00  0.00    -0.153 NA
ATOM     81  H   UNL A   1      32.016  27.475  25.460  1.00  0.00     0.192 HD
BRANCH  79  82
ATOM     82  C   UNL A   1      29.528  30.139  22.974  1.00  0.00     0.021 A 
ATOM     83  C   UNL A   1      29.150  31.186  23.826  1.00  0.00     0.012 A 
ATOM     84  C   UNL A   1      29.155  30.182  21.626  1.00  0.00     0.012 A 
ATOM     85  C   UNL A   1      28.409  32.262  23.335  1.00  0.00     0.001 A 
ATOM     86  C   UNL A   1      28.399  31.252  21.139  1.00  0.00     0.001 A 
ATOM     87  C   UNL A   1      28.029  32.292  21.994  1.00  0.00     0.000 A 
ENDBRANCH  79  82
ENDBRANCH  75  76
ENDBRANCH  74  75
ENDBRANCH  72  74
ENDBRANCH  65  68
ENDBRANCH   1  64
TORSDOF 14
ENDMDL
