MODEL 1
REMARK VINA RESULT:     -13.0      0.000      0.000
REMARK SMILES O=C(NCCCNC(=O)c1cc(-c2ccccn2)nc2ccc(F)cc12)c1ccc(-c2c3nc(c(-c4c(F)cccc4F)c4ccc([nH]4)c(-c4c(F)cccc4F)c4nc(c(-c5c(F)cccc5F)c5ccc2[nH]5)C=C4)C=C3)cc1
REMARK SMILES IDX 4 1 3 2 1 3 2 4 27 6 28 7 80 8 29 9 79 10 30 11 31 12 32 13
REMARK SMILES IDX 73 14 33 15 78 16 72 17 74 18 34 19 77 20 71 21 70 22 35 24
REMARK SMILES IDX 61 25 44 26 60 27 45 28 48 29 59 30 75 31 46 32 47 33 58 35
REMARK SMILES IDX 76 36 49 37 36 38 37 39 42 40 38 41 39 42 41 43 43 44 40 45
REMARK SMILES IDX 62 46 63 47 68 48 64 49 65 50 67 51 69 52 66 53 50 54 51 55
REMARK SMILES IDX 56 56 52 57 53 58 55 59 57 60 54 61 5 62 6 63 7 64 8 65 9 67
REMARK SMILES IDX 10 68 11 69 26 70 12 71 20 72 25 73 19 74 21 75 23 76 22 77
REMARK SMILES IDX 24 78 13 79 14 80 18 81 15 82 17 83 16 84
REMARK H PARENT 3 5 74 23 48 34 7 66
REMARK Flexibility Score: inf
ROOT
ATOM      1  C   UNL A   1      33.804  29.524  26.855  1.00  0.00     0.118 C 
ENDROOT
BRANCH   1   2
ATOM      2  N   UNL A   1      33.942  30.659  27.754  1.00  0.00    -0.352 N 
ATOM      3  O   UNL A   1      34.708  31.880  29.467  1.00  0.00    -0.269 OA
ATOM      4  C   UNL A   1      34.921  30.979  28.659  1.00  0.00     0.251 C 
ATOM      5  H   UNL A   1      33.205  31.310  27.704  1.00  0.00     0.163 HD
BRANCH   4   6
ATOM      6  C   UNL A   1      36.228  30.283  28.674  1.00  0.00     0.039 A 
ATOM      7  C   UNL A   1      36.643  29.666  29.862  1.00  0.00     0.014 A 
ATOM      8  C   UNL A   1      37.101  30.334  27.584  1.00  0.00     0.014 A 
ATOM      9  C   UNL A   1      37.917  29.097  29.954  1.00  0.00     0.010 A 
ATOM     10  C   UNL A   1      38.342  29.703  27.651  1.00  0.00     0.010 A 
ATOM     11  C   UNL A   1      38.777  29.114  28.848  1.00  0.00    -0.014 A 
BRANCH  11  12
ATOM     12  C   UNL A   1      40.184  28.648  28.944  1.00  0.00     0.031 A 
ATOM     13  C   UNL A   1      41.245  29.624  29.382  1.00  0.00     0.074 A 
ATOM     14  C   UNL A   1      40.524  27.396  28.589  1.00  0.00     0.049 A 
ATOM     15  N   UNL A   1      42.547  29.498  29.370  1.00  0.00    -0.248 NA
ATOM     16  C   UNL A   1      40.774  30.929  29.876  1.00  0.00     0.031 C 
ATOM     17  C   UNL A   1      39.595  26.353  28.152  1.00  0.00     0.029 A 
ATOM     18  N   UNL A   1      41.756  26.795  28.520  1.00  0.00    -0.354 N 
ATOM     19  C   UNL A   1      43.048  30.717  29.810  1.00  0.00     0.074 A 
ATOM     20  C   UNL A   1      41.914  31.580  30.058  1.00  0.00     0.031 C 
ATOM     21  C   UNL A   1      40.292  25.241  27.859  1.00  0.00     0.029 A 
ATOM     22  C   UNL A   1      41.716  25.507  28.044  1.00  0.00     0.049 A 
ATOM     23  H   UNL A   1      42.590  27.246  28.787  1.00  0.00     0.167 HD
ATOM     24  C   UNL A   1      44.337  31.082  30.003  1.00  0.00     0.037 A 
ATOM     25  C   UNL A   1      42.719  24.653  27.764  1.00  0.00     0.037 A 
ATOM     26  C   UNL A   1      45.461  30.205  29.817  1.00  0.00     0.049 A 
ATOM     27  C   UNL A   1      44.144  25.089  27.974  1.00  0.00     0.074 A 
ATOM     28  C   UNL A   1      46.800  30.459  30.058  1.00  0.00     0.029 A 
ATOM     29  N   UNL A   1      45.373  28.903  29.354  1.00  0.00    -0.354 N 
ATOM     30  N   UNL A   1      44.602  26.231  28.426  1.00  0.00    -0.248 NA
ATOM     31  C   UNL A   1      45.194  24.118  27.628  1.00  0.00     0.031 C 
ATOM     32  C   UNL A   1      47.528  29.317  29.707  1.00  0.00     0.029 A 
ATOM     33  C   UNL A   1      46.637  28.344  29.283  1.00  0.00     0.049 A 
ATOM     34  H   UNL A   1      44.537  28.443  29.111  1.00  0.00     0.167 HD
ATOM     35  C   UNL A   1      45.985  26.103  28.451  1.00  0.00     0.074 A 
ATOM     36  C   UNL A   1      46.293  24.772  27.973  1.00  0.00     0.031 C 
ATOM     37  C   UNL A   1      46.919  27.007  28.834  1.00  0.00     0.037 A 
BRANCH  24  38
ATOM     38  C   UNL A   1      44.605  32.492  30.436  1.00  0.00     0.057 A 
ATOM     39  C   UNL A   1      44.820  33.497  29.484  1.00  0.00     0.134 A 
ATOM     40  C   UNL A   1      44.699  32.847  31.786  1.00  0.00     0.134 A 
ATOM     41  F   UNL A   1      44.747  33.221  28.172  1.00  0.00    -0.206 F 
ATOM     42  C   UNL A   1      45.123  34.806  29.862  1.00  0.00     0.040 A 
ATOM     43  C   UNL A   1      44.979  34.157  32.176  1.00  0.00     0.040 A 
ATOM     44  F   UNL A   1      44.491  31.933  32.745  1.00  0.00    -0.206 F 
ATOM     45  C   UNL A   1      45.199  35.139  31.212  1.00  0.00     0.006 A 
ENDBRANCH  24  38
BRANCH  25  46
ATOM     46  C   UNL A   1      42.427  23.295  27.237  1.00  0.00     0.057 A 
ATOM     47  C   UNL A   1      42.496  23.012  25.867  1.00  0.00     0.134 A 
ATOM     48  C   UNL A   1      42.129  22.235  28.101  1.00  0.00     0.134 A 
ATOM     49  F   UNL A   1      42.776  23.984  24.988  1.00  0.00    -0.206 F 
ATOM     50  C   UNL A   1      42.282  21.723  25.378  1.00  0.00     0.040 A 
ATOM     51  C   UNL A   1      41.938  20.937  27.627  1.00  0.00     0.040 A 
ATOM     52  F   UNL A   1      42.074  22.440  29.425  1.00  0.00    -0.206 F 
ATOM     53  C   UNL A   1      42.013  20.678  26.259  1.00  0.00     0.006 A 
ENDBRANCH  25  46
BRANCH  37  54
ATOM     54  C   UNL A   1      48.353  26.572  28.806  1.00  0.00     0.057 A 
ATOM     55  C   UNL A   1      48.919  25.922  29.911  1.00  0.00     0.134 A 
ATOM     56  C   UNL A   1      49.186  26.845  27.715  1.00  0.00     0.134 A 
ATOM     57  F   UNL A   1      48.174  25.640  30.991  1.00  0.00    -0.206 F 
ATOM     58  C   UNL A   1      50.267  25.567  29.934  1.00  0.00     0.040 A 
ATOM     59  C   UNL A   1      50.531  26.474  27.718  1.00  0.00     0.040 A 
ATOM     60  F   UNL A   1      48.698  27.453  26.623  1.00  0.00    -0.206 F 
ATOM     61  C   UNL A   1      51.077  25.840  28.834  1.00  0.00     0.006 A 
ENDBRANCH  37  54
ENDBRANCH  11  12
ENDBRANCH   4   6
ENDBRANCH   1   2
BRANCH   1  62
ATOM     62  C   UNL A   1      32.662  28.599  27.256  1.00  0.00     0.042 C 
BRANCH  62  63
ATOM     63  C   UNL A   1      32.831  27.155  26.806  1.00  0.00     0.118 C 
BRANCH  63  64
ATOM     64  N   UNL A   1      31.592  26.389  26.867  1.00  0.00    -0.352 N 
ATOM     65  C   UNL A   1      30.616  26.206  25.917  1.00  0.00     0.252 C 
ATOM     66  H   UNL A   1      31.428  25.932  27.723  1.00  0.00     0.163 HD
ATOM     67  O   UNL A   1      29.598  25.578  26.199  1.00  0.00    -0.269 OA
BRANCH  65  68
ATOM     68  C   UNL A   1      30.804  26.742  24.554  1.00  0.00     0.051 A 
ATOM     69  C   UNL A   1      30.278  28.005  24.291  1.00  0.00     0.045 A 
ATOM     70  C   UNL A   1      31.485  26.020  23.552  1.00  0.00     0.016 A 
ATOM     71  C   UNL A   1      30.308  28.478  22.993  1.00  0.00     0.090 A 
ATOM     72  C   UNL A   1      31.516  26.616  22.274  1.00  0.00     0.072 A 
ATOM     73  C   UNL A   1      32.116  24.765  23.742  1.00  0.00     0.050 A 
ATOM     74  N   UNL A   1      30.928  27.793  22.000  1.00  0.00    -0.246 NA
ATOM     75  C   UNL A   1      32.170  25.954  21.241  1.00  0.00     0.032 A 
ATOM     76  C   UNL A   1      32.770  24.140  22.689  1.00  0.00     0.123 A 
ATOM     77  C   UNL A   1      32.803  24.724  21.436  1.00  0.00     0.041 A 
ATOM     78  F   UNL A   1      33.375  22.963  22.888  1.00  0.00    -0.207 F 
BRANCH  71  79
ATOM     79  C   UNL A   1      29.577  29.705  22.635  1.00  0.00     0.089 A 
ATOM     80  C   UNL A   1      29.237  30.662  23.592  1.00  0.00     0.030 A 
ATOM     81  N   UNL A   1      29.134  29.784  21.352  1.00  0.00    -0.255 NA
ATOM     82  C   UNL A   1      28.419  31.728  23.225  1.00  0.00     0.004 A 
ATOM     83  C   UNL A   1      28.354  30.835  21.021  1.00  0.00     0.112 A 
ATOM     84  C   UNL A   1      27.967  31.818  21.915  1.00  0.00     0.020 A 
ENDBRANCH  71  79
ENDBRANCH  65  68
ENDBRANCH  63  64
ENDBRANCH  62  63
ENDBRANCH   1  62
TORSDOF 11
ENDMDL
MODEL 2
REMARK VINA RESULT:     -13.0      5.405     10.026
REMARK SMILES O=C(NCCCNC(=O)c1cc(-c2ccccn2)nc2ccc(F)cc12)c1ccc(-c2c3nc(c(-c4c(F)cccc4F)c4ccc([nH]4)c(-c4c(F)cccc4F)c4nc(c(-c5c(F)cccc5F)c5ccc2[nH]5)C=C4)C=C3)cc1
REMARK SMILES IDX 4 1 3 2 1 3 2 4 27 6 28 7 80 8 29 9 79 10 30 11 31 12 32 13
REMARK SMILES IDX 73 14 33 15 78 16 72 17 74 18 34 19 77 20 71 21 70 22 35 24
REMARK SMILES IDX 61 25 44 26 60 27 45 28 48 29 59 30 75 31 46 32 47 33 58 35
REMARK SMILES IDX 76 36 49 37 36 38 37 39 42 40 38 41 39 42 41 43 43 44 40 45
REMARK SMILES IDX 62 46 63 47 68 48 64 49 65 50 67 51 69 52 66 53 50 54 51 55
REMARK SMILES IDX 56 56 52 57 53 58 55 59 57 60 54 61 5 62 6 63 7 64 8 65 9 67
REMARK SMILES IDX 10 68 11 69 26 70 12 71 20 72 25 73 19 74 21 75 23 76 22 77
REMARK SMILES IDX 24 78 13 79 14 80 18 81 15 82 17 83 16 84
REMARK H PARENT 3 5 74 23 48 34 7 66
REMARK Flexibility Score: inf
ROOT
ATOM      1  C   UNL A   1      40.359  23.171  27.078  1.00  0.00     0.118 C 
ENDROOT
BRANCH   1   2
ATOM      2  N   UNL A   1      41.174  23.932  26.144  1.00  0.00    -0.352 N 
ATOM      3  O   UNL A   1      41.946  25.706  25.018  1.00  0.00    -0.269 OA
ATOM      4  C   UNL A   1      41.392  25.280  26.030  1.00  0.00     0.251 C 
ATOM      5  H   UNL A   1      41.650  23.384  25.479  1.00  0.00     0.163 HD
BRANCH   4   6
ATOM      6  C   UNL A   1      40.996  26.229  27.096  1.00  0.00     0.039 A 
ATOM      7  C   UNL A   1      41.625  27.480  27.144  1.00  0.00     0.014 A 
ATOM      8  C   UNL A   1      40.112  25.863  28.113  1.00  0.00     0.014 A 
ATOM      9  C   UNL A   1      41.364  28.361  28.200  1.00  0.00     0.010 A 
ATOM     10  C   UNL A   1      39.795  26.769  29.125  1.00  0.00     0.010 A 
ATOM     11  C   UNL A   1      40.448  28.009  29.200  1.00  0.00    -0.014 A 
BRANCH  11  12
ATOM     12  C   UNL A   1      40.247  28.850  30.406  1.00  0.00     0.031 A 
ATOM     13  C   UNL A   1      39.174  29.910  30.383  1.00  0.00     0.074 A 
ATOM     14  C   UNL A   1      41.043  28.720  31.482  1.00  0.00     0.049 A 
ATOM     15  N   UNL A   1      38.935  30.869  31.240  1.00  0.00    -0.248 NA
ATOM     16  C   UNL A   1      38.266  29.900  29.224  1.00  0.00     0.031 C 
ATOM     17  C   UNL A   1      42.113  27.734  31.634  1.00  0.00     0.029 A 
ATOM     18  N   UNL A   1      41.085  29.441  32.650  1.00  0.00    -0.354 N 
ATOM     19  C   UNL A   1      37.883  31.600  30.702  1.00  0.00     0.074 A 
ATOM     20  C   UNL A   1      37.544  30.990  29.435  1.00  0.00     0.031 C 
ATOM     21  C   UNL A   1      42.708  27.914  32.827  1.00  0.00     0.029 A 
ATOM     22  C   UNL A   1      42.091  29.053  33.501  1.00  0.00     0.049 A 
ATOM     23  H   UNL A   1      40.454  30.167  32.857  1.00  0.00     0.167 HD
ATOM     24  C   UNL A   1      37.246  32.675  31.223  1.00  0.00     0.037 A 
ATOM     25  C   UNL A   1      42.485  29.578  34.677  1.00  0.00     0.037 A 
ATOM     26  C   UNL A   1      37.541  33.241  32.510  1.00  0.00     0.049 A 
ATOM     27  C   UNL A   1      41.768  30.783  35.227  1.00  0.00     0.074 A 
ATOM     28  C   UNL A   1      36.902  34.284  33.158  1.00  0.00     0.029 A 
ATOM     29  N   UNL A   1      38.553  32.805  33.348  1.00  0.00    -0.354 N 
ATOM     30  N   UNL A   1      40.752  31.441  34.727  1.00  0.00    -0.248 NA
ATOM     31  C   UNL A   1      42.261  31.323  36.504  1.00  0.00     0.031 C 
ATOM     32  C   UNL A   1      37.552  34.502  34.377  1.00  0.00     0.029 A 
ATOM     33  C   UNL A   1      38.571  33.571  34.501  1.00  0.00     0.049 A 
ATOM     34  H   UNL A   1      39.169  32.062  33.153  1.00  0.00     0.167 HD
ATOM     35  C   UNL A   1      40.462  32.446  35.641  1.00  0.00     0.074 A 
ATOM     36  C   UNL A   1      41.407  32.311  36.729  1.00  0.00     0.031 C 
ATOM     37  C   UNL A   1      39.500  33.399  35.585  1.00  0.00     0.037 A 
BRANCH  24  38
ATOM     38  C   UNL A   1      36.168  33.313  30.400  1.00  0.00     0.057 A 
ATOM     39  C   UNL A   1      34.819  33.049  30.671  1.00  0.00     0.134 A 
ATOM     40  C   UNL A   1      36.459  34.147  29.314  1.00  0.00     0.134 A 
ATOM     41  F   UNL A   1      34.472  32.254  31.696  1.00  0.00    -0.206 F 
ATOM     42  C   UNL A   1      33.799  33.588  29.887  1.00  0.00     0.040 A 
ATOM     43  C   UNL A   1      35.447  34.711  28.537  1.00  0.00     0.040 A 
ATOM     44  F   UNL A   1      37.731  34.448  29.012  1.00  0.00    -0.206 F 
ATOM     45  C   UNL A   1      34.112  34.425  28.819  1.00  0.00     0.006 A 
ENDBRANCH  24  38
BRANCH  25  46
ATOM     46  C   UNL A   1      43.626  28.988  35.423  1.00  0.00     0.057 A 
ATOM     47  C   UNL A   1      44.941  29.421  35.210  1.00  0.00     0.134 A 
ATOM     48  C   UNL A   1      43.417  28.015  36.407  1.00  0.00     0.134 A 
ATOM     49  F   UNL A   1      45.206  30.350  34.281  1.00  0.00    -0.206 F 
ATOM     50  C   UNL A   1      46.005  28.911  35.954  1.00  0.00     0.040 A 
ATOM     51  C   UNL A   1      44.470  27.514  37.174  1.00  0.00     0.040 A 
ATOM     52  F   UNL A   1      42.178  27.579  36.672  1.00  0.00    -0.206 F 
ATOM     53  C   UNL A   1      45.770  27.962  36.947  1.00  0.00     0.006 A 
ENDBRANCH  25  46
BRANCH  37  54
ATOM     54  C   UNL A   1      39.384  34.331  36.753  1.00  0.00     0.057 A 
ATOM     55  C   UNL A   1      39.987  35.594  36.717  1.00  0.00     0.134 A 
ATOM     56  C   UNL A   1      38.727  33.957  37.931  1.00  0.00     0.134 A 
ATOM     57  F   UNL A   1      40.639  36.007  35.619  1.00  0.00    -0.206 F 
ATOM     58  C   UNL A   1      39.949  36.451  37.816  1.00  0.00     0.040 A 
ATOM     59  C   UNL A   1      38.662  34.815  39.030  1.00  0.00     0.040 A 
ATOM     60  F   UNL A   1      38.118  32.765  38.021  1.00  0.00    -0.206 F 
ATOM     61  C   UNL A   1      39.281  36.063  38.977  1.00  0.00     0.006 A 
ENDBRANCH  37  54
ENDBRANCH  11  12
ENDBRANCH   4   6
ENDBRANCH   1   2
BRANCH   1  62
ATOM     62  C   UNL A   1      39.320  22.305  26.375  1.00  0.00     0.042 C 
BRANCH  62  63
ATOM     63  C   UNL A   1      37.990  23.000  26.117  1.00  0.00     0.118 C 
BRANCH  63  64
ATOM     64  N   UNL A   1      37.720  23.207  24.700  1.00  0.00    -0.352 N 
ATOM     65  C   UNL A   1      36.610  22.895  23.954  1.00  0.00     0.252 C 
ATOM     66  H   UNL A   1      38.449  23.637  24.197  1.00  0.00     0.163 HD
ATOM     67  O   UNL A   1      36.614  23.086  22.740  1.00  0.00    -0.269 OA
BRANCH  65  68
ATOM     68  C   UNL A   1      35.405  22.356  24.616  1.00  0.00     0.051 A 
ATOM     69  C   UNL A   1      35.272  20.970  24.659  1.00  0.00     0.045 A 
ATOM     70  C   UNL A   1      34.425  23.193  25.187  1.00  0.00     0.016 A 
ATOM     71  C   UNL A   1      34.093  20.432  25.141  1.00  0.00     0.090 A 
ATOM     72  C   UNL A   1      33.286  22.545  25.710  1.00  0.00     0.072 A 
ATOM     73  C   UNL A   1      34.505  24.607  25.258  1.00  0.00     0.050 A 
ATOM     74  N   UNL A   1      33.118  21.213  25.667  1.00  0.00    -0.246 NA
ATOM     75  C   UNL A   1      32.281  23.315  26.285  1.00  0.00     0.032 A 
ATOM     76  C   UNL A   1      33.486  25.341  25.850  1.00  0.00     0.123 A 
ATOM     77  C   UNL A   1      32.371  24.707  26.365  1.00  0.00     0.041 A 
ATOM     78  F   UNL A   1      33.585  26.674  25.924  1.00  0.00    -0.207 F 
BRANCH  71  79
ATOM     79  C   UNL A   1      33.828  18.990  25.006  1.00  0.00     0.089 A 
ATOM     80  C   UNL A   1      34.661  18.157  24.257  1.00  0.00     0.030 A 
ATOM     81  N   UNL A   1      32.656  18.546  25.532  1.00  0.00    -0.255 NA
ATOM     82  C   UNL A   1      34.282  16.834  24.041  1.00  0.00     0.004 A 
ATOM     83  C   UNL A   1      32.321  17.255  25.320  1.00  0.00     0.112 A 
ATOM     84  C   UNL A   1      33.089  16.373  24.581  1.00  0.00     0.020 A 
ENDBRANCH  71  79
ENDBRANCH  65  68
ENDBRANCH  63  64
ENDBRANCH  62  63
ENDBRANCH   1  62
TORSDOF 11
ENDMDL
MODEL 3
REMARK VINA RESULT:     -12.9      4.128      7.719
REMARK SMILES O=C(NCCCNC(=O)c1cc(-c2ccccn2)nc2ccc(F)cc12)c1ccc(-c2c3nc(c(-c4c(F)cccc4F)c4ccc([nH]4)c(-c4c(F)cccc4F)c4nc(c(-c5c(F)cccc5F)c5ccc2[nH]5)C=C4)C=C3)cc1
REMARK SMILES IDX 4 1 3 2 1 3 2 4 27 6 28 7 80 8 29 9 79 10 30 11 31 12 32 13
REMARK SMILES IDX 73 14 33 15 78 16 72 17 74 18 34 19 77 20 71 21 70 22 35 24
REMARK SMILES IDX 61 25 44 26 60 27 45 28 48 29 59 30 75 31 46 32 47 33 58 35
REMARK SMILES IDX 76 36 49 37 36 38 37 39 42 40 38 41 39 42 41 43 43 44 40 45
REMARK SMILES IDX 62 46 63 47 68 48 64 49 65 50 67 51 69 52 66 53 50 54 51 55
REMARK SMILES IDX 56 56 52 57 53 58 55 59 57 60 54 61 5 62 6 63 7 64 8 65 9 67
REMARK SMILES IDX 10 68 11 69 26 70 12 71 20 72 25 73 19 74 21 75 23 76 22 77
REMARK SMILES IDX 24 78 13 79 14 80 18 81 15 82 17 83 16 84
REMARK H PARENT 3 5 74 23 48 34 7 66
REMARK Flexibility Score: inf
ROOT
ATOM      1  C   UNL A   1      32.636  31.865  27.513  1.00  0.00     0.118 C 
ENDROOT
BRANCH   1   2
ATOM      2  N   UNL A   1      32.529  33.310  27.638  1.00  0.00    -0.352 N 
ATOM      3  O   UNL A   1      32.754  35.346  28.541  1.00  0.00    -0.269 OA
ATOM      4  C   UNL A   1      33.176  34.194  28.462  1.00  0.00     0.251 C 
ATOM      5  H   UNL A   1      31.880  33.724  27.025  1.00  0.00     0.163 HD
BRANCH   4   6
ATOM      6  C   UNL A   1      34.372  33.803  29.243  1.00  0.00     0.039 A 
ATOM      7  C   UNL A   1      35.630  34.225  28.794  1.00  0.00     0.014 A 
ATOM      8  C   UNL A   1      34.287  32.932  30.331  1.00  0.00     0.014 A 
ATOM      9  C   UNL A   1      36.793  33.784  29.434  1.00  0.00     0.010 A 
ATOM     10  C   UNL A   1      35.440  32.551  31.015  1.00  0.00     0.010 A 
ATOM     11  C   UNL A   1      36.705  32.941  30.549  1.00  0.00    -0.014 A 
BRANCH  11  12
ATOM     12  C   UNL A   1      37.912  32.340  31.172  1.00  0.00     0.031 A 
ATOM     13  C   UNL A   1      38.629  31.231  30.445  1.00  0.00     0.074 A 
ATOM     14  C   UNL A   1      38.328  32.728  32.390  1.00  0.00     0.049 A 
ATOM     15  N   UNL A   1      39.585  30.443  30.866  1.00  0.00    -0.248 NA
ATOM     16  C   UNL A   1      38.190  30.956  29.066  1.00  0.00     0.031 C 
ATOM     17  C   UNL A   1      37.727  33.790  33.197  1.00  0.00     0.029 A 
ATOM     18  N   UNL A   1      39.351  32.252  33.174  1.00  0.00    -0.354 N 
ATOM     19  C   UNL A   1      39.828  29.556  29.824  1.00  0.00     0.074 A 
ATOM     20  C   UNL A   1      38.905  29.885  28.760  1.00  0.00     0.031 C 
ATOM     21  C   UNL A   1      38.391  33.884  34.363  1.00  0.00     0.029 A 
ATOM     22  C   UNL A   1      39.433  32.861  34.402  1.00  0.00     0.049 A 
ATOM     23  H   UNL A   1      39.966  31.541  32.882  1.00  0.00     0.167 HD
ATOM     24  C   UNL A   1      40.748  28.565  29.754  1.00  0.00     0.037 A 
ATOM     25  C   UNL A   1      40.241  32.601  35.448  1.00  0.00     0.037 A 
ATOM     26  C   UNL A   1      41.707  28.281  30.786  1.00  0.00     0.049 A 
ATOM     27  C   UNL A   1      41.245  31.484  35.349  1.00  0.00     0.074 A 
ATOM     28  C   UNL A   1      42.727  27.346  30.777  1.00  0.00     0.029 A 
ATOM     29  N   UNL A   1      41.768  28.935  32.005  1.00  0.00    -0.354 N 
ATOM     30  N   UNL A   1      41.490  30.678  34.345  1.00  0.00    -0.248 NA
ATOM     31  C   UNL A   1      42.081  31.235  36.534  1.00  0.00     0.031 C 
ATOM     32  C   UNL A   1      43.387  27.412  32.009  1.00  0.00     0.029 A 
ATOM     33  C   UNL A   1      42.799  28.412  32.766  1.00  0.00     0.049 A 
ATOM     34  H   UNL A   1      41.169  29.663  32.287  1.00  0.00     0.167 HD
ATOM     35  C   UNL A   1      42.527  29.854  34.763  1.00  0.00     0.074 A 
ATOM     36  C   UNL A   1      42.870  30.259  36.110  1.00  0.00     0.031 C 
ATOM     37  C   UNL A   1      43.142  28.849  34.093  1.00  0.00     0.037 A 
BRANCH  24  38
ATOM     38  C   UNL A   1      40.761  27.713  28.521  1.00  0.00     0.057 A 
ATOM     39  C   UNL A   1      41.512  28.095  27.403  1.00  0.00     0.134 A 
ATOM     40  C   UNL A   1      39.998  26.543  28.421  1.00  0.00     0.134 A 
ATOM     41  F   UNL A   1      42.262  29.208  27.433  1.00  0.00    -0.206 F 
ATOM     42  C   UNL A   1      41.499  27.346  26.226  1.00  0.00     0.040 A 
ATOM     43  C   UNL A   1      39.995  25.774  27.258  1.00  0.00     0.040 A 
ATOM     44  F   UNL A   1      39.268  26.117  29.463  1.00  0.00    -0.206 F 
ATOM     45  C   UNL A   1      40.742  26.179  26.153  1.00  0.00     0.006 A 
ENDBRANCH  24  38
BRANCH  25  46
ATOM     46  C   UNL A   1      40.135  33.396  36.699  1.00  0.00     0.057 A 
ATOM     47  C   UNL A   1      40.916  34.539  36.907  1.00  0.00     0.134 A 
ATOM     48  C   UNL A   1      39.206  33.058  37.690  1.00  0.00     0.134 A 
ATOM     49  F   UNL A   1      41.824  34.914  35.996  1.00  0.00    -0.206 F 
ATOM     50  C   UNL A   1      40.773  35.320  38.055  1.00  0.00     0.040 A 
ATOM     51  C   UNL A   1      39.035  33.845  38.830  1.00  0.00     0.040 A 
ATOM     52  F   UNL A   1      38.412  31.988  37.535  1.00  0.00    -0.206 F 
ATOM     53  C   UNL A   1      39.823  34.980  39.016  1.00  0.00     0.006 A 
ENDBRANCH  25  46
BRANCH  37  54
ATOM     54  C   UNL A   1      44.281  28.158  34.779  1.00  0.00     0.057 A 
ATOM     55  C   UNL A   1      44.051  27.021  35.564  1.00  0.00     0.134 A 
ATOM     56  C   UNL A   1      45.590  28.649  34.711  1.00  0.00     0.134 A 
ATOM     57  F   UNL A   1      42.817  26.507  35.676  1.00  0.00    -0.206 F 
ATOM     58  C   UNL A   1      45.085  26.400  36.265  1.00  0.00     0.040 A 
ATOM     59  C   UNL A   1      46.635  28.023  35.390  1.00  0.00     0.040 A 
ATOM     60  F   UNL A   1      45.874  29.727  33.965  1.00  0.00    -0.206 F 
ATOM     61  C   UNL A   1      46.383  26.900  36.177  1.00  0.00     0.006 A 
ENDBRANCH  37  54
ENDBRANCH  11  12
ENDBRANCH   4   6
ENDBRANCH   1   2
BRANCH   1  62
ATOM     62  C   UNL A   1      34.070  31.405  27.284  1.00  0.00     0.042 C 
BRANCH  62  63
ATOM     63  C   UNL A   1      34.221  29.912  27.025  1.00  0.00     0.118 C 
BRANCH  63  64
ATOM     64  N   UNL A   1      33.200  29.112  27.691  1.00  0.00    -0.352 N 
ATOM     65  C   UNL A   1      32.137  28.417  27.168  1.00  0.00     0.252 C 
ATOM     66  H   UNL A   1      33.285  29.062  28.671  1.00  0.00     0.163 HD
ATOM     67  O   UNL A   1      31.338  27.863  27.920  1.00  0.00    -0.269 OA
BRANCH  65  68
ATOM     68  C   UNL A   1      31.971  28.317  25.704  1.00  0.00     0.051 A 
ATOM     69  C   UNL A   1      31.146  29.258  25.093  1.00  0.00     0.045 A 
ATOM     70  C   UNL A   1      32.615  27.319  24.943  1.00  0.00     0.016 A 
ATOM     71  C   UNL A   1      30.852  29.110  23.751  1.00  0.00     0.090 A 
ATOM     72  C   UNL A   1      32.299  27.289  23.568  1.00  0.00     0.072 A 
ATOM     73  C   UNL A   1      33.528  26.365  25.460  1.00  0.00     0.050 A 
ATOM     74  N   UNL A   1      31.430  28.142  22.998  1.00  0.00    -0.246 NA
ATOM     75  C   UNL A   1      32.899  26.327  22.763  1.00  0.00     0.032 A 
ATOM     76  C   UNL A   1      34.115  25.427  24.622  1.00  0.00     0.123 A 
ATOM     77  C   UNL A   1      33.808  25.398  23.274  1.00  0.00     0.041 A 
ATOM     78  F   UNL A   1      34.988  24.544  25.123  1.00  0.00    -0.207 F 
BRANCH  71  79
ATOM     79  C   UNL A   1      29.822  29.952  23.121  1.00  0.00     0.089 A 
ATOM     80  C   UNL A   1      29.162  30.958  23.829  1.00  0.00     0.030 A 
ATOM     81  N   UNL A   1      29.453  29.604  21.860  1.00  0.00    -0.255 NA
ATOM     82  C   UNL A   1      28.095  31.623  23.230  1.00  0.00     0.004 A 
ATOM     83  C   UNL A   1      28.425  30.275  21.298  1.00  0.00     0.112 A 
ATOM     84  C   UNL A   1      27.717  31.275  21.940  1.00  0.00     0.020 A 
ENDBRANCH  71  79
ENDBRANCH  65  68
ENDBRANCH  63  64
ENDBRANCH  62  63
ENDBRANCH   1  62
TORSDOF 11
ENDMDL
