MODEL 1
REMARK VINA RESULT:     -12.9      0.000      0.000
REMARK SMILES Nn1c(S[C@@H](C(=O)NCCCNC(=O)c2ccc(-c3c4nc(c(-c5c(F)cccc5F)c5ccc([nH]5)c(-c5c(F)cccc5F)c5nc(c(-c6c(F)cccc6F)c6ccc3[nH]6)C=C5)C=C4)cc2)c2ccccc2)nc2ccc(Br)cc2c1=O
REMARK SMILES IDX 9 1 8 2 6 3 7 4 5 6 4 7 3 8 2 9 83 10 75 11 82 12 84 13
REMARK SMILES IDX 76 14 81 15 77 16 79 17 78 18 80 19 1 20 69 23 70 24 74 25
REMARK SMILES IDX 71 26 73 27 72 28 10 29 11 30 12 31 13 32 14 34 15 35 16 36
REMARK SMILES IDX 68 37 17 38 67 39 18 40 19 41 20 42 61 43 21 44 66 45 60 46
REMARK SMILES IDX 62 47 22 48 65 49 59 50 58 51 23 53 49 54 32 55 48 56 33 57
REMARK SMILES IDX 36 58 47 59 63 60 34 61 35 62 46 64 64 65 37 66 24 67 25 68
REMARK SMILES IDX 30 69 26 70 27 71 29 72 31 73 28 74 50 75 51 76 56 77 52 78
REMARK SMILES IDX 53 79 55 80 57 81 54 82 38 83 39 84 44 85 40 86 41 87 43 88
REMARK SMILES IDX 45 89 42 90
REMARK H PARENT 8 5 1 21 1 22 12 33 62 52 36 63
REMARK Flexibility Score: inf
ROOT
ATOM      1  C   UNL A   1      37.224  21.343  24.676  1.00  0.00     0.117 C 
ENDROOT
BRANCH   1   2
ATOM      2  N   UNL A   1      36.187  21.508  25.684  1.00  0.00    -0.355 N 
ATOM      3  C   UNL A   1      34.887  21.078  25.725  1.00  0.00     0.238 C 
ATOM      4  O   UNL A   1      34.335  21.159  26.831  1.00  0.00    -0.273 OA
ATOM      5  H   UNL A   1      36.470  22.021  26.475  1.00  0.00     0.163 HD
BRANCH   3   6
ATOM      6  C   UNL A   1      34.183  20.444  24.500  1.00  0.00     0.174 C 
BRANCH   6   7
ATOM      7  S   UNL A   1      32.996  21.535  23.706  1.00  0.00    -0.068 SA
BRANCH   7   8
ATOM      8  C   UNL A   1      32.565  22.922  24.666  1.00  0.00     0.191 A 
ATOM      9  N   UNL A   1      31.612  22.949  25.682  1.00  0.00    -0.202 N 
ATOM     10  C   UNL A   1      31.239  24.145  26.308  1.00  0.00     0.280 A 
ATOM     11  N   UNL A   1      33.248  23.974  24.336  1.00  0.00    -0.222 NA
ATOM     12  C   UNL A   1      32.015  25.338  25.944  1.00  0.00     0.069 A 
ATOM     13  O   UNL A   1      30.336  24.221  27.142  1.00  0.00    -0.267 OA
ATOM     14  C   UNL A   1      33.030  25.178  25.005  1.00  0.00     0.079 A 
ATOM     15  C   UNL A   1      31.778  26.572  26.558  1.00  0.00     0.031 A 
ATOM     16  C   UNL A   1      33.853  26.266  24.711  1.00  0.00     0.030 A 
ATOM     17  C   UNL A   1      32.599  27.650  26.241  1.00  0.00     0.018 A 
ATOM     18  C   UNL A   1      33.645  27.501  25.330  1.00  0.00     0.018 A 
ATOM     19  Br  UNL A   1      32.302  29.327  27.057  1.00  0.00    -0.051 Br
BRANCH   9  20
ATOM     20  N   UNL A   1      31.010  21.785  26.207  1.00  0.00    -0.334 N 
ATOM     21  H   UNL A   1      30.496  21.832  27.045  1.00  0.00     0.178 HD
ATOM     22  H   UNL A   1      31.104  20.926  25.735  1.00  0.00     0.178 HD
ENDBRANCH   9  20
ENDBRANCH   7   8
ENDBRANCH   6   7
BRANCH   6  23
ATOM     23  C   UNL A   1      33.814  18.964  24.672  1.00  0.00    -0.025 A 
ATOM     24  C   UNL A   1      34.765  17.995  24.287  1.00  0.00     0.005 A 
ATOM     25  C   UNL A   1      32.606  18.489  25.209  1.00  0.00     0.005 A 
ATOM     26  C   UNL A   1      34.531  16.628  24.463  1.00  0.00     0.000 A 
ATOM     27  C   UNL A   1      32.379  17.123  25.406  1.00  0.00     0.000 A 
ATOM     28  C   UNL A   1      33.342  16.192  25.036  1.00  0.00     0.000 A 
ENDBRANCH   6  23
ENDBRANCH   3   6
ENDBRANCH   1   2
BRANCH   1  29
ATOM     29  C   UNL A   1      38.053  20.068  24.834  1.00  0.00     0.042 C 
BRANCH  29  30
ATOM     30  C   UNL A   1      38.967  20.039  26.054  1.00  0.00     0.118 C 
BRANCH  30  31
ATOM     31  N   UNL A   1      40.160  19.231  25.857  1.00  0.00    -0.352 N 
ATOM     32  C   UNL A   1      41.495  19.542  25.995  1.00  0.00     0.251 C 
ATOM     33  H   UNL A   1      39.985  18.304  25.577  1.00  0.00     0.163 HD
ATOM     34  O   UNL A   1      42.341  18.742  25.615  1.00  0.00    -0.269 OA
BRANCH  32  35
ATOM     35  C   UNL A   1      41.922  20.843  26.562  1.00  0.00     0.039 A 
ATOM     36  C   UNL A   1      41.959  21.065  27.939  1.00  0.00     0.014 A 
ATOM     37  C   UNL A   1      42.328  21.860  25.689  1.00  0.00     0.014 A 
ATOM     38  C   UNL A   1      42.221  22.341  28.432  1.00  0.00     0.010 A 
ATOM     39  C   UNL A   1      42.679  23.117  26.192  1.00  0.00     0.010 A 
ATOM     40  C   UNL A   1      42.580  23.384  27.566  1.00  0.00    -0.014 A 
BRANCH  40  41
ATOM     41  C   UNL A   1      42.844  24.743  28.112  1.00  0.00     0.031 A 
ATOM     42  C   UNL A   1      44.246  25.174  28.459  1.00  0.00     0.074 A 
ATOM     43  C   UNL A   1      41.823  25.610  28.258  1.00  0.00     0.049 A 
ATOM     44  N   UNL A   1      44.663  26.314  28.952  1.00  0.00    -0.248 NA
ATOM     45  C   UNL A   1      45.320  24.197  28.224  1.00  0.00     0.031 C 
ATOM     46  C   UNL A   1      40.421  25.325  27.943  1.00  0.00     0.029 A 
ATOM     47  N   UNL A   1      41.806  26.912  28.691  1.00  0.00    -0.354 N 
ATOM     48  C   UNL A   1      46.039  26.184  29.105  1.00  0.00     0.074 A 
ATOM     49  C   UNL A   1      46.384  24.845  28.677  1.00  0.00     0.031 C 
ATOM     50  C   UNL A   1      39.689  26.430  28.151  1.00  0.00     0.029 A 
ATOM     51  C   UNL A   1      40.555  27.480  28.678  1.00  0.00     0.049 A 
ATOM     52  H   UNL A   1      42.614  27.393  28.984  1.00  0.00     0.167 HD
ATOM     53  C   UNL A   1      46.933  27.100  29.549  1.00  0.00     0.037 A 
ATOM     54  C   UNL A   1      40.145  28.700  29.069  1.00  0.00     0.037 A 
ATOM     55  C   UNL A   1      46.592  28.440  29.956  1.00  0.00     0.049 A 
ATOM     56  C   UNL A   1      41.149  29.664  29.633  1.00  0.00     0.074 A 
ATOM     57  C   UNL A   1      47.436  29.456  30.374  1.00  0.00     0.029 A 
ATOM     58  N   UNL A   1      45.304  28.948  30.002  1.00  0.00    -0.354 N 
ATOM     59  N   UNL A   1      42.449  29.538  29.743  1.00  0.00    -0.248 NA
ATOM     60  C   UNL A   1      40.622  30.936  30.147  1.00  0.00     0.031 C 
ATOM     61  C   UNL A   1      46.650  30.560  30.726  1.00  0.00     0.029 A 
ATOM     62  C   UNL A   1      45.323  30.248  30.482  1.00  0.00     0.049 A 
ATOM     63  H   UNL A   1      44.493  28.456  29.734  1.00  0.00     0.167 HD
ATOM     64  C   UNL A   1      42.896  30.715  30.328  1.00  0.00     0.074 A 
ATOM     65  C   UNL A   1      41.732  31.555  30.519  1.00  0.00     0.031 C 
ATOM     66  C   UNL A   1      44.156  31.066  30.682  1.00  0.00     0.037 A 
BRANCH  53  67
ATOM     67  C   UNL A   1      48.373  26.680  29.644  1.00  0.00     0.057 A 
ATOM     68  C   UNL A   1      49.249  26.894  28.572  1.00  0.00     0.134 A 
ATOM     69  C   UNL A   1      48.883  26.026  30.773  1.00  0.00     0.134 A 
ATOM     70  F   UNL A   1      48.824  27.508  27.457  1.00  0.00    -0.206 F 
ATOM     71  C   UNL A   1      50.577  26.469  28.617  1.00  0.00     0.040 A 
ATOM     72  C   UNL A   1      50.218  25.619  30.840  1.00  0.00     0.040 A 
ATOM     73  F   UNL A   1      48.102  25.799  31.840  1.00  0.00    -0.206 F 
ATOM     74  C   UNL A   1      51.067  25.834  29.756  1.00  0.00     0.006 A 
ENDBRANCH  53  67
BRANCH  54  75
ATOM     75  C   UNL A   1      38.711  29.077  28.976  1.00  0.00     0.057 A 
ATOM     76  C   UNL A   1      37.858  28.983  30.083  1.00  0.00     0.134 A 
ATOM     77  C   UNL A   1      38.171  29.577  27.787  1.00  0.00     0.134 A 
ATOM     78  F   UNL A   1      38.315  28.512  31.254  1.00  0.00    -0.206 F 
ATOM     79  C   UNL A   1      36.518  29.365  30.009  1.00  0.00     0.040 A 
ATOM     80  C   UNL A   1      36.840  29.990  27.705  1.00  0.00     0.040 A 
ATOM     81  F   UNL A   1      38.945  29.714  26.699  1.00  0.00    -0.206 F 
ATOM     82  C   UNL A   1      36.009  29.880  28.818  1.00  0.00     0.006 A 
ENDBRANCH  54  75
BRANCH  66  83
ATOM     83  C   UNL A   1      44.330  32.420  31.307  1.00  0.00     0.057 A 
ATOM     84  C   UNL A   1      44.291  32.580  32.696  1.00  0.00     0.134 A 
ATOM     85  C   UNL A   1      44.537  33.566  30.527  1.00  0.00     0.134 A 
ATOM     86  F   UNL A   1      44.090  31.525  33.500  1.00  0.00    -0.206 F 
ATOM     87  C   UNL A   1      44.453  33.834  33.290  1.00  0.00     0.040 A 
ATOM     88  C   UNL A   1      44.728  34.819  31.111  1.00  0.00     0.040 A 
ATOM     89  F   UNL A   1      44.604  33.475  29.190  1.00  0.00    -0.206 F 
ATOM     90  C   UNL A   1      44.681  34.956  32.497  1.00  0.00     0.006 A 
ENDBRANCH  66  83
ENDBRANCH  40  41
ENDBRANCH  32  35
ENDBRANCH  30  31
ENDBRANCH  29  30
ENDBRANCH   1  29
TORSDOF 14
ENDMDL
MODEL 2
REMARK VINA RESULT:     -12.7      0.594      6.147
REMARK SMILES Nn1c(S[C@@H](C(=O)NCCCNC(=O)c2ccc(-c3c4nc(c(-c5c(F)cccc5F)c5ccc([nH]5)c(-c5c(F)cccc5F)c5nc(c(-c6c(F)cccc6F)c6ccc3[nH]6)C=C5)C=C4)cc2)c2ccccc2)nc2ccc(Br)cc2c1=O
REMARK SMILES IDX 9 1 8 2 6 3 7 4 5 6 4 7 3 8 2 9 83 10 75 11 82 12 84 13
REMARK SMILES IDX 76 14 81 15 77 16 79 17 78 18 80 19 1 20 69 23 70 24 74 25
REMARK SMILES IDX 71 26 73 27 72 28 10 29 11 30 12 31 13 32 14 34 15 35 16 36
REMARK SMILES IDX 68 37 17 38 67 39 18 40 19 41 20 42 61 43 21 44 66 45 60 46
REMARK SMILES IDX 62 47 22 48 65 49 59 50 58 51 23 53 49 54 32 55 48 56 33 57
REMARK SMILES IDX 36 58 47 59 63 60 34 61 35 62 46 64 64 65 37 66 24 67 25 68
REMARK SMILES IDX 30 69 26 70 27 71 29 72 31 73 28 74 50 75 51 76 56 77 52 78
REMARK SMILES IDX 53 79 55 80 57 81 54 82 38 83 39 84 44 85 40 86 41 87 43 88
REMARK SMILES IDX 45 89 42 90
REMARK H PARENT 8 5 1 21 1 22 12 33 62 52 36 63
REMARK Flexibility Score: inf
ROOT
ATOM      1  C   UNL A   1      36.756  21.144  24.594  1.00  0.00     0.117 C 
ENDROOT
BRANCH   1   2
ATOM      2  N   UNL A   1      35.726  21.362  25.599  1.00  0.00    -0.355 N 
ATOM      3  C   UNL A   1      34.439  20.900  25.692  1.00  0.00     0.238 C 
ATOM      4  O   UNL A   1      33.897  21.054  26.795  1.00  0.00    -0.273 OA
ATOM      5  H   UNL A   1      36.002  21.943  26.343  1.00  0.00     0.163 HD
BRANCH   3   6
ATOM      6  C   UNL A   1      33.739  20.151  24.531  1.00  0.00     0.174 C 
BRANCH   6   7
ATOM      7  S   UNL A   1      32.343  21.042  23.836  1.00  0.00    -0.068 SA
BRANCH   7   8
ATOM      8  C   UNL A   1      32.156  22.656  24.462  1.00  0.00     0.191 A 
ATOM      9  N   UNL A   1      31.369  23.024  25.551  1.00  0.00    -0.202 N 
ATOM     10  C   UNL A   1      31.177  24.368  25.898  1.00  0.00     0.280 A 
ATOM     11  N   UNL A   1      32.855  23.521  23.795  1.00  0.00    -0.222 NA
ATOM     12  C   UNL A   1      31.971  25.351  25.150  1.00  0.00     0.069 A 
ATOM     13  O   UNL A   1      30.415  24.735  26.793  1.00  0.00    -0.267 OA
ATOM     14  C   UNL A   1      32.823  24.866  24.161  1.00  0.00     0.079 A 
ATOM     15  C   UNL A   1      31.915  26.714  25.459  1.00  0.00     0.031 A 
ATOM     16  C   UNL A   1      33.667  25.760  23.501  1.00  0.00     0.030 A 
ATOM     17  C   UNL A   1      32.753  27.594  24.779  1.00  0.00     0.018 A 
ATOM     18  C   UNL A   1      33.639  27.122  23.810  1.00  0.00     0.018 A 
ATOM     19  Br  UNL A   1      32.697  29.439  25.178  1.00  0.00    -0.051 Br
BRANCH   9  20
ATOM     20  N   UNL A   1      30.772  22.090  26.423  1.00  0.00    -0.334 N 
ATOM     21  H   UNL A   1      31.066  22.033  27.361  1.00  0.00     0.178 HD
ATOM     22  H   UNL A   1      30.060  21.494  26.095  1.00  0.00     0.178 HD
ENDBRANCH   9  20
ENDBRANCH   7   8
ENDBRANCH   6   7
BRANCH   6  23
ATOM     23  C   UNL A   1      33.611  18.635  24.736  1.00  0.00    -0.025 A 
ATOM     24  C   UNL A   1      34.664  17.814  24.282  1.00  0.00     0.005 A 
ATOM     25  C   UNL A   1      32.533  17.993  25.366  1.00  0.00     0.005 A 
ATOM     26  C   UNL A   1      34.653  16.430  24.480  1.00  0.00     0.000 A 
ATOM     27  C   UNL A   1      32.529  16.612  25.585  1.00  0.00     0.000 A 
ATOM     28  C   UNL A   1      33.590  15.830  25.144  1.00  0.00     0.000 A 
ENDBRANCH   6  23
ENDBRANCH   3   6
ENDBRANCH   1   2
BRANCH   1  29
ATOM     29  C   UNL A   1      37.715  19.999  24.918  1.00  0.00     0.042 C 
BRANCH  29  30
ATOM     30  C   UNL A   1      38.836  20.350  25.889  1.00  0.00     0.118 C 
BRANCH  30  31
ATOM     31  N   UNL A   1      39.952  19.419  25.838  1.00  0.00    -0.352 N 
ATOM     32  C   UNL A   1      41.298  19.606  26.065  1.00  0.00     0.251 C 
ATOM     33  H   UNL A   1      39.704  18.496  25.599  1.00  0.00     0.163 HD
ATOM     34  O   UNL A   1      42.083  18.704  25.803  1.00  0.00    -0.269 OA
BRANCH  32  35
ATOM     35  C   UNL A   1      41.812  20.894  26.587  1.00  0.00     0.039 A 
ATOM     36  C   UNL A   1      41.897  21.148  27.956  1.00  0.00     0.014 A 
ATOM     37  C   UNL A   1      42.253  21.863  25.678  1.00  0.00     0.014 A 
ATOM     38  C   UNL A   1      42.243  22.419  28.409  1.00  0.00     0.010 A 
ATOM     39  C   UNL A   1      42.688  23.111  26.139  1.00  0.00     0.010 A 
ATOM     40  C   UNL A   1      42.639  23.418  27.507  1.00  0.00    -0.014 A 
BRANCH  40  41
ATOM     41  C   UNL A   1      42.993  24.772  28.010  1.00  0.00     0.031 A 
ATOM     42  C   UNL A   1      41.923  25.801  28.271  1.00  0.00     0.074 A 
ATOM     43  C   UNL A   1      44.282  25.066  28.275  1.00  0.00     0.049 A 
ATOM     44  N   UNL A   1      42.046  27.033  28.700  1.00  0.00    -0.248 NA
ATOM     45  C   UNL A   1      40.533  25.396  28.012  1.00  0.00     0.031 C 
ATOM     46  C   UNL A   1      45.412  24.156  28.083  1.00  0.00     0.029 A 
ATOM     47  N   UNL A   1      44.857  26.207  28.776  1.00  0.00    -0.354 N 
ATOM     48  C   UNL A   1      40.758  27.553  28.745  1.00  0.00     0.074 A 
ATOM     49  C   UNL A   1      39.869  26.513  28.272  1.00  0.00     0.031 C 
ATOM     50  C   UNL A   1      46.537  24.755  28.503  1.00  0.00     0.029 A 
ATOM     51  C   UNL A   1      46.219  26.114  28.929  1.00  0.00     0.049 A 
ATOM     52  H   UNL A   1      44.342  27.015  29.004  1.00  0.00     0.167 HD
ATOM     53  C   UNL A   1      40.352  28.780  29.151  1.00  0.00     0.037 A 
ATOM     54  C   UNL A   1      47.117  27.028  29.341  1.00  0.00     0.037 A 
ATOM     55  C   UNL A   1      41.235  29.809  29.641  1.00  0.00     0.049 A 
ATOM     56  C   UNL A   1      46.644  28.405  29.709  1.00  0.00     0.074 A 
ATOM     57  C   UNL A   1      40.912  31.066  30.122  1.00  0.00     0.029 A 
ATOM     58  N   UNL A   1      42.615  29.701  29.704  1.00  0.00    -0.354 N 
ATOM     59  N   UNL A   1      45.421  28.872  29.774  1.00  0.00    -0.248 NA
ATOM     60  C   UNL A   1      47.683  29.389  30.041  1.00  0.00     0.031 C 
ATOM     61  C   UNL A   1      42.101  31.739  30.425  1.00  0.00     0.029 A 
ATOM     62  C   UNL A   1      43.162  30.884  30.176  1.00  0.00     0.049 A 
ATOM     63  H   UNL A   1      43.131  28.901  29.450  1.00  0.00     0.167 HD
ATOM     64  C   UNL A   1      45.542  30.198  30.164  1.00  0.00     0.074 A 
ATOM     65  C   UNL A   1      46.956  30.452  30.352  1.00  0.00     0.031 C 
ATOM     66  C   UNL A   1      44.571  31.127  30.343  1.00  0.00     0.037 A 
BRANCH  53  67
ATOM     67  C   UNL A   1      38.885  29.094  29.065  1.00  0.00     0.057 A 
ATOM     68  C   UNL A   1      38.318  29.517  27.855  1.00  0.00     0.134 A 
ATOM     69  C   UNL A   1      38.042  29.023  30.181  1.00  0.00     0.134 A 
ATOM     70  F   UNL A   1      39.070  29.615  26.748  1.00  0.00    -0.206 F 
ATOM     71  C   UNL A   1      36.969  29.861  27.760  1.00  0.00     0.040 A 
ATOM     72  C   UNL A   1      36.685  29.341  30.093  1.00  0.00     0.040 A 
ATOM     73  F   UNL A   1      38.517  28.616  31.368  1.00  0.00    -0.206 F 
ATOM     74  C   UNL A   1      36.147  29.769  28.880  1.00  0.00     0.006 A 
ENDBRANCH  53  67
BRANCH  54  75
ATOM     75  C   UNL A   1      48.562  26.688  29.399  1.00  0.00     0.057 A 
ATOM     76  C   UNL A   1      49.418  26.951  28.323  1.00  0.00     0.134 A 
ATOM     77  C   UNL A   1      49.127  26.128  30.549  1.00  0.00     0.134 A 
ATOM     78  F   UNL A   1      48.938  27.490  27.191  1.00  0.00    -0.206 F 
ATOM     79  C   UNL A   1      50.781  26.664  28.385  1.00  0.00     0.040 A 
ATOM     80  C   UNL A   1      50.494  25.861  30.637  1.00  0.00     0.040 A 
ATOM     81  F   UNL A   1      48.362  25.876  31.623  1.00  0.00    -0.206 F 
ATOM     82  C   UNL A   1      51.325  26.125  29.550  1.00  0.00     0.006 A 
ENDBRANCH  54  75
BRANCH  66  83
ATOM     83  C   UNL A   1      45.015  32.496  30.768  1.00  0.00     0.057 A 
ATOM     84  C   UNL A   1      45.284  33.490  29.820  1.00  0.00     0.134 A 
ATOM     85  C   UNL A   1      45.176  32.828  32.119  1.00  0.00     0.134 A 
ATOM     86  F   UNL A   1      45.155  33.237  28.509  1.00  0.00    -0.206 F 
ATOM     87  C   UNL A   1      45.697  34.769  30.202  1.00  0.00     0.040 A 
ATOM     88  C   UNL A   1      45.561  34.110  32.514  1.00  0.00     0.040 A 
ATOM     89  F   UNL A   1      44.916  31.924  33.077  1.00  0.00    -0.206 F 
ATOM     90  C   UNL A   1      45.828  35.083  31.553  1.00  0.00     0.006 A 
ENDBRANCH  66  83
ENDBRANCH  40  41
ENDBRANCH  32  35
ENDBRANCH  30  31
ENDBRANCH  29  30
ENDBRANCH   1  29
TORSDOF 14
ENDMDL
MODEL 3
REMARK VINA RESULT:     -12.6      4.638      9.751
REMARK SMILES Nn1c(S[C@@H](C(=O)NCCCNC(=O)c2ccc(-c3c4nc(c(-c5c(F)cccc5F)c5ccc([nH]5)c(-c5c(F)cccc5F)c5nc(c(-c6c(F)cccc6F)c6ccc3[nH]6)C=C5)C=C4)cc2)c2ccccc2)nc2ccc(Br)cc2c1=O
REMARK SMILES IDX 9 1 8 2 6 3 7 4 5 6 4 7 3 8 2 9 83 10 75 11 82 12 84 13
REMARK SMILES IDX 76 14 81 15 77 16 79 17 78 18 80 19 1 20 69 23 70 24 74 25
REMARK SMILES IDX 71 26 73 27 72 28 10 29 11 30 12 31 13 32 14 34 15 35 16 36
REMARK SMILES IDX 68 37 17 38 67 39 18 40 19 41 20 42 61 43 21 44 66 45 60 46
REMARK SMILES IDX 62 47 22 48 65 49 59 50 58 51 23 53 49 54 32 55 48 56 33 57
REMARK SMILES IDX 36 58 47 59 63 60 34 61 35 62 46 64 64 65 37 66 24 67 25 68
REMARK SMILES IDX 30 69 26 70 27 71 29 72 31 73 28 74 50 75 51 76 56 77 52 78
REMARK SMILES IDX 53 79 55 80 57 81 54 82 38 83 39 84 44 85 40 86 41 87 43 88
REMARK SMILES IDX 45 89 42 90
REMARK H PARENT 8 5 1 21 1 22 12 33 62 52 36 63
REMARK Flexibility Score: inf
ROOT
ATOM      1  C   UNL A   1      31.556  30.208  26.558  1.00  0.00     0.117 C 
ENDROOT
BRANCH   1   2
ATOM      2  N   UNL A   1      32.257  29.682  25.396  1.00  0.00    -0.355 N 
ATOM      3  C   UNL A   1      31.793  29.181  24.208  1.00  0.00     0.238 C 
ATOM      4  O   UNL A   1      32.645  29.050  23.318  1.00  0.00    -0.273 OA
ATOM      5  H   UNL A   1      33.238  29.686  25.479  1.00  0.00     0.163 HD
BRANCH   3   6
ATOM      6  C   UNL A   1      30.293  28.889  23.959  1.00  0.00     0.174 C 
BRANCH   6   7
ATOM      7  S   UNL A   1      29.961  27.196  23.457  1.00  0.00    -0.068 SA
BRANCH   7   8
ATOM      8  C   UNL A   1      30.951  26.016  24.270  1.00  0.00     0.191 A 
ATOM      9  N   UNL A   1      30.663  25.409  25.490  1.00  0.00    -0.202 N 
ATOM     10  C   UNL A   1      31.585  24.571  26.130  1.00  0.00     0.280 A 
ATOM     11  N   UNL A   1      32.026  25.738  23.600  1.00  0.00    -0.222 NA
ATOM     12  C   UNL A   1      32.801  24.247  25.373  1.00  0.00     0.069 A 
ATOM     13  O   UNL A   1      31.404  24.093  27.251  1.00  0.00    -0.267 OA
ATOM     14  C   UNL A   1      32.935  24.810  24.107  1.00  0.00     0.079 A 
ATOM     15  C   UNL A   1      33.757  23.363  25.882  1.00  0.00     0.031 A 
ATOM     16  C   UNL A   1      34.027  24.444  23.318  1.00  0.00     0.030 A 
ATOM     17  C   UNL A   1      34.849  23.021  25.087  1.00  0.00     0.018 A 
ATOM     18  C   UNL A   1      34.982  23.546  23.802  1.00  0.00     0.018 A 
ATOM     19  Br  UNL A   1      36.154  21.828  25.751  1.00  0.00    -0.051 Br
BRANCH   9  20
ATOM     20  N   UNL A   1      29.413  25.526  26.135  1.00  0.00    -0.334 N 
ATOM     21  H   UNL A   1      28.915  24.718  26.395  1.00  0.00     0.178 HD
ATOM     22  H   UNL A   1      29.038  26.417  26.325  1.00  0.00     0.178 HD
ENDBRANCH   9  20
ENDBRANCH   7   8
ENDBRANCH   6   7
BRANCH   6  23
ATOM     23  C   UNL A   1      29.531  30.023  23.256  1.00  0.00    -0.025 A 
ATOM     24  C   UNL A   1      29.229  29.869  21.887  1.00  0.00     0.005 A 
ATOM     25  C   UNL A   1      29.085  31.201  23.876  1.00  0.00     0.005 A 
ATOM     26  C   UNL A   1      28.490  30.827  21.187  1.00  0.00     0.000 A 
ATOM     27  C   UNL A   1      28.327  32.151  23.183  1.00  0.00     0.000 A 
ATOM     28  C   UNL A   1      28.027  31.963  21.839  1.00  0.00     0.000 A 
ENDBRANCH   6  23
ENDBRANCH   3   6
ENDBRANCH   1   2
BRANCH   1  29
ATOM     29  C   UNL A   1      31.408  31.729  26.564  1.00  0.00     0.042 C 
BRANCH  29  30
ATOM     30  C   UNL A   1      32.695  32.502  26.826  1.00  0.00     0.118 C 
BRANCH  30  31
ATOM     31  N   UNL A   1      32.465  33.831  27.371  1.00  0.00    -0.352 N 
ATOM     32  C   UNL A   1      33.060  34.490  28.425  1.00  0.00     0.251 C 
ATOM     33  H   UNL A   1      31.766  34.347  26.910  1.00  0.00     0.163 HD
ATOM     34  O   UNL A   1      32.589  35.553  28.810  1.00  0.00    -0.269 OA
BRANCH  32  35
ATOM     35  C   UNL A   1      34.237  33.917  29.119  1.00  0.00     0.039 A 
ATOM     36  C   UNL A   1      35.535  34.329  28.820  1.00  0.00     0.014 A 
ATOM     37  C   UNL A   1      34.030  32.963  30.122  1.00  0.00     0.014 A 
ATOM     38  C   UNL A   1      36.624  33.665  29.383  1.00  0.00     0.010 A 
ATOM     39  C   UNL A   1      35.123  32.360  30.753  1.00  0.00     0.010 A 
ATOM     40  C   UNL A   1      36.432  32.670  30.353  1.00  0.00    -0.014 A 
BRANCH  40  41
ATOM     41  C   UNL A   1      37.607  31.965  30.934  1.00  0.00     0.031 A 
ATOM     42  C   UNL A   1      38.079  32.277  32.330  1.00  0.00     0.074 A 
ATOM     43  C   UNL A   1      38.228  31.008  30.216  1.00  0.00     0.049 A 
ATOM     44  N   UNL A   1      39.087  31.771  32.996  1.00  0.00    -0.248 NA
ATOM     45  C   UNL A   1      37.322  33.294  33.077  1.00  0.00     0.031 C 
ATOM     46  C   UNL A   1      37.861  30.597  28.859  1.00  0.00     0.029 A 
ATOM     47  N   UNL A   1      39.288  30.196  30.533  1.00  0.00    -0.354 N 
ATOM     48  C   UNL A   1      39.098  32.418  34.226  1.00  0.00     0.074 A 
ATOM     49  C   UNL A   1      38.012  33.375  34.206  1.00  0.00     0.031 C 
ATOM     50  C   UNL A   1      38.651  29.583  28.478  1.00  0.00     0.029 A 
ATOM     51  C   UNL A   1      39.624  29.316  29.532  1.00  0.00     0.049 A 
ATOM     52  H   UNL A   1      39.762  30.240  31.394  1.00  0.00     0.167 HD
ATOM     53  C   UNL A   1      39.928  32.225  35.279  1.00  0.00     0.037 A 
ATOM     54  C   UNL A   1      40.619  28.413  29.460  1.00  0.00     0.037 A 
ATOM     55  C   UNL A   1      40.997  31.259  35.306  1.00  0.00     0.049 A 
ATOM     56  C   UNL A   1      41.572  28.280  30.613  1.00  0.00     0.074 A 
ATOM     57  C   UNL A   1      41.861  30.956  36.346  1.00  0.00     0.029 A 
ATOM     58  N   UNL A   1      41.353  30.444  34.243  1.00  0.00    -0.354 N 
ATOM     59  N   UNL A   1      41.551  28.877  31.780  1.00  0.00    -0.248 NA
ATOM     60  C   UNL A   1      42.702  27.360  30.428  1.00  0.00     0.031 C 
ATOM     61  C   UNL A   1      42.774  29.997  35.892  1.00  0.00     0.029 A 
ATOM     62  C   UNL A   1      42.450  29.669  34.586  1.00  0.00     0.049 A 
ATOM     63  H   UNL A   1      40.894  30.420  33.372  1.00  0.00     0.167 HD
ATOM     64  C   UNL A   1      42.655  28.398  32.470  1.00  0.00     0.074 A 
ATOM     65  C   UNL A   1      43.306  27.437  31.604  1.00  0.00     0.031 C 
ATOM     66  C   UNL A   1      43.097  28.729  33.709  1.00  0.00     0.037 A 
BRANCH  53  67
ATOM     67  C   UNL A   1      39.734  33.094  36.490  1.00  0.00     0.057 A 
ATOM     68  C   UNL A   1      38.809  32.737  37.480  1.00  0.00     0.134 A 
ATOM     69  C   UNL A   1      40.423  34.302  36.657  1.00  0.00     0.134 A 
ATOM     70  F   UNL A   1      38.109  31.597  37.380  1.00  0.00    -0.206 F 
ATOM     71  C   UNL A   1      38.575  33.551  38.589  1.00  0.00     0.040 A 
ATOM     72  C   UNL A   1      40.215  35.113  37.775  1.00  0.00     0.040 A 
ATOM     73  F   UNL A   1      41.330  34.699  35.751  1.00  0.00    -0.206 F 
ATOM     74  C   UNL A   1      39.283  34.740  38.742  1.00  0.00     0.006 A 
ENDBRANCH  53  67
BRANCH  54  75
ATOM     75  C   UNL A   1      40.792  27.582  28.241  1.00  0.00     0.057 A 
ATOM     76  C   UNL A   1      40.177  26.330  28.117  1.00  0.00     0.134 A 
ATOM     77  C   UNL A   1      41.547  28.040  27.156  1.00  0.00     0.134 A 
ATOM     78  F   UNL A   1      39.437  25.835  29.121  1.00  0.00    -0.206 F 
ATOM     79  C   UNL A   1      40.311  25.560  26.961  1.00  0.00     0.040 A 
ATOM     80  C   UNL A   1      41.668  27.293  25.983  1.00  0.00     0.040 A 
ATOM     81  F   UNL A   1      42.141  29.242  27.206  1.00  0.00    -0.206 F 
ATOM     82  C   UNL A   1      41.051  26.047  25.885  1.00  0.00     0.006 A 
ENDBRANCH  54  75
BRANCH  66  83
ATOM     83  C   UNL A   1      44.338  28.038  34.191  1.00  0.00     0.057 A 
ATOM     84  C   UNL A   1      44.266  26.800  34.839  1.00  0.00     0.134 A 
ATOM     85  C   UNL A   1      45.608  28.602  34.011  1.00  0.00     0.134 A 
ATOM     86  F   UNL A   1      43.081  26.207  35.049  1.00  0.00    -0.206 F 
ATOM     87  C   UNL A   1      45.414  26.146  35.292  1.00  0.00     0.040 A 
ATOM     88  C   UNL A   1      46.764  27.945  34.434  1.00  0.00     0.040 A 
ATOM     89  F   UNL A   1      45.746  29.778  33.380  1.00  0.00    -0.206 F 
ATOM     90  C   UNL A   1      46.668  26.715  35.081  1.00  0.00     0.006 A 
ENDBRANCH  66  83
ENDBRANCH  40  41
ENDBRANCH  32  35
ENDBRANCH  30  31
ENDBRANCH  29  30
ENDBRANCH   1  29
TORSDOF 14
ENDMDL
