MODEL 1
REMARK VINA RESULT:     -11.8      0.000      0.000
REMARK SMILES CCOC(=O)C1=NN(c2ccc([N+](=O)[O-])cc2C(F)(F)F)[C@@](C)(C(=O)NCCCNC(=O)c2ccc(-c3c4nc(c(-c5c(F)cccc5F)c5ccc([nH]5)c(-c5c(F)cccc5F)c5nc(c(-c6c(F)cccc6F)c6ccc3[nH]6)C=C5)C=C4)cc2)C1
REMARK SMILES IDX 27 1 26 2 24 3 25 4 22 6 6 7 7 8 87 9 8 10 23 11 4 12 5 13
REMARK SMILES IDX 3 14 2 15 1 16 9 17 10 18 17 19 11 20 16 21 12 22 18 23
REMARK SMILES IDX 19 24 20 25 21 26 13 27 14 28 15 29 28 30 29 31 30 32 31 33
REMARK SMILES IDX 32 35 33 36 34 37 86 38 35 39 85 40 36 41 37 42 38 43 79 44
REMARK SMILES IDX 39 45 84 46 78 47 80 48 40 49 83 50 77 51 76 52 41 54 67 55
REMARK SMILES IDX 50 56 66 57 51 58 54 59 65 60 81 61 52 62 53 63 64 65 82 66
REMARK SMILES IDX 55 67 42 68 43 69 48 70 44 71 45 72 47 73 49 74 46 75 68 76
REMARK SMILES IDX 69 77 74 78 70 79 71 80 73 81 75 82 72 83 56 84 57 85 62 86
REMARK SMILES IDX 58 87 59 88 61 89 63 90 60 91
REMARK H PARENT 26 5 30 34 80 53 54 64
REMARK Flexibility Score: inf
ROOT
ATOM      1  C   UNL A   1      31.354  27.184  26.719  1.00  0.00     0.117 C 
ENDROOT
BRANCH   1   2
ATOM      2  N   UNL A   1      31.425  25.748  26.920  1.00  0.00    -0.354 N 
ATOM      3  C   UNL A   1      31.936  24.722  26.193  1.00  0.00     0.248 C 
ATOM      4  O   UNL A   1      31.602  23.603  26.605  1.00  0.00    -0.272 OA
ATOM      5  H   UNL A   1      31.015  25.456  27.765  1.00  0.00     0.163 HD
BRANCH   3   6
ATOM      6  C   UNL A   1      32.893  24.881  24.972  1.00  0.00     0.144 C 
ATOM      7  C   UNL A   1      32.382  23.061  23.659  1.00  0.00     0.149 C 
ATOM      8  N   UNL A   1      31.720  24.031  23.104  1.00  0.00    -0.169 NA
ATOM      9  C   UNL A   1      33.432  23.464  24.639  1.00  0.00     0.106 C 
ATOM     10  N   UNL A   1      32.173  25.184  23.701  1.00  0.00    -0.249 N 
ATOM     11  C   UNL A   1      34.087  25.772  25.288  1.00  0.00     0.048 C 
BRANCH   7  12
ATOM     12  C   UNL A   1      32.172  21.603  23.355  1.00  0.00     0.354 C 
ATOM     13  O   UNL A   1      31.971  21.213  22.218  1.00  0.00    -0.245 OA
BRANCH  12  14
ATOM     14  O   UNL A   1      32.180  20.879  24.489  1.00  0.00    -0.461 OA
BRANCH  14  15
ATOM     15  C   UNL A   1      32.518  19.495  24.325  1.00  0.00     0.230 C 
ATOM     16  C   UNL A   1      33.994  19.268  24.599  1.00  0.00     0.049 C 
ENDBRANCH  14  15
ENDBRANCH  12  14
ENDBRANCH   7  12
BRANCH  10  17
ATOM     17  C   UNL A   1      31.532  26.363  23.351  1.00  0.00     0.073 A 
ATOM     18  C   UNL A   1      30.130  26.445  23.489  1.00  0.00     0.036 A 
ATOM     19  C   UNL A   1      32.200  27.462  22.780  1.00  0.00     0.088 A 
ATOM     20  C   UNL A   1      29.416  27.611  23.190  1.00  0.00     0.088 A 
ATOM     21  C   UNL A   1      31.486  28.657  22.514  1.00  0.00     0.101 A 
ATOM     22  C   UNL A   1      30.107  28.730  22.734  1.00  0.00     0.270 A 
BRANCH  19  23
ATOM     23  C   UNL A   1      33.657  27.428  22.379  1.00  0.00     0.418 C 
ATOM     24  F   UNL A   1      33.915  28.235  21.308  1.00  0.00    -0.166 F 
ATOM     25  F   UNL A   1      34.465  27.891  23.375  1.00  0.00    -0.166 F 
ATOM     26  F   UNL A   1      34.146  26.208  22.033  1.00  0.00    -0.166 F 
ENDBRANCH  19  23
BRANCH  22  27
ATOM     27  N   UNL A   1      29.387  29.983  22.476  1.00  0.00     0.062 N 
ATOM     28  O   UNL A   1      29.123  30.266  21.299  1.00  0.00    -0.258 OA
ATOM     29  O   UNL A   1      29.067  30.672  23.455  1.00  0.00    -0.258 OA
ENDBRANCH  22  27
ENDBRANCH  10  17
ENDBRANCH   3   6
ENDBRANCH   1   2
BRANCH   1  30
ATOM     30  C   UNL A   1      32.080  27.932  27.835  1.00  0.00     0.042 C 
BRANCH  30  31
ATOM     31  C   UNL A   1      33.406  28.564  27.428  1.00  0.00     0.118 C 
BRANCH  31  32
ATOM     32  N   UNL A   1      33.448  29.995  27.669  1.00  0.00    -0.352 N 
ATOM     33  C   UNL A   1      34.459  30.779  28.173  1.00  0.00     0.251 C 
ATOM     34  H   UNL A   1      32.624  30.479  27.434  1.00  0.00     0.163 HD
ATOM     35  O   UNL A   1      34.227  31.953  28.453  1.00  0.00    -0.269 OA
BRANCH  33  36
ATOM     36  C   UNL A   1      35.812  30.225  28.413  1.00  0.00     0.039 A 
ATOM     37  C   UNL A   1      36.729  30.221  27.357  1.00  0.00     0.014 A 
ATOM     38  C   UNL A   1      36.177  29.679  29.647  1.00  0.00     0.014 A 
ATOM     39  C   UNL A   1      38.027  29.742  27.558  1.00  0.00     0.010 A 
ATOM     40  C   UNL A   1      37.491  29.267  29.867  1.00  0.00     0.010 A 
ATOM     41  C   UNL A   1      38.431  29.297  28.827  1.00  0.00    -0.014 A 
BRANCH  41  42
ATOM     42  C   UNL A   1      39.829  28.865  29.088  1.00  0.00     0.031 A 
ATOM     43  C   UNL A   1      40.813  29.811  29.717  1.00  0.00     0.074 A 
ATOM     44  C   UNL A   1      40.240  27.648  28.684  1.00  0.00     0.049 A 
ATOM     45  N   UNL A   1      42.101  29.663  29.900  1.00  0.00    -0.248 NA
ATOM     46  C   UNL A   1      40.286  31.106  30.176  1.00  0.00     0.031 C 
ATOM     47  C   UNL A   1      39.403  26.646  28.019  1.00  0.00     0.029 A 
ATOM     48  N   UNL A   1      41.474  27.052  28.760  1.00  0.00    -0.354 N 
ATOM     49  C   UNL A   1      42.544  30.858  30.454  1.00  0.00     0.074 A 
ATOM     50  C   UNL A   1      41.391  31.726  30.565  1.00  0.00     0.031 C 
ATOM     51  C   UNL A   1      40.144  25.555  27.763  1.00  0.00     0.029 A 
ATOM     52  C   UNL A   1      41.512  25.792  28.213  1.00  0.00     0.049 A 
ATOM     53  H   UNL A   1      42.257  27.486  29.168  1.00  0.00     0.167 HD
ATOM     54  C   UNL A   1      43.795  31.198  30.844  1.00  0.00     0.037 A 
ATOM     55  C   UNL A   1      42.535  24.929  28.078  1.00  0.00     0.037 A 
ATOM     56  C   UNL A   1      44.934  30.320  30.797  1.00  0.00     0.049 A 
ATOM     57  C   UNL A   1      43.903  25.311  28.563  1.00  0.00     0.074 A 
ATOM     58  C   UNL A   1      46.219  30.551  31.255  1.00  0.00     0.029 A 
ATOM     59  N   UNL A   1      44.920  29.040  30.270  1.00  0.00    -0.354 N 
ATOM     60  N   UNL A   1      44.297  26.431  29.117  1.00  0.00    -0.248 NA
ATOM     61  C   UNL A   1      44.970  24.312  28.396  1.00  0.00     0.031 C 
ATOM     62  C   UNL A   1      46.990  29.414  30.987  1.00  0.00     0.029 A 
ATOM     63  C   UNL A   1      46.178  28.472  30.380  1.00  0.00     0.049 A 
ATOM     64  H   UNL A   1      44.133  28.599  29.875  1.00  0.00     0.167 HD
ATOM     65  C   UNL A   1      45.652  26.270  29.373  1.00  0.00     0.074 A 
ATOM     66  C   UNL A   1      46.011  24.941  28.924  1.00  0.00     0.031 C 
ATOM     67  C   UNL A   1      46.521  27.149  29.927  1.00  0.00     0.037 A 
BRANCH  54  68
ATOM     68  C   UNL A   1      43.998  32.589  31.361  1.00  0.00     0.057 A 
ATOM     69  C   UNL A   1      44.327  33.649  30.508  1.00  0.00     0.134 A 
ATOM     70  C   UNL A   1      43.829  32.874  32.721  1.00  0.00     0.134 A 
ATOM     71  F   UNL A   1      44.515  33.434  29.198  1.00  0.00    -0.206 F 
ATOM     72  C   UNL A   1      44.500  34.946  30.995  1.00  0.00     0.040 A 
ATOM     73  C   UNL A   1      43.982  34.170  33.217  1.00  0.00     0.040 A 
ATOM     74  F   UNL A   1      43.510  31.901  33.587  1.00  0.00    -0.206 F 
ATOM     75  C   UNL A   1      44.322  35.209  32.352  1.00  0.00     0.006 A 
ENDBRANCH  54  68
BRANCH  55  76
ATOM     76  C   UNL A   1      42.300  23.605  27.458  1.00  0.00     0.057 A 
ATOM     77  C   UNL A   1      42.429  23.428  26.077  1.00  0.00     0.134 A 
ATOM     78  C   UNL A   1      41.949  22.492  28.228  1.00  0.00     0.134 A 
ATOM     79  F   UNL A   1      42.741  24.468  25.289  1.00  0.00    -0.206 F 
ATOM     80  C   UNL A   1      42.210  22.186  25.479  1.00  0.00     0.040 A 
ATOM     81  C   UNL A   1      41.743  21.241  27.646  1.00  0.00     0.040 A 
ATOM     82  F   UNL A   1      41.810  22.604  29.558  1.00  0.00    -0.206 F 
ATOM     83  C   UNL A   1      41.871  21.088  26.266  1.00  0.00     0.006 A 
ENDBRANCH  55  76
BRANCH  67  84
ATOM     84  C   UNL A   1      47.937  26.697  30.088  1.00  0.00     0.057 A 
ATOM     85  C   UNL A   1      48.351  25.989  31.222  1.00  0.00     0.134 A 
ATOM     86  C   UNL A   1      48.884  26.939  29.087  1.00  0.00     0.134 A 
ATOM     87  F   UNL A   1      47.489  25.740  32.220  1.00  0.00    -0.206 F 
ATOM     88  C   UNL A   1      49.667  25.544  31.360  1.00  0.00     0.040 A 
ATOM     89  C   UNL A   1      50.200  26.488  29.208  1.00  0.00     0.040 A 
ATOM     90  F   UNL A   1      48.547  27.610  27.976  1.00  0.00    -0.206 F 
ATOM     91  C   UNL A   1      50.594  25.790  30.348  1.00  0.00     0.006 A 
ENDBRANCH  67  84
ENDBRANCH  41  42
ENDBRANCH  33  36
ENDBRANCH  31  32
ENDBRANCH  30  31
ENDBRANCH   1  30
TORSDOF 16
ENDMDL
MODEL 2
REMARK VINA RESULT:     -11.5      2.839      7.777
REMARK SMILES CCOC(=O)C1=NN(c2ccc([N+](=O)[O-])cc2C(F)(F)F)[C@@](C)(C(=O)NCCCNC(=O)c2ccc(-c3c4nc(c(-c5c(F)cccc5F)c5ccc([nH]5)c(-c5c(F)cccc5F)c5nc(c(-c6c(F)cccc6F)c6ccc3[nH]6)C=C5)C=C4)cc2)C1
REMARK SMILES IDX 27 1 26 2 24 3 25 4 22 6 6 7 7 8 87 9 8 10 23 11 4 12 5 13
REMARK SMILES IDX 3 14 2 15 1 16 9 17 10 18 17 19 11 20 16 21 12 22 18 23
REMARK SMILES IDX 19 24 20 25 21 26 13 27 14 28 15 29 28 30 29 31 30 32 31 33
REMARK SMILES IDX 32 35 33 36 34 37 86 38 35 39 85 40 36 41 37 42 38 43 79 44
REMARK SMILES IDX 39 45 84 46 78 47 80 48 40 49 83 50 77 51 76 52 41 54 67 55
REMARK SMILES IDX 50 56 66 57 51 58 54 59 65 60 81 61 52 62 53 63 64 65 82 66
REMARK SMILES IDX 55 67 42 68 43 69 48 70 44 71 45 72 47 73 49 74 46 75 68 76
REMARK SMILES IDX 69 77 74 78 70 79 71 80 73 81 75 82 72 83 56 84 57 85 62 86
REMARK SMILES IDX 58 87 59 88 61 89 63 90 60 91
REMARK H PARENT 26 5 30 34 80 53 54 64
REMARK Flexibility Score: inf
ROOT
ATOM      1  C   UNL A   1      33.146  30.219  27.224  1.00  0.00     0.117 C 
ENDROOT
BRANCH   1   2
ATOM      2  N   UNL A   1      33.507  29.768  25.892  1.00  0.00    -0.354 N 
ATOM      3  C   UNL A   1      33.124  28.720  25.119  1.00  0.00     0.248 C 
ATOM      4  O   UNL A   1      33.831  28.556  24.115  1.00  0.00    -0.272 OA
ATOM      5  H   UNL A   1      34.171  30.348  25.455  1.00  0.00     0.163 HD
BRANCH   3   6
ATOM      6  C   UNL A   1      31.893  27.805  25.399  1.00  0.00     0.144 C 
ATOM      7  C   UNL A   1      30.544  28.159  23.568  1.00  0.00     0.149 C 
ATOM      8  N   UNL A   1      31.148  27.044  23.289  1.00  0.00    -0.169 NA
ATOM      9  C   UNL A   1      30.633  28.612  24.987  1.00  0.00     0.106 C 
ATOM     10  N   UNL A   1      31.786  26.663  24.446  1.00  0.00    -0.249 N 
ATOM     11  C   UNL A   1      31.760  27.454  26.875  1.00  0.00     0.048 C 
BRANCH   7  12
ATOM     12  C   UNL A   1      29.761  28.976  22.577  1.00  0.00     0.354 C 
ATOM     13  O   UNL A   1      30.296  29.481  21.606  1.00  0.00    -0.245 OA
BRANCH  12  14
ATOM     14  O   UNL A   1      28.479  29.092  22.970  1.00  0.00    -0.461 OA
BRANCH  14  15
ATOM     15  C   UNL A   1      27.791  30.244  22.467  1.00  0.00     0.230 C 
ATOM     16  C   UNL A   1      27.678  31.312  23.541  1.00  0.00     0.049 C 
ENDBRANCH  14  15
ENDBRANCH  12  14
ENDBRANCH   7  12
BRANCH  10  17
ATOM     17  C   UNL A   1      32.600  25.543  24.371  1.00  0.00     0.073 A 
ATOM     18  C   UNL A   1      33.729  25.574  23.524  1.00  0.00     0.036 A 
ATOM     19  C   UNL A   1      32.312  24.335  25.034  1.00  0.00     0.088 A 
ATOM     20  C   UNL A   1      34.618  24.498  23.421  1.00  0.00     0.088 A 
ATOM     21  C   UNL A   1      33.230  23.258  24.963  1.00  0.00     0.101 A 
ATOM     22  C   UNL A   1      34.380  23.350  24.173  1.00  0.00     0.270 A 
BRANCH  19  23
ATOM     23  C   UNL A   1      31.028  24.096  25.796  1.00  0.00     0.418 C 
ATOM     24  F   UNL A   1      30.511  22.855  25.553  1.00  0.00    -0.166 F 
ATOM     25  F   UNL A   1      31.227  24.141  27.144  1.00  0.00    -0.166 F 
ATOM     26  F   UNL A   1      30.015  24.963  25.534  1.00  0.00    -0.166 F 
ENDBRANCH  19  23
BRANCH  22  27
ATOM     27  N   UNL A   1      35.334  22.234  24.130  1.00  0.00     0.062 N 
ATOM     28  O   UNL A   1      34.973  21.148  24.606  1.00  0.00    -0.258 OA
ATOM     29  O   UNL A   1      36.434  22.440  23.600  1.00  0.00    -0.258 OA
ENDBRANCH  22  27
ENDBRANCH  10  17
ENDBRANCH   3   6
ENDBRANCH   1   2
BRANCH   1  30
ATOM     30  C   UNL A   1      32.052  31.283  27.168  1.00  0.00     0.042 C 
BRANCH  30  31
ATOM     31  C   UNL A   1      32.465  32.596  26.511  1.00  0.00     0.118 C 
BRANCH  31  32
ATOM     32  N   UNL A   1      32.253  33.747  27.369  1.00  0.00    -0.352 N 
ATOM     33  C   UNL A   1      32.990  34.203  28.437  1.00  0.00     0.251 C 
ATOM     34  H   UNL A   1      31.458  34.286  27.152  1.00  0.00     0.163 HD
ATOM     35  O   UNL A   1      32.541  35.109  29.135  1.00  0.00    -0.269 OA
BRANCH  33  36
ATOM     36  C   UNL A   1      34.300  33.600  28.778  1.00  0.00     0.039 A 
ATOM     37  C   UNL A   1      35.426  33.992  28.047  1.00  0.00     0.014 A 
ATOM     38  C   UNL A   1      34.428  32.632  29.778  1.00  0.00     0.014 A 
ATOM     39  C   UNL A   1      36.685  33.473  28.367  1.00  0.00     0.010 A 
ATOM     40  C   UNL A   1      35.692  32.169  30.144  1.00  0.00     0.010 A 
ATOM     41  C   UNL A   1      36.834  32.586  29.445  1.00  0.00    -0.014 A 
BRANCH  41  42
ATOM     42  C   UNL A   1      38.171  32.089  29.860  1.00  0.00     0.031 A 
ATOM     43  C   UNL A   1      38.694  30.781  29.334  1.00  0.00     0.074 A 
ATOM     44  C   UNL A   1      38.884  32.772  30.776  1.00  0.00     0.049 A 
ATOM     45  N   UNL A   1      39.771  30.122  29.679  1.00  0.00    -0.248 NA
ATOM     46  C   UNL A   1      37.885  30.112  28.303  1.00  0.00     0.031 C 
ATOM     47  C   UNL A   1      38.477  34.030  31.404  1.00  0.00     0.029 A 
ATOM     48  N   UNL A   1      40.099  32.492  31.349  1.00  0.00    -0.354 N 
ATOM     49  C   UNL A   1      39.747  28.945  28.942  1.00  0.00     0.074 A 
ATOM     50  C   UNL A   1      38.543  28.972  28.140  1.00  0.00     0.031 C 
ATOM     51  C   UNL A   1      39.432  34.421  32.264  1.00  0.00     0.029 A 
ATOM     52  C   UNL A   1      40.500  33.427  32.273  1.00  0.00     0.049 A 
ATOM     53  H   UNL A   1      40.633  31.697  31.121  1.00  0.00     0.167 HD
ATOM     54  C   UNL A   1      40.651  27.937  28.927  1.00  0.00     0.037 A 
ATOM     55  C   UNL A   1      41.599  33.473  33.049  1.00  0.00     0.037 A 
ATOM     56  C   UNL A   1      41.882  27.931  29.672  1.00  0.00     0.049 A 
ATOM     57  C   UNL A   1      42.610  32.367  32.978  1.00  0.00     0.074 A 
ATOM     58  C   UNL A   1      42.899  26.992  29.647  1.00  0.00     0.029 A 
ATOM     59  N   UNL A   1      42.266  28.914  30.567  1.00  0.00    -0.354 N 
ATOM     60  N   UNL A   1      42.590  31.278  32.248  1.00  0.00    -0.248 NA
ATOM     61  C   UNL A   1      43.793  32.492  33.843  1.00  0.00     0.031 C 
ATOM     62  C   UNL A   1      43.893  27.400  30.544  1.00  0.00     0.029 A 
ATOM     63  C   UNL A   1      43.501  28.601  31.110  1.00  0.00     0.049 A 
ATOM     64  H   UNL A   1      41.740  29.718  30.784  1.00  0.00     0.167 HD
ATOM     65  C   UNL A   1      43.757  30.594  32.559  1.00  0.00     0.074 A 
ATOM     66  C   UNL A   1      44.469  31.394  33.534  1.00  0.00     0.031 C 
ATOM     67  C   UNL A   1      44.195  29.405  32.080  1.00  0.00     0.037 A 
BRANCH  54  68
ATOM     68  C   UNL A   1      40.339  26.749  28.070  1.00  0.00     0.057 A 
ATOM     69  C   UNL A   1      40.911  26.586  26.803  1.00  0.00     0.134 A 
ATOM     70  C   UNL A   1      39.485  25.742  28.534  1.00  0.00     0.134 A 
ATOM     71  F   UNL A   1      41.727  27.524  26.300  1.00  0.00    -0.206 F 
ATOM     72  C   UNL A   1      40.628  25.469  26.016  1.00  0.00     0.040 A 
ATOM     73  C   UNL A   1      39.207  24.612  27.764  1.00  0.00     0.040 A 
ATOM     74  F   UNL A   1      38.909  25.839  29.742  1.00  0.00    -0.206 F 
ATOM     75  C   UNL A   1      39.778  24.475  26.500  1.00  0.00     0.006 A 
ENDBRANCH  54  68
BRANCH  55  76
ATOM     76  C   UNL A   1      41.804  34.622  33.961  1.00  0.00     0.057 A 
ATOM     77  C   UNL A   1      41.350  34.575  35.283  1.00  0.00     0.134 A 
ATOM     78  C   UNL A   1      42.458  35.783  33.537  1.00  0.00     0.134 A 
ATOM     79  F   UNL A   1      40.697  33.494  35.735  1.00  0.00    -0.206 F 
ATOM     80  C   UNL A   1      41.536  35.649  36.155  1.00  0.00     0.040 A 
ATOM     81  C   UNL A   1      42.664  36.858  34.401  1.00  0.00     0.040 A 
ATOM     82  F   UNL A   1      42.912  35.883  32.278  1.00  0.00    -0.206 F 
ATOM     83  C   UNL A   1      42.199  36.793  35.714  1.00  0.00     0.006 A 
ENDBRANCH  55  76
BRANCH  67  84
ATOM     84  C   UNL A   1      45.508  28.906  32.596  1.00  0.00     0.057 A 
ATOM     85  C   UNL A   1      45.579  28.069  33.716  1.00  0.00     0.134 A 
ATOM     86  C   UNL A   1      46.704  29.235  31.949  1.00  0.00     0.134 A 
ATOM     87  F   UNL A   1      44.465  27.732  34.384  1.00  0.00    -0.206 F 
ATOM     88  C   UNL A   1      46.801  27.582  34.183  1.00  0.00     0.040 A 
ATOM     89  C   UNL A   1      47.930  28.743  32.399  1.00  0.00     0.040 A 
ATOM     90  F   UNL A   1      46.699  30.030  30.870  1.00  0.00    -0.206 F 
ATOM     91  C   UNL A   1      47.981  27.916  33.519  1.00  0.00     0.006 A 
ENDBRANCH  67  84
ENDBRANCH  41  42
ENDBRANCH  33  36
ENDBRANCH  31  32
ENDBRANCH  30  31
ENDBRANCH   1  30
TORSDOF 16
ENDMDL
MODEL 3
REMARK VINA RESULT:     -11.5      2.180      4.498
REMARK SMILES CCOC(=O)C1=NN(c2ccc([N+](=O)[O-])cc2C(F)(F)F)[C@@](C)(C(=O)NCCCNC(=O)c2ccc(-c3c4nc(c(-c5c(F)cccc5F)c5ccc([nH]5)c(-c5c(F)cccc5F)c5nc(c(-c6c(F)cccc6F)c6ccc3[nH]6)C=C5)C=C4)cc2)C1
REMARK SMILES IDX 27 1 26 2 24 3 25 4 22 6 6 7 7 8 87 9 8 10 23 11 4 12 5 13
REMARK SMILES IDX 3 14 2 15 1 16 9 17 10 18 17 19 11 20 16 21 12 22 18 23
REMARK SMILES IDX 19 24 20 25 21 26 13 27 14 28 15 29 28 30 29 31 30 32 31 33
REMARK SMILES IDX 32 35 33 36 34 37 86 38 35 39 85 40 36 41 37 42 38 43 79 44
REMARK SMILES IDX 39 45 84 46 78 47 80 48 40 49 83 50 77 51 76 52 41 54 67 55
REMARK SMILES IDX 50 56 66 57 51 58 54 59 65 60 81 61 52 62 53 63 64 65 82 66
REMARK SMILES IDX 55 67 42 68 43 69 48 70 44 71 45 72 47 73 49 74 46 75 68 76
REMARK SMILES IDX 69 77 74 78 70 79 71 80 73 81 75 82 72 83 56 84 57 85 62 86
REMARK SMILES IDX 58 87 59 88 61 89 63 90 60 91
REMARK H PARENT 26 5 30 34 80 53 54 64
REMARK Flexibility Score: inf
ROOT
ATOM      1  C   UNL A   1      32.179  26.783  26.582  1.00  0.00     0.117 C 
ENDROOT
BRANCH   1   2
ATOM      2  N   UNL A   1      33.486  26.315  26.159  1.00  0.00    -0.354 N 
ATOM      3  C   UNL A   1      33.923  25.200  25.519  1.00  0.00     0.248 C 
ATOM      4  O   UNL A   1      35.154  25.066  25.534  1.00  0.00    -0.272 OA
ATOM      5  H   UNL A   1      34.212  26.940  26.384  1.00  0.00     0.163 HD
BRANCH   3   6
ATOM      6  C   UNL A   1      33.007  24.176  24.781  1.00  0.00     0.144 C 
ATOM      7  C   UNL A   1      33.036  24.917  22.602  1.00  0.00     0.149 C 
ATOM      8  N   UNL A   1      33.901  23.948  22.604  1.00  0.00    -0.169 NA
ATOM      9  C   UNL A   1      32.136  24.991  23.788  1.00  0.00     0.106 C 
ATOM     10  N   UNL A   1      33.753  23.316  23.817  1.00  0.00    -0.249 N 
ATOM     11  C   UNL A   1      32.071  23.447  25.735  1.00  0.00     0.048 C 
BRANCH   7  12
ATOM     12  C   UNL A   1      32.881  25.918  21.490  1.00  0.00     0.354 C 
ATOM     13  O   UNL A   1      33.039  25.602  20.324  1.00  0.00    -0.245 OA
BRANCH  12  14
ATOM     14  O   UNL A   1      32.623  27.141  21.989  1.00  0.00    -0.461 OA
BRANCH  14  15
ATOM     15  C   UNL A   1      33.779  27.947  22.251  1.00  0.00     0.230 C 
ATOM     16  C   UNL A   1      33.585  28.765  23.515  1.00  0.00     0.049 C 
ENDBRANCH  14  15
ENDBRANCH  12  14
ENDBRANCH   7  12
BRANCH  10  17
ATOM     17  C   UNL A   1      34.652  22.301  24.107  1.00  0.00     0.073 A 
ATOM     18  C   UNL A   1      36.033  22.594  24.115  1.00  0.00     0.036 A 
ATOM     19  C   UNL A   1      34.264  20.964  24.313  1.00  0.00     0.088 A 
ATOM     20  C   UNL A   1      37.000  21.633  24.433  1.00  0.00     0.088 A 
ATOM     21  C   UNL A   1      35.236  19.998  24.673  1.00  0.00     0.101 A 
ATOM     22  C   UNL A   1      36.590  20.339  24.746  1.00  0.00     0.270 A 
BRANCH  19  23
ATOM     23  C   UNL A   1      32.847  20.475  24.119  1.00  0.00     0.418 C 
ATOM     24  F   UNL A   1      32.214  21.125  23.099  1.00  0.00    -0.166 F 
ATOM     25  F   UNL A   1      32.813  19.155  23.776  1.00  0.00    -0.166 F 
ATOM     26  F   UNL A   1      32.024  20.607  25.192  1.00  0.00    -0.166 F 
ENDBRANCH  19  23
BRANCH  22  27
ATOM     27  N   UNL A   1      37.582  19.332  25.145  1.00  0.00     0.062 N 
ATOM     28  O   UNL A   1      37.191  18.166  25.296  1.00  0.00    -0.258 OA
ATOM     29  O   UNL A   1      38.755  19.706  25.285  1.00  0.00    -0.258 OA
ENDBRANCH  22  27
ENDBRANCH  10  17
ENDBRANCH   3   6
ENDBRANCH   1   2
BRANCH   1  30
ATOM     30  C   UNL A   1      32.267  28.177  27.200  1.00  0.00     0.042 C 
BRANCH  30  31
ATOM     31  C   UNL A   1      33.681  28.729  27.341  1.00  0.00     0.118 C 
BRANCH  31  32
ATOM     32  N   UNL A   1      33.706  30.113  27.778  1.00  0.00    -0.352 N 
ATOM     33  C   UNL A   1      34.703  30.827  28.401  1.00  0.00     0.251 C 
ATOM     34  H   UNL A   1      32.880  30.619  27.601  1.00  0.00     0.163 HD
ATOM     35  O   UNL A   1      34.456  31.949  28.837  1.00  0.00    -0.269 OA
BRANCH  33  36
ATOM     36  C   UNL A   1      36.058  30.255  28.580  1.00  0.00     0.039 A 
ATOM     37  C   UNL A   1      36.946  30.290  27.501  1.00  0.00     0.014 A 
ATOM     38  C   UNL A   1      36.451  29.656  29.780  1.00  0.00     0.014 A 
ATOM     39  C   UNL A   1      38.246  29.795  27.647  1.00  0.00     0.010 A 
ATOM     40  C   UNL A   1      37.768  29.227  29.948  1.00  0.00     0.010 A 
ATOM     41  C   UNL A   1      38.680  29.295  28.885  1.00  0.00    -0.014 A 
BRANCH  41  42
ATOM     42  C   UNL A   1      40.081  28.844  29.090  1.00  0.00     0.031 A 
ATOM     43  C   UNL A   1      41.109  29.785  29.657  1.00  0.00     0.074 A 
ATOM     44  C   UNL A   1      40.454  27.613  28.690  1.00  0.00     0.049 A 
ATOM     45  N   UNL A   1      42.400  29.618  29.784  1.00  0.00    -0.248 NA
ATOM     46  C   UNL A   1      40.623  31.096  30.115  1.00  0.00     0.031 C 
ATOM     47  C   UNL A   1      39.572  26.615  28.081  1.00  0.00     0.029 A 
ATOM     48  N   UNL A   1      41.680  26.999  28.721  1.00  0.00    -0.354 N 
ATOM     49  C   UNL A   1      42.887  30.814  30.296  1.00  0.00     0.074 A 
ATOM     50  C   UNL A   1      41.755  31.703  30.443  1.00  0.00     0.031 C 
ATOM     51  C   UNL A   1      40.282  25.507  27.812  1.00  0.00     0.029 A 
ATOM     52  C   UNL A   1      41.673  25.729  28.195  1.00  0.00     0.049 A 
ATOM     53  H   UNL A   1      42.488  27.426  29.085  1.00  0.00     0.167 HD
ATOM     54  C   UNL A   1      44.160  31.140  30.622  1.00  0.00     0.037 A 
ATOM     55  C   UNL A   1      42.675  24.846  28.029  1.00  0.00     0.037 A 
ATOM     56  C   UNL A   1      45.281  30.242  30.539  1.00  0.00     0.049 A 
ATOM     57  C   UNL A   1      44.070  25.214  28.445  1.00  0.00     0.074 A 
ATOM     58  C   UNL A   1      46.590  30.459  30.934  1.00  0.00     0.029 A 
ATOM     59  N   UNL A   1      45.223  28.954  30.036  1.00  0.00    -0.354 N 
ATOM     60  N   UNL A   1      44.507  26.336  28.960  1.00  0.00    -0.248 NA
ATOM     61  C   UNL A   1      45.111  24.194  28.248  1.00  0.00     0.031 C 
ATOM     62  C   UNL A   1      47.330  29.305  30.652  1.00  0.00     0.029 A 
ATOM     63  C   UNL A   1      46.476  28.366  30.099  1.00  0.00     0.049 A 
ATOM     64  H   UNL A   1      44.412  28.519  29.686  1.00  0.00     0.167 HD
ATOM     65  C   UNL A   1      45.868  26.157  29.157  1.00  0.00     0.074 A 
ATOM     66  C   UNL A   1      46.186  24.814  28.717  1.00  0.00     0.031 C 
ATOM     67  C   UNL A   1      46.776  27.031  29.656  1.00  0.00     0.037 A 
BRANCH  54  68
ATOM     68  C   UNL A   1      44.409  32.536  31.104  1.00  0.00     0.057 A 
ATOM     69  C   UNL A   1      44.723  33.574  30.219  1.00  0.00     0.134 A 
ATOM     70  C   UNL A   1      44.300  32.849  32.464  1.00  0.00     0.134 A 
ATOM     71  F   UNL A   1      44.854  33.331  28.906  1.00  0.00    -0.206 F 
ATOM     72  C   UNL A   1      44.939  34.876  30.673  1.00  0.00     0.040 A 
ATOM     73  C   UNL A   1      44.496  34.150  32.929  1.00  0.00     0.040 A 
ATOM     74  F   UNL A   1      43.998  31.898  33.360  1.00  0.00    -0.206 F 
ATOM     75  C   UNL A   1      44.820  35.167  32.032  1.00  0.00     0.006 A 
ENDBRANCH  54  68
BRANCH  55  76
ATOM     76  C   UNL A   1      42.391  23.516  27.445  1.00  0.00     0.057 A 
ATOM     77  C   UNL A   1      42.081  22.426  28.265  1.00  0.00     0.134 A 
ATOM     78  C   UNL A   1      42.417  23.305  26.063  1.00  0.00     0.134 A 
ATOM     79  F   UNL A   1      42.064  22.567  29.599  1.00  0.00    -0.206 F 
ATOM     80  C   UNL A   1      41.810  21.166  27.730  1.00  0.00     0.040 A 
ATOM     81  C   UNL A   1      42.133  22.055  25.513  1.00  0.00     0.040 A 
ATOM     82  F   UNL A   1      42.710  24.314  25.229  1.00  0.00    -0.206 F 
ATOM     83  C   UNL A   1      41.832  20.980  26.348  1.00  0.00     0.006 A 
ENDBRANCH  55  76
BRANCH  67  84
ATOM     84  C   UNL A   1      48.191  26.557  29.760  1.00  0.00     0.057 A 
ATOM     85  C   UNL A   1      49.111  26.782  28.729  1.00  0.00     0.134 A 
ATOM     86  C   UNL A   1      48.646  25.905  30.911  1.00  0.00     0.134 A 
ATOM     87  F   UNL A   1      48.728  27.392  27.597  1.00  0.00    -0.206 F 
ATOM     88  C   UNL A   1      50.439  26.364  28.837  1.00  0.00     0.040 A 
ATOM     89  C   UNL A   1      49.974  25.493  31.034  1.00  0.00     0.040 A 
ATOM     90  F   UNL A   1      47.811  25.663  31.932  1.00  0.00    -0.206 F 
ATOM     91  C   UNL A   1      50.873  25.721  29.995  1.00  0.00     0.006 A 
ENDBRANCH  67  84
ENDBRANCH  41  42
ENDBRANCH  33  36
ENDBRANCH  31  32
ENDBRANCH  30  31
ENDBRANCH   1  30
TORSDOF 16
ENDMDL
