MODEL 1
REMARK VINA RESULT:     -11.9      0.000      0.000
REMARK SMILES Cc1cc(C(=O)NCCCNC(=O)c2ccc(-c3c4nc(c(-c5c(F)cccc5F)c5ccc([nH]5)c(-c5c(F)cccc5F)c5nc(c(-c6c(F)cccc6F)c6ccc3[nH]6)C=C5)C=C4)cc2)ccc1NS(=O)(=O)c1ccc(C#N)cc1C
REMARK SMILES IDX 8 1 7 2 5 3 6 4 4 6 1 7 2 8 3 9 70 10 69 11 68 12 71 13
REMARK SMILES IDX 72 15 73 16 74 17 75 18 76 19 82 20 77 21 81 22 83 23 78 24
REMARK SMILES IDX 79 25 80 26 9 27 10 28 11 29 12 30 13 32 14 33 15 34 67 35
REMARK SMILES IDX 16 36 66 37 17 38 18 39 19 40 60 41 20 42 65 43 59 44 61 45
REMARK SMILES IDX 21 46 64 47 58 48 57 49 22 51 48 52 31 53 47 54 32 55 35 56
REMARK SMILES IDX 46 57 62 58 33 59 34 60 45 62 63 63 36 64 23 65 24 66 29 67
REMARK SMILES IDX 25 68 26 69 28 70 30 71 27 72 49 73 50 74 55 75 51 76 52 77
REMARK SMILES IDX 54 78 56 79 53 80 37 81 38 82 43 83 39 84 40 85 42 86 44 87
REMARK SMILES IDX 41 88
REMARK H PARENT 7 5 71 14 11 31 61 50 35 61
REMARK Flexibility Score: inf
ROOT
ATOM      1  C   UNL A   1      32.682  27.999  27.284  1.00  0.00     0.118 C 
ENDROOT
BRANCH   1   2
ATOM      2  N   UNL A   1      33.497  27.687  26.113  1.00  0.00    -0.352 N 
ATOM      3  C   UNL A   1      33.477  26.601  25.258  1.00  0.00     0.251 C 
ATOM      4  O   UNL A   1      34.070  26.691  24.185  1.00  0.00    -0.269 OA
ATOM      5  H   UNL A   1      34.176  28.367  25.895  1.00  0.00     0.163 HD
BRANCH   3   6
ATOM      6  C   UNL A   1      32.717  25.355  25.562  1.00  0.00     0.040 A 
ATOM      7  C   UNL A   1      32.990  22.387  27.907  1.00  0.00     0.046 C 
ATOM      8  C   UNL A   1      32.607  23.200  26.699  1.00  0.00    -0.026 A 
ATOM      9  C   UNL A   1      33.206  24.464  26.524  1.00  0.00     0.019 A 
ATOM     10  C   UNL A   1      31.580  22.807  25.823  1.00  0.00     0.052 A 
ATOM     11  C   UNL A   1      30.914  23.795  25.115  1.00  0.00     0.028 A 
ATOM     12  C   UNL A   1      31.487  25.059  24.985  1.00  0.00     0.016 A 
BRANCH  10  13
ATOM     13  N   UNL A   1      31.559  21.450  25.376  1.00  0.00    -0.279 N 
ATOM     14  H   UNL A   1      30.861  20.876  25.765  1.00  0.00     0.180 HD
BRANCH  13  15
ATOM     15  S   UNL A   1      32.582  20.720  24.268  1.00  0.00     0.262 S 
ATOM     16  O   UNL A   1      32.653  19.334  24.685  1.00  0.00    -0.201 OA
ATOM     17  O   UNL A   1      32.121  21.089  22.945  1.00  0.00    -0.201 OA
BRANCH  15  18
ATOM     18  C   UNL A   1      34.260  21.366  24.424  1.00  0.00     0.090 A 
ATOM     19  C   UNL A   1      35.187  20.771  25.288  1.00  0.00     0.024 A 
ATOM     20  C   UNL A   1      34.583  22.596  23.808  1.00  0.00    -0.029 A 
ATOM     21  C   UNL A   1      36.334  21.476  25.681  1.00  0.00     0.021 A 
ATOM     22  C   UNL A   1      35.739  23.290  24.219  1.00  0.00     0.024 A 
ATOM     23  C   UNL A   1      33.820  23.184  22.651  1.00  0.00     0.046 C 
ATOM     24  C   UNL A   1      36.583  22.758  25.192  1.00  0.00     0.052 A 
BRANCH  24  25
ATOM     25  C   UNL A   1      37.692  23.523  25.699  1.00  0.00     0.099 C 
ATOM     26  N   UNL A   1      38.577  24.166  26.058  1.00  0.00    -0.192 NA
ENDBRANCH  24  25
ENDBRANCH  15  18
ENDBRANCH  13  15
ENDBRANCH  10  13
ENDBRANCH   3   6
ENDBRANCH   1   2
BRANCH   1  27
ATOM     27  C   UNL A   1      32.223  29.455  27.338  1.00  0.00     0.042 C 
BRANCH  27  28
ATOM     28  C   UNL A   1      33.137  30.461  26.665  1.00  0.00     0.118 C 
BRANCH  28  29
ATOM     29  N   UNL A   1      33.736  31.479  27.525  1.00  0.00    -0.352 N 
ATOM     30  C   UNL A   1      34.848  31.385  28.361  1.00  0.00     0.251 C 
ATOM     31  H   UNL A   1      33.291  32.356  27.511  1.00  0.00     0.163 HD
ATOM     32  O   UNL A   1      35.258  32.389  28.937  1.00  0.00    -0.269 OA
BRANCH  30  33
ATOM     33  C   UNL A   1      35.668  30.139  28.400  1.00  0.00     0.039 A 
ATOM     34  C   UNL A   1      35.889  29.600  29.673  1.00  0.00     0.014 A 
ATOM     35  C   UNL A   1      36.579  29.906  27.387  1.00  0.00     0.014 A 
ATOM     36  C   UNL A   1      37.187  29.279  30.033  1.00  0.00     0.010 A 
ATOM     37  C   UNL A   1      37.888  29.777  27.765  1.00  0.00     0.010 A 
ATOM     38  C   UNL A   1      38.186  29.559  29.111  1.00  0.00    -0.014 A 
BRANCH  38  39
ATOM     39  C   UNL A   1      39.596  29.468  29.395  1.00  0.00     0.031 A 
ATOM     40  C   UNL A   1      40.171  28.146  29.132  1.00  0.00     0.074 A 
ATOM     41  C   UNL A   1      40.280  30.576  29.758  1.00  0.00     0.049 A 
ATOM     42  N   UNL A   1      41.185  27.665  29.743  1.00  0.00    -0.248 NA
ATOM     43  C   UNL A   1      39.544  27.184  28.221  1.00  0.00     0.031 C 
ATOM     44  C   UNL A   1      41.719  30.794  29.836  1.00  0.00     0.029 A 
ATOM     45  N   UNL A   1      39.741  31.744  30.311  1.00  0.00    -0.354 N 
ATOM     46  C   UNL A   1      41.562  26.535  29.050  1.00  0.00     0.074 A 
ATOM     47  C   UNL A   1      40.414  26.175  28.265  1.00  0.00     0.031 C 
ATOM     48  C   UNL A   1      41.960  31.834  30.658  1.00  0.00     0.029 A 
ATOM     49  C   UNL A   1      40.691  32.244  31.235  1.00  0.00     0.049 A 
ATOM     50  H   UNL A   1      38.867  32.143  30.096  1.00  0.00     0.167 HD
ATOM     51  C   UNL A   1      42.878  26.185  29.090  1.00  0.00     0.037 A 
ATOM     52  C   UNL A   1      40.392  32.255  32.575  1.00  0.00     0.037 A 
ATOM     53  C   UNL A   1      43.583  27.099  30.002  1.00  0.00     0.049 A 
ATOM     54  C   UNL A   1      41.113  31.160  33.325  1.00  0.00     0.074 A 
ATOM     55  C   UNL A   1      44.327  28.253  29.808  1.00  0.00     0.029 A 
ATOM     56  N   UNL A   1      43.191  27.129  31.330  1.00  0.00    -0.354 N 
ATOM     57  N   UNL A   1      41.889  30.278  32.758  1.00  0.00    -0.248 NA
ATOM     58  C   UNL A   1      40.955  30.929  34.757  1.00  0.00     0.031 C 
ATOM     59  C   UNL A   1      44.342  28.983  31.039  1.00  0.00     0.029 A 
ATOM     60  C   UNL A   1      43.637  28.260  31.986  1.00  0.00     0.049 A 
ATOM     61  H   UNL A   1      42.653  26.424  31.758  1.00  0.00     0.167 HD
ATOM     62  C   UNL A   1      42.360  29.404  33.693  1.00  0.00     0.074 A 
ATOM     63  C   UNL A   1      41.685  29.813  34.918  1.00  0.00     0.031 C 
ATOM     64  C   UNL A   1      43.273  28.427  33.389  1.00  0.00     0.037 A 
BRANCH  51  65
ATOM     65  C   UNL A   1      43.574  25.243  28.130  1.00  0.00     0.057 A 
ATOM     66  C   UNL A   1      43.432  23.851  28.299  1.00  0.00     0.134 A 
ATOM     67  C   UNL A   1      44.419  25.598  27.060  1.00  0.00     0.134 A 
ATOM     68  F   UNL A   1      42.617  23.337  29.230  1.00  0.00    -0.206 F 
ATOM     69  C   UNL A   1      44.116  22.905  27.521  1.00  0.00     0.040 A 
ATOM     70  C   UNL A   1      45.127  24.665  26.286  1.00  0.00     0.040 A 
ATOM     71  F   UNL A   1      44.588  26.861  26.662  1.00  0.00    -0.206 F 
ATOM     72  C   UNL A   1      44.982  23.309  26.519  1.00  0.00     0.006 A 
ENDBRANCH  51  65
BRANCH  52  73
ATOM     73  C   UNL A   1      38.981  32.697  32.832  1.00  0.00     0.057 A 
ATOM     74  C   UNL A   1      38.149  31.692  33.359  1.00  0.00     0.134 A 
ATOM     75  C   UNL A   1      38.772  34.002  33.277  1.00  0.00     0.134 A 
ATOM     76  F   UNL A   1      38.190  30.447  32.859  1.00  0.00    -0.206 F 
ATOM     77  C   UNL A   1      37.501  31.887  34.575  1.00  0.00     0.040 A 
ATOM     78  C   UNL A   1      38.055  34.222  34.450  1.00  0.00     0.040 A 
ATOM     79  F   UNL A   1      39.407  35.037  32.711  1.00  0.00    -0.206 F 
ATOM     80  C   UNL A   1      37.527  33.145  35.162  1.00  0.00     0.006 A 
ENDBRANCH  52  73
BRANCH  64  81
ATOM     81  C   UNL A   1      43.868  27.497  34.417  1.00  0.00     0.057 A 
ATOM     82  C   UNL A   1      43.150  26.451  35.005  1.00  0.00     0.134 A 
ATOM     83  C   UNL A   1      45.180  27.660  34.914  1.00  0.00     0.134 A 
ATOM     84  F   UNL A   1      41.826  26.325  34.832  1.00  0.00    -0.206 F 
ATOM     85  C   UNL A   1      43.749  25.513  35.851  1.00  0.00     0.040 A 
ATOM     86  C   UNL A   1      45.776  26.765  35.800  1.00  0.00     0.040 A 
ATOM     87  F   UNL A   1      45.963  28.694  34.586  1.00  0.00    -0.206 F 
ATOM     88  C   UNL A   1      45.076  25.656  36.232  1.00  0.00     0.006 A 
ENDBRANCH  64  81
ENDBRANCH  38  39
ENDBRANCH  30  33
ENDBRANCH  28  29
ENDBRANCH  27  28
ENDBRANCH   1  27
TORSDOF 14
ENDMDL
MODEL 2
REMARK VINA RESULT:     -11.9      2.443      3.723
REMARK SMILES Cc1cc(C(=O)NCCCNC(=O)c2ccc(-c3c4nc(c(-c5c(F)cccc5F)c5ccc([nH]5)c(-c5c(F)cccc5F)c5nc(c(-c6c(F)cccc6F)c6ccc3[nH]6)C=C5)C=C4)cc2)ccc1NS(=O)(=O)c1ccc(C#N)cc1C
REMARK SMILES IDX 8 1 7 2 5 3 6 4 4 6 1 7 2 8 3 9 70 10 69 11 68 12 71 13
REMARK SMILES IDX 72 15 73 16 74 17 75 18 76 19 82 20 77 21 81 22 83 23 78 24
REMARK SMILES IDX 79 25 80 26 9 27 10 28 11 29 12 30 13 32 14 33 15 34 67 35
REMARK SMILES IDX 16 36 66 37 17 38 18 39 19 40 60 41 20 42 65 43 59 44 61 45
REMARK SMILES IDX 21 46 64 47 58 48 57 49 22 51 48 52 31 53 47 54 32 55 35 56
REMARK SMILES IDX 46 57 62 58 33 59 34 60 45 62 63 63 36 64 23 65 24 66 29 67
REMARK SMILES IDX 25 68 26 69 28 70 30 71 27 72 49 73 50 74 55 75 51 76 52 77
REMARK SMILES IDX 54 78 56 79 53 80 37 81 38 82 43 83 39 84 40 85 42 86 44 87
REMARK SMILES IDX 41 88
REMARK H PARENT 7 5 71 14 11 31 61 50 35 61
REMARK Flexibility Score: inf
ROOT
ATOM      1  C   UNL A   1      33.273  30.497  26.972  1.00  0.00     0.118 C 
ENDROOT
BRANCH   1   2
ATOM      2  N   UNL A   1      32.194  29.683  27.528  1.00  0.00    -0.352 N 
ATOM      3  C   UNL A   1      31.823  28.376  27.275  1.00  0.00     0.251 C 
ATOM      4  O   UNL A   1      31.058  27.823  28.062  1.00  0.00    -0.269 OA
ATOM      5  H   UNL A   1      31.636  30.145  28.195  1.00  0.00     0.163 HD
BRANCH   3   6
ATOM      6  C   UNL A   1      32.361  27.598  26.122  1.00  0.00     0.040 A 
ATOM      7  C   UNL A   1      31.334  26.741  22.574  1.00  0.00     0.046 C 
ATOM      8  C   UNL A   1      32.012  26.625  23.913  1.00  0.00    -0.026 A 
ATOM      9  C   UNL A   1      31.612  27.498  24.945  1.00  0.00     0.019 A 
ATOM     10  C   UNL A   1      33.114  25.779  24.128  1.00  0.00     0.052 A 
ATOM     11  C   UNL A   1      34.006  26.114  25.134  1.00  0.00     0.028 A 
ATOM     12  C   UNL A   1      33.624  27.016  26.126  1.00  0.00     0.016 A 
BRANCH  10  13
ATOM     13  N   UNL A   1      33.041  24.440  23.634  1.00  0.00    -0.279 N 
ATOM     14  H   UNL A   1      33.664  24.211  22.908  1.00  0.00     0.180 HD
BRANCH  13  15
ATOM     15  S   UNL A   1      32.020  23.213  24.145  1.00  0.00     0.262 S 
ATOM     16  O   UNL A   1      31.872  23.423  25.571  1.00  0.00    -0.201 OA
ATOM     17  O   UNL A   1      30.875  23.207  23.259  1.00  0.00    -0.201 OA
BRANCH  15  18
ATOM     18  C   UNL A   1      32.816  21.604  23.965  1.00  0.00     0.090 A 
ATOM     19  C   UNL A   1      32.197  20.564  23.263  1.00  0.00     0.024 A 
ATOM     20  C   UNL A   1      33.994  21.334  24.700  1.00  0.00    -0.029 A 
ATOM     21  C   UNL A   1      32.629  19.241  23.438  1.00  0.00     0.021 A 
ATOM     22  C   UNL A   1      34.410  19.997  24.866  1.00  0.00     0.024 A 
ATOM     23  C   UNL A   1      34.909  22.398  25.244  1.00  0.00     0.046 C 
ATOM     24  C   UNL A   1      33.699  18.950  24.283  1.00  0.00     0.052 A 
BRANCH  24  25
ATOM     25  C   UNL A   1      34.053  17.582  24.558  1.00  0.00     0.099 C 
ATOM     26  N   UNL A   1      34.376  16.506  24.812  1.00  0.00    -0.192 NA
ENDBRANCH  24  25
ENDBRANCH  15  18
ENDBRANCH  13  15
ENDBRANCH  10  13
ENDBRANCH   3   6
ENDBRANCH   1   2
BRANCH   1  27
ATOM     27  C   UNL A   1      34.584  30.379  27.746  1.00  0.00     0.042 C 
BRANCH  27  28
ATOM     28  C   UNL A   1      35.559  31.528  27.575  1.00  0.00     0.118 C 
BRANCH  28  29
ATOM     29  N   UNL A   1      36.399  31.852  28.726  1.00  0.00    -0.352 N 
ATOM     30  C   UNL A   1      37.373  31.076  29.354  1.00  0.00     0.251 C 
ATOM     31  H   UNL A   1      36.257  32.746  29.112  1.00  0.00     0.163 HD
ATOM     32  O   UNL A   1      38.045  31.566  30.257  1.00  0.00    -0.269 OA
BRANCH  30  33
ATOM     33  C   UNL A   1      37.751  29.741  28.807  1.00  0.00     0.039 A 
ATOM     34  C   UNL A   1      37.747  28.687  29.728  1.00  0.00     0.014 A 
ATOM     35  C   UNL A   1      38.574  29.681  27.698  1.00  0.00     0.014 A 
ATOM     36  C   UNL A   1      38.862  27.869  29.795  1.00  0.00     0.010 A 
ATOM     37  C   UNL A   1      39.761  29.018  27.856  1.00  0.00     0.010 A 
ATOM     38  C   UNL A   1      39.928  28.186  28.964  1.00  0.00    -0.014 A 
BRANCH  38  39
ATOM     39  C   UNL A   1      41.225  27.563  29.043  1.00  0.00     0.031 A 
ATOM     40  C   UNL A   1      41.223  26.140  28.695  1.00  0.00     0.074 A 
ATOM     41  C   UNL A   1      42.317  28.315  29.308  1.00  0.00     0.049 A 
ATOM     42  N   UNL A   1      42.054  25.283  29.151  1.00  0.00    -0.248 NA
ATOM     43  C   UNL A   1      40.167  25.533  27.880  1.00  0.00     0.031 C 
ATOM     44  C   UNL A   1      43.729  27.981  29.179  1.00  0.00     0.029 A 
ATOM     45  N   UNL A   1      42.333  29.567  29.937  1.00  0.00    -0.354 N 
ATOM     46  C   UNL A   1      41.885  24.135  28.407  1.00  0.00     0.074 A 
ATOM     47  C   UNL A   1      40.593  24.273  27.794  1.00  0.00     0.031 C 
ATOM     48  C   UNL A   1      44.448  28.808  29.962  1.00  0.00     0.029 A 
ATOM     49  C   UNL A   1      43.513  29.625  30.717  1.00  0.00     0.049 A 
ATOM     50  H   UNL A   1      41.652  30.273  29.852  1.00  0.00     0.167 HD
ATOM     51  C   UNL A   1      42.966  23.322  28.256  1.00  0.00     0.037 A 
ATOM     52  C   UNL A   1      43.421  29.669  32.086  1.00  0.00     0.037 A 
ATOM     53  C   UNL A   1      44.076  23.855  29.060  1.00  0.00     0.049 A 
ATOM     54  C   UNL A   1      43.770  28.343  32.721  1.00  0.00     0.074 A 
ATOM     55  C   UNL A   1      45.166  24.660  28.767  1.00  0.00     0.029 A 
ATOM     56  N   UNL A   1      43.902  23.952  30.432  1.00  0.00    -0.354 N 
ATOM     57  N   UNL A   1      44.076  27.271  32.045  1.00  0.00    -0.248 NA
ATOM     58  C   UNL A   1      43.727  28.105  34.160  1.00  0.00     0.031 C 
ATOM     59  C   UNL A   1      45.615  25.260  29.986  1.00  0.00     0.029 A 
ATOM     60  C   UNL A   1      44.823  24.796  31.021  1.00  0.00     0.049 A 
ATOM     61  H   UNL A   1      43.201  23.472  30.929  1.00  0.00     0.167 HD
ATOM     62  C   UNL A   1      44.304  26.232  32.898  1.00  0.00     0.074 A 
ATOM     63  C   UNL A   1      44.000  26.790  34.209  1.00  0.00     0.031 C 
ATOM     64  C   UNL A   1      44.736  25.006  32.463  1.00  0.00     0.037 A 
BRANCH  51  65
ATOM     65  C   UNL A   1      43.125  22.245  27.202  1.00  0.00     0.057 A 
ATOM     66  C   UNL A   1      42.283  21.115  27.232  1.00  0.00     0.134 A 
ATOM     67  C   UNL A   1      44.081  22.210  26.167  1.00  0.00     0.134 A 
ATOM     68  F   UNL A   1      41.279  21.012  28.112  1.00  0.00    -0.206 F 
ATOM     69  C   UNL A   1      42.422  20.026  26.359  1.00  0.00     0.040 A 
ATOM     70  C   UNL A   1      44.246  21.118  25.299  1.00  0.00     0.040 A 
ATOM     71  F   UNL A   1      44.890  23.236  25.896  1.00  0.00    -0.206 F 
ATOM     72  C   UNL A   1      43.417  20.016  25.397  1.00  0.00     0.006 A 
ENDBRANCH  51  65
BRANCH  52  73
ATOM     73  C   UNL A   1      42.325  30.586  32.545  1.00  0.00     0.057 A 
ATOM     74  C   UNL A   1      41.182  29.924  33.030  1.00  0.00     0.134 A 
ATOM     75  C   UNL A   1      42.686  31.781  33.169  1.00  0.00     0.134 A 
ATOM     76  F   UNL A   1      40.690  28.859  32.377  1.00  0.00    -0.206 F 
ATOM     77  C   UNL A   1      40.728  30.165  34.322  1.00  0.00     0.040 A 
ATOM     78  C   UNL A   1      42.178  32.079  34.430  1.00  0.00     0.040 A 
ATOM     79  F   UNL A   1      43.660  32.555  32.671  1.00  0.00    -0.206 F 
ATOM     80  C   UNL A   1      41.291  31.202  35.055  1.00  0.00     0.006 A 
ENDBRANCH  52  73
BRANCH  64  81
ATOM     81  C   UNL A   1      45.069  23.863  33.390  1.00  0.00     0.057 A 
ATOM     82  C   UNL A   1      44.115  22.946  33.843  1.00  0.00     0.134 A 
ATOM     83  C   UNL A   1      46.361  23.680  33.929  1.00  0.00     0.134 A 
ATOM     84  F   UNL A   1      42.804  23.135  33.630  1.00  0.00    -0.206 F 
ATOM     85  C   UNL A   1      44.458  21.815  34.589  1.00  0.00     0.040 A 
ATOM     86  C   UNL A   1      46.709  22.587  34.719  1.00  0.00     0.040 A 
ATOM     87  F   UNL A   1      47.364  24.544  33.735  1.00  0.00    -0.206 F 
ATOM     88  C   UNL A   1      45.766  21.620  35.010  1.00  0.00     0.006 A 
ENDBRANCH  64  81
ENDBRANCH  38  39
ENDBRANCH  30  33
ENDBRANCH  28  29
ENDBRANCH  27  28
ENDBRANCH   1  27
TORSDOF 14
ENDMDL
MODEL 3
REMARK VINA RESULT:     -11.8      3.221      8.321
REMARK SMILES Cc1cc(C(=O)NCCCNC(=O)c2ccc(-c3c4nc(c(-c5c(F)cccc5F)c5ccc([nH]5)c(-c5c(F)cccc5F)c5nc(c(-c6c(F)cccc6F)c6ccc3[nH]6)C=C5)C=C4)cc2)ccc1NS(=O)(=O)c1ccc(C#N)cc1C
REMARK SMILES IDX 8 1 7 2 5 3 6 4 4 6 1 7 2 8 3 9 70 10 69 11 68 12 71 13
REMARK SMILES IDX 72 15 73 16 74 17 75 18 76 19 82 20 77 21 81 22 83 23 78 24
REMARK SMILES IDX 79 25 80 26 9 27 10 28 11 29 12 30 13 32 14 33 15 34 67 35
REMARK SMILES IDX 16 36 66 37 17 38 18 39 19 40 60 41 20 42 65 43 59 44 61 45
REMARK SMILES IDX 21 46 64 47 58 48 57 49 22 51 48 52 31 53 47 54 32 55 35 56
REMARK SMILES IDX 46 57 62 58 33 59 34 60 45 62 63 63 36 64 23 65 24 66 29 67
REMARK SMILES IDX 25 68 26 69 28 70 30 71 27 72 49 73 50 74 55 75 51 76 52 77
REMARK SMILES IDX 54 78 56 79 53 80 37 81 38 82 43 83 39 84 40 85 42 86 44 87
REMARK SMILES IDX 41 88
REMARK H PARENT 7 5 71 14 11 31 61 50 35 61
REMARK Flexibility Score: inf
ROOT
ATOM      1  C   UNL A   1      37.185  23.472  25.953  1.00  0.00     0.118 C 
ENDROOT
BRANCH   1   2
ATOM      2  N   UNL A   1      37.311  23.244  24.515  1.00  0.00    -0.352 N 
ATOM      3  C   UNL A   1      36.384  22.826  23.579  1.00  0.00     0.251 C 
ATOM      4  O   UNL A   1      36.649  22.972  22.388  1.00  0.00    -0.269 OA
ATOM      5  H   UNL A   1      38.210  23.417  24.151  1.00  0.00     0.163 HD
BRANCH   3   6
ATOM      6  C   UNL A   1      35.057  22.263  23.961  1.00  0.00     0.040 A 
ATOM      7  C   UNL A   1      31.429  22.644  22.924  1.00  0.00     0.046 C 
ATOM      8  C   UNL A   1      32.625  22.343  23.788  1.00  0.00    -0.026 A 
ATOM      9  C   UNL A   1      33.900  22.724  23.322  1.00  0.00     0.019 A 
ATOM     10  C   UNL A   1      32.531  21.582  24.965  1.00  0.00     0.052 A 
ATOM     11  C   UNL A   1      33.655  20.887  25.383  1.00  0.00     0.028 A 
ATOM     12  C   UNL A   1      34.909  21.233  24.883  1.00  0.00     0.016 A 
BRANCH  10  13
ATOM     13  N   UNL A   1      31.481  21.890  25.884  1.00  0.00    -0.279 N 
ATOM     14  H   UNL A   1      30.716  21.271  25.892  1.00  0.00     0.180 HD
BRANCH  13  15
ATOM     15  S   UNL A   1      31.396  23.181  26.949  1.00  0.00     0.262 S 
ATOM     16  O   UNL A   1      30.173  22.968  27.694  1.00  0.00    -0.201 OA
ATOM     17  O   UNL A   1      32.679  23.277  27.614  1.00  0.00    -0.201 OA
BRANCH  15  18
ATOM     18  C   UNL A   1      31.165  24.732  26.056  1.00  0.00     0.090 A 
ATOM     19  C   UNL A   1      29.884  25.219  25.771  1.00  0.00     0.024 A 
ATOM     20  C   UNL A   1      32.288  25.367  25.478  1.00  0.00    -0.029 A 
ATOM     21  C   UNL A   1      29.708  26.197  24.780  1.00  0.00     0.021 A 
ATOM     22  C   UNL A   1      32.090  26.346  24.483  1.00  0.00     0.024 A 
ATOM     23  C   UNL A   1      33.707  25.140  25.928  1.00  0.00     0.046 C 
ATOM     24  C   UNL A   1      30.805  26.721  24.096  1.00  0.00     0.052 A 
BRANCH  24  25
ATOM     25  C   UNL A   1      30.605  27.626  22.996  1.00  0.00     0.099 C 
ATOM     26  N   UNL A   1      30.417  28.311  22.089  1.00  0.00    -0.192 NA
ENDBRANCH  24  25
ENDBRANCH  15  18
ENDBRANCH  13  15
ENDBRANCH  10  13
ENDBRANCH   3   6
ENDBRANCH   1   2
BRANCH   1  27
ATOM     27  C   UNL A   1      38.284  24.364  26.526  1.00  0.00     0.042 C 
BRANCH  27  28
ATOM     28  C   UNL A   1      39.534  23.649  27.003  1.00  0.00     0.118 C 
BRANCH  28  29
ATOM     29  N   UNL A   1      39.853  22.381  26.352  1.00  0.00    -0.352 N 
ATOM     30  C   UNL A   1      41.090  21.759  26.189  1.00  0.00     0.251 C 
ATOM     31  H   UNL A   1      39.084  21.897  25.975  1.00  0.00     0.163 HD
ATOM     32  O   UNL A   1      41.141  20.638  25.692  1.00  0.00    -0.269 OA
BRANCH  30  33
ATOM     33  C   UNL A   1      42.320  22.342  26.797  1.00  0.00     0.039 A 
ATOM     34  C   UNL A   1      42.476  22.127  28.172  1.00  0.00     0.014 A 
ATOM     35  C   UNL A   1      42.900  23.448  26.205  1.00  0.00     0.014 A 
ATOM     36  C   UNL A   1      42.762  23.216  28.979  1.00  0.00     0.010 A 
ATOM     37  C   UNL A   1      42.998  24.572  26.980  1.00  0.00     0.010 A 
ATOM     38  C   UNL A   1      42.831  24.458  28.362  1.00  0.00    -0.014 A 
BRANCH  38  39
ATOM     39  C   UNL A   1      42.927  25.708  29.072  1.00  0.00     0.031 A 
ATOM     40  C   UNL A   1      41.738  26.554  28.947  1.00  0.00     0.074 A 
ATOM     41  C   UNL A   1      44.001  25.955  29.855  1.00  0.00     0.049 A 
ATOM     42  N   UNL A   1      41.749  27.831  29.020  1.00  0.00    -0.248 NA
ATOM     43  C   UNL A   1      40.423  26.014  28.589  1.00  0.00     0.031 C 
ATOM     44  C   UNL A   1      44.201  26.995  30.855  1.00  0.00     0.029 A 
ATOM     45  N   UNL A   1      45.258  25.345  29.761  1.00  0.00    -0.354 N 
ATOM     46  C   UNL A   1      40.433  28.231  29.108  1.00  0.00     0.074 A 
ATOM     47  C   UNL A   1      39.667  27.111  28.635  1.00  0.00     0.031 C 
ATOM     48  C   UNL A   1      45.524  27.165  31.051  1.00  0.00     0.029 A 
ATOM     49  C   UNL A   1      46.223  26.327  30.093  1.00  0.00     0.049 A 
ATOM     50  H   UNL A   1      45.437  24.410  29.510  1.00  0.00     0.167 HD
ATOM     51  C   UNL A   1      40.174  29.392  29.771  1.00  0.00     0.037 A 
ATOM     52  C   UNL A   1      47.095  26.774  29.132  1.00  0.00     0.037 A 
ATOM     53  C   UNL A   1      41.452  30.012  30.155  1.00  0.00     0.049 A 
ATOM     54  C   UNL A   1      46.728  28.150  28.630  1.00  0.00     0.074 A 
ATOM     55  C   UNL A   1      42.204  30.003  31.320  1.00  0.00     0.029 A 
ATOM     56  N   UNL A   1      42.332  30.374  29.148  1.00  0.00    -0.354 N 
ATOM     57  N   UNL A   1      45.679  28.814  29.028  1.00  0.00    -0.248 NA
ATOM     58  C   UNL A   1      47.472  28.850  27.587  1.00  0.00     0.031 C 
ATOM     59  C   UNL A   1      43.552  30.337  30.980  1.00  0.00     0.029 A 
ATOM     60  C   UNL A   1      43.615  30.580  29.619  1.00  0.00     0.049 A 
ATOM     61  H   UNL A   1      42.072  30.473  28.204  1.00  0.00     0.167 HD
ATOM     62  C   UNL A   1      45.602  30.004  28.366  1.00  0.00     0.074 A 
ATOM     63  C   UNL A   1      46.710  29.944  27.421  1.00  0.00     0.031 C 
ATOM     64  C   UNL A   1      44.648  30.944  28.655  1.00  0.00     0.037 A 
BRANCH  51  65
ATOM     65  C   UNL A   1      38.827  29.822  30.314  1.00  0.00     0.057 A 
ATOM     66  C   UNL A   1      38.398  29.336  31.566  1.00  0.00     0.134 A 
ATOM     67  C   UNL A   1      37.886  30.656  29.679  1.00  0.00     0.134 A 
ATOM     68  F   UNL A   1      39.192  28.579  32.335  1.00  0.00    -0.206 F 
ATOM     69  C   UNL A   1      37.129  29.601  32.102  1.00  0.00     0.040 A 
ATOM     70  C   UNL A   1      36.605  30.913  30.193  1.00  0.00     0.040 A 
ATOM     71  F   UNL A   1      38.149  31.309  28.546  1.00  0.00    -0.206 F 
ATOM     72  C   UNL A   1      36.218  30.379  31.408  1.00  0.00     0.006 A 
ENDBRANCH  51  65
BRANCH  52  73
ATOM     73  C   UNL A   1      47.616  25.652  28.281  1.00  0.00     0.057 A 
ATOM     74  C   UNL A   1      47.123  25.651  26.963  1.00  0.00     0.134 A 
ATOM     75  C   UNL A   1      48.935  25.240  28.473  1.00  0.00     0.134 A 
ATOM     76  F   UNL A   1      45.823  25.883  26.727  1.00  0.00    -0.206 F 
ATOM     77  C   UNL A   1      48.003  25.705  25.886  1.00  0.00     0.040 A 
ATOM     78  C   UNL A   1      49.810  25.210  27.391  1.00  0.00     0.040 A 
ATOM     79  F   UNL A   1      49.431  25.058  29.704  1.00  0.00    -0.206 F 
ATOM     80  C   UNL A   1      49.365  25.564  26.118  1.00  0.00     0.006 A 
ENDBRANCH  52  73
BRANCH  64  81
ATOM     81  C   UNL A   1      44.586  32.299  27.992  1.00  0.00     0.057 A 
ATOM     82  C   UNL A   1      44.920  33.486  28.651  1.00  0.00     0.134 A 
ATOM     83  C   UNL A   1      44.116  32.473  26.672  1.00  0.00     0.134 A 
ATOM     84  F   UNL A   1      45.136  33.516  29.975  1.00  0.00    -0.206 F 
ATOM     85  C   UNL A   1      44.992  34.716  27.990  1.00  0.00     0.040 A 
ATOM     86  C   UNL A   1      44.129  33.701  26.014  1.00  0.00     0.040 A 
ATOM     87  F   UNL A   1      43.608  31.476  25.939  1.00  0.00    -0.206 F 
ATOM     88  C   UNL A   1      44.618  34.821  26.658  1.00  0.00     0.006 A 
ENDBRANCH  64  81
ENDBRANCH  38  39
ENDBRANCH  30  33
ENDBRANCH  28  29
ENDBRANCH  27  28
ENDBRANCH   1  27
TORSDOF 14
ENDMDL
