MODEL 1
REMARK VINA RESULT:     -12.6      0.000      0.000
REMARK SMILES O=C(NCCCNC(=O)c1ccccc1-c1ccccc1C(=O)NCCc1ccccc1)c1ccc(-c2c3nc(c(-c4c(F)cccc4F)c4ccc([nH]4)c(-c4c(F)cccc4F)c4nc(c(-c5c(F)cccc5F)c5ccc2[nH]5)C=C4)C=C3)cc1
REMARK SMILES IDX 7 1 8 2 9 3 6 5 5 6 4 7 3 8 1 9 2 10 33 12 34 13 86 14 35 15
REMARK SMILES IDX 85 16 36 17 37 18 38 19 79 20 39 21 84 22 78 23 80 24 40 25
REMARK SMILES IDX 83 26 77 27 76 28 41 30 67 31 50 32 66 33 51 34 54 35 65 36
REMARK SMILES IDX 81 37 52 38 53 39 64 41 82 42 55 43 42 44 43 45 48 46 44 47
REMARK SMILES IDX 45 48 47 49 49 50 46 51 68 52 69 53 74 54 70 55 71 56 73 57
REMARK SMILES IDX 75 58 72 59 56 60 57 61 62 62 58 63 59 64 61 65 63 66 60 67
REMARK SMILES IDX 10 68 11 69 15 70 12 71 14 72 13 73 16 74 17 75 21 76 18 77
REMARK SMILES IDX 20 78 19 79 22 80 23 81 24 82 25 84 26 85 27 86 28 87 32 88
REMARK SMILES IDX 29 89 31 90 30 91
REMARK H PARENT 7 4 3 11 80 29 54 40 24 83
REMARK Flexibility Score: inf
ROOT
ATOM      1  N   UNL A   1      35.503  20.961  26.152  1.00  0.00    -0.352 N 
ATOM      2  C   UNL A   1      34.164  21.149  26.293  1.00  0.00     0.251 C 
ATOM      3  O   UNL A   1      33.668  21.203  27.416  1.00  0.00    -0.269 OA
ATOM      4  H   UNL A   1      35.971  20.650  26.959  1.00  0.00     0.163 HD
ENDROOT
BRANCH   1   5
ATOM      5  C   UNL A   1      36.342  21.151  24.984  1.00  0.00     0.118 C 
BRANCH   5   6
ATOM      6  C   UNL A   1      37.434  20.108  24.926  1.00  0.00     0.042 C 
BRANCH   6   7
ATOM      7  C   UNL A   1      38.677  20.574  25.667  1.00  0.00     0.118 C 
BRANCH   7   8
ATOM      8  N   UNL A   1      39.712  19.544  25.726  1.00  0.00    -0.352 N 
ATOM      9  O   UNL A   1      41.820  18.729  25.795  1.00  0.00    -0.269 OA
ATOM     10  C   UNL A   1      41.055  19.653  26.018  1.00  0.00     0.251 C 
ATOM     11  H   UNL A   1      39.402  18.632  25.528  1.00  0.00     0.163 HD
BRANCH  10  12
ATOM     12  C   UNL A   1      41.563  20.928  26.565  1.00  0.00     0.039 A 
ATOM     13  C   UNL A   1      41.498  21.160  27.934  1.00  0.00     0.014 A 
ATOM     14  C   UNL A   1      42.069  21.911  25.711  1.00  0.00     0.014 A 
ATOM     15  C   UNL A   1      41.670  22.442  28.417  1.00  0.00     0.010 A 
ATOM     16  C   UNL A   1      42.428  23.157  26.235  1.00  0.00     0.010 A 
ATOM     17  C   UNL A   1      42.187  23.447  27.586  1.00  0.00    -0.014 A 
BRANCH  17  18
ATOM     18  C   UNL A   1      42.536  24.751  28.203  1.00  0.00     0.031 A 
ATOM     19  C   UNL A   1      43.954  25.104  28.544  1.00  0.00     0.074 A 
ATOM     20  C   UNL A   1      41.544  25.644  28.393  1.00  0.00     0.049 A 
ATOM     21  N   UNL A   1      44.418  26.207  29.077  1.00  0.00    -0.248 NA
ATOM     22  C   UNL A   1      44.985  24.093  28.270  1.00  0.00     0.031 C 
ATOM     23  C   UNL A   1      40.127  25.405  28.093  1.00  0.00     0.029 A 
ATOM     24  N   UNL A   1      41.569  26.939  28.835  1.00  0.00    -0.354 N 
ATOM     25  C   UNL A   1      45.782  26.008  29.240  1.00  0.00     0.074 A 
ATOM     26  C   UNL A   1      46.071  24.673  28.762  1.00  0.00     0.031 C 
ATOM     27  C   UNL A   1      39.439  26.539  28.268  1.00  0.00     0.029 A 
ATOM     28  C   UNL A   1      40.340  27.552  28.797  1.00  0.00     0.049 A 
ATOM     29  H   UNL A   1      42.388  27.388  29.148  1.00  0.00     0.167 HD
ATOM     30  C   UNL A   1      46.704  26.864  29.744  1.00  0.00     0.037 A 
ATOM     31  C   UNL A   1      39.966  28.785  29.175  1.00  0.00     0.037 A 
ATOM     32  C   UNL A   1      46.401  28.200  30.191  1.00  0.00     0.049 A 
ATOM     33  C   UNL A   1      41.001  29.702  29.747  1.00  0.00     0.074 A 
ATOM     34  C   UNL A   1      47.264  29.160  30.692  1.00  0.00     0.029 A 
ATOM     35  N   UNL A   1      45.133  28.766  30.192  1.00  0.00    -0.354 N 
ATOM     36  N   UNL A   1      42.287  29.498  29.898  1.00  0.00    -0.248 NA
ATOM     37  C   UNL A   1      40.532  31.008  30.220  1.00  0.00     0.031 C 
ATOM     38  C   UNL A   1      46.512  30.288  31.038  1.00  0.00     0.029 A 
ATOM     39  C   UNL A   1      45.187  30.052  30.706  1.00  0.00     0.049 A 
ATOM     40  H   UNL A   1      44.315  28.320  29.874  1.00  0.00     0.167 HD
ATOM     41  C   UNL A   1      42.787  30.655  30.476  1.00  0.00     0.074 A 
ATOM     42  C   UNL A   1      41.666  31.563  30.625  1.00  0.00     0.031 C 
ATOM     43  C   UNL A   1      44.058  30.937  30.851  1.00  0.00     0.037 A 
BRANCH  30  44
ATOM     44  C   UNL A   1      48.116  26.366  29.874  1.00  0.00     0.057 A 
ATOM     45  C   UNL A   1      49.063  26.526  28.854  1.00  0.00     0.134 A 
ATOM     46  C   UNL A   1      48.538  25.731  31.050  1.00  0.00     0.134 A 
ATOM     47  F   UNL A   1      48.725  27.113  27.696  1.00  0.00    -0.206 F 
ATOM     48  C   UNL A   1      50.369  26.046  28.988  1.00  0.00     0.040 A 
ATOM     49  C   UNL A   1      49.846  25.270  31.205  1.00  0.00     0.040 A 
ATOM     50  F   UNL A   1      47.685  25.549  32.069  1.00  0.00    -0.206 F 
ATOM     51  C   UNL A   1      50.765  25.421  30.169  1.00  0.00     0.006 A 
ENDBRANCH  30  44
BRANCH  31  52
ATOM     52  C   UNL A   1      38.548  29.196  29.034  1.00  0.00     0.057 A 
ATOM     53  C   UNL A   1      37.676  29.168  30.126  1.00  0.00     0.134 A 
ATOM     54  C   UNL A   1      38.046  29.677  27.817  1.00  0.00     0.134 A 
ATOM     55  F   UNL A   1      38.095  28.707  31.314  1.00  0.00    -0.206 F 
ATOM     56  C   UNL A   1      36.353  29.601  30.015  1.00  0.00     0.040 A 
ATOM     57  C   UNL A   1      36.735  30.140  27.698  1.00  0.00     0.040 A 
ATOM     58  F   UNL A   1      38.837  29.743  26.736  1.00  0.00    -0.206 F 
ATOM     59  C   UNL A   1      35.884  30.098  28.800  1.00  0.00     0.006 A 
ENDBRANCH  31  52
BRANCH  43  60
ATOM     60  C   UNL A   1      44.298  32.298  31.433  1.00  0.00     0.057 A 
ATOM     61  C   UNL A   1      44.236  32.531  32.813  1.00  0.00     0.134 A 
ATOM     62  C   UNL A   1      44.607  33.382  30.603  1.00  0.00     0.134 A 
ATOM     63  F   UNL A   1      43.927  31.536  33.659  1.00  0.00    -0.206 F 
ATOM     64  C   UNL A   1      44.449  33.804  33.344  1.00  0.00     0.040 A 
ATOM     65  C   UNL A   1      44.846  34.652  31.124  1.00  0.00     0.040 A 
ATOM     66  F   UNL A   1      44.684  33.221  29.273  1.00  0.00    -0.206 F 
ATOM     67  C   UNL A   1      44.761  34.867  32.499  1.00  0.00     0.006 A 
ENDBRANCH  43  60
ENDBRANCH  17  18
ENDBRANCH  10  12
ENDBRANCH   7   8
ENDBRANCH   6   7
ENDBRANCH   5   6
ENDBRANCH   1   5
BRANCH   2  68
ATOM     68  C   UNL A   1      33.289  21.264  25.111  1.00  0.00     0.047 A 
ATOM     69  C   UNL A   1      33.060  20.057  24.423  1.00  0.00     0.014 A 
ATOM     70  C   UNL A   1      32.882  22.503  24.561  1.00  0.00    -0.005 A 
ATOM     71  C   UNL A   1      32.414  20.051  23.191  1.00  0.00     0.001 A 
ATOM     72  C   UNL A   1      32.193  22.450  23.323  1.00  0.00     0.009 A 
ATOM     73  C   UNL A   1      31.976  21.248  22.643  1.00  0.00     0.001 A 
BRANCH  70  74
ATOM     74  C   UNL A   1      33.127  23.846  25.154  1.00  0.00    -0.005 A 
ATOM     75  C   UNL A   1      34.382  24.430  24.804  1.00  0.00     0.009 A 
ATOM     76  C   UNL A   1      32.244  24.625  25.948  1.00  0.00     0.047 A 
ATOM     77  C   UNL A   1      34.739  25.730  25.156  1.00  0.00     0.001 A 
ATOM     78  C   UNL A   1      32.636  25.949  26.285  1.00  0.00     0.014 A 
ATOM     79  C   UNL A   1      33.856  26.500  25.888  1.00  0.00     0.001 A 
BRANCH  76  80
ATOM     80  C   UNL A   1      30.855  24.305  26.440  1.00  0.00     0.251 C 
ATOM     81  O   UNL A   1      30.738  23.441  27.314  1.00  0.00    -0.269 OA
ATOM     82  N   UNL A   1      29.695  24.844  25.932  1.00  0.00    -0.352 N 
ATOM     83  H   UNL A   1      28.864  24.392  26.205  1.00  0.00     0.163 HD
BRANCH  82  84
ATOM     84  C   UNL A   1      29.528  25.974  25.058  1.00  0.00     0.121 C 
BRANCH  84  85
ATOM     85  C   UNL A   1      29.924  25.811  23.601  1.00  0.00     0.057 C 
BRANCH  85  86
ATOM     86  C   UNL A   1      31.134  26.537  23.061  1.00  0.00    -0.046 A 
ATOM     87  C   UNL A   1      32.009  25.778  22.264  1.00  0.00     0.004 A 
ATOM     88  C   UNL A   1      31.497  27.852  23.379  1.00  0.00     0.004 A 
ATOM     89  C   UNL A   1      33.203  26.314  21.788  1.00  0.00     0.000 A 
ATOM     90  C   UNL A   1      32.698  28.390  22.901  1.00  0.00     0.000 A 
ATOM     91  C   UNL A   1      33.549  27.623  22.106  1.00  0.00     0.000 A 
ENDBRANCH  85  86
ENDBRANCH  84  85
ENDBRANCH  82  84
ENDBRANCH  76  80
ENDBRANCH  70  74
ENDBRANCH   2  68
TORSDOF 15
ENDMDL
MODEL 2
REMARK VINA RESULT:     -12.5      0.231      5.936
REMARK SMILES O=C(NCCCNC(=O)c1ccccc1-c1ccccc1C(=O)NCCc1ccccc1)c1ccc(-c2c3nc(c(-c4c(F)cccc4F)c4ccc([nH]4)c(-c4c(F)cccc4F)c4nc(c(-c5c(F)cccc5F)c5ccc2[nH]5)C=C4)C=C3)cc1
REMARK SMILES IDX 7 1 8 2 9 3 6 5 5 6 4 7 3 8 1 9 2 10 33 12 34 13 86 14 35 15
REMARK SMILES IDX 85 16 36 17 37 18 38 19 79 20 39 21 84 22 78 23 80 24 40 25
REMARK SMILES IDX 83 26 77 27 76 28 41 30 67 31 50 32 66 33 51 34 54 35 65 36
REMARK SMILES IDX 81 37 52 38 53 39 64 41 82 42 55 43 42 44 43 45 48 46 44 47
REMARK SMILES IDX 45 48 47 49 49 50 46 51 68 52 69 53 74 54 70 55 71 56 73 57
REMARK SMILES IDX 75 58 72 59 56 60 57 61 62 62 58 63 59 64 61 65 63 66 60 67
REMARK SMILES IDX 10 68 11 69 15 70 12 71 14 72 13 73 16 74 17 75 21 76 18 77
REMARK SMILES IDX 20 78 19 79 22 80 23 81 24 82 25 84 26 85 27 86 28 87 32 88
REMARK SMILES IDX 29 89 31 90 30 91
REMARK H PARENT 7 4 3 11 80 29 54 40 24 83
REMARK Flexibility Score: inf
ROOT
ATOM      1  N   UNL A   1      35.638  21.032  26.172  1.00  0.00    -0.352 N 
ATOM      2  C   UNL A   1      34.314  21.274  26.360  1.00  0.00     0.251 C 
ATOM      3  O   UNL A   1      33.874  21.424  27.497  1.00  0.00    -0.269 OA
ATOM      4  H   UNL A   1      36.135  20.765  26.978  1.00  0.00     0.163 HD
ENDROOT
BRANCH   1   5
ATOM      5  C   UNL A   1      36.426  21.112  24.957  1.00  0.00     0.118 C 
BRANCH   5   6
ATOM      6  C   UNL A   1      37.521  20.069  24.952  1.00  0.00     0.042 C 
BRANCH   6   7
ATOM      7  C   UNL A   1      38.748  20.560  25.703  1.00  0.00     0.118 C 
BRANCH   7   8
ATOM      8  N   UNL A   1      39.797  19.545  25.784  1.00  0.00    -0.352 N 
ATOM      9  O   UNL A   1      41.916  18.759  25.858  1.00  0.00    -0.269 OA
ATOM     10  C   UNL A   1      41.141  19.679  26.060  1.00  0.00     0.251 C 
ATOM     11  H   UNL A   1      39.497  18.624  25.616  1.00  0.00     0.163 HD
BRANCH  10  12
ATOM     12  C   UNL A   1      41.637  20.977  26.563  1.00  0.00     0.039 A 
ATOM     13  C   UNL A   1      41.594  21.244  27.927  1.00  0.00     0.014 A 
ATOM     14  C   UNL A   1      42.110  21.945  25.675  1.00  0.00     0.014 A 
ATOM     15  C   UNL A   1      41.754  22.541  28.373  1.00  0.00     0.010 A 
ATOM     16  C   UNL A   1      42.457  23.210  26.158  1.00  0.00     0.010 A 
ATOM     17  C   UNL A   1      42.237  23.532  27.506  1.00  0.00    -0.014 A 
BRANCH  17  18
ATOM     18  C   UNL A   1      42.575  24.857  28.082  1.00  0.00     0.031 A 
ATOM     19  C   UNL A   1      41.518  25.890  28.349  1.00  0.00     0.074 A 
ATOM     20  C   UNL A   1      43.859  25.090  28.420  1.00  0.00     0.049 A 
ATOM     21  N   UNL A   1      41.655  27.089  28.857  1.00  0.00    -0.248 NA
ATOM     22  C   UNL A   1      40.135  25.546  27.990  1.00  0.00     0.031 C 
ATOM     23  C   UNL A   1      44.969  24.153  28.207  1.00  0.00     0.029 A 
ATOM     24  N   UNL A   1      44.447  26.152  29.052  1.00  0.00    -0.354 N 
ATOM     25  C   UNL A   1      40.388  27.657  28.840  1.00  0.00     0.074 A 
ATOM     26  C   UNL A   1      39.496  26.676  28.259  1.00  0.00     0.031 C 
ATOM     27  C   UNL A   1      46.076  24.639  28.782  1.00  0.00     0.029 A 
ATOM     28  C   UNL A   1      45.785  25.965  29.303  1.00  0.00     0.049 A 
ATOM     29  H   UNL A   1      43.959  26.970  29.302  1.00  0.00     0.167 HD
ATOM     30  C   UNL A   1      40.011  28.885  29.271  1.00  0.00     0.037 A 
ATOM     31  C   UNL A   1      46.692  26.781  29.865  1.00  0.00     0.037 A 
ATOM     32  C   UNL A   1      40.909  29.839  29.872  1.00  0.00     0.049 A 
ATOM     33  C   UNL A   1      46.251  28.139  30.312  1.00  0.00     0.074 A 
ATOM     34  C   UNL A   1      40.625  31.099  30.368  1.00  0.00     0.029 A 
ATOM     35  N   UNL A   1      42.270  29.636  30.056  1.00  0.00    -0.354 N 
ATOM     36  N   UNL A   1      45.049  28.664  30.286  1.00  0.00    -0.248 NA
ATOM     37  C   UNL A   1      47.290  29.025  30.845  1.00  0.00     0.031 C 
ATOM     38  C   UNL A   1      41.821  31.677  30.810  1.00  0.00     0.029 A 
ATOM     39  C   UNL A   1      42.843  30.757  30.637  1.00  0.00     0.049 A 
ATOM     40  H   UNL A   1      42.758  28.817  29.811  1.00  0.00     0.167 HD
ATOM     41  C   UNL A   1      45.184  29.941  30.809  1.00  0.00     0.074 A 
ATOM     42  C   UNL A   1      46.582  30.100  31.163  1.00  0.00     0.031 C 
ATOM     43  C   UNL A   1      44.238  30.895  30.976  1.00  0.00     0.037 A 
BRANCH  30  44
ATOM     44  C   UNL A   1      38.574  29.279  29.071  1.00  0.00     0.057 A 
ATOM     45  C   UNL A   1      38.073  29.677  27.825  1.00  0.00     0.134 A 
ATOM     46  C   UNL A   1      37.673  29.241  30.144  1.00  0.00     0.134 A 
ATOM     47  F   UNL A   1      38.883  29.750  26.757  1.00  0.00    -0.206 F 
ATOM     48  C   UNL A   1      36.737  30.051  27.660  1.00  0.00     0.040 A 
ATOM     49  C   UNL A   1      36.330  29.588  29.986  1.00  0.00     0.040 A 
ATOM     50  F   UNL A   1      38.083  28.864  31.364  1.00  0.00    -0.206 F 
ATOM     51  C   UNL A   1      35.860  30.002  28.741  1.00  0.00     0.006 A 
ENDBRANCH  30  44
BRANCH  31  52
ATOM     52  C   UNL A   1      48.096  26.328  30.009  1.00  0.00     0.057 A 
ATOM     53  C   UNL A   1      48.541  25.719  31.186  1.00  0.00     0.134 A 
ATOM     54  C   UNL A   1      49.012  26.444  28.954  1.00  0.00     0.134 A 
ATOM     55  F   UNL A   1      47.715  25.590  32.234  1.00  0.00    -0.206 F 
ATOM     56  C   UNL A   1      49.848  25.243  31.312  1.00  0.00     0.040 A 
ATOM     57  C   UNL A   1      50.312  25.947  29.056  1.00  0.00     0.040 A 
ATOM     58  F   UNL A   1      48.641  27.006  27.794  1.00  0.00    -0.206 F 
ATOM     59  C   UNL A   1      50.733  25.348  30.241  1.00  0.00     0.006 A 
ENDBRANCH  31  52
BRANCH  43  60
ATOM     60  C   UNL A   1      44.688  32.184  31.597  1.00  0.00     0.057 A 
ATOM     61  C   UNL A   1      44.725  32.361  32.986  1.00  0.00     0.134 A 
ATOM     62  C   UNL A   1      45.101  33.254  30.794  1.00  0.00     0.134 A 
ATOM     63  F   UNL A   1      44.324  31.378  33.808  1.00  0.00    -0.206 F 
ATOM     64  C   UNL A   1      45.133  33.568  33.554  1.00  0.00     0.040 A 
ATOM     65  C   UNL A   1      45.535  34.455  31.350  1.00  0.00     0.040 A 
ATOM     66  F   UNL A   1      45.091  33.144  29.456  1.00  0.00    -0.206 F 
ATOM     67  C   UNL A   1      45.545  34.617  32.734  1.00  0.00     0.006 A 
ENDBRANCH  43  60
ENDBRANCH  17  18
ENDBRANCH  10  12
ENDBRANCH   7   8
ENDBRANCH   6   7
ENDBRANCH   5   6
ENDBRANCH   1   5
BRANCH   2  68
ATOM     68  C   UNL A   1      33.388  21.333  25.213  1.00  0.00     0.047 A 
ATOM     69  C   UNL A   1      33.183  20.107  24.552  1.00  0.00     0.014 A 
ATOM     70  C   UNL A   1      32.906  22.545  24.663  1.00  0.00    -0.005 A 
ATOM     71  C   UNL A   1      32.488  20.054  23.348  1.00  0.00     0.001 A 
ATOM     72  C   UNL A   1      32.170  22.443  23.455  1.00  0.00     0.009 A 
ATOM     73  C   UNL A   1      31.977  21.223  22.802  1.00  0.00     0.001 A 
BRANCH  70  74
ATOM     74  C   UNL A   1      33.117  23.906  25.227  1.00  0.00    -0.005 A 
ATOM     75  C   UNL A   1      34.374  24.498  24.898  1.00  0.00     0.009 A 
ATOM     76  C   UNL A   1      32.201  24.694  25.974  1.00  0.00     0.047 A 
ATOM     77  C   UNL A   1      34.704  25.811  25.224  1.00  0.00     0.001 A 
ATOM     78  C   UNL A   1      32.566  26.032  26.286  1.00  0.00     0.014 A 
ATOM     79  C   UNL A   1      33.791  26.588  25.910  1.00  0.00     0.001 A 
BRANCH  76  80
ATOM     80  C   UNL A   1      30.802  24.370  26.434  1.00  0.00     0.251 C 
ATOM     81  O   UNL A   1      30.668  23.495  27.294  1.00  0.00    -0.269 OA
ATOM     82  N   UNL A   1      29.653  24.915  25.910  1.00  0.00    -0.352 N 
ATOM     83  H   UNL A   1      28.816  24.460  26.160  1.00  0.00     0.163 HD
BRANCH  82  84
ATOM     84  C   UNL A   1      29.504  26.056  25.047  1.00  0.00     0.121 C 
BRANCH  84  85
ATOM     85  C   UNL A   1      29.895  25.900  23.587  1.00  0.00     0.057 C 
BRANCH  85  86
ATOM     86  C   UNL A   1      31.125  26.596  23.055  1.00  0.00    -0.046 A 
ATOM     87  C   UNL A   1      32.011  25.804  22.303  1.00  0.00     0.004 A 
ATOM     88  C   UNL A   1      31.495  27.916  23.342  1.00  0.00     0.004 A 
ATOM     89  C   UNL A   1      33.222  26.312  21.840  1.00  0.00     0.000 A 
ATOM     90  C   UNL A   1      32.714  28.426  22.877  1.00  0.00     0.000 A 
ATOM     91  C   UNL A   1      33.574  27.627  22.127  1.00  0.00     0.000 A 
ENDBRANCH  85  86
ENDBRANCH  84  85
ENDBRANCH  82  84
ENDBRANCH  76  80
ENDBRANCH  70  74
ENDBRANCH   2  68
TORSDOF 15
ENDMDL
MODEL 3
REMARK VINA RESULT:     -12.3      4.069      8.894
REMARK SMILES O=C(NCCCNC(=O)c1ccccc1-c1ccccc1C(=O)NCCc1ccccc1)c1ccc(-c2c3nc(c(-c4c(F)cccc4F)c4ccc([nH]4)c(-c4c(F)cccc4F)c4nc(c(-c5c(F)cccc5F)c5ccc2[nH]5)C=C4)C=C3)cc1
REMARK SMILES IDX 7 1 8 2 9 3 6 5 5 6 4 7 3 8 1 9 2 10 33 12 34 13 86 14 35 15
REMARK SMILES IDX 85 16 36 17 37 18 38 19 79 20 39 21 84 22 78 23 80 24 40 25
REMARK SMILES IDX 83 26 77 27 76 28 41 30 67 31 50 32 66 33 51 34 54 35 65 36
REMARK SMILES IDX 81 37 52 38 53 39 64 41 82 42 55 43 42 44 43 45 48 46 44 47
REMARK SMILES IDX 45 48 47 49 49 50 46 51 68 52 69 53 74 54 70 55 71 56 73 57
REMARK SMILES IDX 75 58 72 59 56 60 57 61 62 62 58 63 59 64 61 65 63 66 60 67
REMARK SMILES IDX 10 68 11 69 15 70 12 71 14 72 13 73 16 74 17 75 21 76 18 77
REMARK SMILES IDX 20 78 19 79 22 80 23 81 24 82 25 84 26 85 27 86 28 87 32 88
REMARK SMILES IDX 29 89 31 90 30 91
REMARK H PARENT 7 4 3 11 80 29 54 40 24 83
REMARK Flexibility Score: inf
ROOT
ATOM      1  N   UNL A   1      31.895  30.053  24.298  1.00  0.00    -0.352 N 
ATOM      2  C   UNL A   1      31.804  29.094  23.338  1.00  0.00     0.251 C 
ATOM      3  O   UNL A   1      32.571  29.114  22.378  1.00  0.00    -0.269 OA
ATOM      4  H   UNL A   1      32.427  30.844  24.053  1.00  0.00     0.163 HD
ENDROOT
BRANCH   1   5
ATOM      5  C   UNL A   1      31.324  30.079  25.631  1.00  0.00     0.118 C 
BRANCH   5   6
ATOM      6  C   UNL A   1      31.157  31.500  26.120  1.00  0.00     0.042 C 
BRANCH   6   7
ATOM      7  C   UNL A   1      32.391  31.969  26.874  1.00  0.00     0.118 C 
BRANCH   7   8
ATOM      8  N   UNL A   1      32.303  33.372  27.274  1.00  0.00    -0.352 N 
ATOM      9  O   UNL A   1      32.720  35.191  28.550  1.00  0.00    -0.269 OA
ATOM     10  C   UNL A   1      33.076  34.092  28.159  1.00  0.00     0.251 C 
ATOM     11  H   UNL A   1      31.579  33.881  26.844  1.00  0.00     0.163 HD
BRANCH  10  12
ATOM     12  C   UNL A   1      34.326  33.488  28.664  1.00  0.00     0.039 A 
ATOM     13  C   UNL A   1      34.304  32.198  29.182  1.00  0.00     0.014 A 
ATOM     14  C   UNL A   1      35.516  34.219  28.660  1.00  0.00     0.014 A 
ATOM     15  C   UNL A   1      35.370  31.745  29.932  1.00  0.00     0.010 A 
ATOM     16  C   UNL A   1      36.658  33.676  29.256  1.00  0.00     0.010 A 
ATOM     17  C   UNL A   1      36.581  32.453  29.938  1.00  0.00    -0.014 A 
BRANCH  17  18
ATOM     18  C   UNL A   1      37.752  31.825  30.599  1.00  0.00     0.031 A 
ATOM     19  C   UNL A   1      38.108  32.135  32.025  1.00  0.00     0.074 A 
ATOM     20  C   UNL A   1      38.458  30.914  29.900  1.00  0.00     0.049 A 
ATOM     21  N   UNL A   1      39.095  31.660  32.744  1.00  0.00    -0.248 NA
ATOM     22  C   UNL A   1      37.266  33.109  32.733  1.00  0.00     0.031 C 
ATOM     23  C   UNL A   1      38.196  30.534  28.507  1.00  0.00     0.029 A 
ATOM     24  N   UNL A   1      39.502  30.108  30.267  1.00  0.00    -0.354 N 
ATOM     25  C   UNL A   1      39.017  32.306  33.971  1.00  0.00     0.074 A 
ATOM     26  C   UNL A   1      37.895  33.217  33.895  1.00  0.00     0.031 C 
ATOM     27  C   UNL A   1      38.989  29.510  28.170  1.00  0.00     0.029 A 
ATOM     28  C   UNL A   1      39.889  29.235  29.279  1.00  0.00     0.049 A 
ATOM     29  H   UNL A   1      39.934  30.151  31.151  1.00  0.00     0.167 HD
ATOM     30  C   UNL A   1      39.813  32.149  35.056  1.00  0.00     0.037 A 
ATOM     31  C   UNL A   1      40.880  28.328  29.253  1.00  0.00     0.037 A 
ATOM     32  C   UNL A   1      40.910  31.217  35.121  1.00  0.00     0.049 A 
ATOM     33  C   UNL A   1      41.756  28.192  30.458  1.00  0.00     0.074 A 
ATOM     34  C   UNL A   1      41.762  30.958  36.182  1.00  0.00     0.029 A 
ATOM     35  N   UNL A   1      41.309  30.389  34.080  1.00  0.00    -0.354 N 
ATOM     36  N   UNL A   1      41.673  28.812  31.610  1.00  0.00    -0.248 NA
ATOM     37  C   UNL A   1      42.873  27.248  30.354  1.00  0.00     0.031 C 
ATOM     38  C   UNL A   1      42.703  30.009  35.767  1.00  0.00     0.029 A 
ATOM     39  C   UNL A   1      42.408  29.638  34.465  1.00  0.00     0.049 A 
ATOM     40  H   UNL A   1      40.875  30.343  33.198  1.00  0.00     0.167 HD
ATOM     41  C   UNL A   1      42.722  28.328  32.376  1.00  0.00     0.074 A 
ATOM     42  C   UNL A   1      43.412  27.345  31.562  1.00  0.00     0.031 C 
ATOM     43  C   UNL A   1      43.082  28.669  33.636  1.00  0.00     0.037 A 
BRANCH  30  44
ATOM     44  C   UNL A   1      39.549  33.032  36.243  1.00  0.00     0.057 A 
ATOM     45  C   UNL A   1      40.181  34.272  36.410  1.00  0.00     0.134 A 
ATOM     46  C   UNL A   1      38.632  32.640  37.228  1.00  0.00     0.134 A 
ATOM     47  F   UNL A   1      41.080  34.703  35.513  1.00  0.00    -0.206 F 
ATOM     48  C   UNL A   1      39.931  35.074  37.526  1.00  0.00     0.040 A 
ATOM     49  C   UNL A   1      38.355  33.445  38.334  1.00  0.00     0.040 A 
ATOM     50  F   UNL A   1      37.987  31.468  37.129  1.00  0.00    -0.206 F 
ATOM     51  C   UNL A   1      39.012  34.664  38.489  1.00  0.00     0.006 A 
ENDBRANCH  30  44
BRANCH  31  52
ATOM     52  C   UNL A   1      41.090  27.508  28.035  1.00  0.00     0.057 A 
ATOM     53  C   UNL A   1      40.447  26.277  27.874  1.00  0.00     0.134 A 
ATOM     54  C   UNL A   1      41.897  27.959  26.982  1.00  0.00     0.134 A 
ATOM     55  F   UNL A   1      39.671  25.787  28.852  1.00  0.00    -0.206 F 
ATOM     56  C   UNL A   1      40.599  25.522  26.710  1.00  0.00     0.040 A 
ATOM     57  C   UNL A   1      42.035  27.229  25.801  1.00  0.00     0.040 A 
ATOM     58  F   UNL A   1      42.530  29.139  27.071  1.00  0.00    -0.206 F 
ATOM     59  C   UNL A   1      41.387  26.003  25.666  1.00  0.00     0.006 A 
ENDBRANCH  31  52
BRANCH  43  60
ATOM     60  C   UNL A   1      44.262  27.946  34.214  1.00  0.00     0.057 A 
ATOM     61  C   UNL A   1      45.557  28.476  34.147  1.00  0.00     0.134 A 
ATOM     62  C   UNL A   1      44.097  26.713  34.856  1.00  0.00     0.134 A 
ATOM     63  F   UNL A   1      45.783  29.646  33.528  1.00  0.00    -0.206 F 
ATOM     64  C   UNL A   1      46.651  27.791  34.676  1.00  0.00     0.040 A 
ATOM     65  C   UNL A   1      45.178  26.032  35.412  1.00  0.00     0.040 A 
ATOM     66  F   UNL A   1      42.880  26.156  34.956  1.00  0.00    -0.206 F 
ATOM     67  C   UNL A   1      46.461  26.567  35.316  1.00  0.00     0.006 A 
ENDBRANCH  43  60
ENDBRANCH  17  18
ENDBRANCH  10  12
ENDBRANCH   7   8
ENDBRANCH   6   7
ENDBRANCH   5   6
ENDBRANCH   1   5
BRANCH   2  68
ATOM     68  C   UNL A   1      30.775  28.041  23.419  1.00  0.00     0.047 A 
ATOM     69  C   UNL A   1      29.457  28.482  23.191  1.00  0.00     0.014 A 
ATOM     70  C   UNL A   1      31.031  26.736  23.903  1.00  0.00    -0.005 A 
ATOM     71  C   UNL A   1      28.374  27.638  23.422  1.00  0.00     0.001 A 
ATOM     72  C   UNL A   1      29.904  25.896  24.088  1.00  0.00     0.009 A 
ATOM     73  C   UNL A   1      28.599  26.343  23.866  1.00  0.00     0.001 A 
BRANCH  70  74
ATOM     74  C   UNL A   1      32.368  26.179  24.248  1.00  0.00    -0.005 A 
ATOM     75  C   UNL A   1      32.748  26.349  25.613  1.00  0.00     0.009 A 
ATOM     76  C   UNL A   1      33.253  25.449  23.410  1.00  0.00     0.047 A 
ATOM     77  C   UNL A   1      33.902  25.787  26.156  1.00  0.00     0.001 A 
ATOM     78  C   UNL A   1      34.418  24.884  23.997  1.00  0.00     0.014 A 
ATOM     79  C   UNL A   1      34.735  25.038  25.348  1.00  0.00     0.001 A 
BRANCH  76  80
ATOM     80  C   UNL A   1      33.114  25.073  21.957  1.00  0.00     0.251 C 
ATOM     81  O   UNL A   1      33.204  25.975  21.119  1.00  0.00    -0.269 OA
ATOM     82  N   UNL A   1      32.812  23.814  21.493  1.00  0.00    -0.352 N 
ATOM     83  H   UNL A   1      32.550  23.764  20.545  1.00  0.00     0.163 HD
BRANCH  82  84
ATOM     84  C   UNL A   1      32.824  22.561  22.199  1.00  0.00     0.121 C 
BRANCH  84  85
ATOM     85  C   UNL A   1      31.710  22.297  23.198  1.00  0.00     0.057 C 
BRANCH  85  86
ATOM     86  C   UNL A   1      32.011  22.277  24.678  1.00  0.00    -0.046 A 
ATOM     87  C   UNL A   1      31.120  22.987  25.502  1.00  0.00     0.004 A 
ATOM     88  C   UNL A   1      33.148  21.707  25.265  1.00  0.00     0.004 A 
ATOM     89  C   UNL A   1      31.346  23.117  26.870  1.00  0.00     0.000 A 
ATOM     90  C   UNL A   1      33.376  21.840  26.641  1.00  0.00     0.000 A 
ATOM     91  C   UNL A   1      32.476  22.541  27.442  1.00  0.00     0.000 A 
ENDBRANCH  85  86
ENDBRANCH  84  85
ENDBRANCH  82  84
ENDBRANCH  76  80
ENDBRANCH  70  74
ENDBRANCH   2  68
TORSDOF 15
ENDMDL
