MODEL 1
REMARK VINA RESULT:     -12.0      0.000      0.000
REMARK SMILES O=C(NCCCNC(=O)[C@H]1C[C@H](O)CN1C(=O)/C=C/c1c(F)cccc1Cl)c1ccc(-c2c3nc(c(-c4c(F)cccc4F)c4ccc([nH]4)c(-c4c(F)cccc4F)c4nc(c(-c5c(F)cccc5F)c5ccc2[nH]5)C=C4)C=C3)cc1
REMARK SMILES IDX 5 1 4 2 3 3 1 4 2 5 28 7 29 8 81 9 30 10 80 11 31 12 32 13
REMARK SMILES IDX 33 14 74 15 34 16 79 17 73 18 75 19 35 20 78 21 72 22 71 23
REMARK SMILES IDX 36 25 62 26 45 27 61 28 46 29 49 30 60 31 76 32 47 33 48 34
REMARK SMILES IDX 59 36 77 37 50 38 37 39 38 40 43 41 39 42 40 43 42 44 44 45
REMARK SMILES IDX 41 46 63 47 64 48 69 49 65 50 66 51 68 52 70 53 67 54 51 55
REMARK SMILES IDX 52 56 57 57 53 58 54 59 56 60 58 61 55 62 6 63 7 64 8 65
REMARK SMILES IDX 9 67 10 68 11 69 15 70 12 71 14 72 16 73 17 74 18 75 19 76
REMARK SMILES IDX 20 77 21 78 26 79 22 80 23 81 25 82 27 83 24 84 13 85
REMARK H PARENT 3 6 75 24 49 35 7 66 13 86
REMARK Flexibility Score: inf
ROOT
ATOM      1  C   UNL A   1      31.258  31.473  26.115  1.00  0.00     0.042 C 
ENDROOT
BRANCH   1   2
ATOM      2  C   UNL A   1      32.489  31.987  26.835  1.00  0.00     0.118 C 
BRANCH   2   3
ATOM      3  N   UNL A   1      32.373  33.378  27.251  1.00  0.00    -0.352 N 
ATOM      4  O   UNL A   1      32.717  35.220  28.501  1.00  0.00    -0.269 OA
ATOM      5  C   UNL A   1      33.083  34.090  28.187  1.00  0.00     0.251 C 
ATOM      6  H   UNL A   1      31.673  33.891  26.787  1.00  0.00     0.163 HD
BRANCH   5   7
ATOM      7  C   UNL A   1      34.273  33.498  28.837  1.00  0.00     0.039 A 
ATOM      8  C   UNL A   1      34.138  32.482  29.783  1.00  0.00     0.014 A 
ATOM      9  C   UNL A   1      35.548  33.936  28.463  1.00  0.00     0.014 A 
ATOM     10  C   UNL A   1      35.248  32.024  30.476  1.00  0.00     0.010 A 
ATOM     11  C   UNL A   1      36.679  33.386  29.075  1.00  0.00     0.010 A 
ATOM     12  C   UNL A   1      36.534  32.437  30.098  1.00  0.00    -0.014 A 
BRANCH  12  13
ATOM     13  C   UNL A   1      37.707  31.747  30.688  1.00  0.00     0.031 A 
ATOM     14  C   UNL A   1      38.462  30.692  29.932  1.00  0.00     0.074 A 
ATOM     15  C   UNL A   1      38.080  32.098  31.934  1.00  0.00     0.049 A 
ATOM     16  N   UNL A   1      39.485  29.979  30.328  1.00  0.00    -0.248 NA
ATOM     17  C   UNL A   1      38.011  30.390  28.565  1.00  0.00     0.031 C 
ATOM     18  C   UNL A   1      37.404  33.100  32.765  1.00  0.00     0.029 A 
ATOM     19  N   UNL A   1      39.113  31.662  32.723  1.00  0.00    -0.354 N 
ATOM     20  C   UNL A   1      39.787  29.128  29.273  1.00  0.00     0.074 A 
ATOM     21  C   UNL A   1      38.833  29.405  28.220  1.00  0.00     0.031 C 
ATOM     22  C   UNL A   1      38.054  33.223  33.929  1.00  0.00     0.029 A 
ATOM     23  C   UNL A   1      39.141  32.256  33.963  1.00  0.00     0.049 A 
ATOM     24  H   UNL A   1      39.769  30.989  32.432  1.00  0.00     0.167 HD
ATOM     25  C   UNL A   1      40.773  28.202  29.201  1.00  0.00     0.037 A 
ATOM     26  C   UNL A   1      39.926  32.020  35.027  1.00  0.00     0.037 A 
ATOM     27  C   UNL A   1      41.733  27.958  30.249  1.00  0.00     0.049 A 
ATOM     28  C   UNL A   1      40.983  30.961  34.923  1.00  0.00     0.074 A 
ATOM     29  C   UNL A   1      42.820  27.102  30.235  1.00  0.00     0.029 A 
ATOM     30  N   UNL A   1      41.710  28.558  31.498  1.00  0.00    -0.354 N 
ATOM     31  N   UNL A   1      41.300  30.214  33.894  1.00  0.00    -0.248 NA
ATOM     32  C   UNL A   1      41.780  30.702  36.128  1.00  0.00     0.031 C 
ATOM     33  C   UNL A   1      43.421  27.138  31.497  1.00  0.00     0.029 A 
ATOM     34  C   UNL A   1      42.737  28.054  32.281  1.00  0.00     0.049 A 
ATOM     35  H   UNL A   1      41.062  29.240  31.787  1.00  0.00     0.167 HD
ATOM     36  C   UNL A   1      42.336  29.399  34.325  1.00  0.00     0.074 A 
ATOM     37  C   UNL A   1      42.615  29.767  35.699  1.00  0.00     0.031 C 
ATOM     38  C   UNL A   1      42.991  28.427  33.648  1.00  0.00     0.037 A 
BRANCH  25  39
ATOM     39  C   UNL A   1      40.869  27.359  27.964  1.00  0.00     0.057 A 
ATOM     40  C   UNL A   1      41.632  27.745  26.857  1.00  0.00     0.134 A 
ATOM     41  C   UNL A   1      40.272  26.090  27.926  1.00  0.00     0.134 A 
ATOM     42  F   UNL A   1      42.225  28.948  26.826  1.00  0.00    -0.206 F 
ATOM     43  C   UNL A   1      41.798  26.903  25.756  1.00  0.00     0.040 A 
ATOM     44  C   UNL A   1      40.447  25.231  26.840  1.00  0.00     0.040 A 
ATOM     45  F   UNL A   1      39.534  25.655  28.959  1.00  0.00    -0.206 F 
ATOM     46  C   UNL A   1      41.214  25.637  25.751  1.00  0.00     0.006 A 
ENDBRANCH  25  39
BRANCH  26  47
ATOM     47  C   UNL A   1      39.698  32.754  36.296  1.00  0.00     0.057 A 
ATOM     48  C   UNL A   1      38.741  32.328  37.223  1.00  0.00     0.134 A 
ATOM     49  C   UNL A   1      40.429  33.908  36.608  1.00  0.00     0.134 A 
ATOM     50  F   UNL A   1      37.998  31.239  36.974  1.00  0.00    -0.206 F 
ATOM     51  C   UNL A   1      38.502  33.035  38.403  1.00  0.00     0.040 A 
ATOM     52  C   UNL A   1      40.223  34.607  37.797  1.00  0.00     0.040 A 
ATOM     53  F   UNL A   1      41.368  34.364  35.766  1.00  0.00    -0.206 F 
ATOM     54  C   UNL A   1      39.248  34.176  38.694  1.00  0.00     0.006 A 
ENDBRANCH  26  47
BRANCH  38  55
ATOM     55  C   UNL A   1      44.072  27.697  34.387  1.00  0.00     0.057 A 
ATOM     56  C   UNL A   1      45.382  28.191  34.441  1.00  0.00     0.134 A 
ATOM     57  C   UNL A   1      43.795  26.510  35.076  1.00  0.00     0.134 A 
ATOM     58  F   UNL A   1      45.713  29.313  33.786  1.00  0.00    -0.206 F 
ATOM     59  C   UNL A   1      46.383  27.518  35.142  1.00  0.00     0.040 A 
ATOM     60  C   UNL A   1      44.781  25.844  35.801  1.00  0.00     0.040 A 
ATOM     61  F   UNL A   1      42.558  25.989  35.066  1.00  0.00    -0.206 F 
ATOM     62  C   UNL A   1      46.081  26.346  35.833  1.00  0.00     0.006 A 
ENDBRANCH  38  55
ENDBRANCH  12  13
ENDBRANCH   5   7
ENDBRANCH   2   3
ENDBRANCH   1   2
BRANCH   1  63
ATOM     63  C   UNL A   1      31.399  30.080  25.536  1.00  0.00     0.117 C 
BRANCH  63  64
ATOM     64  N   UNL A   1      32.608  29.873  24.757  1.00  0.00    -0.354 N 
ATOM     65  C   UNL A   1      32.919  28.866  23.883  1.00  0.00     0.242 C 
ATOM     66  H   UNL A   1      33.304  30.558  24.875  1.00  0.00     0.163 HD
ATOM     67  O   UNL A   1      33.899  29.032  23.155  1.00  0.00    -0.273 OA
BRANCH  65  68
ATOM     68  C   UNL A   1      32.051  27.586  23.857  1.00  0.00     0.177 C 
ATOM     69  C   UNL A   1      31.272  27.460  22.547  1.00  0.00     0.069 C 
ATOM     70  N   UNL A   1      32.861  26.362  23.898  1.00  0.00    -0.324 N 
ATOM     71  C   UNL A   1      32.177  26.641  21.642  1.00  0.00     0.136 C 
ATOM     72  C   UNL A   1      32.886  25.701  22.604  1.00  0.00     0.152 C 
BRANCH  70  73
ATOM     73  C   UNL A   1      33.524  25.990  25.045  1.00  0.00     0.247 C 
ATOM     74  O   UNL A   1      33.319  26.527  26.132  1.00  0.00    -0.270 OA
BRANCH  73  75
ATOM     75  C   UNL A   1      34.622  24.985  24.937  1.00  0.00     0.072 C 
ATOM     76  C   UNL A   1      34.746  23.895  25.710  1.00  0.00     0.018 C 
BRANCH  76  77
ATOM     77  C   UNL A   1      35.809  22.893  25.529  1.00  0.00     0.029 A 
ATOM     78  C   UNL A   1      37.133  23.218  25.844  1.00  0.00     0.131 A 
ATOM     79  C   UNL A   1      35.540  21.581  25.099  1.00  0.00     0.051 A 
ATOM     80  F   UNL A   1      37.441  24.452  26.272  1.00  0.00    -0.206 F 
ATOM     81  C   UNL A   1      38.159  22.277  25.753  1.00  0.00     0.040 A 
ATOM     82  C   UNL A   1      36.568  20.634  25.001  1.00  0.00     0.021 A 
ATOM     83  Cl  UNL A   1      33.945  21.057  24.687  1.00  0.00    -0.084 Cl
ATOM     84  C   UNL A   1      37.876  20.980  25.332  1.00  0.00     0.005 A 
ENDBRANCH  76  77
ENDBRANCH  73  75
ENDBRANCH  70  73
BRANCH  71  85
ATOM     85  O   UNL A   1      31.403  25.959  20.667  1.00  0.00    -0.391 OA
ATOM     86  H   UNL A   1      31.855  25.140  20.410  1.00  0.00     0.211 HD
ENDBRANCH  71  85
ENDBRANCH  65  68
ENDBRANCH  63  64
ENDBRANCH   1  63
TORSDOF 14
ENDMDL
MODEL 2
REMARK VINA RESULT:     -11.9      4.533      9.430
REMARK SMILES O=C(NCCCNC(=O)[C@H]1C[C@H](O)CN1C(=O)/C=C/c1c(F)cccc1Cl)c1ccc(-c2c3nc(c(-c4c(F)cccc4F)c4ccc([nH]4)c(-c4c(F)cccc4F)c4nc(c(-c5c(F)cccc5F)c5ccc2[nH]5)C=C4)C=C3)cc1
REMARK SMILES IDX 5 1 4 2 3 3 1 4 2 5 28 7 29 8 81 9 30 10 80 11 31 12 32 13
REMARK SMILES IDX 33 14 74 15 34 16 79 17 73 18 75 19 35 20 78 21 72 22 71 23
REMARK SMILES IDX 36 25 62 26 45 27 61 28 46 29 49 30 60 31 76 32 47 33 48 34
REMARK SMILES IDX 59 36 77 37 50 38 37 39 38 40 43 41 39 42 40 43 42 44 44 45
REMARK SMILES IDX 41 46 63 47 64 48 69 49 65 50 66 51 68 52 70 53 67 54 51 55
REMARK SMILES IDX 52 56 57 57 53 58 54 59 56 60 58 61 55 62 6 63 7 64 8 65
REMARK SMILES IDX 9 67 10 68 11 69 15 70 12 71 14 72 16 73 17 74 18 75 19 76
REMARK SMILES IDX 20 77 21 78 26 79 22 80 23 81 25 82 27 83 24 84 13 85
REMARK H PARENT 3 6 75 24 49 35 7 66 13 86
REMARK Flexibility Score: inf
ROOT
ATOM      1  C   UNL A   1      37.863  19.953  24.833  1.00  0.00     0.042 C 
ENDROOT
BRANCH   1   2
ATOM      2  C   UNL A   1      38.848  20.110  25.975  1.00  0.00     0.118 C 
BRANCH   2   3
ATOM      3  N   UNL A   1      40.027  19.266  25.837  1.00  0.00    -0.352 N 
ATOM      4  O   UNL A   1      42.212  18.740  25.674  1.00  0.00    -0.269 OA
ATOM      5  C   UNL A   1      41.359  19.564  25.996  1.00  0.00     0.251 C 
ATOM      6  H   UNL A   1      39.841  18.333  25.589  1.00  0.00     0.163 HD
BRANCH   5   7
ATOM      7  C   UNL A   1      41.775  20.878  26.533  1.00  0.00     0.039 A 
ATOM      8  C   UNL A   1      42.048  21.945  25.676  1.00  0.00     0.014 A 
ATOM      9  C   UNL A   1      41.854  21.060  27.918  1.00  0.00     0.014 A 
ATOM     10  C   UNL A   1      42.558  23.131  26.182  1.00  0.00     0.010 A 
ATOM     11  C   UNL A   1      42.251  22.298  28.435  1.00  0.00     0.010 A 
ATOM     12  C   UNL A   1      42.622  23.336  27.568  1.00  0.00    -0.014 A 
BRANCH  12  13
ATOM     13  C   UNL A   1      42.935  24.695  28.075  1.00  0.00     0.031 A 
ATOM     14  C   UNL A   1      41.856  25.704  28.340  1.00  0.00     0.074 A 
ATOM     15  C   UNL A   1      44.229  25.001  28.291  1.00  0.00     0.049 A 
ATOM     16  N   UNL A   1      41.978  26.940  28.753  1.00  0.00    -0.248 NA
ATOM     17  C   UNL A   1      40.467  25.282  28.109  1.00  0.00     0.031 C 
ATOM     18  C   UNL A   1      45.360  24.098  28.048  1.00  0.00     0.029 A 
ATOM     19  N   UNL A   1      44.820  26.144  28.765  1.00  0.00    -0.354 N 
ATOM     20  C   UNL A   1      40.688  27.452  28.807  1.00  0.00     0.074 A 
ATOM     21  C   UNL A   1      39.796  26.396  28.377  1.00  0.00     0.031 C 
ATOM     22  C   UNL A   1      46.499  24.708  28.400  1.00  0.00     0.029 A 
ATOM     23  C   UNL A   1      46.191  26.068  28.817  1.00  0.00     0.049 A 
ATOM     24  H   UNL A   1      44.311  26.940  29.039  1.00  0.00     0.167 HD
ATOM     25  C   UNL A   1      40.296  28.694  29.183  1.00  0.00     0.037 A 
ATOM     26  C   UNL A   1      47.106  27.003  29.123  1.00  0.00     0.037 A 
ATOM     27  C   UNL A   1      41.196  29.724  29.635  1.00  0.00     0.049 A 
ATOM     28  C   UNL A   1      46.637  28.377  29.498  1.00  0.00     0.074 A 
ATOM     29  C   UNL A   1      40.886  30.984  30.117  1.00  0.00     0.029 A 
ATOM     30  N   UNL A   1      42.579  29.620  29.645  1.00  0.00    -0.354 N 
ATOM     31  N   UNL A   1      45.410  28.824  29.612  1.00  0.00    -0.248 NA
ATOM     32  C   UNL A   1      47.674  29.379  29.772  1.00  0.00     0.031 C 
ATOM     33  C   UNL A   1      42.083  31.664  30.363  1.00  0.00     0.029 A 
ATOM     34  C   UNL A   1      43.138  30.811  30.080  1.00  0.00     0.049 A 
ATOM     35  H   UNL A   1      43.088  28.820  29.383  1.00  0.00     0.167 HD
ATOM     36  C   UNL A   1      45.527  30.157  29.976  1.00  0.00     0.074 A 
ATOM     37  C   UNL A   1      46.944  30.436  30.094  1.00  0.00     0.031 C 
ATOM     38  C   UNL A   1      44.550  31.071  30.183  1.00  0.00     0.037 A 
BRANCH  25  39
ATOM     39  C   UNL A   1      38.837  29.032  29.109  1.00  0.00     0.057 A 
ATOM     40  C   UNL A   1      37.995  28.944  30.223  1.00  0.00     0.134 A 
ATOM     41  C   UNL A   1      38.293  29.555  27.927  1.00  0.00     0.134 A 
ATOM     42  F   UNL A   1      38.451  28.447  31.382  1.00  0.00    -0.206 F 
ATOM     43  C   UNL A   1      36.664  29.363  30.166  1.00  0.00     0.040 A 
ATOM     44  C   UNL A   1      36.970  29.996  27.863  1.00  0.00     0.040 A 
ATOM     45  F   UNL A   1      39.048  29.674  26.825  1.00  0.00    -0.206 F 
ATOM     46  C   UNL A   1      36.151  29.902  28.986  1.00  0.00     0.006 A 
ENDBRANCH  25  39
BRANCH  26  47
ATOM     47  C   UNL A   1      48.553  26.687  29.024  1.00  0.00     0.057 A 
ATOM     48  C   UNL A   1      49.259  26.158  30.110  1.00  0.00     0.134 A 
ATOM     49  C   UNL A   1      49.267  26.914  27.840  1.00  0.00     0.134 A 
ATOM     50  F   UNL A   1      48.635  25.934  31.276  1.00  0.00    -0.206 F 
ATOM     51  C   UNL A   1      50.626  25.889  30.030  1.00  0.00     0.040 A 
ATOM     52  C   UNL A   1      50.625  26.620  27.735  1.00  0.00     0.040 A 
ATOM     53  F   UNL A   1      48.646  27.410  26.759  1.00  0.00    -0.206 F 
ATOM     54  C   UNL A   1      51.312  26.116  28.838  1.00  0.00     0.006 A 
ENDBRANCH  26  47
BRANCH  38  55
ATOM     55  C   UNL A   1      44.985  32.454  30.559  1.00  0.00     0.057 A 
ATOM     56  C   UNL A   1      45.168  33.452  29.593  1.00  0.00     0.134 A 
ATOM     57  C   UNL A   1      45.190  32.803  31.900  1.00  0.00     0.134 A 
ATOM     58  F   UNL A   1      45.005  33.174  28.291  1.00  0.00    -0.206 F 
ATOM     59  C   UNL A   1      45.558  34.744  29.946  1.00  0.00     0.040 A 
ATOM     60  C   UNL A   1      45.554  34.098  32.267  1.00  0.00     0.040 A 
ATOM     61  F   UNL A   1      45.026  31.894  32.873  1.00  0.00    -0.206 F 
ATOM     62  C   UNL A   1      45.743  35.071  31.288  1.00  0.00     0.006 A 
ENDBRANCH  38  55
ENDBRANCH  12  13
ENDBRANCH   5   7
ENDBRANCH   2   3
ENDBRANCH   1   2
BRANCH   1  63
ATOM     63  C   UNL A   1      37.390  21.257  24.223  1.00  0.00     0.117 C 
BRANCH  63  64
ATOM     64  N   UNL A   1      36.877  22.218  25.183  1.00  0.00    -0.354 N 
ATOM     65  C   UNL A   1      35.587  22.618  25.410  1.00  0.00     0.242 C 
ATOM     66  H   UNL A   1      37.556  22.643  25.754  1.00  0.00     0.163 HD
ATOM     67  O   UNL A   1      35.367  23.258  26.439  1.00  0.00    -0.273 OA
BRANCH  65  68
ATOM     68  C   UNL A   1      34.489  22.265  24.380  1.00  0.00     0.177 C 
ATOM     69  C   UNL A   1      33.754  20.978  24.757  1.00  0.00     0.069 C 
ATOM     70  N   UNL A   1      33.421  23.273  24.335  1.00  0.00    -0.324 N 
ATOM     71  C   UNL A   1      32.568  21.444  25.584  1.00  0.00     0.136 C 
ATOM     72  C   UNL A   1      32.206  22.784  24.966  1.00  0.00     0.152 C 
BRANCH  70  73
ATOM     73  C   UNL A   1      33.647  24.519  23.795  1.00  0.00     0.247 C 
ATOM     74  O   UNL A   1      34.345  24.692  22.799  1.00  0.00    -0.270 OA
BRANCH  73  75
ATOM     75  C   UNL A   1      33.125  25.713  24.522  1.00  0.00     0.072 C 
ATOM     76  C   UNL A   1      33.543  26.973  24.331  1.00  0.00     0.018 C 
BRANCH  76  77
ATOM     77  C   UNL A   1      32.958  28.133  25.023  1.00  0.00     0.029 A 
ATOM     78  C   UNL A   1      33.545  28.611  26.200  1.00  0.00     0.131 A 
ATOM     79  C   UNL A   1      31.848  28.830  24.514  1.00  0.00     0.051 A 
ATOM     80  F   UNL A   1      34.615  27.990  26.720  1.00  0.00    -0.206 F 
ATOM     81  C   UNL A   1      33.062  29.748  26.849  1.00  0.00     0.040 A 
ATOM     82  C   UNL A   1      31.356  29.970  25.164  1.00  0.00     0.021 A 
ATOM     83  Cl  UNL A   1      31.040  28.343  23.065  1.00  0.00    -0.084 Cl
ATOM     84  C   UNL A   1      31.966  30.432  26.329  1.00  0.00     0.005 A 
ENDBRANCH  76  77
ENDBRANCH  73  75
ENDBRANCH  70  73
BRANCH  71  85
ATOM     85  O   UNL A   1      31.517  20.494  25.507  1.00  0.00    -0.391 OA
ATOM     86  H   UNL A   1      31.537  20.058  24.640  1.00  0.00     0.211 HD
ENDBRANCH  71  85
ENDBRANCH  65  68
ENDBRANCH  63  64
ENDBRANCH   1  63
TORSDOF 14
ENDMDL
MODEL 3
REMARK VINA RESULT:     -11.9      4.614      9.463
REMARK SMILES O=C(NCCCNC(=O)[C@H]1C[C@H](O)CN1C(=O)/C=C/c1c(F)cccc1Cl)c1ccc(-c2c3nc(c(-c4c(F)cccc4F)c4ccc([nH]4)c(-c4c(F)cccc4F)c4nc(c(-c5c(F)cccc5F)c5ccc2[nH]5)C=C4)C=C3)cc1
REMARK SMILES IDX 5 1 4 2 3 3 1 4 2 5 28 7 29 8 81 9 30 10 80 11 31 12 32 13
REMARK SMILES IDX 33 14 74 15 34 16 79 17 73 18 75 19 35 20 78 21 72 22 71 23
REMARK SMILES IDX 36 25 62 26 45 27 61 28 46 29 49 30 60 31 76 32 47 33 48 34
REMARK SMILES IDX 59 36 77 37 50 38 37 39 38 40 43 41 39 42 40 43 42 44 44 45
REMARK SMILES IDX 41 46 63 47 64 48 69 49 65 50 66 51 68 52 70 53 67 54 51 55
REMARK SMILES IDX 52 56 57 57 53 58 54 59 56 60 58 61 55 62 6 63 7 64 8 65
REMARK SMILES IDX 9 67 10 68 11 69 15 70 12 71 14 72 16 73 17 74 18 75 19 76
REMARK SMILES IDX 20 77 21 78 26 79 22 80 23 81 25 82 27 83 24 84 13 85
REMARK H PARENT 3 6 75 24 49 35 7 66 13 86
REMARK Flexibility Score: inf
ROOT
ATOM      1  C   UNL A   1      38.123  19.943  24.946  1.00  0.00     0.042 C 
ENDROOT
BRANCH   1   2
ATOM      2  C   UNL A   1      39.084  20.000  26.118  1.00  0.00     0.118 C 
BRANCH   2   3
ATOM      3  N   UNL A   1      40.299  19.225  25.903  1.00  0.00    -0.352 N 
ATOM      4  O   UNL A   1      42.497  18.824  25.615  1.00  0.00    -0.269 OA
ATOM      5  C   UNL A   1      41.619  19.594  25.996  1.00  0.00     0.251 C 
ATOM      6  H   UNL A   1      40.150  18.286  25.650  1.00  0.00     0.163 HD
BRANCH   5   7
ATOM      7  C   UNL A   1      41.991  20.922  26.532  1.00  0.00     0.039 A 
ATOM      8  C   UNL A   1      42.258  21.989  25.674  1.00  0.00     0.014 A 
ATOM      9  C   UNL A   1      42.032  21.116  27.917  1.00  0.00     0.014 A 
ATOM     10  C   UNL A   1      42.728  23.190  26.183  1.00  0.00     0.010 A 
ATOM     11  C   UNL A   1      42.388  22.366  28.433  1.00  0.00     0.010 A 
ATOM     12  C   UNL A   1      42.753  23.407  27.568  1.00  0.00    -0.014 A 
BRANCH  12  13
ATOM     13  C   UNL A   1      43.022  24.776  28.071  1.00  0.00     0.031 A 
ATOM     14  C   UNL A   1      41.913  25.759  28.309  1.00  0.00     0.074 A 
ATOM     15  C   UNL A   1      44.304  25.116  28.310  1.00  0.00     0.049 A 
ATOM     16  N   UNL A   1      41.995  27.000  28.715  1.00  0.00    -0.248 NA
ATOM     17  C   UNL A   1      40.539  25.300  28.054  1.00  0.00     0.031 C 
ATOM     18  C   UNL A   1      45.462  24.242  28.095  1.00  0.00     0.029 A 
ATOM     19  N   UNL A   1      44.855  26.278  28.787  1.00  0.00    -0.354 N 
ATOM     20  C   UNL A   1      40.692  27.480  28.742  1.00  0.00     0.074 A 
ATOM     21  C   UNL A   1      39.836  26.399  28.302  1.00  0.00     0.031 C 
ATOM     22  C   UNL A   1      46.578  24.883  28.465  1.00  0.00     0.029 A 
ATOM     23  C   UNL A   1      46.227  26.237  28.866  1.00  0.00     0.049 A 
ATOM     24  H   UNL A   1      44.322  27.062  29.047  1.00  0.00     0.167 HD
ATOM     25  C   UNL A   1      40.261  28.713  29.101  1.00  0.00     0.037 A 
ATOM     26  C   UNL A   1      47.112  27.198  29.183  1.00  0.00     0.037 A 
ATOM     27  C   UNL A   1      41.126  29.769  29.563  1.00  0.00     0.049 A 
ATOM     28  C   UNL A   1      46.601  28.561  29.540  1.00  0.00     0.074 A 
ATOM     29  C   UNL A   1      40.774  31.024  30.031  1.00  0.00     0.029 A 
ATOM     30  N   UNL A   1      42.510  29.701  29.600  1.00  0.00    -0.354 N 
ATOM     31  N   UNL A   1      45.361  28.978  29.628  1.00  0.00    -0.248 NA
ATOM     32  C   UNL A   1      47.607  29.591  29.827  1.00  0.00     0.031 C 
ATOM     33  C   UNL A   1      41.948  31.736  30.295  1.00  0.00     0.029 A 
ATOM     34  C   UNL A   1      43.030  30.908  30.039  1.00  0.00     0.049 A 
ATOM     35  H   UNL A   1      43.045  28.912  29.354  1.00  0.00     0.167 HD
ATOM     36  C   UNL A   1      45.437  30.315  29.984  1.00  0.00     0.074 A 
ATOM     37  C   UNL A   1      46.844  30.631  30.128  1.00  0.00     0.031 C 
ATOM     38  C   UNL A   1      44.433  31.205  30.166  1.00  0.00     0.037 A 
BRANCH  25  39
ATOM     39  C   UNL A   1      38.795  29.013  28.997  1.00  0.00     0.057 A 
ATOM     40  C   UNL A   1      37.935  28.910  30.095  1.00  0.00     0.134 A 
ATOM     41  C   UNL A   1      38.261  29.517  27.802  1.00  0.00     0.134 A 
ATOM     42  F   UNL A   1      38.380  28.430  31.265  1.00  0.00    -0.206 F 
ATOM     43  C   UNL A   1      36.594  29.294  30.009  1.00  0.00     0.040 A 
ATOM     44  C   UNL A   1      36.929  29.923  27.710  1.00  0.00     0.040 A 
ATOM     45  F   UNL A   1      39.035  29.650  26.714  1.00  0.00    -0.206 F 
ATOM     46  C   UNL A   1      36.091  29.813  28.817  1.00  0.00     0.006 A 
ENDBRANCH  25  39
BRANCH  26  47
ATOM     47  C   UNL A   1      48.568  26.918  29.115  1.00  0.00     0.057 A 
ATOM     48  C   UNL A   1      49.298  27.138  27.943  1.00  0.00     0.134 A 
ATOM     49  C   UNL A   1      49.263  26.414  30.222  1.00  0.00     0.134 A 
ATOM     50  F   UNL A   1      48.686  27.604  26.844  1.00  0.00    -0.206 F 
ATOM     51  C   UNL A   1      50.661  26.846  27.866  1.00  0.00     0.040 A 
ATOM     52  C   UNL A   1      50.630  26.147  30.171  1.00  0.00     0.040 A 
ATOM     53  F   UNL A   1      48.622  26.190  31.380  1.00  0.00    -0.206 F 
ATOM     54  C   UNL A   1      51.332  26.353  28.985  1.00  0.00     0.006 A 
ENDBRANCH  26  47
BRANCH  38  55
ATOM     55  C   UNL A   1      44.825  32.602  30.542  1.00  0.00     0.057 A 
ATOM     56  C   UNL A   1      45.020  32.972  31.879  1.00  0.00     0.134 A 
ATOM     57  C   UNL A   1      45.042  33.575  29.559  1.00  0.00     0.134 A 
ATOM     58  F   UNL A   1      44.810  32.089  32.866  1.00  0.00    -0.206 F 
ATOM     59  C   UNL A   1      45.400  34.268  32.226  1.00  0.00     0.040 A 
ATOM     60  C   UNL A   1      45.448  34.867  29.893  1.00  0.00     0.040 A 
ATOM     61  F   UNL A   1      44.876  33.281  28.260  1.00  0.00    -0.206 F 
ATOM     62  C   UNL A   1      45.624  35.217  31.230  1.00  0.00     0.006 A 
ENDBRANCH  38  55
ENDBRANCH  12  13
ENDBRANCH   5   7
ENDBRANCH   2   3
ENDBRANCH   1   2
BRANCH   1  63
ATOM     63  C   UNL A   1      37.711  21.295  24.401  1.00  0.00     0.117 C 
BRANCH  63  64
ATOM     64  N   UNL A   1      37.055  22.158  25.367  1.00  0.00    -0.354 N 
ATOM     65  C   UNL A   1      35.720  22.411  25.543  1.00  0.00     0.242 C 
ATOM     66  H   UNL A   1      37.657  22.629  25.986  1.00  0.00     0.163 HD
ATOM     67  O   UNL A   1      35.386  22.983  26.582  1.00  0.00    -0.273 OA
BRANCH  65  68
ATOM     68  C   UNL A   1      34.714  21.986  24.449  1.00  0.00     0.177 C 
ATOM     69  C   UNL A   1      33.965  20.710  24.836  1.00  0.00     0.069 C 
ATOM     70  N   UNL A   1      33.643  22.973  24.262  1.00  0.00    -0.324 N 
ATOM     71  C   UNL A   1      32.710  21.202  25.537  1.00  0.00     0.136 C 
ATOM     72  C   UNL A   1      32.386  22.501  24.818  1.00  0.00     0.152 C 
BRANCH  70  73
ATOM     73  C   UNL A   1      33.898  24.191  23.674  1.00  0.00     0.247 C 
ATOM     74  O   UNL A   1      34.336  24.295  22.530  1.00  0.00    -0.270 OA
BRANCH  73  75
ATOM     75  C   UNL A   1      33.755  25.424  24.502  1.00  0.00     0.072 C 
ATOM     76  C   UNL A   1      32.717  26.272  24.447  1.00  0.00     0.018 C 
BRANCH  76  77
ATOM     77  C   UNL A   1      32.582  27.444  25.328  1.00  0.00     0.029 A 
ATOM     78  C   UNL A   1      32.002  27.301  26.593  1.00  0.00     0.131 A 
ATOM     79  C   UNL A   1      33.071  28.713  24.969  1.00  0.00     0.051 A 
ATOM     80  F   UNL A   1      31.533  26.108  26.989  1.00  0.00    -0.206 F 
ATOM     81  C   UNL A   1      31.917  28.371  27.484  1.00  0.00     0.040 A 
ATOM     82  C   UNL A   1      32.984  29.793  25.859  1.00  0.00     0.021 A 
ATOM     83  Cl  UNL A   1      33.814  29.014  23.438  1.00  0.00    -0.084 Cl
ATOM     84  C   UNL A   1      32.411  29.621  27.118  1.00  0.00     0.005 A 
ENDBRANCH  76  77
ENDBRANCH  73  75
ENDBRANCH  70  73
BRANCH  71  85
ATOM     85  O   UNL A   1      31.679  20.233  25.427  1.00  0.00    -0.391 OA
ATOM     86  H   UNL A   1      31.387  19.969  26.315  1.00  0.00     0.211 HD
ENDBRANCH  71  85
ENDBRANCH  65  68
ENDBRANCH  63  64
ENDBRANCH   1  63
TORSDOF 14
ENDMDL
