MODEL 1
REMARK VINA RESULT:     -10.6      0.000      0.000
REMARK SMILES CN(C)C(=O)CSc1ccc(C(=O)NCCCNC(=O)c2ccc(-c3c4nc(c(-c5c(F)cccc5F)c5ccc([nH]5)c(-c5c(F)cccc5F)c5nc(c(-c6c(F)cccc6F)c6ccc3[nH]6)C=C5)C=C4)cc2)cc1
REMARK SMILES IDX 15 1 14 2 12 3 13 4 11 6 8 7 9 8 76 9 10 10 75 11 7 12 6 13
REMARK SMILES IDX 4 14 1 15 2 16 3 17 5 18 16 19 17 20 18 21 19 22 20 24 21 25
REMARK SMILES IDX 22 26 74 27 23 28 73 29 24 30 25 31 26 32 67 33 27 34 72 35
REMARK SMILES IDX 66 36 68 37 28 38 71 39 65 40 64 41 29 43 55 44 38 45 54 46
REMARK SMILES IDX 39 47 42 48 53 49 69 50 40 51 41 52 52 54 70 55 43 56 30 57
REMARK SMILES IDX 31 58 36 59 32 60 33 61 35 62 37 63 34 64 56 65 57 66 62 67
REMARK SMILES IDX 58 68 59 69 61 70 63 71 60 72 44 73 45 74 50 75 46 76 47 77
REMARK SMILES IDX 49 78 51 79 48 80
REMARK H PARENT 14 5 18 23 68 42 42 53
REMARK Flexibility Score: inf
ROOT
ATOM      1  C   UNL A   1      31.761  30.567  26.877  1.00  0.00     0.118 C 
ENDROOT
BRANCH   1   2
ATOM      2  N   UNL A   1      33.013  30.239  27.536  1.00  0.00    -0.352 N 
ATOM      3  C   UNL A   1      34.003  29.341  27.226  1.00  0.00     0.251 C 
ATOM      4  O   UNL A   1      35.025  29.353  27.912  1.00  0.00    -0.269 OA
ATOM      5  H   UNL A   1      33.183  30.756  28.356  1.00  0.00     0.163 HD
BRANCH   3   6
ATOM      6  C   UNL A   1      33.909  28.387  26.090  1.00  0.00     0.039 A 
ATOM      7  C   UNL A   1      33.628  26.468  24.040  1.00  0.00     0.008 A 
ATOM      8  C   UNL A   1      33.470  26.098  25.376  1.00  0.00     0.016 A 
ATOM      9  C   UNL A   1      33.886  27.808  23.734  1.00  0.00     0.016 A 
ATOM     10  C   UNL A   1      33.614  27.049  26.392  1.00  0.00     0.015 A 
ATOM     11  C   UNL A   1      34.011  28.763  24.750  1.00  0.00     0.015 A 
BRANCH   7  12
ATOM     12  S   UNL A   1      33.428  25.325  22.689  1.00  0.00    -0.116 SA
BRANCH  12  13
ATOM     13  C   UNL A   1      31.616  25.136  22.612  1.00  0.00     0.175 C 
BRANCH  13  14
ATOM     14  C   UNL A   1      30.875  26.463  22.522  1.00  0.00     0.232 C 
ATOM     15  C   UNL A   1      29.327  28.112  23.423  1.00  0.00     0.146 C 
ATOM     16  N   UNL A   1      30.035  26.849  23.560  1.00  0.00    -0.348 N 
ATOM     17  C   UNL A   1      29.823  26.110  24.794  1.00  0.00     0.146 C 
ATOM     18  O   UNL A   1      30.992  27.151  21.502  1.00  0.00    -0.274 OA
ENDBRANCH  13  14
ENDBRANCH  12  13
ENDBRANCH   7  12
ENDBRANCH   3   6
ENDBRANCH   1   2
BRANCH   1  19
ATOM     19  C   UNL A   1      31.505  32.075  26.876  1.00  0.00     0.042 C 
BRANCH  19  20
ATOM     20  C   UNL A   1      32.775  32.923  26.899  1.00  0.00     0.118 C 
BRANCH  20  21
ATOM     21  N   UNL A   1      32.582  34.183  27.598  1.00  0.00    -0.352 N 
ATOM     22  C   UNL A   1      33.155  34.661  28.749  1.00  0.00     0.251 C 
ATOM     23  H   UNL A   1      31.934  34.792  27.176  1.00  0.00     0.163 HD
ATOM     24  O   UNL A   1      32.687  35.673  29.266  1.00  0.00    -0.269 OA
BRANCH  22  25
ATOM     25  C   UNL A   1      34.314  33.990  29.384  1.00  0.00     0.039 A 
ATOM     26  C   UNL A   1      35.598  34.365  28.971  1.00  0.00     0.014 A 
ATOM     27  C   UNL A   1      34.163  32.941  30.296  1.00  0.00     0.014 A 
ATOM     28  C   UNL A   1      36.721  33.708  29.480  1.00  0.00     0.010 A 
ATOM     29  C   UNL A   1      35.287  32.324  30.849  1.00  0.00     0.010 A 
ATOM     30  C   UNL A   1      36.576  32.687  30.430  1.00  0.00    -0.014 A 
BRANCH  30  31
ATOM     31  C   UNL A   1      37.768  31.970  30.954  1.00  0.00     0.031 A 
ATOM     32  C   UNL A   1      38.290  32.269  32.334  1.00  0.00     0.074 A 
ATOM     33  C   UNL A   1      38.392  31.058  30.184  1.00  0.00     0.049 A 
ATOM     34  N   UNL A   1      39.313  31.747  32.962  1.00  0.00    -0.248 NA
ATOM     35  C   UNL A   1      37.582  33.305  33.099  1.00  0.00     0.031 C 
ATOM     36  C   UNL A   1      38.014  30.707  28.815  1.00  0.00     0.029 A 
ATOM     37  N   UNL A   1      39.479  30.262  30.445  1.00  0.00    -0.354 N 
ATOM     38  C   UNL A   1      39.381  32.401  34.185  1.00  0.00     0.074 A 
ATOM     39  C   UNL A   1      38.323  33.388  34.195  1.00  0.00     0.031 C 
ATOM     40  C   UNL A   1      38.839  29.747  28.365  1.00  0.00     0.029 A 
ATOM     41  C   UNL A   1      39.815  29.433  29.403  1.00  0.00     0.049 A 
ATOM     42  H   UNL A   1      39.971  30.284  31.297  1.00  0.00     0.167 HD
ATOM     43  C   UNL A   1      40.234  32.188  35.218  1.00  0.00     0.037 A 
ATOM     44  C   UNL A   1      40.793  28.513  29.303  1.00  0.00     0.037 A 
ATOM     45  C   UNL A   1      41.269  31.187  35.223  1.00  0.00     0.049 A 
ATOM     46  C   UNL A   1      41.701  28.267  30.475  1.00  0.00     0.074 A 
ATOM     47  C   UNL A   1      42.156  30.866  36.237  1.00  0.00     0.029 A 
ATOM     48  N   UNL A   1      41.551  30.340  34.164  1.00  0.00    -0.354 N 
ATOM     49  N   UNL A   1      41.717  28.856  31.645  1.00  0.00    -0.248 NA
ATOM     50  C   UNL A   1      42.715  27.215  30.315  1.00  0.00     0.031 C 
ATOM     51  C   UNL A   1      42.991  29.840  35.781  1.00  0.00     0.029 A 
ATOM     52  C   UNL A   1      42.600  29.498  34.497  1.00  0.00     0.049 A 
ATOM     53  H   UNL A   1      41.077  30.336  33.301  1.00  0.00     0.167 HD
ATOM     54  C   UNL A   1      42.720  28.229  32.372  1.00  0.00     0.074 A 
ATOM     55  C   UNL A   1      43.282  27.205  31.514  1.00  0.00     0.031 C 
ATOM     56  C   UNL A   1      43.139  28.478  33.637  1.00  0.00     0.037 A 
BRANCH  43  57
ATOM     57  C   UNL A   1      40.075  33.055  36.431  1.00  0.00     0.057 A 
ATOM     58  C   UNL A   1      40.846  34.210  36.617  1.00  0.00     0.134 A 
ATOM     59  C   UNL A   1      39.125  32.746  37.414  1.00  0.00     0.134 A 
ATOM     60  F   UNL A   1      41.782  34.554  35.720  1.00  0.00    -0.206 F 
ATOM     61  C   UNL A   1      40.696  35.013  37.749  1.00  0.00     0.040 A 
ATOM     62  C   UNL A   1      38.950  33.555  38.538  1.00  0.00     0.040 A 
ATOM     63  F   UNL A   1      38.349  31.658  37.295  1.00  0.00    -0.206 F 
ATOM     64  C   UNL A   1      39.742  34.689  38.711  1.00  0.00     0.006 A 
ENDBRANCH  43  57
BRANCH  44  65
ATOM     65  C   UNL A   1      40.936  27.721  28.057  1.00  0.00     0.057 A 
ATOM     66  C   UNL A   1      41.717  28.189  26.993  1.00  0.00     0.134 A 
ATOM     67  C   UNL A   1      40.297  26.487  27.898  1.00  0.00     0.134 A 
ATOM     68  F   UNL A   1      42.338  29.373  27.082  1.00  0.00    -0.206 F 
ATOM     69  C   UNL A   1      41.844  27.465  25.807  1.00  0.00     0.040 A 
ATOM     70  C   UNL A   1      40.431  25.742  26.724  1.00  0.00     0.040 A 
ATOM     71  F   UNL A   1      39.542  25.983  28.884  1.00  0.00    -0.206 F 
ATOM     72  C   UNL A   1      41.202  26.235  25.673  1.00  0.00     0.006 A 
ENDBRANCH  44  65
BRANCH  56  73
ATOM     73  C   UNL A   1      44.229  27.601  34.178  1.00  0.00     0.057 A 
ATOM     74  C   UNL A   1      45.579  27.963  34.093  1.00  0.00     0.134 A 
ATOM     75  C   UNL A   1      43.919  26.388  34.806  1.00  0.00     0.134 A 
ATOM     76  F   UNL A   1      45.940  29.105  33.490  1.00  0.00    -0.206 F 
ATOM     77  C   UNL A   1      46.586  27.134  34.591  1.00  0.00     0.040 A 
ATOM     78  C   UNL A   1      44.916  25.563  35.328  1.00  0.00     0.040 A 
ATOM     79  F   UNL A   1      42.644  25.989  34.926  1.00  0.00    -0.206 F 
ATOM     80  C   UNL A   1      46.255  25.933  35.214  1.00  0.00     0.006 A 
ENDBRANCH  56  73
ENDBRANCH  30  31
ENDBRANCH  22  25
ENDBRANCH  20  21
ENDBRANCH  19  20
ENDBRANCH   1  19
TORSDOF 13
ENDMDL
MODEL 2
REMARK VINA RESULT:     -10.5      4.611      9.278
REMARK SMILES CN(C)C(=O)CSc1ccc(C(=O)NCCCNC(=O)c2ccc(-c3c4nc(c(-c5c(F)cccc5F)c5ccc([nH]5)c(-c5c(F)cccc5F)c5nc(c(-c6c(F)cccc6F)c6ccc3[nH]6)C=C5)C=C4)cc2)cc1
REMARK SMILES IDX 15 1 14 2 12 3 13 4 11 6 8 7 9 8 76 9 10 10 75 11 7 12 6 13
REMARK SMILES IDX 4 14 1 15 2 16 3 17 5 18 16 19 17 20 18 21 19 22 20 24 21 25
REMARK SMILES IDX 22 26 74 27 23 28 73 29 24 30 25 31 26 32 67 33 27 34 72 35
REMARK SMILES IDX 66 36 68 37 28 38 71 39 65 40 64 41 29 43 55 44 38 45 54 46
REMARK SMILES IDX 39 47 42 48 53 49 69 50 40 51 41 52 52 54 70 55 43 56 30 57
REMARK SMILES IDX 31 58 36 59 32 60 33 61 35 62 37 63 34 64 56 65 57 66 62 67
REMARK SMILES IDX 58 68 59 69 61 70 63 71 60 72 44 73 45 74 50 75 46 76 47 77
REMARK SMILES IDX 49 78 51 79 48 80
REMARK H PARENT 14 5 18 23 68 42 42 53
REMARK Flexibility Score: inf
ROOT
ATOM      1  C   UNL A   1      37.370  20.963  24.543  1.00  0.00     0.118 C 
ENDROOT
BRANCH   1   2
ATOM      2  N   UNL A   1      37.922  22.164  25.144  1.00  0.00    -0.352 N 
ATOM      3  C   UNL A   1      37.329  23.308  25.614  1.00  0.00     0.251 C 
ATOM      4  O   UNL A   1      38.043  24.133  26.184  1.00  0.00    -0.269 OA
ATOM      5  H   UNL A   1      38.903  22.157  25.229  1.00  0.00     0.163 HD
BRANCH   3   6
ATOM      6  C   UNL A   1      35.872  23.577  25.493  1.00  0.00     0.039 A 
ATOM      7  C   UNL A   1      33.095  24.073  25.446  1.00  0.00     0.008 A 
ATOM      8  C   UNL A   1      33.672  23.409  26.528  1.00  0.00     0.016 A 
ATOM      9  C   UNL A   1      33.919  24.524  24.409  1.00  0.00     0.016 A 
ATOM     10  C   UNL A   1      35.048  23.158  26.549  1.00  0.00     0.015 A 
ATOM     11  C   UNL A   1      35.298  24.290  24.439  1.00  0.00     0.015 A 
BRANCH   7  12
ATOM     12  S   UNL A   1      31.357  24.458  25.360  1.00  0.00    -0.116 SA
BRANCH  12  13
ATOM     13  C   UNL A   1      31.282  26.078  26.196  1.00  0.00     0.175 C 
BRANCH  13  14
ATOM     14  C   UNL A   1      31.510  27.253  25.255  1.00  0.00     0.232 C 
ATOM     15  C   UNL A   1      32.834  29.140  24.472  1.00  0.00     0.146 C 
ATOM     16  N   UNL A   1      32.668  28.012  25.374  1.00  0.00    -0.348 N 
ATOM     17  C   UNL A   1      33.752  27.757  26.310  1.00  0.00     0.146 C 
ATOM     18  O   UNL A   1      30.634  27.545  24.433  1.00  0.00    -0.274 OA
ENDBRANCH  13  14
ENDBRANCH  12  13
ENDBRANCH   7  12
ENDBRANCH   3   6
ENDBRANCH   1   2
BRANCH   1  19
ATOM     19  C   UNL A   1      38.194  19.725  24.904  1.00  0.00     0.042 C 
BRANCH  19  20
ATOM     20  C   UNL A   1      39.170  19.941  26.059  1.00  0.00     0.118 C 
BRANCH  20  21
ATOM     21  N   UNL A   1      40.408  19.201  25.878  1.00  0.00    -0.352 N 
ATOM     22  C   UNL A   1      41.713  19.617  25.946  1.00  0.00     0.251 C 
ATOM     23  H   UNL A   1      40.290  18.246  25.672  1.00  0.00     0.163 HD
ATOM     24  O   UNL A   1      42.597  18.857  25.556  1.00  0.00    -0.269 OA
BRANCH  22  25
ATOM     25  C   UNL A   1      42.084  20.952  26.473  1.00  0.00     0.039 A 
ATOM     26  C   UNL A   1      42.054  21.144  27.859  1.00  0.00     0.014 A 
ATOM     27  C   UNL A   1      42.361  22.035  25.633  1.00  0.00     0.014 A 
ATOM     28  C   UNL A   1      42.317  22.404  28.400  1.00  0.00     0.010 A 
ATOM     29  C   UNL A   1      42.682  23.281  26.177  1.00  0.00     0.010 A 
ATOM     30  C   UNL A   1      42.641  23.483  27.565  1.00  0.00    -0.014 A 
BRANCH  30  31
ATOM     31  C   UNL A   1      42.897  24.830  28.137  1.00  0.00     0.031 A 
ATOM     32  C   UNL A   1      44.294  25.244  28.514  1.00  0.00     0.074 A 
ATOM     33  C   UNL A   1      41.870  25.679  28.333  1.00  0.00     0.049 A 
ATOM     34  N   UNL A   1      44.712  26.376  29.024  1.00  0.00    -0.248 NA
ATOM     35  C   UNL A   1      45.357  24.250  28.310  1.00  0.00     0.031 C 
ATOM     36  C   UNL A   1      40.465  25.386  28.051  1.00  0.00     0.029 A 
ATOM     37  N   UNL A   1      41.852  26.963  28.818  1.00  0.00    -0.354 N 
ATOM     38  C   UNL A   1      46.079  26.222  29.217  1.00  0.00     0.074 A 
ATOM     39  C   UNL A   1      46.414  24.875  28.809  1.00  0.00     0.031 C 
ATOM     40  C   UNL A   1      39.724  26.467  28.344  1.00  0.00     0.029 A 
ATOM     41  C   UNL A   1      40.597  27.519  28.853  1.00  0.00     0.049 A 
ATOM     42  H   UNL A   1      42.662  27.438  29.114  1.00  0.00     0.167 HD
ATOM     43  C   UNL A   1      46.981  27.126  29.673  1.00  0.00     0.037 A 
ATOM     44  C   UNL A   1      40.199  28.745  29.241  1.00  0.00     0.037 A 
ATOM     45  C   UNL A   1      46.656  28.477  30.051  1.00  0.00     0.049 A 
ATOM     46  C   UNL A   1      41.222  29.743  29.705  1.00  0.00     0.074 A 
ATOM     47  C   UNL A   1      47.505  29.481  30.486  1.00  0.00     0.029 A 
ATOM     48  N   UNL A   1      45.379  29.014  30.034  1.00  0.00    -0.354 N 
ATOM     49  N   UNL A   1      42.518  29.601  29.830  1.00  0.00    -0.248 NA
ATOM     50  C   UNL A   1      40.725  31.079  30.067  1.00  0.00     0.031 C 
ATOM     51  C   UNL A   1      46.738  30.619  30.754  1.00  0.00     0.029 A 
ATOM     52  C   UNL A   1      45.416  30.335  30.453  1.00  0.00     0.049 A 
ATOM     53  H   UNL A   1      44.566  28.531  29.765  1.00  0.00     0.167 HD
ATOM     54  C   UNL A   1      42.997  30.834  30.254  1.00  0.00     0.074 A 
ATOM     55  C   UNL A   1      41.852  31.715  30.355  1.00  0.00     0.031 C 
ATOM     56  C   UNL A   1      44.270  31.202  30.536  1.00  0.00     0.037 A 
BRANCH  43  57
ATOM     57  C   UNL A   1      48.409  26.680  29.781  1.00  0.00     0.057 A 
ATOM     58  C   UNL A   1      49.315  26.852  28.727  1.00  0.00     0.134 A 
ATOM     59  C   UNL A   1      48.890  26.092  30.958  1.00  0.00     0.134 A 
ATOM     60  F   UNL A   1      48.915  27.396  27.568  1.00  0.00    -0.206 F 
ATOM     61  C   UNL A   1      50.643  26.433  28.830  1.00  0.00     0.040 A 
ATOM     62  C   UNL A   1      50.221  25.691  31.081  1.00  0.00     0.040 A 
ATOM     63  F   UNL A   1      48.076  25.904  32.008  1.00  0.00    -0.206 F 
ATOM     64  C   UNL A   1      51.100  25.855  30.012  1.00  0.00     0.006 A 
ENDBRANCH  43  57
BRANCH  44  65
ATOM     65  C   UNL A   1      38.764  29.115  29.162  1.00  0.00     0.057 A 
ATOM     66  C   UNL A   1      38.208  29.588  27.968  1.00  0.00     0.134 A 
ATOM     67  C   UNL A   1      37.920  29.009  30.272  1.00  0.00     0.134 A 
ATOM     68  F   UNL A   1      38.974  29.727  26.876  1.00  0.00    -0.206 F 
ATOM     69  C   UNL A   1      36.866  29.959  27.883  1.00  0.00     0.040 A 
ATOM     70  C   UNL A   1      36.570  29.358  30.198  1.00  0.00     0.040 A 
ATOM     71  F   UNL A   1      38.393  28.555  31.442  1.00  0.00    -0.206 F 
ATOM     72  C   UNL A   1      36.042  29.840  29.001  1.00  0.00     0.006 A 
ENDBRANCH  44  65
BRANCH  56  73
ATOM     73  C   UNL A   1      44.492  32.629  30.939  1.00  0.00     0.057 A 
ATOM     74  C   UNL A   1      44.669  33.646  29.993  1.00  0.00     0.134 A 
ATOM     75  C   UNL A   1      44.513  32.990  32.292  1.00  0.00     0.134 A 
ATOM     76  F   UNL A   1      44.674  33.361  28.682  1.00  0.00    -0.206 F 
ATOM     77  C   UNL A   1      44.885  34.970  30.379  1.00  0.00     0.040 A 
ATOM     78  C   UNL A   1      44.706  34.314  32.690  1.00  0.00     0.040 A 
ATOM     79  F   UNL A   1      44.342  32.065  33.247  1.00  0.00    -0.206 F 
ATOM     80  C   UNL A   1      44.900  35.307  31.731  1.00  0.00     0.006 A 
ENDBRANCH  56  73
ENDBRANCH  30  31
ENDBRANCH  22  25
ENDBRANCH  20  21
ENDBRANCH  19  20
ENDBRANCH   1  19
TORSDOF 13
ENDMDL
MODEL 3
REMARK VINA RESULT:     -10.4      4.648      9.348
REMARK SMILES CN(C)C(=O)CSc1ccc(C(=O)NCCCNC(=O)c2ccc(-c3c4nc(c(-c5c(F)cccc5F)c5ccc([nH]5)c(-c5c(F)cccc5F)c5nc(c(-c6c(F)cccc6F)c6ccc3[nH]6)C=C5)C=C4)cc2)cc1
REMARK SMILES IDX 15 1 14 2 12 3 13 4 11 6 8 7 9 8 76 9 10 10 75 11 7 12 6 13
REMARK SMILES IDX 4 14 1 15 2 16 3 17 5 18 16 19 17 20 18 21 19 22 20 24 21 25
REMARK SMILES IDX 22 26 74 27 23 28 73 29 24 30 25 31 26 32 67 33 27 34 72 35
REMARK SMILES IDX 66 36 68 37 28 38 71 39 65 40 64 41 29 43 55 44 38 45 54 46
REMARK SMILES IDX 39 47 42 48 53 49 69 50 40 51 41 52 52 54 70 55 43 56 30 57
REMARK SMILES IDX 31 58 36 59 32 60 33 61 35 62 37 63 34 64 56 65 57 66 62 67
REMARK SMILES IDX 58 68 59 69 61 70 63 71 60 72 44 73 45 74 50 75 46 76 47 77
REMARK SMILES IDX 49 78 51 79 48 80
REMARK H PARENT 14 5 18 23 68 42 42 53
REMARK Flexibility Score: inf
ROOT
ATOM      1  C   UNL A   1      36.685  20.441  24.583  1.00  0.00     0.118 C 
ENDROOT
BRANCH   1   2
ATOM      2  N   UNL A   1      35.495  20.288  25.401  1.00  0.00    -0.352 N 
ATOM      3  C   UNL A   1      34.343  21.028  25.488  1.00  0.00     0.251 C 
ATOM      4  O   UNL A   1      33.435  20.596  26.200  1.00  0.00    -0.269 OA
ATOM      5  H   UNL A   1      35.519  19.511  26.005  1.00  0.00     0.163 HD
BRANCH   3   6
ATOM      6  C   UNL A   1      34.133  22.297  24.743  1.00  0.00     0.039 A 
ATOM      7  C   UNL A   1      33.603  24.622  23.236  1.00  0.00     0.008 A 
ATOM      8  C   UNL A   1      33.243  23.368  22.743  1.00  0.00     0.016 A 
ATOM      9  C   UNL A   1      34.191  24.710  24.502  1.00  0.00     0.016 A 
ATOM     10  C   UNL A   1      33.510  22.214  23.489  1.00  0.00     0.015 A 
ATOM     11  C   UNL A   1      34.441  23.558  25.256  1.00  0.00     0.015 A 
BRANCH   7  12
ATOM     12  S   UNL A   1      33.267  26.139  22.363  1.00  0.00    -0.116 SA
BRANCH  12  13
ATOM     13  C   UNL A   1      32.388  27.120  23.624  1.00  0.00     0.175 C 
BRANCH  13  14
ATOM     14  C   UNL A   1      31.219  27.917  23.061  1.00  0.00     0.232 C 
ATOM     15  C   UNL A   1      29.631  29.758  23.182  1.00  0.00     0.146 C 
ATOM     16  N   UNL A   1      30.766  29.041  23.741  1.00  0.00    -0.348 N 
ATOM     17  C   UNL A   1      31.350  29.585  24.957  1.00  0.00     0.146 C 
ATOM     18  O   UNL A   1      30.658  27.519  22.034  1.00  0.00    -0.274 OA
ENDBRANCH  13  14
ENDBRANCH  12  13
ENDBRANCH   7  12
ENDBRANCH   3   6
ENDBRANCH   1   2
BRANCH   1  19
ATOM     19  C   UNL A   1      37.781  19.457  24.996  1.00  0.00     0.042 C 
BRANCH  19  20
ATOM     20  C   UNL A   1      38.920  20.092  25.793  1.00  0.00     0.118 C 
BRANCH  20  21
ATOM     21  N   UNL A   1      40.099  19.244  25.835  1.00  0.00    -0.352 N 
ATOM     22  C   UNL A   1      41.413  19.556  26.075  1.00  0.00     0.251 C 
ATOM     23  H   UNL A   1      39.927  18.291  25.663  1.00  0.00     0.163 HD
ATOM     24  O   UNL A   1      42.272  18.704  25.860  1.00  0.00    -0.269 OA
BRANCH  22  25
ATOM     25  C   UNL A   1      41.822  20.887  26.583  1.00  0.00     0.039 A 
ATOM     26  C   UNL A   1      41.689  21.138  27.954  1.00  0.00     0.014 A 
ATOM     27  C   UNL A   1      42.237  21.916  25.731  1.00  0.00     0.014 A 
ATOM     28  C   UNL A   1      41.985  22.402  28.469  1.00  0.00     0.010 A 
ATOM     29  C   UNL A   1      42.589  23.161  26.255  1.00  0.00     0.010 A 
ATOM     30  C   UNL A   1      42.446  23.423  27.625  1.00  0.00    -0.014 A 
BRANCH  30  31
ATOM     31  C   UNL A   1      42.738  24.776  28.168  1.00  0.00     0.031 A 
ATOM     32  C   UNL A   1      44.148  25.166  28.521  1.00  0.00     0.074 A 
ATOM     33  C   UNL A   1      41.732  25.651  28.360  1.00  0.00     0.049 A 
ATOM     34  N   UNL A   1      44.597  26.298  29.003  1.00  0.00    -0.248 NA
ATOM     35  C   UNL A   1      45.187  24.145  28.323  1.00  0.00     0.031 C 
ATOM     36  C   UNL A   1      40.317  25.383  28.100  1.00  0.00     0.029 A 
ATOM     37  N   UNL A   1      41.748  26.943  28.820  1.00  0.00    -0.354 N 
ATOM     38  C   UNL A   1      45.963  26.118  29.182  1.00  0.00     0.074 A 
ATOM     39  C   UNL A   1      46.263  24.756  28.797  1.00  0.00     0.031 C 
ATOM     40  C   UNL A   1      39.604  26.486  28.381  1.00  0.00     0.029 A 
ATOM     41  C   UNL A   1      40.506  27.528  28.858  1.00  0.00     0.049 A 
ATOM     42  H   UNL A   1      42.572  27.407  29.096  1.00  0.00     0.167 HD
ATOM     43  C   UNL A   1      46.889  27.011  29.610  1.00  0.00     0.037 A 
ATOM     44  C   UNL A   1      40.139  28.770  29.227  1.00  0.00     0.037 A 
ATOM     45  C   UNL A   1      46.599  28.375  29.965  1.00  0.00     0.049 A 
ATOM     46  C   UNL A   1      41.189  29.754  29.659  1.00  0.00     0.074 A 
ATOM     47  C   UNL A   1      47.475  29.369  30.370  1.00  0.00     0.029 A 
ATOM     48  N   UNL A   1      45.334  28.940  29.953  1.00  0.00    -0.354 N 
ATOM     49  N   UNL A   1      42.484  29.586  29.771  1.00  0.00    -0.248 NA
ATOM     50  C   UNL A   1      40.726  31.107  30.000  1.00  0.00     0.031 C 
ATOM     51  C   UNL A   1      46.735  30.529  30.625  1.00  0.00     0.029 A 
ATOM     52  C   UNL A   1      45.405  30.268  30.345  1.00  0.00     0.049 A 
ATOM     53  H   UNL A   1      44.507  28.469  29.702  1.00  0.00     0.167 HD
ATOM     54  C   UNL A   1      42.994  30.816  30.166  1.00  0.00     0.074 A 
ATOM     55  C   UNL A   1      41.870  31.724  30.263  1.00  0.00     0.031 C 
ATOM     56  C   UNL A   1      44.279  31.161  30.425  1.00  0.00     0.037 A 
BRANCH  43  57
ATOM     57  C   UNL A   1      48.308  26.535  29.709  1.00  0.00     0.057 A 
ATOM     58  C   UNL A   1      48.792  25.896  30.858  1.00  0.00     0.134 A 
ATOM     59  C   UNL A   1      49.196  26.696  28.637  1.00  0.00     0.134 A 
ATOM     60  F   UNL A   1      47.997  25.723  31.924  1.00  0.00    -0.206 F 
ATOM     61  C   UNL A   1      50.114  25.456  30.947  1.00  0.00     0.040 A 
ATOM     62  C   UNL A   1      50.513  26.240  28.705  1.00  0.00     0.040 A 
ATOM     63  F   UNL A   1      48.795  27.295  27.504  1.00  0.00    -0.206 F 
ATOM     64  C   UNL A   1      50.977  25.624  29.866  1.00  0.00     0.006 A 
ENDBRANCH  43  57
BRANCH  44  65
ATOM     65  C   UNL A   1      38.712  29.169  29.158  1.00  0.00     0.057 A 
ATOM     66  C   UNL A   1      38.150  29.625  27.959  1.00  0.00     0.134 A 
ATOM     67  C   UNL A   1      37.881  29.109  30.281  1.00  0.00     0.134 A 
ATOM     68  F   UNL A   1      38.904  29.720  26.854  1.00  0.00    -0.206 F 
ATOM     69  C   UNL A   1      36.816  30.024  27.884  1.00  0.00     0.040 A 
ATOM     70  C   UNL A   1      36.538  29.486  30.216  1.00  0.00     0.040 A 
ATOM     71  F   UNL A   1      38.360  28.674  31.456  1.00  0.00    -0.206 F 
ATOM     72  C   UNL A   1      36.004  29.950  29.015  1.00  0.00     0.006 A 
ENDBRANCH  44  65
BRANCH  56  73
ATOM     73  C   UNL A   1      44.537  32.591  30.797  1.00  0.00     0.057 A 
ATOM     74  C   UNL A   1      44.791  33.572  29.831  1.00  0.00     0.134 A 
ATOM     75  C   UNL A   1      44.513  32.991  32.139  1.00  0.00     0.134 A 
ATOM     76  F   UNL A   1      44.840  33.248  28.530  1.00  0.00    -0.206 F 
ATOM     77  C   UNL A   1      45.040  34.898  30.189  1.00  0.00     0.040 A 
ATOM     78  C   UNL A   1      44.739  34.318  32.507  1.00  0.00     0.040 A 
ATOM     79  F   UNL A   1      44.268  32.101  33.111  1.00  0.00    -0.206 F 
ATOM     80  C   UNL A   1      45.010  35.274  31.530  1.00  0.00     0.006 A 
ENDBRANCH  56  73
ENDBRANCH  30  31
ENDBRANCH  22  25
ENDBRANCH  20  21
ENDBRANCH  19  20
ENDBRANCH   1  19
TORSDOF 13
ENDMDL
