MODEL 1
REMARK VINA RESULT:     -12.3      0.000      0.000
REMARK SMILES COc1cc(C(=O)N[C@H](C(=O)NCCCNC(=O)c2ccc(-c3c4nc(c(-c5c(F)cccc5F)c5ccc([nH]5)c(-c5c(F)cccc5F)c5nc(c(-c6c(F)cccc6F)c6ccc3[nH]6)C=C5)C=C4)cc2)C2=C(C)N=N[C@H]2C)ccc1C
REMARK SMILES IDX 13 1 12 2 10 3 11 4 9 6 8 7 6 8 7 9 5 11 3 12 4 13 82 14
REMARK SMILES IDX 81 15 83 16 80 17 2 18 1 19 73 20 74 21 78 22 75 23 76 24
REMARK SMILES IDX 77 25 79 26 14 27 15 28 16 29 17 30 18 32 19 33 20 34 72 35
REMARK SMILES IDX 21 36 71 37 22 38 23 39 24 40 65 41 25 42 70 43 64 44 66 45
REMARK SMILES IDX 26 46 69 47 63 48 62 49 27 51 53 52 36 53 52 54 37 55 40 56
REMARK SMILES IDX 51 57 67 58 38 59 39 60 50 62 68 63 41 64 28 65 29 66 34 67
REMARK SMILES IDX 30 68 31 69 33 70 35 71 32 72 54 73 55 74 60 75 56 76 57 77
REMARK SMILES IDX 59 78 61 79 58 80 42 81 43 82 48 83 44 84 45 85 47 86 49 87
REMARK SMILES IDX 46 88
REMARK H PARENT 12 5 8 10 16 31 66 50 40 61
REMARK Flexibility Score: inf
ROOT
ATOM      1  C   UNL A   1      33.237  29.613  26.012  1.00  0.00     0.117 C 
ENDROOT
BRANCH   1   2
ATOM      2  N   UNL A   1      32.163  29.184  26.889  1.00  0.00    -0.354 N 
ATOM      3  C   UNL A   1      31.496  28.001  26.996  1.00  0.00     0.247 C 
ATOM      4  O   UNL A   1      30.847  27.839  28.038  1.00  0.00    -0.272 OA
ATOM      5  H   UNL A   1      31.862  29.874  27.524  1.00  0.00     0.163 HD
BRANCH   3   6
ATOM      6  C   UNL A   1      31.616  26.839  25.965  1.00  0.00     0.202 C 
BRANCH   6   7
ATOM      7  N   UNL A   1      30.835  25.660  26.330  1.00  0.00    -0.337 N 
ATOM      8  C   UNL A   1      31.104  24.337  26.058  1.00  0.00     0.252 C 
ATOM      9  O   UNL A   1      30.269  23.484  26.343  1.00  0.00    -0.269 OA
ATOM     10  H   UNL A   1      30.009  25.834  26.837  1.00  0.00     0.165 HD
BRANCH   8  11
ATOM     11  C   UNL A   1      32.453  23.920  25.611  1.00  0.00     0.043 A 
ATOM     12  C   UNL A   1      34.093  23.494  23.897  1.00  0.00     0.122 A 
ATOM     13  C   UNL A   1      32.757  23.602  24.289  1.00  0.00     0.060 A 
ATOM     14  C   UNL A   1      35.126  23.578  24.839  1.00  0.00    -0.009 A 
ATOM     15  C   UNL A   1      34.792  23.744  26.189  1.00  0.00     0.008 A 
ATOM     16  C   UNL A   1      36.568  23.615  24.423  1.00  0.00     0.048 C 
ATOM     17  C   UNL A   1      33.465  23.927  26.574  1.00  0.00     0.014 A 
BRANCH  12  18
ATOM     18  O   UNL A   1      34.406  23.235  22.588  1.00  0.00    -0.496 OA
ATOM     19  C   UNL A   1      33.279  23.417  21.729  1.00  0.00     0.278 C 
ENDBRANCH  12  18
ENDBRANCH   8  11
ENDBRANCH   6   7
BRANCH   6  20
ATOM     20  C   UNL A   1      31.377  27.229  24.537  1.00  0.00     0.011 C 
ATOM     21  C   UNL A   1      32.203  27.268  23.480  1.00  0.00     0.064 C 
ATOM     22  C   UNL A   1      30.020  27.490  23.956  1.00  0.00     0.156 C 
ATOM     23  C   UNL A   1      33.653  26.931  23.396  1.00  0.00     0.069 C 
ATOM     24  N   UNL A   1      31.551  27.578  22.312  1.00  0.00    -0.160 NA
ATOM     25  N   UNL A   1      30.316  27.710  22.518  1.00  0.00    -0.181 NA
ATOM     26  C   UNL A   1      29.042  26.327  24.073  1.00  0.00     0.040 C 
ENDBRANCH   6  20
ENDBRANCH   3   6
ENDBRANCH   1   2
BRANCH   1  27
ATOM     27  C   UNL A   1      34.536  29.978  26.729  1.00  0.00     0.042 C 
BRANCH  27  28
ATOM     28  C   UNL A   1      34.384  30.623  28.106  1.00  0.00     0.118 C 
BRANCH  28  29
ATOM     29  N   UNL A   1      35.389  31.622  28.444  1.00  0.00    -0.352 N 
ATOM     30  C   UNL A   1      36.739  31.465  28.732  1.00  0.00     0.251 C 
ATOM     31  H   UNL A   1      35.063  32.551  28.470  1.00  0.00     0.163 HD
ATOM     32  O   UNL A   1      37.405  32.441  29.028  1.00  0.00    -0.269 OA
BRANCH  30  33
ATOM     33  C   UNL A   1      37.405  30.143  28.555  1.00  0.00     0.039 A 
ATOM     34  C   UNL A   1      37.525  29.315  29.681  1.00  0.00     0.014 A 
ATOM     35  C   UNL A   1      38.032  29.775  27.371  1.00  0.00     0.014 A 
ATOM     36  C   UNL A   1      38.478  28.293  29.695  1.00  0.00     0.010 A 
ATOM     37  C   UNL A   1      39.018  28.806  27.401  1.00  0.00     0.010 A 
ATOM     38  C   UNL A   1      39.303  28.129  28.585  1.00  0.00    -0.014 A 
BRANCH  38  39
ATOM     39  C   UNL A   1      40.581  27.428  28.628  1.00  0.00     0.031 A 
ATOM     40  C   UNL A   1      40.708  26.000  28.291  1.00  0.00     0.074 A 
ATOM     41  C   UNL A   1      41.705  28.132  28.895  1.00  0.00     0.049 A 
ATOM     42  N   UNL A   1      41.602  25.227  28.813  1.00  0.00    -0.248 NA
ATOM     43  C   UNL A   1      39.838  25.323  27.337  1.00  0.00     0.031 C 
ATOM     44  C   UNL A   1      43.087  27.690  28.724  1.00  0.00     0.029 A 
ATOM     45  N   UNL A   1      41.813  29.365  29.551  1.00  0.00    -0.354 N 
ATOM     46  C   UNL A   1      41.615  24.064  28.084  1.00  0.00     0.074 A 
ATOM     47  C   UNL A   1      40.449  24.136  27.231  1.00  0.00     0.031 C 
ATOM     48  C   UNL A   1      43.884  28.454  29.487  1.00  0.00     0.029 A 
ATOM     49  C   UNL A   1      43.024  29.319  30.274  1.00  0.00     0.049 A 
ATOM     50  H   UNL A   1      41.175  30.112  29.515  1.00  0.00     0.167 HD
ATOM     51  C   UNL A   1      42.687  23.224  28.157  1.00  0.00     0.037 A 
ATOM     52  C   UNL A   1      43.054  29.426  31.633  1.00  0.00     0.037 A 
ATOM     53  C   UNL A   1      43.748  23.768  28.997  1.00  0.00     0.049 A 
ATOM     54  C   UNL A   1      43.692  28.251  32.328  1.00  0.00     0.074 A 
ATOM     55  C   UNL A   1      44.909  24.458  28.687  1.00  0.00     0.029 A 
ATOM     56  N   UNL A   1      43.565  23.902  30.367  1.00  0.00    -0.354 N 
ATOM     57  N   UNL A   1      43.838  27.078  31.780  1.00  0.00    -0.248 NA
ATOM     58  C   UNL A   1      44.198  28.290  33.697  1.00  0.00     0.031 C 
ATOM     59  C   UNL A   1      45.430  25.009  29.878  1.00  0.00     0.029 A 
ATOM     60  C   UNL A   1      44.586  24.653  30.915  1.00  0.00     0.049 A 
ATOM     61  H   UNL A   1      42.813  23.518  30.874  1.00  0.00     0.167 HD
ATOM     62  C   UNL A   1      44.420  26.216  32.676  1.00  0.00     0.074 A 
ATOM     63  C   UNL A   1      44.642  27.030  33.855  1.00  0.00     0.031 C 
ATOM     64  C   UNL A   1      44.656  24.910  32.346  1.00  0.00     0.037 A 
BRANCH  51  65
ATOM     65  C   UNL A   1      42.883  22.066  27.211  1.00  0.00     0.057 A 
ATOM     66  C   UNL A   1      42.127  20.882  27.324  1.00  0.00     0.134 A 
ATOM     67  C   UNL A   1      43.828  22.062  26.173  1.00  0.00     0.134 A 
ATOM     68  F   UNL A   1      41.117  20.764  28.193  1.00  0.00    -0.206 F 
ATOM     69  C   UNL A   1      42.378  19.744  26.547  1.00  0.00     0.040 A 
ATOM     70  C   UNL A   1      44.120  20.917  25.417  1.00  0.00     0.040 A 
ATOM     71  F   UNL A   1      44.490  23.178  25.835  1.00  0.00    -0.206 F 
ATOM     72  C   UNL A   1      43.402  19.746  25.615  1.00  0.00     0.006 A 
ENDBRANCH  51  65
BRANCH  52  73
ATOM     73  C   UNL A   1      41.940  30.242  32.177  1.00  0.00     0.057 A 
ATOM     74  C   UNL A   1      40.810  29.574  32.681  1.00  0.00     0.134 A 
ATOM     75  C   UNL A   1      42.136  31.564  32.582  1.00  0.00     0.134 A 
ATOM     76  F   UNL A   1      40.568  28.300  32.334  1.00  0.00    -0.206 F 
ATOM     77  C   UNL A   1      39.977  30.156  33.641  1.00  0.00     0.040 A 
ATOM     78  C   UNL A   1      41.301  32.161  33.534  1.00  0.00     0.040 A 
ATOM     79  F   UNL A   1      43.205  32.256  32.162  1.00  0.00    -0.206 F 
ATOM     80  C   UNL A   1      40.246  31.443  34.097  1.00  0.00     0.006 A 
ENDBRANCH  52  73
BRANCH  64  81
ATOM     81  C   UNL A   1      45.079  23.775  33.259  1.00  0.00     0.057 A 
ATOM     82  C   UNL A   1      46.359  23.614  33.807  1.00  0.00     0.134 A 
ATOM     83  C   UNL A   1      44.119  22.844  33.734  1.00  0.00     0.134 A 
ATOM     84  F   UNL A   1      47.351  24.471  33.547  1.00  0.00    -0.206 F 
ATOM     85  C   UNL A   1      46.673  22.585  34.709  1.00  0.00     0.040 A 
ATOM     86  C   UNL A   1      44.408  21.849  34.673  1.00  0.00     0.040 A 
ATOM     87  F   UNL A   1      42.840  22.868  33.329  1.00  0.00    -0.206 F 
ATOM     88  C   UNL A   1      45.695  21.706  35.156  1.00  0.00     0.006 A 
ENDBRANCH  64  81
ENDBRANCH  38  39
ENDBRANCH  30  33
ENDBRANCH  28  29
ENDBRANCH  27  28
ENDBRANCH   1  27
TORSDOF 14
ENDMDL
MODEL 2
REMARK VINA RESULT:     -12.3      1.696      2.592
REMARK SMILES COc1cc(C(=O)N[C@H](C(=O)NCCCNC(=O)c2ccc(-c3c4nc(c(-c5c(F)cccc5F)c5ccc([nH]5)c(-c5c(F)cccc5F)c5nc(c(-c6c(F)cccc6F)c6ccc3[nH]6)C=C5)C=C4)cc2)C2=C(C)N=N[C@H]2C)ccc1C
REMARK SMILES IDX 13 1 12 2 10 3 11 4 9 6 8 7 6 8 7 9 5 11 3 12 4 13 82 14
REMARK SMILES IDX 81 15 83 16 80 17 2 18 1 19 73 20 74 21 78 22 75 23 76 24
REMARK SMILES IDX 77 25 79 26 14 27 15 28 16 29 17 30 18 32 19 33 20 34 72 35
REMARK SMILES IDX 21 36 71 37 22 38 23 39 24 40 65 41 25 42 70 43 64 44 66 45
REMARK SMILES IDX 26 46 69 47 63 48 62 49 27 51 53 52 36 53 52 54 37 55 40 56
REMARK SMILES IDX 51 57 67 58 38 59 39 60 50 62 68 63 41 64 28 65 29 66 34 67
REMARK SMILES IDX 30 68 31 69 33 70 35 71 32 72 54 73 55 74 60 75 56 76 57 77
REMARK SMILES IDX 59 78 61 79 58 80 42 81 43 82 48 83 44 84 45 85 47 86 49 87
REMARK SMILES IDX 46 88
REMARK H PARENT 12 5 8 10 16 31 66 50 40 61
REMARK Flexibility Score: inf
ROOT
ATOM      1  C   UNL A   1      32.646  27.972  27.253  1.00  0.00     0.117 C 
ENDROOT
BRANCH   1   2
ATOM      2  N   UNL A   1      31.387  27.254  27.173  1.00  0.00    -0.354 N 
ATOM      3  C   UNL A   1      30.874  26.425  26.222  1.00  0.00     0.247 C 
ATOM      4  O   UNL A   1      29.916  25.725  26.575  1.00  0.00    -0.272 OA
ATOM      5  H   UNL A   1      30.796  27.392  27.948  1.00  0.00     0.163 HD
BRANCH   3   6
ATOM      6  C   UNL A   1      31.498  26.233  24.807  1.00  0.00     0.202 C 
BRANCH   6   7
ATOM      7  N   UNL A   1      30.994  25.054  24.109  1.00  0.00    -0.337 N 
ATOM      8  C   UNL A   1      31.701  23.970  23.638  1.00  0.00     0.252 C 
ATOM      9  O   UNL A   1      31.122  23.120  22.968  1.00  0.00    -0.269 OA
ATOM     10  H   UNL A   1      30.022  25.030  23.955  1.00  0.00     0.165 HD
BRANCH   8  11
ATOM     11  C   UNL A   1      33.089  23.722  24.094  1.00  0.00     0.043 A 
ATOM     12  C   UNL A   1      34.689  22.843  25.668  1.00  0.00     0.122 A 
ATOM     13  C   UNL A   1      33.408  23.325  25.391  1.00  0.00     0.060 A 
ATOM     14  C   UNL A   1      35.692  22.870  24.690  1.00  0.00    -0.009 A 
ATOM     15  C   UNL A   1      35.392  23.418  23.436  1.00  0.00     0.008 A 
ATOM     16  C   UNL A   1      37.027  22.222  24.916  1.00  0.00     0.048 C 
ATOM     17  C   UNL A   1      34.096  23.831  23.133  1.00  0.00     0.014 A 
BRANCH  12  18
ATOM     18  O   UNL A   1      34.999  22.398  26.926  1.00  0.00    -0.496 OA
ATOM     19  C   UNL A   1      33.844  21.916  27.616  1.00  0.00     0.278 C 
ENDBRANCH  12  18
ENDBRANCH   8  11
ENDBRANCH   6   7
BRANCH   6  20
ATOM     20  C   UNL A   1      31.460  27.445  23.926  1.00  0.00     0.011 C 
ATOM     21  C   UNL A   1      32.314  27.886  22.990  1.00  0.00     0.064 C 
ATOM     22  C   UNL A   1      30.272  28.351  23.799  1.00  0.00     0.156 C 
ATOM     23  C   UNL A   1      33.602  27.296  22.527  1.00  0.00     0.069 C 
ATOM     24  N   UNL A   1      31.844  28.993  22.326  1.00  0.00    -0.160 NA
ATOM     25  N   UNL A   1      30.694  29.298  22.737  1.00  0.00    -0.181 NA
ATOM     26  C   UNL A   1      28.990  27.662  23.347  1.00  0.00     0.040 C 
ENDBRANCH   6  20
ENDBRANCH   3   6
ENDBRANCH   1   2
BRANCH   1  27
ATOM     27  C   UNL A   1      32.510  29.494  27.268  1.00  0.00     0.042 C 
BRANCH  27  28
ATOM     28  C   UNL A   1      33.771  30.285  26.918  1.00  0.00     0.118 C 
BRANCH  28  29
ATOM     29  N   UNL A   1      34.212  31.239  27.927  1.00  0.00    -0.352 N 
ATOM     30  C   UNL A   1      35.331  31.211  28.751  1.00  0.00     0.251 C 
ATOM     31  H   UNL A   1      33.629  32.024  28.042  1.00  0.00     0.163 HD
ATOM     32  O   UNL A   1      35.498  32.103  29.562  1.00  0.00    -0.269 OA
BRANCH  30  33
ATOM     33  C   UNL A   1      36.389  30.177  28.560  1.00  0.00     0.039 A 
ATOM     34  C   UNL A   1      36.537  29.202  29.557  1.00  0.00     0.014 A 
ATOM     35  C   UNL A   1      37.312  30.235  27.523  1.00  0.00     0.014 A 
ATOM     36  C   UNL A   1      37.735  28.490  29.661  1.00  0.00     0.010 A 
ATOM     37  C   UNL A   1      38.521  29.579  27.658  1.00  0.00     0.010 A 
ATOM     38  C   UNL A   1      38.767  28.778  28.772  1.00  0.00    -0.014 A 
BRANCH  38  39
ATOM     39  C   UNL A   1      40.165  28.449  29.026  1.00  0.00     0.031 A 
ATOM     40  C   UNL A   1      40.819  27.275  28.425  1.00  0.00     0.074 A 
ATOM     41  C   UNL A   1      40.914  29.301  29.763  1.00  0.00     0.049 A 
ATOM     42  N   UNL A   1      41.787  26.635  28.995  1.00  0.00    -0.248 NA
ATOM     43  C   UNL A   1      40.440  26.723  27.130  1.00  0.00     0.031 C 
ATOM     44  C   UNL A   1      42.368  29.302  29.908  1.00  0.00     0.029 A 
ATOM     45  N   UNL A   1      40.473  30.258  30.685  1.00  0.00    -0.354 N 
ATOM     46  C   UNL A   1      42.332  25.795  28.057  1.00  0.00     0.074 A 
ATOM     47  C   UNL A   1      41.413  25.824  26.940  1.00  0.00     0.031 C 
ATOM     48  C   UNL A   1      42.692  29.973  31.024  1.00  0.00     0.029 A 
ATOM     49  C   UNL A   1      41.451  30.306  31.701  1.00  0.00     0.049 A 
ATOM     50  H   UNL A   1      39.648  30.792  30.635  1.00  0.00     0.167 HD
ATOM     51  C   UNL A   1      43.579  25.277  28.246  1.00  0.00     0.037 A 
ATOM     52  C   UNL A   1      41.159  29.996  32.996  1.00  0.00     0.037 A 
ATOM     53  C   UNL A   1      44.202  25.790  29.461  1.00  0.00     0.049 A 
ATOM     54  C   UNL A   1      41.985  28.869  33.560  1.00  0.00     0.074 A 
ATOM     55  C   UNL A   1      45.111  26.815  29.670  1.00  0.00     0.029 A 
ATOM     56  N   UNL A   1      43.702  25.448  30.710  1.00  0.00    -0.354 N 
ATOM     57  N   UNL A   1      42.618  27.998  32.826  1.00  0.00    -0.248 NA
ATOM     58  C   UNL A   1      42.151  28.616  34.988  1.00  0.00     0.031 C 
ATOM     59  C   UNL A   1      45.162  27.089  31.054  1.00  0.00     0.029 A 
ATOM     60  C   UNL A   1      44.283  26.230  31.689  1.00  0.00     0.049 A 
ATOM     61  H   UNL A   1      43.028  24.748  30.874  1.00  0.00     0.167 HD
ATOM     62  C   UNL A   1      43.248  27.082  33.632  1.00  0.00     0.074 A 
ATOM     63  C   UNL A   1      42.940  27.526  34.978  1.00  0.00     0.031 C 
ATOM     64  C   UNL A   1      43.962  26.047  33.098  1.00  0.00     0.037 A 
BRANCH  51  65
ATOM     65  C   UNL A   1      44.337  24.554  27.162  1.00  0.00     0.057 A 
ATOM     66  C   UNL A   1      44.214  23.163  26.973  1.00  0.00     0.134 A 
ATOM     67  C   UNL A   1      45.225  25.189  26.279  1.00  0.00     0.134 A 
ATOM     68  F   UNL A   1      43.333  22.428  27.663  1.00  0.00    -0.206 F 
ATOM     69  C   UNL A   1      45.002  22.447  26.064  1.00  0.00     0.040 A 
ATOM     70  C   UNL A   1      46.052  24.480  25.395  1.00  0.00     0.040 A 
ATOM     71  F   UNL A   1      45.308  26.526  26.223  1.00  0.00    -0.206 F 
ATOM     72  C   UNL A   1      45.953  23.099  25.297  1.00  0.00     0.006 A 
ENDBRANCH  51  65
BRANCH  52  73
ATOM     73  C   UNL A   1      39.751  30.293  33.361  1.00  0.00     0.057 A 
ATOM     74  C   UNL A   1      39.395  31.630  33.613  1.00  0.00     0.134 A 
ATOM     75  C   UNL A   1      38.719  29.400  33.062  1.00  0.00     0.134 A 
ATOM     76  F   UNL A   1      40.342  32.537  33.900  1.00  0.00    -0.206 F 
ATOM     77  C   UNL A   1      38.084  32.085  33.455  1.00  0.00     0.040 A 
ATOM     78  C   UNL A   1      37.399  29.844  32.914  1.00  0.00     0.040 A 
ATOM     79  F   UNL A   1      38.984  28.116  32.786  1.00  0.00    -0.206 F 
ATOM     80  C   UNL A   1      37.087  31.195  33.068  1.00  0.00     0.006 A 
ENDBRANCH  52  73
BRANCH  64  81
ATOM     81  C   UNL A   1      44.531  24.834  33.810  1.00  0.00     0.057 A 
ATOM     82  C   UNL A   1      43.773  23.852  34.461  1.00  0.00     0.134 A 
ATOM     83  C   UNL A   1      45.919  24.549  33.739  1.00  0.00     0.134 A 
ATOM     84  F   UNL A   1      42.439  23.915  34.522  1.00  0.00    -0.206 F 
ATOM     85  C   UNL A   1      44.349  22.708  35.038  1.00  0.00     0.040 A 
ATOM     86  C   UNL A   1      46.496  23.387  34.262  1.00  0.00     0.040 A 
ATOM     87  F   UNL A   1      46.787  25.373  33.132  1.00  0.00    -0.206 F 
ATOM     88  C   UNL A   1      45.712  22.465  34.929  1.00  0.00     0.006 A 
ENDBRANCH  64  81
ENDBRANCH  38  39
ENDBRANCH  30  33
ENDBRANCH  28  29
ENDBRANCH  27  28
ENDBRANCH   1  27
TORSDOF 14
ENDMDL
MODEL 3
REMARK VINA RESULT:     -12.2      1.555      2.073
REMARK SMILES COc1cc(C(=O)N[C@H](C(=O)NCCCNC(=O)c2ccc(-c3c4nc(c(-c5c(F)cccc5F)c5ccc([nH]5)c(-c5c(F)cccc5F)c5nc(c(-c6c(F)cccc6F)c6ccc3[nH]6)C=C5)C=C4)cc2)C2=C(C)N=N[C@H]2C)ccc1C
REMARK SMILES IDX 13 1 12 2 10 3 11 4 9 6 8 7 6 8 7 9 5 11 3 12 4 13 82 14
REMARK SMILES IDX 81 15 83 16 80 17 2 18 1 19 73 20 74 21 78 22 75 23 76 24
REMARK SMILES IDX 77 25 79 26 14 27 15 28 16 29 17 30 18 32 19 33 20 34 72 35
REMARK SMILES IDX 21 36 71 37 22 38 23 39 24 40 65 41 25 42 70 43 64 44 66 45
REMARK SMILES IDX 26 46 69 47 63 48 62 49 27 51 53 52 36 53 52 54 37 55 40 56
REMARK SMILES IDX 51 57 67 58 38 59 39 60 50 62 68 63 41 64 28 65 29 66 34 67
REMARK SMILES IDX 30 68 31 69 33 70 35 71 32 72 54 73 55 74 60 75 56 76 57 77
REMARK SMILES IDX 59 78 61 79 58 80 42 81 43 82 48 83 44 84 45 85 47 86 49 87
REMARK SMILES IDX 46 88
REMARK H PARENT 12 5 8 10 16 31 66 50 40 61
REMARK Flexibility Score: inf
ROOT
ATOM      1  C   UNL A   1      32.166  28.452  26.900  1.00  0.00     0.117 C 
ENDROOT
BRANCH   1   2
ATOM      2  N   UNL A   1      33.222  27.521  26.550  1.00  0.00    -0.354 N 
ATOM      3  C   UNL A   1      33.250  26.459  25.697  1.00  0.00     0.247 C 
ATOM      4  O   UNL A   1      34.374  26.049  25.380  1.00  0.00    -0.272 OA
ATOM      5  H   UNL A   1      34.076  27.686  27.013  1.00  0.00     0.163 HD
BRANCH   3   6
ATOM      6  C   UNL A   1      31.982  25.846  25.029  1.00  0.00     0.202 C 
BRANCH   6   7
ATOM      7  N   UNL A   1      30.994  25.370  25.993  1.00  0.00    -0.337 N 
ATOM      8  C   UNL A   1      30.770  24.081  26.424  1.00  0.00     0.252 C 
ATOM      9  O   UNL A   1      29.812  23.851  27.156  1.00  0.00    -0.269 OA
ATOM     10  H   UNL A   1      30.412  26.060  26.386  1.00  0.00     0.165 HD
BRANCH   8  11
ATOM     11  C   UNL A   1      31.775  23.021  26.177  1.00  0.00     0.043 A 
ATOM     12  C   UNL A   1      32.854  21.396  24.761  1.00  0.00     0.122 A 
ATOM     13  C   UNL A   1      31.735  22.172  25.073  1.00  0.00     0.060 A 
ATOM     14  C   UNL A   1      33.966  21.367  25.612  1.00  0.00    -0.009 A 
ATOM     15  C   UNL A   1      33.922  22.108  26.799  1.00  0.00     0.008 A 
ATOM     16  C   UNL A   1      35.234  20.661  25.224  1.00  0.00     0.048 C 
ATOM     17  C   UNL A   1      32.840  22.941  27.077  1.00  0.00     0.014 A 
BRANCH  12  18
ATOM     18  O   UNL A   1      32.848  20.599  23.646  1.00  0.00    -0.496 OA
ATOM     19  C   UNL A   1      32.053  21.160  22.599  1.00  0.00     0.278 C 
ENDBRANCH  12  18
ENDBRANCH   8  11
ENDBRANCH   6   7
BRANCH   6  20
ATOM     20  C   UNL A   1      31.346  26.699  23.973  1.00  0.00     0.011 C 
ATOM     21  C   UNL A   1      31.736  27.000  22.725  1.00  0.00     0.064 C 
ATOM     22  C   UNL A   1      29.960  27.262  24.074  1.00  0.00     0.156 C 
ATOM     23  C   UNL A   1      32.956  26.573  21.983  1.00  0.00     0.069 C 
ATOM     24  N   UNL A   1      30.796  27.732  22.041  1.00  0.00    -0.160 NA
ATOM     25  N   UNL A   1      29.771  27.906  22.750  1.00  0.00    -0.181 NA
ATOM     26  C   UNL A   1      28.862  26.221  24.262  1.00  0.00     0.040 C 
ENDBRANCH   6  20
ENDBRANCH   3   6
ENDBRANCH   1   2
BRANCH   1  27
ATOM     27  C   UNL A   1      32.653  29.847  27.290  1.00  0.00     0.042 C 
BRANCH  27  28
ATOM     28  C   UNL A   1      34.165  30.069  27.240  1.00  0.00     0.118 C 
BRANCH  28  29
ATOM     29  N   UNL A   1      34.691  31.017  28.214  1.00  0.00    -0.352 N 
ATOM     30  C   UNL A   1      35.860  30.968  28.963  1.00  0.00     0.251 C 
ATOM     31  H   UNL A   1      34.133  31.814  28.364  1.00  0.00     0.163 HD
ATOM     32  O   UNL A   1      36.099  31.858  29.758  1.00  0.00    -0.269 OA
BRANCH  30  33
ATOM     33  C   UNL A   1      36.882  29.912  28.708  1.00  0.00     0.039 A 
ATOM     34  C   UNL A   1      37.055  28.920  29.685  1.00  0.00     0.014 A 
ATOM     35  C   UNL A   1      37.754  29.961  27.628  1.00  0.00     0.014 A 
ATOM     36  C   UNL A   1      38.238  28.178  29.721  1.00  0.00     0.010 A 
ATOM     37  C   UNL A   1      38.952  29.274  27.695  1.00  0.00     0.010 A 
ATOM     38  C   UNL A   1      39.232  28.452  28.786  1.00  0.00    -0.014 A 
BRANCH  38  39
ATOM     39  C   UNL A   1      40.632  28.087  28.967  1.00  0.00     0.031 A 
ATOM     40  C   UNL A   1      41.228  26.906  28.317  1.00  0.00     0.074 A 
ATOM     41  C   UNL A   1      41.437  28.909  29.678  1.00  0.00     0.049 A 
ATOM     42  N   UNL A   1      42.206  26.235  28.830  1.00  0.00    -0.248 NA
ATOM     43  C   UNL A   1      40.773  26.384  27.034  1.00  0.00     0.031 C 
ATOM     44  C   UNL A   1      42.895  28.873  29.753  1.00  0.00     0.029 A 
ATOM     45  N   UNL A   1      41.064  29.862  30.635  1.00  0.00    -0.354 N 
ATOM     46  C   UNL A   1      42.684  25.398  27.855  1.00  0.00     0.074 A 
ATOM     47  C   UNL A   1      41.713  25.465  26.784  1.00  0.00     0.031 C 
ATOM     48  C   UNL A   1      43.289  29.518  30.861  1.00  0.00     0.029 A 
ATOM     49  C   UNL A   1      42.091  29.870  31.602  1.00  0.00     0.049 A 
ATOM     50  H   UNL A   1      40.251  30.415  30.633  1.00  0.00     0.167 HD
ATOM     51  C   UNL A   1      43.926  24.847  27.976  1.00  0.00     0.037 A 
ATOM     52  C   UNL A   1      41.855  29.547  32.905  1.00  0.00     0.037 A 
ATOM     53  C   UNL A   1      44.620  25.326  29.165  1.00  0.00     0.049 A 
ATOM     54  C   UNL A   1      42.679  28.392  33.412  1.00  0.00     0.074 A 
ATOM     55  C   UNL A   1      45.563  26.325  29.345  1.00  0.00     0.029 A 
ATOM     56  N   UNL A   1      44.172  24.976  30.433  1.00  0.00    -0.354 N 
ATOM     57  N   UNL A   1      43.254  27.518  32.635  1.00  0.00    -0.248 NA
ATOM     58  C   UNL A   1      42.908  28.113  34.827  1.00  0.00     0.031 C 
ATOM     59  C   UNL A   1      45.686  26.577  30.729  1.00  0.00     0.029 A 
ATOM     60  C   UNL A   1      44.818  25.729  31.393  1.00  0.00     0.049 A 
ATOM     61  H   UNL A   1      43.490  24.290  30.619  1.00  0.00     0.167 HD
ATOM     62  C   UNL A   1      43.900  26.575  33.397  1.00  0.00     0.074 A 
ATOM     63  C   UNL A   1      43.668  27.005  34.762  1.00  0.00     0.031 C 
ATOM     64  C   UNL A   1      44.562  25.531  32.813  1.00  0.00     0.037 A 
BRANCH  51  65
ATOM     65  C   UNL A   1      44.612  24.123  26.845  1.00  0.00     0.057 A 
ATOM     66  C   UNL A   1      44.343  22.770  26.560  1.00  0.00     0.134 A 
ATOM     67  C   UNL A   1      45.572  24.718  26.011  1.00  0.00     0.134 A 
ATOM     68  F   UNL A   1      43.382  22.088  27.194  1.00  0.00    -0.206 F 
ATOM     69  C   UNL A   1      45.059  22.037  25.605  1.00  0.00     0.040 A 
ATOM     70  C   UNL A   1      46.327  23.988  25.081  1.00  0.00     0.040 A 
ATOM     71  F   UNL A   1      45.799  26.039  26.048  1.00  0.00    -0.206 F 
ATOM     72  C   UNL A   1      46.081  22.636  24.887  1.00  0.00     0.006 A 
ENDBRANCH  51  65
BRANCH  52  73
ATOM     73  C   UNL A   1      40.474  29.871  33.342  1.00  0.00     0.057 A 
ATOM     74  C   UNL A   1      40.161  31.214  33.621  1.00  0.00     0.134 A 
ATOM     75  C   UNL A   1      39.408  29.004  33.089  1.00  0.00     0.134 A 
ATOM     76  F   UNL A   1      41.141  32.098  33.868  1.00  0.00    -0.206 F 
ATOM     77  C   UNL A   1      38.853  31.698  33.533  1.00  0.00     0.040 A 
ATOM     78  C   UNL A   1      38.093  29.477  33.011  1.00  0.00     0.040 A 
ATOM     79  F   UNL A   1      39.631  27.716  32.791  1.00  0.00    -0.206 F 
ATOM     80  C   UNL A   1      37.819  30.833  33.190  1.00  0.00     0.006 A 
ENDBRANCH  52  73
BRANCH  64  81
ATOM     81  C   UNL A   1      45.135  24.295  33.479  1.00  0.00     0.057 A 
ATOM     82  C   UNL A   1      46.408  24.207  34.059  1.00  0.00     0.134 A 
ATOM     83  C   UNL A   1      44.323  23.147  33.676  1.00  0.00     0.134 A 
ATOM     84  F   UNL A   1      47.257  25.240  34.057  1.00  0.00    -0.206 F 
ATOM     85  C   UNL A   1      46.857  23.059  34.731  1.00  0.00     0.040 A 
ATOM     86  C   UNL A   1      44.741  22.020  34.391  1.00  0.00     0.040 A 
ATOM     87  F   UNL A   1      43.070  23.071  33.206  1.00  0.00    -0.206 F 
ATOM     88  C   UNL A   1      46.020  21.966  34.912  1.00  0.00     0.006 A 
ENDBRANCH  64  81
ENDBRANCH  38  39
ENDBRANCH  30  33
ENDBRANCH  28  29
ENDBRANCH  27  28
ENDBRANCH   1  27
TORSDOF 14
ENDMDL
