MODEL 1
REMARK VINA RESULT:     -11.4      0.000      0.000
REMARK SMILES Cc1cc(C(=O)N[C@@H](C)C(=O)NCCCNC(=O)c2ccc(-c3c4nc(c(-c5c(F)cccc5F)c5ccc([nH]5)c(-c5c(F)cccc5F)c5nc(c(-c6c(F)cccc6F)c6ccc3[nH]6)C=C5)C=C4)cc2)cc(C)c1OC(F)F
REMARK SMILES IDX 13 1 12 2 10 3 11 4 8 6 9 7 7 8 5 9 6 10 4 12 1 13 2 14 3 15
REMARK SMILES IDX 76 16 74 17 73 18 75 19 77 20 78 21 79 22 80 23 14 24 15 25
REMARK SMILES IDX 16 26 17 27 18 29 19 30 20 31 72 32 21 33 71 34 22 35 23 36
REMARK SMILES IDX 24 37 65 38 25 39 70 40 64 41 66 42 26 43 69 44 63 45 62 46
REMARK SMILES IDX 27 48 53 49 36 50 52 51 37 52 40 53 51 54 67 55 38 56 39 57
REMARK SMILES IDX 50 59 68 60 41 61 28 62 29 63 34 64 30 65 31 66 33 67 35 68
REMARK SMILES IDX 32 69 54 70 55 71 60 72 56 73 57 74 59 75 61 76 58 77 42 78
REMARK SMILES IDX 43 79 48 80 44 81 45 82 47 83 49 84 46 85
REMARK H PARENT 12 5 7 11 16 28 66 47 40 58
REMARK Flexibility Score: inf
ROOT
ATOM      1  C   UNL A   1      31.745  26.953  26.356  1.00  0.00     0.117 C 
ENDROOT
BRANCH   1   2
ATOM      2  N   UNL A   1      31.101  27.330  25.112  1.00  0.00    -0.354 N 
ATOM      3  C   UNL A   1      31.609  27.484  23.855  1.00  0.00     0.242 C 
ATOM      4  O   UNL A   1      30.818  27.785  22.956  1.00  0.00    -0.273 OA
ATOM      5  H   UNL A   1      30.135  27.504  25.186  1.00  0.00     0.163 HD
BRANCH   3   6
ATOM      6  C   UNL A   1      33.116  27.341  23.562  1.00  0.00     0.168 C 
ATOM      7  C   UNL A   1      33.900  28.642  23.673  1.00  0.00     0.041 C 
BRANCH   6   8
ATOM      8  N   UNL A   1      33.274  26.635  22.289  1.00  0.00    -0.341 N 
ATOM      9  C   UNL A   1      33.180  25.305  21.945  1.00  0.00     0.251 C 
ATOM     10  O   UNL A   1      33.217  25.035  20.743  1.00  0.00    -0.269 OA
ATOM     11  H   UNL A   1      33.490  27.227  21.532  1.00  0.00     0.164 HD
BRANCH   9  12
ATOM     12  C   UNL A   1      33.150  24.191  22.937  1.00  0.00     0.040 A 
ATOM     13  C   UNL A   1      35.833  21.916  24.314  1.00  0.00     0.048 C 
ATOM     14  C   UNL A   1      34.469  22.545  24.239  1.00  0.00    -0.008 A 
ATOM     15  C   UNL A   1      34.348  23.520  23.211  1.00  0.00     0.021 A 
ATOM     16  C   UNL A   1      33.365  22.330  25.080  1.00  0.00     0.131 A 
ATOM     17  C   UNL A   1      32.134  22.950  24.753  1.00  0.00    -0.008 A 
ATOM     18  C   UNL A   1      32.025  23.790  23.632  1.00  0.00     0.021 A 
ATOM     19  C   UNL A   1      30.906  22.847  25.627  1.00  0.00     0.048 C 
BRANCH  16  20
ATOM     20  O   UNL A   1      33.291  21.651  26.258  1.00  0.00    -0.434 OA
BRANCH  20  21
ATOM     21  C   UNL A   1      33.838  22.113  27.473  1.00  0.00     0.542 C 
ATOM     22  F   UNL A   1      34.444  23.310  27.307  1.00  0.00    -0.167 F 
ATOM     23  F   UNL A   1      32.858  22.223  28.400  1.00  0.00    -0.167 F 
ENDBRANCH  20  21
ENDBRANCH  16  20
ENDBRANCH   9  12
ENDBRANCH   6   8
ENDBRANCH   3   6
ENDBRANCH   1   2
BRANCH   1  24
ATOM     24  C   UNL A   1      31.988  28.132  27.285  1.00  0.00     0.042 C 
BRANCH  24  25
ATOM     25  C   UNL A   1      33.421  28.646  27.291  1.00  0.00     0.118 C 
BRANCH  25  26
ATOM     26  N   UNL A   1      33.517  30.053  27.660  1.00  0.00    -0.352 N 
ATOM     27  C   UNL A   1      34.535  30.753  28.261  1.00  0.00     0.251 C 
ATOM     28  H   UNL A   1      32.722  30.589  27.442  1.00  0.00     0.163 HD
ATOM     29  O   UNL A   1      34.334  31.893  28.662  1.00  0.00    -0.269 OA
BRANCH  27  30
ATOM     30  C   UNL A   1      35.863  30.129  28.454  1.00  0.00     0.039 A 
ATOM     31  C   UNL A   1      36.774  30.136  27.394  1.00  0.00     0.014 A 
ATOM     32  C   UNL A   1      36.210  29.537  29.670  1.00  0.00     0.014 A 
ATOM     33  C   UNL A   1      38.066  29.640  27.589  1.00  0.00     0.010 A 
ATOM     34  C   UNL A   1      37.521  29.125  29.889  1.00  0.00     0.010 A 
ATOM     35  C   UNL A   1      38.467  29.186  28.855  1.00  0.00    -0.014 A 
BRANCH  35  36
ATOM     36  C   UNL A   1      39.878  28.812  29.133  1.00  0.00     0.031 A 
ATOM     37  C   UNL A   1      40.829  29.816  29.725  1.00  0.00     0.074 A 
ATOM     38  C   UNL A   1      40.323  27.594  28.764  1.00  0.00     0.049 A 
ATOM     39  N   UNL A   1      42.117  29.709  29.933  1.00  0.00    -0.248 NA
ATOM     40  C   UNL A   1      40.264  31.118  30.116  1.00  0.00     0.031 C 
ATOM     41  C   UNL A   1      39.511  26.550  28.134  1.00  0.00     0.029 A 
ATOM     42  N   UNL A   1      41.575  27.035  28.842  1.00  0.00    -0.354 N 
ATOM     43  C   UNL A   1      42.517  30.931  30.460  1.00  0.00     0.074 A 
ATOM     44  C   UNL A   1      41.346  31.778  30.503  1.00  0.00     0.031 C 
ATOM     45  C   UNL A   1      40.280  25.477  27.894  1.00  0.00     0.029 A 
ATOM     46  C   UNL A   1      41.648  25.771  28.304  1.00  0.00     0.049 A 
ATOM     47  H   UNL A   1      42.346  27.495  29.245  1.00  0.00     0.167 HD
ATOM     48  C   UNL A   1      43.748  31.303  30.883  1.00  0.00     0.037 A 
ATOM     49  C   UNL A   1      42.704  24.951  28.138  1.00  0.00     0.037 A 
ATOM     50  C   UNL A   1      44.906  30.448  30.860  1.00  0.00     0.049 A 
ATOM     51  C   UNL A   1      44.063  25.405  28.597  1.00  0.00     0.074 A 
ATOM     52  C   UNL A   1      46.179  30.712  31.336  1.00  0.00     0.029 A 
ATOM     53  N   UNL A   1      44.937  29.170  30.325  1.00  0.00    -0.354 N 
ATOM     54  N   UNL A   1      44.410  26.532  29.170  1.00  0.00    -0.248 NA
ATOM     55  C   UNL A   1      45.179  24.470  28.387  1.00  0.00     0.031 C 
ATOM     56  C   UNL A   1      46.994  29.618  31.036  1.00  0.00     0.029 A 
ATOM     57  C   UNL A   1      46.216  28.647  30.428  1.00  0.00     0.049 A 
ATOM     58  H   UNL A   1      44.165  28.704  29.931  1.00  0.00     0.167 HD
ATOM     59  C   UNL A   1      45.774  26.431  29.412  1.00  0.00     0.074 A 
ATOM     60  C   UNL A   1      46.187  25.125  28.946  1.00  0.00     0.031 C 
ATOM     61  C   UNL A   1      46.611  27.341  29.966  1.00  0.00     0.037 A 
BRANCH  48  62
ATOM     62  C   UNL A   1      43.918  32.697  31.413  1.00  0.00     0.057 A 
ATOM     63  C   UNL A   1      44.211  33.779  30.572  1.00  0.00     0.134 A 
ATOM     64  C   UNL A   1      43.705  32.974  32.770  1.00  0.00     0.134 A 
ATOM     65  F   UNL A   1      44.437  33.581  29.264  1.00  0.00    -0.206 F 
ATOM     66  C   UNL A   1      44.298  35.083  31.063  1.00  0.00     0.040 A 
ATOM     67  C   UNL A   1      43.761  34.276  33.267  1.00  0.00     0.040 A 
ATOM     68  F   UNL A   1      43.413  31.986  33.629  1.00  0.00    -0.206 F 
ATOM     69  C   UNL A   1      44.061  35.336  32.412  1.00  0.00     0.006 A 
ENDBRANCH  48  62
BRANCH  49  70
ATOM     70  C   UNL A   1      42.532  23.624  27.490  1.00  0.00     0.057 A 
ATOM     71  C   UNL A   1      42.666  23.471  26.105  1.00  0.00     0.134 A 
ATOM     72  C   UNL A   1      42.187  22.488  28.232  1.00  0.00     0.134 A 
ATOM     73  F   UNL A   1      42.976  24.525  25.336  1.00  0.00    -0.206 F 
ATOM     74  C   UNL A   1      42.430  22.247  25.477  1.00  0.00     0.040 A 
ATOM     75  C   UNL A   1      41.980  21.250  27.621  1.00  0.00     0.040 A 
ATOM     76  F   UNL A   1      42.050  22.563  29.563  1.00  0.00    -0.206 F 
ATOM     77  C   UNL A   1      42.088  21.130  26.237  1.00  0.00     0.006 A 
ENDBRANCH  49  70
BRANCH  61  78
ATOM     78  C   UNL A   1      48.050  26.944  30.126  1.00  0.00     0.057 A 
ATOM     79  C   UNL A   1      48.494  26.201  31.227  1.00  0.00     0.134 A 
ATOM     80  C   UNL A   1      48.995  27.279  29.148  1.00  0.00     0.134 A 
ATOM     81  F   UNL A   1      47.642  25.860  32.207  1.00  0.00    -0.206 F 
ATOM     82  C   UNL A   1      49.832  25.827  31.363  1.00  0.00     0.040 A 
ATOM     83  C   UNL A   1      50.329  26.884  29.257  1.00  0.00     0.040 A 
ATOM     84  F   UNL A   1      48.635  27.980  28.063  1.00  0.00    -0.206 F 
ATOM     85  C   UNL A   1      50.752  26.163  30.371  1.00  0.00     0.006 A 
ENDBRANCH  61  78
ENDBRANCH  35  36
ENDBRANCH  27  30
ENDBRANCH  25  26
ENDBRANCH  24  25
ENDBRANCH   1  24
TORSDOF 14
ENDMDL
MODEL 2
REMARK VINA RESULT:     -11.3      3.916      7.824
REMARK SMILES Cc1cc(C(=O)N[C@@H](C)C(=O)NCCCNC(=O)c2ccc(-c3c4nc(c(-c5c(F)cccc5F)c5ccc([nH]5)c(-c5c(F)cccc5F)c5nc(c(-c6c(F)cccc6F)c6ccc3[nH]6)C=C5)C=C4)cc2)cc(C)c1OC(F)F
REMARK SMILES IDX 13 1 12 2 10 3 11 4 8 6 9 7 7 8 5 9 6 10 4 12 1 13 2 14 3 15
REMARK SMILES IDX 76 16 74 17 73 18 75 19 77 20 78 21 79 22 80 23 14 24 15 25
REMARK SMILES IDX 16 26 17 27 18 29 19 30 20 31 72 32 21 33 71 34 22 35 23 36
REMARK SMILES IDX 24 37 65 38 25 39 70 40 64 41 66 42 26 43 69 44 63 45 62 46
REMARK SMILES IDX 27 48 53 49 36 50 52 51 37 52 40 53 51 54 67 55 38 56 39 57
REMARK SMILES IDX 50 59 68 60 41 61 28 62 29 63 34 64 30 65 31 66 33 67 35 68
REMARK SMILES IDX 32 69 54 70 55 71 60 72 56 73 57 74 59 75 61 76 58 77 42 78
REMARK SMILES IDX 43 79 48 80 44 81 45 82 47 83 49 84 46 85
REMARK H PARENT 12 5 7 11 16 28 66 47 40 58
REMARK Flexibility Score: inf
ROOT
ATOM      1  C   UNL A   1      31.763  30.671  25.999  1.00  0.00     0.117 C 
ENDROOT
BRANCH   1   2
ATOM      2  N   UNL A   1      31.451  29.519  26.825  1.00  0.00    -0.354 N 
ATOM      3  C   UNL A   1      32.242  28.504  27.276  1.00  0.00     0.242 C 
ATOM      4  O   UNL A   1      31.716  27.656  28.004  1.00  0.00    -0.273 OA
ATOM      5  H   UNL A   1      30.510  29.462  27.109  1.00  0.00     0.163 HD
BRANCH   3   6
ATOM      6  C   UNL A   1      33.722  28.379  26.863  1.00  0.00     0.168 C 
ATOM      7  C   UNL A   1      34.658  29.328  27.599  1.00  0.00     0.041 C 
BRANCH   6   8
ATOM      8  N   UNL A   1      33.802  28.447  25.402  1.00  0.00    -0.341 N 
ATOM      9  C   UNL A   1      33.541  27.527  24.412  1.00  0.00     0.251 C 
ATOM     10  O   UNL A   1      33.556  27.936  23.249  1.00  0.00    -0.269 OA
ATOM     11  H   UNL A   1      34.101  29.322  25.062  1.00  0.00     0.164 HD
BRANCH   9  12
ATOM     12  C   UNL A   1      33.357  26.067  24.663  1.00  0.00     0.040 A 
ATOM     13  C   UNL A   1      35.601  23.076  24.133  1.00  0.00     0.048 C 
ATOM     14  C   UNL A   1      34.399  23.819  24.648  1.00  0.00    -0.008 A 
ATOM     15  C   UNL A   1      34.404  25.203  24.322  1.00  0.00     0.021 A 
ATOM     16  C   UNL A   1      33.347  23.329  25.438  1.00  0.00     0.131 A 
ATOM     17  C   UNL A   1      32.252  24.185  25.714  1.00  0.00    -0.008 A 
ATOM     18  C   UNL A   1      32.233  25.506  25.238  1.00  0.00     0.021 A 
ATOM     19  C   UNL A   1      31.106  23.786  26.614  1.00  0.00     0.048 C 
BRANCH  16  20
ATOM     20  O   UNL A   1      33.227  22.133  26.079  1.00  0.00    -0.434 OA
BRANCH  20  21
ATOM     21  C   UNL A   1      34.027  21.738  27.172  1.00  0.00     0.542 C 
ATOM     22  F   UNL A   1      35.156  21.127  26.749  1.00  0.00    -0.167 F 
ATOM     23  F   UNL A   1      34.345  22.822  27.916  1.00  0.00    -0.167 F 
ENDBRANCH  20  21
ENDBRANCH  16  20
ENDBRANCH   9  12
ENDBRANCH   6   8
ENDBRANCH   3   6
ENDBRANCH   1   2
BRANCH   1  24
ATOM     24  C   UNL A   1      31.458  31.996  26.679  1.00  0.00     0.042 C 
BRANCH  24  25
ATOM     25  C   UNL A   1      32.670  32.684  27.292  1.00  0.00     0.118 C 
BRANCH  25  26
ATOM     26  N   UNL A   1      32.430  34.089  27.596  1.00  0.00    -0.352 N 
ATOM     27  C   UNL A   1      33.013  34.916  28.527  1.00  0.00     0.251 C 
ATOM     28  H   UNL A   1      31.738  34.516  27.043  1.00  0.00     0.163 HD
ATOM     29  O   UNL A   1      32.524  36.016  28.751  1.00  0.00    -0.269 OA
BRANCH  27  30
ATOM     30  C   UNL A   1      34.206  34.472  29.281  1.00  0.00     0.039 A 
ATOM     31  C   UNL A   1      34.032  33.896  30.543  1.00  0.00     0.014 A 
ATOM     32  C   UNL A   1      35.489  34.624  28.754  1.00  0.00     0.014 A 
ATOM     33  C   UNL A   1      35.136  33.381  31.227  1.00  0.00     0.010 A 
ATOM     34  C   UNL A   1      36.575  34.034  29.394  1.00  0.00     0.010 A 
ATOM     35  C   UNL A   1      36.407  33.393  30.631  1.00  0.00    -0.014 A 
BRANCH  35  36
ATOM     36  C   UNL A   1      37.564  32.704  31.259  1.00  0.00     0.031 A 
ATOM     37  C   UNL A   1      38.224  31.541  30.570  1.00  0.00     0.074 A 
ATOM     38  C   UNL A   1      37.958  33.071  32.495  1.00  0.00     0.049 A 
ATOM     39  N   UNL A   1      39.168  30.749  31.011  1.00  0.00    -0.248 NA
ATOM     40  C   UNL A   1      37.747  31.212  29.217  1.00  0.00     0.031 C 
ATOM     41  C   UNL A   1      37.366  34.151  33.289  1.00  0.00     0.029 A 
ATOM     42  N   UNL A   1      38.937  32.561  33.313  1.00  0.00    -0.354 N 
ATOM     43  C   UNL A   1      39.384  29.820  30.000  1.00  0.00     0.074 A 
ATOM     44  C   UNL A   1      38.447  30.121  28.941  1.00  0.00     0.031 C 
ATOM     45  C   UNL A   1      37.997  34.228  34.470  1.00  0.00     0.029 A 
ATOM     46  C   UNL A   1      39.004  33.176  34.542  1.00  0.00     0.049 A 
ATOM     47  H   UNL A   1      39.533  31.824  33.045  1.00  0.00     0.167 HD
ATOM     48  C   UNL A   1      40.294  28.818  29.957  1.00  0.00     0.037 A 
ATOM     49  C   UNL A   1      39.773  32.906  35.614  1.00  0.00     0.037 A 
ATOM     50  C   UNL A   1      41.241  28.538  31.005  1.00  0.00     0.049 A 
ATOM     51  C   UNL A   1      40.757  31.771  35.542  1.00  0.00     0.074 A 
ATOM     52  C   UNL A   1      42.251  27.591  31.019  1.00  0.00     0.029 A 
ATOM     53  N   UNL A   1      41.290  29.193  32.225  1.00  0.00    -0.354 N 
ATOM     54  N   UNL A   1      41.008  30.954  34.548  1.00  0.00    -0.248 NA
ATOM     55  C   UNL A   1      41.568  31.520  36.743  1.00  0.00     0.031 C 
ATOM     56  C   UNL A   1      42.872  27.633  32.270  1.00  0.00     0.029 A 
ATOM     57  C   UNL A   1      42.290  28.647  33.013  1.00  0.00     0.049 A 
ATOM     58  H   UNL A   1      40.702  29.937  32.491  1.00  0.00     0.167 HD
ATOM     59  C   UNL A   1      42.020  30.113  34.992  1.00  0.00     0.074 A 
ATOM     60  C   UNL A   1      42.354  30.533  36.336  1.00  0.00     0.031 C 
ATOM     61  C   UNL A   1      42.616  29.080  34.347  1.00  0.00     0.037 A 
BRANCH  48  62
ATOM     62  C   UNL A   1      40.320  27.944  28.738  1.00  0.00     0.057 A 
ATOM     63  C   UNL A   1      41.080  28.273  27.607  1.00  0.00     0.134 A 
ATOM     64  C   UNL A   1      39.643  26.717  28.726  1.00  0.00     0.134 A 
ATOM     65  F   UNL A   1      41.745  29.437  27.550  1.00  0.00    -0.206 F 
ATOM     66  C   UNL A   1      41.156  27.419  26.505  1.00  0.00     0.040 A 
ATOM     67  C   UNL A   1      39.733  25.843  27.642  1.00  0.00     0.040 A 
ATOM     68  F   UNL A   1      38.904  26.338  29.779  1.00  0.00    -0.206 F 
ATOM     69  C   UNL A   1      40.491  26.195  26.526  1.00  0.00     0.006 A 
ENDBRANCH  48  62
BRANCH  49  70
ATOM     70  C   UNL A   1      39.636  33.706  36.859  1.00  0.00     0.057 A 
ATOM     71  C   UNL A   1      38.721  33.347  37.855  1.00  0.00     0.134 A 
ATOM     72  C   UNL A   1      40.385  34.872  37.064  1.00  0.00     0.134 A 
ATOM     73  F   UNL A   1      37.961  32.252  37.709  1.00  0.00    -0.206 F 
ATOM     74  C   UNL A   1      38.528  34.134  38.992  1.00  0.00     0.040 A 
ATOM     75  C   UNL A   1      40.226  35.651  38.212  1.00  0.00     0.040 A 
ATOM     76  F   UNL A   1      41.285  35.270  36.153  1.00  0.00    -0.206 F 
ATOM     77  C   UNL A   1      39.285  35.289  39.174  1.00  0.00     0.006 A 
ENDBRANCH  49  70
BRANCH  61  78
ATOM     78  C   UNL A   1      43.710  28.355  35.075  1.00  0.00     0.057 A 
ATOM     79  C   UNL A   1      45.048  28.763  34.998  1.00  0.00     0.134 A 
ATOM     80  C   UNL A   1      43.416  27.256  35.893  1.00  0.00     0.134 A 
ATOM     81  F   UNL A   1      45.399  29.800  34.221  1.00  0.00    -0.206 F 
ATOM     82  C   UNL A   1      46.058  28.088  35.686  1.00  0.00     0.040 A 
ATOM     83  C   UNL A   1      44.412  26.592  36.610  1.00  0.00     0.040 A 
ATOM     84  F   UNL A   1      42.154  26.819  36.020  1.00  0.00    -0.206 F 
ATOM     85  C   UNL A   1      45.738  27.004  36.501  1.00  0.00     0.006 A 
ENDBRANCH  61  78
ENDBRANCH  35  36
ENDBRANCH  27  30
ENDBRANCH  25  26
ENDBRANCH  24  25
ENDBRANCH   1  24
TORSDOF 14
ENDMDL
MODEL 3
REMARK VINA RESULT:     -11.3      2.749      7.308
REMARK SMILES Cc1cc(C(=O)N[C@@H](C)C(=O)NCCCNC(=O)c2ccc(-c3c4nc(c(-c5c(F)cccc5F)c5ccc([nH]5)c(-c5c(F)cccc5F)c5nc(c(-c6c(F)cccc6F)c6ccc3[nH]6)C=C5)C=C4)cc2)cc(C)c1OC(F)F
REMARK SMILES IDX 13 1 12 2 10 3 11 4 8 6 9 7 7 8 5 9 6 10 4 12 1 13 2 14 3 15
REMARK SMILES IDX 76 16 74 17 73 18 75 19 77 20 78 21 79 22 80 23 14 24 15 25
REMARK SMILES IDX 16 26 17 27 18 29 19 30 20 31 72 32 21 33 71 34 22 35 23 36
REMARK SMILES IDX 24 37 65 38 25 39 70 40 64 41 66 42 26 43 69 44 63 45 62 46
REMARK SMILES IDX 27 48 53 49 36 50 52 51 37 52 40 53 51 54 67 55 38 56 39 57
REMARK SMILES IDX 50 59 68 60 41 61 28 62 29 63 34 64 30 65 31 66 33 67 35 68
REMARK SMILES IDX 32 69 54 70 55 71 60 72 56 73 57 74 59 75 61 76 58 77 42 78
REMARK SMILES IDX 43 79 48 80 44 81 45 82 47 83 49 84 46 85
REMARK H PARENT 12 5 7 11 16 28 66 47 40 58
REMARK Flexibility Score: inf
ROOT
ATOM      1  C   UNL A   1      36.299  20.808  25.270  1.00  0.00     0.117 C 
ENDROOT
BRANCH   1   2
ATOM      2  N   UNL A   1      35.213  19.883  25.003  1.00  0.00    -0.354 N 
ATOM      3  C   UNL A   1      33.894  20.109  24.738  1.00  0.00     0.242 C 
ATOM      4  O   UNL A   1      33.185  19.124  24.510  1.00  0.00    -0.273 OA
ATOM      5  H   UNL A   1      35.471  18.933  25.014  1.00  0.00     0.163 HD
BRANCH   3   6
ATOM      6  C   UNL A   1      33.288  21.526  24.764  1.00  0.00     0.168 C 
ATOM      7  C   UNL A   1      31.895  21.598  25.375  1.00  0.00     0.041 C 
BRANCH   6   8
ATOM      8  N   UNL A   1      33.401  22.103  23.423  1.00  0.00    -0.341 N 
ATOM      9  C   UNL A   1      33.249  23.385  22.946  1.00  0.00     0.251 C 
ATOM     10  O   UNL A   1      33.563  23.587  21.771  1.00  0.00    -0.269 OA
ATOM     11  H   UNL A   1      33.630  21.445  22.726  1.00  0.00     0.164 HD
BRANCH   9  12
ATOM     12  C   UNL A   1      32.630  24.494  23.730  1.00  0.00     0.040 A 
ATOM     13  C   UNL A   1      34.081  27.149  25.991  1.00  0.00     0.048 C 
ATOM     14  C   UNL A   1      33.016  26.471  25.174  1.00  0.00    -0.008 A 
ATOM     15  C   UNL A   1      33.471  25.302  24.505  1.00  0.00     0.021 A 
ATOM     16  C   UNL A   1      31.691  26.884  24.958  1.00  0.00     0.131 A 
ATOM     17  C   UNL A   1      30.823  26.025  24.240  1.00  0.00    -0.008 A 
ATOM     18  C   UNL A   1      31.283  24.802  23.726  1.00  0.00     0.021 A 
ATOM     19  C   UNL A   1      29.404  26.403  23.887  1.00  0.00     0.048 C 
BRANCH  16  20
ATOM     20  O   UNL A   1      31.088  28.063  25.273  1.00  0.00    -0.434 OA
BRANCH  20  21
ATOM     21  C   UNL A   1      31.391  29.297  24.657  1.00  0.00     0.542 C 
ATOM     22  F   UNL A   1      32.122  29.111  23.536  1.00  0.00    -0.167 F 
ATOM     23  F   UNL A   1      30.243  29.945  24.351  1.00  0.00    -0.167 F 
ENDBRANCH  20  21
ENDBRANCH  16  20
ENDBRANCH   9  12
ENDBRANCH   6   8
ENDBRANCH   3   6
ENDBRANCH   1   2
BRANCH   1  24
ATOM     24  C   UNL A   1      37.654  20.285  24.819  1.00  0.00     0.042 C 
BRANCH  24  25
ATOM     25  C   UNL A   1      38.793  20.569  25.788  1.00  0.00     0.118 C 
BRANCH  25  26
ATOM     26  N   UNL A   1      39.782  19.500  25.829  1.00  0.00    -0.352 N 
ATOM     27  C   UNL A   1      41.131  19.536  26.089  1.00  0.00     0.251 C 
ATOM     28  H   UNL A   1      39.424  18.603  25.641  1.00  0.00     0.163 HD
ATOM     29  O   UNL A   1      41.817  18.544  25.879  1.00  0.00    -0.269 OA
BRANCH  27  30
ATOM     30  C   UNL A   1      41.765  20.776  26.591  1.00  0.00     0.039 A 
ATOM     31  C   UNL A   1      42.243  21.711  25.668  1.00  0.00     0.014 A 
ATOM     32  C   UNL A   1      41.890  21.019  27.959  1.00  0.00     0.014 A 
ATOM     33  C   UNL A   1      42.753  22.931  26.119  1.00  0.00     0.010 A 
ATOM     34  C   UNL A   1      42.316  22.267  28.405  1.00  0.00     0.010 A 
ATOM     35  C   UNL A   1      42.739  23.241  27.488  1.00  0.00    -0.014 A 
BRANCH  35  36
ATOM     36  C   UNL A   1      43.117  24.591  27.982  1.00  0.00     0.031 A 
ATOM     37  C   UNL A   1      42.060  25.623  28.262  1.00  0.00     0.074 A 
ATOM     38  C   UNL A   1      44.422  24.914  28.085  1.00  0.00     0.049 A 
ATOM     39  N   UNL A   1      42.202  26.883  28.588  1.00  0.00    -0.248 NA
ATOM     40  C   UNL A   1      40.658  25.190  28.140  1.00  0.00     0.031 C 
ATOM     41  C   UNL A   1      45.543  24.016  27.794  1.00  0.00     0.029 A 
ATOM     42  N   UNL A   1      45.029  26.092  28.443  1.00  0.00    -0.354 N 
ATOM     43  C   UNL A   1      40.915  27.395  28.693  1.00  0.00     0.074 A 
ATOM     44  C   UNL A   1      40.004  26.322  28.356  1.00  0.00     0.031 C 
ATOM     45  C   UNL A   1      46.697  24.672  27.994  1.00  0.00     0.029 A 
ATOM     46  C   UNL A   1      46.402  26.047  28.378  1.00  0.00     0.049 A 
ATOM     47  H   UNL A   1      44.528  26.894  28.720  1.00  0.00     0.167 HD
ATOM     48  C   UNL A   1      40.530  28.642  29.052  1.00  0.00     0.037 A 
ATOM     49  C   UNL A   1      47.320  27.012  28.581  1.00  0.00     0.037 A 
ATOM     50  C   UNL A   1      41.440  29.699  29.409  1.00  0.00     0.049 A 
ATOM     51  C   UNL A   1      46.859  28.394  28.955  1.00  0.00     0.074 A 
ATOM     52  C   UNL A   1      41.142  30.974  29.859  1.00  0.00     0.029 A 
ATOM     53  N   UNL A   1      42.822  29.610  29.348  1.00  0.00    -0.354 N 
ATOM     54  N   UNL A   1      45.639  28.840  29.132  1.00  0.00    -0.248 NA
ATOM     55  C   UNL A   1      47.904  29.408  29.162  1.00  0.00     0.031 C 
ATOM     56  C   UNL A   1      42.341  31.675  30.013  1.00  0.00     0.029 A 
ATOM     57  C   UNL A   1      43.389  30.819  29.718  1.00  0.00     0.049 A 
ATOM     58  H   UNL A   1      43.325  28.806  29.082  1.00  0.00     0.167 HD
ATOM     59  C   UNL A   1      45.771  30.175  29.494  1.00  0.00     0.074 A 
ATOM     60  C   UNL A   1      47.189  30.459  29.535  1.00  0.00     0.031 C 
ATOM     61  C   UNL A   1      44.803  31.086  29.762  1.00  0.00     0.037 A 
BRANCH  48  62
ATOM     62  C   UNL A   1      39.061  28.944  29.083  1.00  0.00     0.057 A 
ATOM     63  C   UNL A   1      38.300  28.798  30.251  1.00  0.00     0.134 A 
ATOM     64  C   UNL A   1      38.416  29.465  27.954  1.00  0.00     0.134 A 
ATOM     65  F   UNL A   1      38.854  28.296  31.365  1.00  0.00    -0.206 F 
ATOM     66  C   UNL A   1      36.949  29.149  30.290  1.00  0.00     0.040 A 
ATOM     67  C   UNL A   1      37.074  29.844  27.989  1.00  0.00     0.040 A 
ATOM     68  F   UNL A   1      39.087  29.637  26.806  1.00  0.00    -0.206 F 
ATOM     69  C   UNL A   1      36.335  29.685  29.160  1.00  0.00     0.006 A 
ENDBRANCH  48  62
BRANCH  49  70
ATOM     70  C   UNL A   1      48.768  26.720  28.416  1.00  0.00     0.057 A 
ATOM     71  C   UNL A   1      49.400  26.863  27.175  1.00  0.00     0.134 A 
ATOM     72  C   UNL A   1      49.545  26.251  29.483  1.00  0.00     0.134 A 
ATOM     73  F   UNL A   1      48.706  27.290  26.110  1.00  0.00    -0.206 F 
ATOM     74  C   UNL A   1      50.740  26.517  26.991  1.00  0.00     0.040 A 
ATOM     75  C   UNL A   1      50.895  25.932  29.320  1.00  0.00     0.040 A 
ATOM     76  F   UNL A   1      49.005  26.099  30.700  1.00  0.00    -0.206 F 
ATOM     77  C   UNL A   1      51.492  26.053  28.068  1.00  0.00     0.006 A 
ENDBRANCH  49  70
BRANCH  61  78
ATOM     78  C   UNL A   1      45.248  32.464  30.155  1.00  0.00     0.057 A 
ATOM     79  C   UNL A   1      45.531  32.801  31.484  1.00  0.00     0.134 A 
ATOM     80  C   UNL A   1      45.428  33.459  29.184  1.00  0.00     0.134 A 
ATOM     81  F   UNL A   1      45.365  31.898  32.464  1.00  0.00    -0.206 F 
ATOM     82  C   UNL A   1      45.953  34.083  31.839  1.00  0.00     0.040 A 
ATOM     83  C   UNL A   1      45.879  34.735  29.522  1.00  0.00     0.040 A 
ATOM     84  F   UNL A   1      45.185  33.201  27.891  1.00  0.00    -0.206 F 
ATOM     85  C   UNL A   1      46.135  35.052  30.854  1.00  0.00     0.006 A 
ENDBRANCH  61  78
ENDBRANCH  35  36
ENDBRANCH  27  30
ENDBRANCH  25  26
ENDBRANCH  24  25
ENDBRANCH   1  24
TORSDOF 14
ENDMDL
