MODEL 1
REMARK VINA RESULT:     -12.4      0.000      0.000
REMARK SMILES C[C@@H](c1ccncc1)N1C[C@@H](C(=O)NCCCNC(=O)c2ccc(-c3c4nc(c(-c5c(F)cccc5F)c5ccc([nH]5)c(-c5c(F)cccc5F)c5nc(c(-c6c(F)cccc6F)c6ccc3[nH]6)C=C5)C=C4)cc2)CC1=O
REMARK SMILES IDX 16 1 15 2 14 3 12 4 13 5 11 7 9 8 10 9 76 10 75 11 77 12
REMARK SMILES IDX 2 13 1 14 3 15 4 16 8 17 5 18 7 19 6 20 17 21 18 22 19 23
REMARK SMILES IDX 20 25 21 26 22 27 74 28 23 29 73 30 24 31 25 32 26 33 67 34
REMARK SMILES IDX 27 35 72 36 66 37 68 38 28 39 71 40 65 41 64 42 29 44 55 45
REMARK SMILES IDX 38 46 54 47 39 48 42 49 53 50 69 51 40 52 41 53 52 55 70 56
REMARK SMILES IDX 43 57 30 58 31 59 36 60 32 61 33 62 35 63 37 64 34 65 56 66
REMARK SMILES IDX 57 67 62 68 58 69 59 70 61 71 63 72 60 73 44 74 45 75 50 76
REMARK SMILES IDX 46 77 47 78 49 79 51 80 48 81
REMARK H PARENT 14 6 18 24 68 43 42 54
REMARK Flexibility Score: inf
ROOT
ATOM      1  C   UNL A   1      31.273  31.393  25.937  1.00  0.00     0.042 C 
ENDROOT
BRANCH   1   2
ATOM      2  C   UNL A   1      31.403  29.938  25.499  1.00  0.00     0.117 C 
BRANCH   2   3
ATOM      3  N   UNL A   1      32.596  29.703  24.699  1.00  0.00    -0.356 N 
ATOM      4  C   UNL A   1      32.797  29.000  23.555  1.00  0.00     0.225 C 
ATOM      5  O   UNL A   1      33.938  29.002  23.086  1.00  0.00    -0.275 OA
ATOM      6  H   UNL A   1      33.407  30.135  25.052  1.00  0.00     0.163 HD
BRANCH   4   7
ATOM      7  C   UNL A   1      31.692  28.248  22.841  1.00  0.00     0.107 C 
ATOM      8  N   UNL A   1      29.336  28.403  22.813  1.00  0.00    -0.335 N 
ATOM      9  C   UNL A   1      30.528  29.141  22.462  1.00  0.00     0.134 C 
ATOM     10  C   UNL A   1      29.618  27.263  23.542  1.00  0.00     0.223 C 
ATOM     11  C   UNL A   1      31.110  27.086  23.629  1.00  0.00     0.115 C 
ATOM     12  O   UNL A   1      28.818  26.492  24.051  1.00  0.00    -0.275 OA
BRANCH   8  13
ATOM     13  C   UNL A   1      27.999  28.937  22.511  1.00  0.00     0.112 C 
ATOM     14  C   UNL A   1      26.913  28.490  23.501  1.00  0.00     0.036 C 
BRANCH  13  15
ATOM     15  C   UNL A   1      28.033  30.437  22.254  1.00  0.00    -0.023 A 
ATOM     16  C   UNL A   1      28.133  31.321  23.340  1.00  0.00     0.026 A 
ATOM     17  C   UNL A   1      27.971  30.994  20.974  1.00  0.00     0.026 A 
ATOM     18  C   UNL A   1      28.159  32.687  23.107  1.00  0.00     0.111 A 
ATOM     19  C   UNL A   1      28.028  32.375  20.839  1.00  0.00     0.111 A 
ATOM     20  N   UNL A   1      28.113  33.234  21.877  1.00  0.00    -0.265 NA
ENDBRANCH  13  15
ENDBRANCH   8  13
ENDBRANCH   4   7
ENDBRANCH   2   3
ENDBRANCH   1   2
BRANCH   1  21
ATOM     21  C   UNL A   1      32.375  31.874  26.876  1.00  0.00     0.118 C 
BRANCH  21  22
ATOM     22  N   UNL A   1      32.247  33.279  27.230  1.00  0.00    -0.352 N 
ATOM     23  C   UNL A   1      32.958  34.049  28.115  1.00  0.00     0.251 C 
ATOM     24  H   UNL A   1      31.530  33.758  26.754  1.00  0.00     0.163 HD
ATOM     25  O   UNL A   1      32.558  35.182  28.376  1.00  0.00    -0.269 OA
BRANCH  23  26
ATOM     26  C   UNL A   1      34.178  33.536  28.777  1.00  0.00     0.039 A 
ATOM     27  C   UNL A   1      34.028  32.703  29.890  1.00  0.00     0.014 A 
ATOM     28  C   UNL A   1      35.460  33.893  28.348  1.00  0.00     0.014 A 
ATOM     29  C   UNL A   1      35.157  32.180  30.525  1.00  0.00     0.010 A 
ATOM     30  C   UNL A   1      36.582  33.299  28.926  1.00  0.00     0.010 A 
ATOM     31  C   UNL A   1      36.444  32.438  30.024  1.00  0.00    -0.014 A 
BRANCH  31  32
ATOM     32  C   UNL A   1      37.633  31.783  30.629  1.00  0.00     0.031 A 
ATOM     33  C   UNL A   1      38.103  32.148  32.011  1.00  0.00     0.074 A 
ATOM     34  C   UNL A   1      38.311  30.866  29.912  1.00  0.00     0.049 A 
ATOM     35  N   UNL A   1      39.100  31.653  32.702  1.00  0.00    -0.248 NA
ATOM     36  C   UNL A   1      37.377  33.226  32.699  1.00  0.00     0.031 C 
ATOM     37  C   UNL A   1      37.997  30.469  28.537  1.00  0.00     0.029 A 
ATOM     38  N   UNL A   1      39.398  30.094  30.238  1.00  0.00    -0.354 N 
ATOM     39  C   UNL A   1      39.120  32.355  33.900  1.00  0.00     0.074 A 
ATOM     40  C   UNL A   1      38.077  33.354  33.817  1.00  0.00     0.031 C 
ATOM     41  C   UNL A   1      38.842  29.499  28.154  1.00  0.00     0.029 A 
ATOM     42  C   UNL A   1      39.780  29.231  29.239  1.00  0.00     0.049 A 
ATOM     43  H   UNL A   1      39.860  30.154  31.105  1.00  0.00     0.167 HD
ATOM     44  C   UNL A   1      39.917  32.169  34.980  1.00  0.00     0.037 A 
ATOM     45  C   UNL A   1      40.772  28.322  29.201  1.00  0.00     0.037 A 
ATOM     46  C   UNL A   1      40.953  31.169  35.062  1.00  0.00     0.049 A 
ATOM     47  C   UNL A   1      41.643  28.138  30.411  1.00  0.00     0.074 A 
ATOM     48  C   UNL A   1      41.777  30.867  36.132  1.00  0.00     0.029 A 
ATOM     49  N   UNL A   1      41.311  30.315  34.029  1.00  0.00    -0.354 N 
ATOM     50  N   UNL A   1      41.596  28.755  31.568  1.00  0.00    -0.248 NA
ATOM     51  C   UNL A   1      42.698  27.120  30.314  1.00  0.00     0.031 C 
ATOM     52  C   UNL A   1      42.672  29.868  35.728  1.00  0.00     0.029 A 
ATOM     53  C   UNL A   1      42.364  29.504  34.428  1.00  0.00     0.049 A 
ATOM     54  H   UNL A   1      40.882  30.288  33.144  1.00  0.00     0.167 HD
ATOM     55  C   UNL A   1      42.598  28.184  32.343  1.00  0.00     0.074 A 
ATOM     56  C   UNL A   1      43.214  27.153  31.534  1.00  0.00     0.031 C 
ATOM     57  C   UNL A   1      42.978  28.490  33.609  1.00  0.00     0.037 A 
BRANCH  44  58
ATOM     58  C   UNL A   1      39.702  33.069  36.166  1.00  0.00     0.057 A 
ATOM     59  C   UNL A   1      38.783  32.754  37.177  1.00  0.00     0.134 A 
ATOM     60  C   UNL A   1      40.447  34.244  36.319  1.00  0.00     0.134 A 
ATOM     61  F   UNL A   1      38.027  31.648  37.089  1.00  0.00    -0.206 F 
ATOM     62  C   UNL A   1      38.595  33.588  38.281  1.00  0.00     0.040 A 
ATOM     63  C   UNL A   1      40.291  35.070  37.435  1.00  0.00     0.040 A 
ATOM     64  F   UNL A   1      41.349  34.605  35.395  1.00  0.00    -0.206 F 
ATOM     65  C   UNL A   1      39.356  34.746  38.416  1.00  0.00     0.006 A 
ENDBRANCH  44  58
BRANCH  45  66
ATOM     66  C   UNL A   1      40.979  27.497  27.983  1.00  0.00     0.057 A 
ATOM     67  C   UNL A   1      41.765  27.959  26.920  1.00  0.00     0.134 A 
ATOM     68  C   UNL A   1      40.390  26.235  27.847  1.00  0.00     0.134 A 
ATOM     69  F   UNL A   1      42.343  29.167  26.982  1.00  0.00    -0.206 F 
ATOM     70  C   UNL A   1      41.934  27.208  25.755  1.00  0.00     0.040 A 
ATOM     71  C   UNL A   1      40.575  25.460  26.702  1.00  0.00     0.040 A 
ATOM     72  F   UNL A   1      39.633  25.731  28.833  1.00  0.00    -0.206 F 
ATOM     73  C   UNL A   1      41.342  25.951  25.647  1.00  0.00     0.006 A 
ENDBRANCH  45  66
BRANCH  57  74
ATOM     74  C   UNL A   1      44.097  27.675  34.195  1.00  0.00     0.057 A 
ATOM     75  C   UNL A   1      43.866  26.459  34.853  1.00  0.00     0.134 A 
ATOM     76  C   UNL A   1      45.423  28.120  34.112  1.00  0.00     0.134 A 
ATOM     77  F   UNL A   1      42.620  25.981  34.980  1.00  0.00    -0.206 F 
ATOM     78  C   UNL A   1      44.906  25.740  35.446  1.00  0.00     0.040 A 
ATOM     79  C   UNL A   1      46.475  27.392  34.670  1.00  0.00     0.040 A 
ATOM     80  F   UNL A   1      45.720  29.269  33.487  1.00  0.00    -0.206 F 
ATOM     81  C   UNL A   1      46.216  26.206  35.353  1.00  0.00     0.006 A 
ENDBRANCH  57  74
ENDBRANCH  31  32
ENDBRANCH  23  26
ENDBRANCH  21  22
ENDBRANCH   1  21
TORSDOF 12
ENDMDL
MODEL 2
REMARK VINA RESULT:     -12.3      1.110      2.065
REMARK SMILES C[C@@H](c1ccncc1)N1C[C@@H](C(=O)NCCCNC(=O)c2ccc(-c3c4nc(c(-c5c(F)cccc5F)c5ccc([nH]5)c(-c5c(F)cccc5F)c5nc(c(-c6c(F)cccc6F)c6ccc3[nH]6)C=C5)C=C4)cc2)CC1=O
REMARK SMILES IDX 16 1 15 2 14 3 12 4 13 5 11 7 9 8 10 9 76 10 75 11 77 12
REMARK SMILES IDX 2 13 1 14 3 15 4 16 8 17 5 18 7 19 6 20 17 21 18 22 19 23
REMARK SMILES IDX 20 25 21 26 22 27 74 28 23 29 73 30 24 31 25 32 26 33 67 34
REMARK SMILES IDX 27 35 72 36 66 37 68 38 28 39 71 40 65 41 64 42 29 44 55 45
REMARK SMILES IDX 38 46 54 47 39 48 42 49 53 50 69 51 40 52 41 53 52 55 70 56
REMARK SMILES IDX 43 57 30 58 31 59 36 60 32 61 33 62 35 63 37 64 34 65 56 66
REMARK SMILES IDX 57 67 62 68 58 69 59 70 61 71 63 72 60 73 44 74 45 75 50 76
REMARK SMILES IDX 46 77 47 78 49 79 51 80 48 81
REMARK H PARENT 14 6 18 24 68 43 42 54
REMARK Flexibility Score: inf
ROOT
ATOM      1  C   UNL A   1      31.404  31.962  26.618  1.00  0.00     0.042 C 
ENDROOT
BRANCH   1   2
ATOM      2  C   UNL A   1      31.525  30.464  26.878  1.00  0.00     0.117 C 
BRANCH   2   3
ATOM      3  N   UNL A   1      32.848  30.088  27.352  1.00  0.00    -0.356 N 
ATOM      4  C   UNL A   1      33.667  29.054  27.031  1.00  0.00     0.225 C 
ATOM      5  O   UNL A   1      34.764  29.008  27.593  1.00  0.00    -0.275 OA
ATOM      6  H   UNL A   1      33.218  30.696  28.032  1.00  0.00     0.163 HD
BRANCH   4   7
ATOM      7  C   UNL A   1      33.297  27.991  26.016  1.00  0.00     0.107 C 
ATOM      8  N   UNL A   1      31.713  27.849  24.270  1.00  0.00    -0.335 N 
ATOM      9  C   UNL A   1      32.894  28.576  24.677  1.00  0.00     0.134 C 
ATOM     10  C   UNL A   1      31.223  27.037  25.275  1.00  0.00     0.223 C 
ATOM     11  C   UNL A   1      32.165  27.074  26.448  1.00  0.00     0.115 C 
ATOM     12  O   UNL A   1      30.196  26.374  25.258  1.00  0.00    -0.275 OA
BRANCH   8  13
ATOM     13  C   UNL A   1      31.083  28.100  22.965  1.00  0.00     0.112 C 
ATOM     14  C   UNL A   1      31.028  26.865  22.053  1.00  0.00     0.036 C 
BRANCH  13  15
ATOM     15  C   UNL A   1      29.756  28.831  23.109  1.00  0.00    -0.023 A 
ATOM     16  C   UNL A   1      29.752  30.211  23.366  1.00  0.00     0.026 A 
ATOM     17  C   UNL A   1      28.517  28.194  22.997  1.00  0.00     0.026 A 
ATOM     18  C   UNL A   1      28.543  30.876  23.501  1.00  0.00     0.111 A 
ATOM     19  C   UNL A   1      27.359  28.949  23.125  1.00  0.00     0.111 A 
ATOM     20  N   UNL A   1      27.345  30.274  23.383  1.00  0.00    -0.265 NA
ENDBRANCH  13  15
ENDBRANCH   8  13
ENDBRANCH   4   7
ENDBRANCH   2   3
ENDBRANCH   1   2
BRANCH   1  21
ATOM     21  C   UNL A   1      32.680  32.756  26.876  1.00  0.00     0.118 C 
BRANCH  21  22
ATOM     22  N   UNL A   1      32.432  34.041  27.511  1.00  0.00    -0.352 N 
ATOM     23  C   UNL A   1      33.022  34.633  28.598  1.00  0.00     0.251 C 
ATOM     24  H   UNL A   1      31.720  34.576  27.089  1.00  0.00     0.163 HD
ATOM     25  O   UNL A   1      32.528  35.659  29.061  1.00  0.00    -0.269 OA
BRANCH  23  26
ATOM     26  C   UNL A   1      34.223  34.050  29.237  1.00  0.00     0.039 A 
ATOM     27  C   UNL A   1      34.043  33.069  30.217  1.00  0.00     0.014 A 
ATOM     28  C   UNL A   1      35.515  34.480  28.918  1.00  0.00     0.014 A 
ATOM     29  C   UNL A   1      35.154  32.478  30.823  1.00  0.00     0.010 A 
ATOM     30  C   UNL A   1      36.623  33.827  29.458  1.00  0.00     0.010 A 
ATOM     31  C   UNL A   1      36.455  32.820  30.420  1.00  0.00    -0.014 A 
BRANCH  31  32
ATOM     32  C   UNL A   1      37.630  32.104  30.982  1.00  0.00     0.031 A 
ATOM     33  C   UNL A   1      38.128  32.396  32.371  1.00  0.00     0.074 A 
ATOM     34  C   UNL A   1      38.270  31.196  30.217  1.00  0.00     0.049 A 
ATOM     35  N   UNL A   1      39.117  31.840  33.027  1.00  0.00    -0.248 NA
ATOM     36  C   UNL A   1      37.446  33.466  33.113  1.00  0.00     0.031 C 
ATOM     37  C   UNL A   1      37.927  30.868  28.832  1.00  0.00     0.029 A 
ATOM     38  N   UNL A   1      39.336  30.378  30.497  1.00  0.00    -0.354 N 
ATOM     39  C   UNL A   1      39.174  32.491  34.253  1.00  0.00     0.074 A 
ATOM     40  C   UNL A   1      38.162  33.525  34.226  1.00  0.00     0.031 C 
ATOM     41  C   UNL A   1      38.736  29.889  28.397  1.00  0.00     0.029 A 
ATOM     42  C   UNL A   1      39.678  29.547  29.458  1.00  0.00     0.049 A 
ATOM     43  H   UNL A   1      39.810  30.387  31.359  1.00  0.00     0.167 HD
ATOM     44  C   UNL A   1      39.978  32.235  35.313  1.00  0.00     0.037 A 
ATOM     45  C   UNL A   1      40.641  28.610  29.368  1.00  0.00     0.037 A 
ATOM     46  C   UNL A   1      40.982  31.201  35.340  1.00  0.00     0.049 A 
ATOM     47  C   UNL A   1      41.520  28.348  30.558  1.00  0.00     0.074 A 
ATOM     48  C   UNL A   1      41.810  30.828  36.385  1.00  0.00     0.029 A 
ATOM     49  N   UNL A   1      41.301  30.380  34.268  1.00  0.00    -0.354 N 
ATOM     50  N   UNL A   1      41.506  28.916  31.740  1.00  0.00    -0.248 NA
ATOM     51  C   UNL A   1      42.540  27.303  30.404  1.00  0.00     0.031 C 
ATOM     52  C   UNL A   1      42.668  29.820  35.928  1.00  0.00     0.029 A 
ATOM     53  C   UNL A   1      42.332  29.521  34.618  1.00  0.00     0.049 A 
ATOM     54  H   UNL A   1      40.861  30.404  33.388  1.00  0.00     0.167 HD
ATOM     55  C   UNL A   1      42.499  28.283  32.477  1.00  0.00     0.074 A 
ATOM     56  C   UNL A   1      43.072  27.268  31.617  1.00  0.00     0.031 C 
ATOM     57  C   UNL A   1      42.903  28.523  33.749  1.00  0.00     0.037 A 
BRANCH  44  58
ATOM     58  C   UNL A   1      39.806  33.090  36.538  1.00  0.00     0.057 A 
ATOM     59  C   UNL A   1      40.559  34.256  36.741  1.00  0.00     0.134 A 
ATOM     60  C   UNL A   1      38.849  32.768  37.509  1.00  0.00     0.134 A 
ATOM     61  F   UNL A   1      41.501  34.619  35.856  1.00  0.00    -0.206 F 
ATOM     62  C   UNL A   1      40.387  35.051  37.875  1.00  0.00     0.040 A 
ATOM     63  C   UNL A   1      38.646  33.573  38.632  1.00  0.00     0.040 A 
ATOM     64  F   UNL A   1      38.087  31.672  37.378  1.00  0.00    -0.206 F 
ATOM     65  C   UNL A   1      39.422  34.714  38.821  1.00  0.00     0.006 A 
ENDBRANCH  44  58
BRANCH  45  66
ATOM     66  C   UNL A   1      40.807  27.830  28.115  1.00  0.00     0.057 A 
ATOM     67  C   UNL A   1      40.177  26.591  27.943  1.00  0.00     0.134 A 
ATOM     68  C   UNL A   1      41.607  28.297  27.065  1.00  0.00     0.134 A 
ATOM     69  F   UNL A   1      39.411  26.082  28.919  1.00  0.00    -0.206 F 
ATOM     70  C   UNL A   1      40.358  25.833  26.784  1.00  0.00     0.040 A 
ATOM     71  C   UNL A   1      41.771  27.564  25.889  1.00  0.00     0.040 A 
ATOM     72  F   UNL A   1      42.230  29.480  27.163  1.00  0.00    -0.206 F 
ATOM     73  C   UNL A   1      41.153  26.323  25.751  1.00  0.00     0.006 A 
ENDBRANCH  45  66
BRANCH  57  74
ATOM     74  C   UNL A   1      44.004  27.650  34.286  1.00  0.00     0.057 A 
ATOM     75  C   UNL A   1      43.743  26.412  34.890  1.00  0.00     0.134 A 
ATOM     76  C   UNL A   1      45.341  28.059  34.210  1.00  0.00     0.134 A 
ATOM     77  F   UNL A   1      42.484  25.965  35.009  1.00  0.00    -0.206 F 
ATOM     78  C   UNL A   1      44.766  25.637  35.439  1.00  0.00     0.040 A 
ATOM     79  C   UNL A   1      46.376  27.276  34.723  1.00  0.00     0.040 A 
ATOM     80  F   UNL A   1      45.666  29.226  33.634  1.00  0.00    -0.206 F 
ATOM     81  C   UNL A   1      46.088  26.068  35.353  1.00  0.00     0.006 A 
ENDBRANCH  57  74
ENDBRANCH  31  32
ENDBRANCH  23  26
ENDBRANCH  21  22
ENDBRANCH   1  21
TORSDOF 12
ENDMDL
MODEL 3
REMARK VINA RESULT:     -12.3      5.985     10.400
REMARK SMILES C[C@@H](c1ccncc1)N1C[C@@H](C(=O)NCCCNC(=O)c2ccc(-c3c4nc(c(-c5c(F)cccc5F)c5ccc([nH]5)c(-c5c(F)cccc5F)c5nc(c(-c6c(F)cccc6F)c6ccc3[nH]6)C=C5)C=C4)cc2)CC1=O
REMARK SMILES IDX 16 1 15 2 14 3 12 4 13 5 11 7 9 8 10 9 76 10 75 11 77 12
REMARK SMILES IDX 2 13 1 14 3 15 4 16 8 17 5 18 7 19 6 20 17 21 18 22 19 23
REMARK SMILES IDX 20 25 21 26 22 27 74 28 23 29 73 30 24 31 25 32 26 33 67 34
REMARK SMILES IDX 27 35 72 36 66 37 68 38 28 39 71 40 65 41 64 42 29 44 55 45
REMARK SMILES IDX 38 46 54 47 39 48 42 49 53 50 69 51 40 52 41 53 52 55 70 56
REMARK SMILES IDX 43 57 30 58 31 59 36 60 32 61 33 62 35 63 37 64 34 65 56 66
REMARK SMILES IDX 57 67 62 68 58 69 59 70 61 71 63 72 60 73 44 74 45 75 50 76
REMARK SMILES IDX 46 77 47 78 49 79 51 80 48 81
REMARK H PARENT 14 6 18 24 68 43 42 54
REMARK Flexibility Score: inf
ROOT
ATOM      1  C   UNL A   1      39.126  20.565  25.284  1.00  0.00     0.042 C 
ENDROOT
BRANCH   1   2
ATOM      2  C   UNL A   1      38.708  21.826  26.034  1.00  0.00     0.117 C 
BRANCH   2   3
ATOM      3  N   UNL A   1      37.892  22.713  25.218  1.00  0.00    -0.356 N 
ATOM      4  C   UNL A   1      36.551  22.789  25.023  1.00  0.00     0.225 C 
ATOM      5  O   UNL A   1      36.140  23.680  24.276  1.00  0.00    -0.275 OA
ATOM      6  H   UNL A   1      38.409  23.383  24.715  1.00  0.00     0.163 HD
BRANCH   4   7
ATOM      7  C   UNL A   1      35.564  21.851  25.689  1.00  0.00     0.107 C 
ATOM      8  N   UNL A   1      33.493  20.908  25.060  1.00  0.00    -0.335 N 
ATOM      9  C   UNL A   1      34.894  20.913  24.706  1.00  0.00     0.134 C 
ATOM     10  C   UNL A   1      33.184  21.874  26.000  1.00  0.00     0.223 C 
ATOM     11  C   UNL A   1      34.451  22.547  26.454  1.00  0.00     0.115 C 
ATOM     12  O   UNL A   1      32.076  22.167  26.426  1.00  0.00    -0.275 OA
BRANCH   8  13
ATOM     13  C   UNL A   1      32.537  20.037  24.359  1.00  0.00     0.112 C 
ATOM     14  C   UNL A   1      32.219  20.490  22.926  1.00  0.00     0.036 C 
BRANCH  13  15
ATOM     15  C   UNL A   1      32.916  18.568  24.481  1.00  0.00    -0.023 A 
ATOM     16  C   UNL A   1      33.388  17.880  23.352  1.00  0.00     0.026 A 
ATOM     17  C   UNL A   1      32.819  17.852  25.677  1.00  0.00     0.026 A 
ATOM     18  C   UNL A   1      33.727  16.541  23.463  1.00  0.00     0.111 A 
ATOM     19  C   UNL A   1      33.205  16.518  25.695  1.00  0.00     0.111 A 
ATOM     20  N   UNL A   1      33.649  15.846  24.612  1.00  0.00    -0.265 NA
ENDBRANCH  13  15
ENDBRANCH   8  13
ENDBRANCH   4   7
ENDBRANCH   2   3
ENDBRANCH   1   2
BRANCH   1  21
ATOM     21  C   UNL A   1      39.583  19.417  26.178  1.00  0.00     0.118 C 
BRANCH  21  22
ATOM     22  N   UNL A   1      40.924  18.949  25.863  1.00  0.00    -0.352 N 
ATOM     23  C   UNL A   1      42.128  19.605  25.872  1.00  0.00     0.251 C 
ATOM     24  H   UNL A   1      40.975  18.002  25.599  1.00  0.00     0.163 HD
ATOM     25  O   UNL A   1      43.116  19.047  25.400  1.00  0.00    -0.269 OA
BRANCH  23  26
ATOM     26  C   UNL A   1      42.255  20.976  26.415  1.00  0.00     0.039 A 
ATOM     27  C   UNL A   1      42.108  21.160  27.793  1.00  0.00     0.014 A 
ATOM     28  C   UNL A   1      42.476  22.083  25.589  1.00  0.00     0.014 A 
ATOM     29  C   UNL A   1      42.245  22.436  28.343  1.00  0.00     0.010 A 
ATOM     30  C   UNL A   1      42.702  23.340  26.149  1.00  0.00     0.010 A 
ATOM     31  C   UNL A   1      42.587  23.532  27.533  1.00  0.00    -0.014 A 
BRANCH  31  32
ATOM     32  C   UNL A   1      42.850  24.863  28.140  1.00  0.00     0.031 A 
ATOM     33  C   UNL A   1      44.235  25.258  28.578  1.00  0.00     0.074 A 
ATOM     34  C   UNL A   1      41.822  25.715  28.322  1.00  0.00     0.049 A 
ATOM     35  N   UNL A   1      44.646  26.390  29.094  1.00  0.00    -0.248 NA
ATOM     36  C   UNL A   1      45.292  24.245  28.442  1.00  0.00     0.031 C 
ATOM     37  C   UNL A   1      40.422  25.429  28.000  1.00  0.00     0.029 A 
ATOM     38  N   UNL A   1      41.792  26.996  28.812  1.00  0.00    -0.354 N 
ATOM     39  C   UNL A   1      46.002  26.225  29.343  1.00  0.00     0.074 A 
ATOM     40  C   UNL A   1      46.332  24.864  28.981  1.00  0.00     0.031 C 
ATOM     41  C   UNL A   1      39.678  26.516  28.259  1.00  0.00     0.029 A 
ATOM     42  C   UNL A   1      40.540  27.561  28.801  1.00  0.00     0.049 A 
ATOM     43  H   UNL A   1      42.593  27.466  29.142  1.00  0.00     0.167 HD
ATOM     44  C   UNL A   1      46.896  27.131  29.808  1.00  0.00     0.037 A 
ATOM     45  C   UNL A   1      40.130  28.786  29.180  1.00  0.00     0.037 A 
ATOM     46  C   UNL A   1      46.566  28.489  30.163  1.00  0.00     0.049 A 
ATOM     47  C   UNL A   1      41.142  29.771  29.693  1.00  0.00     0.074 A 
ATOM     48  C   UNL A   1      47.411  29.498  30.591  1.00  0.00     0.029 A 
ATOM     49  N   UNL A   1      45.287  29.024  30.139  1.00  0.00    -0.354 N 
ATOM     50  N   UNL A   1      42.436  29.626  29.845  1.00  0.00    -0.248 NA
ATOM     51  C   UNL A   1      40.635  31.095  30.075  1.00  0.00     0.031 C 
ATOM     52  C   UNL A   1      46.635  30.627  30.881  1.00  0.00     0.029 A 
ATOM     53  C   UNL A   1      45.315  30.341  30.573  1.00  0.00     0.049 A 
ATOM     54  H   UNL A   1      44.477  28.540  29.858  1.00  0.00     0.167 HD
ATOM     55  C   UNL A   1      42.902  30.846  30.319  1.00  0.00     0.074 A 
ATOM     56  C   UNL A   1      41.755  31.726  30.398  1.00  0.00     0.031 C 
ATOM     57  C   UNL A   1      44.164  31.204  30.661  1.00  0.00     0.037 A 
BRANCH  44  58
ATOM     58  C   UNL A   1      48.324  26.683  29.959  1.00  0.00     0.057 A 
ATOM     59  C   UNL A   1      49.283  26.915  28.962  1.00  0.00     0.134 A 
ATOM     60  C   UNL A   1      48.756  26.047  31.129  1.00  0.00     0.134 A 
ATOM     61  F   UNL A   1      48.936  27.511  27.810  1.00  0.00    -0.206 F 
ATOM     62  C   UNL A   1      50.610  26.507  29.113  1.00  0.00     0.040 A 
ATOM     63  C   UNL A   1      50.087  25.662  31.305  1.00  0.00     0.040 A 
ATOM     64  F   UNL A   1      47.895  25.798  32.127  1.00  0.00    -0.206 F 
ATOM     65  C   UNL A   1      51.016  25.885  30.291  1.00  0.00     0.006 A 
ENDBRANCH  44  58
BRANCH  45  66
ATOM     66  C   UNL A   1      38.697  29.161  29.063  1.00  0.00     0.057 A 
ATOM     67  C   UNL A   1      37.836  29.085  30.164  1.00  0.00     0.134 A 
ATOM     68  C   UNL A   1      38.151  29.592  27.848  1.00  0.00     0.134 A 
ATOM     69  F   UNL A   1      38.294  28.663  31.352  1.00  0.00    -0.206 F 
ATOM     70  C   UNL A   1      36.479  29.397  30.056  1.00  0.00     0.040 A 
ATOM     71  C   UNL A   1      36.804  29.937  27.732  1.00  0.00     0.040 A 
ATOM     72  F   UNL A   1      38.924  29.695  26.757  1.00  0.00    -0.206 F 
ATOM     73  C   UNL A   1      35.962  29.830  28.837  1.00  0.00     0.006 A 
ENDBRANCH  45  66
BRANCH  57  74
ATOM     74  C   UNL A   1      44.364  32.619  31.129  1.00  0.00     0.057 A 
ATOM     75  C   UNL A   1      44.289  32.971  32.484  1.00  0.00     0.134 A 
ATOM     76  C   UNL A   1      44.622  33.646  30.211  1.00  0.00     0.134 A 
ATOM     77  F   UNL A   1      44.031  32.041  33.415  1.00  0.00    -0.206 F 
ATOM     78  C   UNL A   1      44.417  34.297  32.903  1.00  0.00     0.040 A 
ATOM     79  C   UNL A   1      44.787  34.969  30.621  1.00  0.00     0.040 A 
ATOM     80  F   UNL A   1      44.720  33.380  28.900  1.00  0.00    -0.206 F 
ATOM     81  C   UNL A   1      44.670  35.300  31.969  1.00  0.00     0.006 A 
ENDBRANCH  57  74
ENDBRANCH  31  32
ENDBRANCH  23  26
ENDBRANCH  21  22
ENDBRANCH   1  21
TORSDOF 12
ENDMDL
