MODEL 1
REMARK VINA RESULT:     -11.1      0.000      0.000
REMARK SMILES CCC[C@@]1(C(=O)NCCCNC(=O)c2ccc(-c3c4nc(c(-c5c(F)cccc5F)c5ccc([nH]5)c(-c5c(F)cccc5F)c5nc(c(-c6c(F)cccc6F)c6ccc3[nH]6)C=C5)C=C4)cc2)CCN(C(=O)[C@@H]2CC[NH2+][C@@H]2C)C1
REMARK SMILES IDX 9 1 8 2 7 3 5 4 6 5 4 7 68 8 79 9 69 10 70 11 3 12 2 13 1 14
REMARK SMILES IDX 71 15 72 16 73 17 74 18 77 19 75 20 76 21 78 22 10 25 11 26
REMARK SMILES IDX 12 27 13 29 14 30 15 31 67 32 16 33 66 34 17 35 18 36 19 37
REMARK SMILES IDX 60 38 20 39 65 40 59 41 61 42 21 43 64 44 58 45 57 46 22 48
REMARK SMILES IDX 48 49 31 50 47 51 32 52 35 53 46 54 62 55 33 56 34 57 45 59
REMARK SMILES IDX 63 60 36 61 23 62 24 63 29 64 25 65 26 66 28 67 30 68 27 69
REMARK SMILES IDX 49 70 50 71 55 72 51 73 52 74 54 75 56 76 53 77 37 78 38 79
REMARK SMILES IDX 43 80 39 81 40 82 42 83 44 84 41 85
REMARK H PARENT 7 6 76 23 76 24 11 28 61 47 35 58
REMARK Flexibility Score: inf
ROOT
ATOM      1  C   UNL A   1      37.815  19.571  24.867  1.00  0.00     0.042 C 
ENDROOT
BRANCH   1   2
ATOM      2  C   UNL A   1      36.534  20.371  25.001  1.00  0.00     0.117 C 
BRANCH   2   3
ATOM      3  N   UNL A   1      36.751  21.696  25.524  1.00  0.00    -0.355 N 
ATOM      4  C   UNL A   1      35.949  22.774  25.661  1.00  0.00     0.228 C 
ATOM      5  O   UNL A   1      36.478  23.716  26.267  1.00  0.00    -0.274 OA
ATOM      6  H   UNL A   1      37.670  21.845  25.847  1.00  0.00     0.163 HD
BRANCH   4   7
ATOM      7  C   UNL A   1      34.460  22.851  25.251  1.00  0.00     0.068 C 
ATOM      8  C   UNL A   1      34.389  22.989  23.711  1.00  0.00     0.040 C 
ATOM      9  C   UNL A   1      33.612  24.035  25.731  1.00  0.00     0.136 C 
ATOM     10  C   UNL A   1      34.132  24.460  23.422  1.00  0.00     0.120 C 
ATOM     11  N   UNL A   1      33.490  24.977  24.612  1.00  0.00    -0.341 N 
BRANCH   7  12
ATOM     12  C   UNL A   1      33.784  21.501  25.661  1.00  0.00     0.018 C 
BRANCH  12  13
ATOM     13  C   UNL A   1      32.492  21.083  24.932  1.00  0.00    -0.002 C 
ATOM     14  C   UNL A   1      32.531  19.731  24.244  1.00  0.00     0.004 C 
ENDBRANCH  12  13
ENDBRANCH   7  12
BRANCH  11  15
ATOM     15  C   UNL A   1      32.931  26.215  24.828  1.00  0.00     0.231 C 
ATOM     16  O   UNL A   1      31.696  26.328  24.825  1.00  0.00    -0.274 OA
BRANCH  15  17
ATOM     17  C   UNL A   1      33.754  27.476  25.116  1.00  0.00     0.142 C 
ATOM     18  C   UNL A   1      33.371  28.330  26.313  1.00  0.00     0.081 C 
ATOM     19  C   UNL A   1      33.998  28.477  23.991  1.00  0.00     0.192 C 
ATOM     20  C   UNL A   1      32.933  29.674  25.749  1.00  0.00     0.261 C 
ATOM     21  N   UNL A   1      33.228  29.682  24.321  1.00  0.00    -0.343 N 
ATOM     22  C   UNL A   1      33.681  28.051  22.569  1.00  0.00     0.076 C 
ATOM     23  H   UNL A   1      33.772  30.512  24.088  1.00  0.00     0.346 HD
ATOM     24  H   UNL A   1      32.358  29.694  23.788  1.00  0.00     0.346 HD
ENDBRANCH  15  17
ENDBRANCH  11  15
ENDBRANCH   4   7
ENDBRANCH   2   3
ENDBRANCH   1   2
BRANCH   1  25
ATOM     25  C   UNL A   1      38.951  20.156  25.686  1.00  0.00     0.118 C 
BRANCH  25  26
ATOM     26  N   UNL A   1      40.069  19.227  25.832  1.00  0.00    -0.352 N 
ATOM     27  C   UNL A   1      41.389  19.466  26.126  1.00  0.00     0.251 C 
ATOM     28  H   UNL A   1      39.838  18.279  25.701  1.00  0.00     0.163 HD
ATOM     29  O   UNL A   1      42.218  18.573  26.000  1.00  0.00    -0.269 OA
BRANCH  27  30
ATOM     30  C   UNL A   1      41.806  20.807  26.579  1.00  0.00     0.039 A 
ATOM     31  C   UNL A   1      42.278  21.731  25.643  1.00  0.00     0.014 A 
ATOM     32  C   UNL A   1      41.729  21.151  27.929  1.00  0.00     0.014 A 
ATOM     33  C   UNL A   1      42.601  23.024  26.056  1.00  0.00     0.010 A 
ATOM     34  C   UNL A   1      41.935  22.467  28.317  1.00  0.00     0.010 A 
ATOM     35  C   UNL A   1      42.391  23.413  27.389  1.00  0.00    -0.014 A 
BRANCH  35  36
ATOM     36  C   UNL A   1      42.673  24.791  27.859  1.00  0.00     0.031 A 
ATOM     37  C   UNL A   1      44.078  25.170  28.242  1.00  0.00     0.074 A 
ATOM     38  C   UNL A   1      41.661  25.664  28.023  1.00  0.00     0.049 A 
ATOM     39  N   UNL A   1      44.518  26.271  28.792  1.00  0.00    -0.248 NA
ATOM     40  C   UNL A   1      45.122  24.157  28.012  1.00  0.00     0.031 C 
ATOM     41  C   UNL A   1      40.252  25.396  27.732  1.00  0.00     0.029 A 
ATOM     42  N   UNL A   1      41.664  26.953  28.493  1.00  0.00    -0.354 N 
ATOM     43  C   UNL A   1      45.878  26.074  28.993  1.00  0.00     0.074 A 
ATOM     44  C   UNL A   1      46.179  24.724  28.572  1.00  0.00     0.031 C 
ATOM     45  C   UNL A   1      39.530  26.496  28.004  1.00  0.00     0.029 A 
ATOM     46  C   UNL A   1      40.417  27.526  28.533  1.00  0.00     0.049 A 
ATOM     47  H   UNL A   1      42.482  27.422  28.775  1.00  0.00     0.167 HD
ATOM     48  C   UNL A   1      46.799  26.948  29.460  1.00  0.00     0.037 A 
ATOM     49  C   UNL A   1      40.033  28.744  28.961  1.00  0.00     0.037 A 
ATOM     50  C   UNL A   1      46.497  28.298  29.850  1.00  0.00     0.049 A 
ATOM     51  C   UNL A   1      41.074  29.694  29.488  1.00  0.00     0.074 A 
ATOM     52  C   UNL A   1      47.363  29.285  30.284  1.00  0.00     0.029 A 
ATOM     53  N   UNL A   1      45.224  28.851  29.852  1.00  0.00    -0.354 N 
ATOM     54  N   UNL A   1      42.367  29.517  29.615  1.00  0.00    -0.248 NA
ATOM     55  C   UNL A   1      40.603  31.015  29.926  1.00  0.00     0.031 C 
ATOM     56  C   UNL A   1      46.609  30.420  30.597  1.00  0.00     0.029 A 
ATOM     57  C   UNL A   1      45.281  30.160  30.301  1.00  0.00     0.049 A 
ATOM     58  H   UNL A   1      44.404  28.383  29.577  1.00  0.00     0.167 HD
ATOM     59  C   UNL A   1      42.868  30.714  30.111  1.00  0.00     0.074 A 
ATOM     60  C   UNL A   1      41.740  31.611  30.252  1.00  0.00     0.031 C 
ATOM     61  C   UNL A   1      44.147  31.043  30.419  1.00  0.00     0.037 A 
BRANCH  48  62
ATOM     62  C   UNL A   1      48.218  26.467  29.568  1.00  0.00     0.057 A 
ATOM     63  C   UNL A   1      49.130  26.601  28.511  1.00  0.00     0.134 A 
ATOM     64  C   UNL A   1      48.686  25.878  30.750  1.00  0.00     0.134 A 
ATOM     65  F   UNL A   1      48.745  27.144  27.345  1.00  0.00    -0.206 F 
ATOM     66  C   UNL A   1      50.443  26.139  28.614  1.00  0.00     0.040 A 
ATOM     67  C   UNL A   1      50.005  25.441  30.876  1.00  0.00     0.040 A 
ATOM     68  F   UNL A   1      47.870  25.721  31.803  1.00  0.00    -0.206 F 
ATOM     69  C   UNL A   1      50.886  25.563  29.802  1.00  0.00     0.006 A 
ENDBRANCH  48  62
BRANCH  49  70
ATOM     70  C   UNL A   1      38.605  29.146  28.887  1.00  0.00     0.057 A 
ATOM     71  C   UNL A   1      37.777  29.074  30.013  1.00  0.00     0.134 A 
ATOM     72  C   UNL A   1      38.030  29.602  27.694  1.00  0.00     0.134 A 
ATOM     73  F   UNL A   1      38.264  28.630  31.182  1.00  0.00    -0.206 F 
ATOM     74  C   UNL A   1      36.425  29.415  29.953  1.00  0.00     0.040 A 
ATOM     75  C   UNL A   1      36.687  29.974  27.625  1.00  0.00     0.040 A 
ATOM     76  F   UNL A   1      38.770  29.704  26.581  1.00  0.00    -0.206 F 
ATOM     77  C   UNL A   1      35.878  29.871  28.756  1.00  0.00     0.006 A 
ENDBRANCH  49  70
BRANCH  61  78
ATOM     78  C   UNL A   1      44.405  32.445  30.889  1.00  0.00     0.057 A 
ATOM     79  C   UNL A   1      44.422  32.784  32.247  1.00  0.00     0.134 A 
ATOM     80  C   UNL A   1      44.690  33.459  29.965  1.00  0.00     0.134 A 
ATOM     81  F   UNL A   1      44.145  31.863  33.182  1.00  0.00    -0.206 F 
ATOM     82  C   UNL A   1      44.690  34.088  32.668  1.00  0.00     0.040 A 
ATOM     83  C   UNL A   1      44.991  34.758  30.375  1.00  0.00     0.040 A 
ATOM     84  F   UNL A   1      44.702  33.199  28.648  1.00  0.00    -0.206 F 
ATOM     85  C   UNL A   1      44.984  35.076  31.731  1.00  0.00     0.006 A 
ENDBRANCH  61  78
ENDBRANCH  35  36
ENDBRANCH  27  30
ENDBRANCH  25  26
ENDBRANCH   1  25
TORSDOF 14
ENDMDL
MODEL 2
REMARK VINA RESULT:     -11.1      1.576      6.472
REMARK SMILES CCC[C@@]1(C(=O)NCCCNC(=O)c2ccc(-c3c4nc(c(-c5c(F)cccc5F)c5ccc([nH]5)c(-c5c(F)cccc5F)c5nc(c(-c6c(F)cccc6F)c6ccc3[nH]6)C=C5)C=C4)cc2)CCN(C(=O)[C@@H]2CC[NH2+][C@@H]2C)C1
REMARK SMILES IDX 9 1 8 2 7 3 5 4 6 5 4 7 68 8 79 9 69 10 70 11 3 12 2 13 1 14
REMARK SMILES IDX 71 15 72 16 73 17 74 18 77 19 75 20 76 21 78 22 10 25 11 26
REMARK SMILES IDX 12 27 13 29 14 30 15 31 67 32 16 33 66 34 17 35 18 36 19 37
REMARK SMILES IDX 60 38 20 39 65 40 59 41 61 42 21 43 64 44 58 45 57 46 22 48
REMARK SMILES IDX 48 49 31 50 47 51 32 52 35 53 46 54 62 55 33 56 34 57 45 59
REMARK SMILES IDX 63 60 36 61 23 62 24 63 29 64 25 65 26 66 28 67 30 68 27 69
REMARK SMILES IDX 49 70 50 71 55 72 51 73 52 74 54 75 56 76 53 77 37 78 38 79
REMARK SMILES IDX 43 80 39 81 40 82 42 83 44 84 41 85
REMARK H PARENT 7 6 76 23 76 24 11 28 61 47 35 58
REMARK Flexibility Score: inf
ROOT
ATOM      1  C   UNL A   1      37.641  19.845  25.002  1.00  0.00     0.042 C 
ENDROOT
BRANCH   1   2
ATOM      2  C   UNL A   1      36.599  20.940  24.883  1.00  0.00     0.117 C 
BRANCH   2   3
ATOM      3  N   UNL A   1      35.831  21.118  26.090  1.00  0.00    -0.355 N 
ATOM      4  C   UNL A   1      34.557  21.499  26.322  1.00  0.00     0.228 C 
ATOM      5  O   UNL A   1      34.223  21.427  27.513  1.00  0.00    -0.274 OA
ATOM      6  H   UNL A   1      36.340  20.922  26.911  1.00  0.00     0.163 HD
BRANCH   4   7
ATOM      7  C   UNL A   1      33.513  21.869  25.243  1.00  0.00     0.068 C 
ATOM      8  C   UNL A   1      34.029  23.111  24.477  1.00  0.00     0.040 C 
ATOM      9  C   UNL A   1      32.110  22.305  25.678  1.00  0.00     0.136 C 
ATOM     10  C   UNL A   1      33.279  24.308  25.043  1.00  0.00     0.120 C 
ATOM     11  N   UNL A   1      32.047  23.768  25.579  1.00  0.00    -0.341 N 
BRANCH   7  12
ATOM     12  C   UNL A   1      33.420  20.670  24.241  1.00  0.00     0.018 C 
BRANCH  12  13
ATOM     13  C   UNL A   1      33.067  19.279  24.801  1.00  0.00    -0.002 C 
ATOM     14  C   UNL A   1      34.052  18.170  24.481  1.00  0.00     0.004 C 
ENDBRANCH  12  13
ENDBRANCH   7  12
BRANCH  11  15
ATOM     15  C   UNL A   1      30.956  24.435  26.086  1.00  0.00     0.231 C 
ATOM     16  O   UNL A   1      30.504  24.099  27.191  1.00  0.00    -0.274 OA
BRANCH  15  17
ATOM     17  C   UNL A   1      30.278  25.611  25.374  1.00  0.00     0.142 C 
ATOM     18  C   UNL A   1      30.047  25.512  23.876  1.00  0.00     0.081 C 
ATOM     19  C   UNL A   1      30.820  27.021  25.588  1.00  0.00     0.192 C 
ATOM     20  C   UNL A   1      30.889  26.612  23.246  1.00  0.00     0.261 C 
ATOM     21  N   UNL A   1      31.429  27.438  24.320  1.00  0.00    -0.343 N 
ATOM     22  C   UNL A   1      31.808  27.247  26.719  1.00  0.00     0.076 C 
ATOM     23  H   UNL A   1      31.212  28.418  24.141  1.00  0.00     0.346 HD
ATOM     24  H   UNL A   1      32.442  27.325  24.368  1.00  0.00     0.346 HD
ENDBRANCH  15  17
ENDBRANCH  11  15
ENDBRANCH   4   7
ENDBRANCH   2   3
ENDBRANCH   1   2
BRANCH   1  25
ATOM     25  C   UNL A   1      38.918  20.330  25.663  1.00  0.00     0.118 C 
BRANCH  25  26
ATOM     26  N   UNL A   1      39.904  19.264  25.820  1.00  0.00    -0.352 N 
ATOM     27  C   UNL A   1      41.252  19.333  26.075  1.00  0.00     0.251 C 
ATOM     28  H   UNL A   1      39.545  18.352  25.730  1.00  0.00     0.163 HD
ATOM     29  O   UNL A   1      41.950  18.332  25.965  1.00  0.00    -0.269 OA
BRANCH  27  30
ATOM     30  C   UNL A   1      41.858  20.621  26.467  1.00  0.00     0.039 A 
ATOM     31  C   UNL A   1      42.266  21.516  25.474  1.00  0.00     0.014 A 
ATOM     32  C   UNL A   1      42.020  20.943  27.815  1.00  0.00     0.014 A 
ATOM     33  C   UNL A   1      42.768  22.766  25.840  1.00  0.00     0.010 A 
ATOM     34  C   UNL A   1      42.406  22.226  28.174  1.00  0.00     0.010 A 
ATOM     35  C   UNL A   1      42.801  23.145  27.192  1.00  0.00    -0.014 A 
BRANCH  35  36
ATOM     36  C   UNL A   1      43.280  24.481  27.621  1.00  0.00     0.031 A 
ATOM     37  C   UNL A   1      42.281  25.534  28.018  1.00  0.00     0.074 A 
ATOM     38  C   UNL A   1      44.594  24.771  27.569  1.00  0.00     0.049 A 
ATOM     39  N   UNL A   1      42.477  26.795  28.301  1.00  0.00    -0.248 NA
ATOM     40  C   UNL A   1      40.868  25.122  28.062  1.00  0.00     0.031 C 
ATOM     41  C   UNL A   1      45.653  23.848  27.154  1.00  0.00     0.029 A 
ATOM     42  N   UNL A   1      45.262  25.936  27.853  1.00  0.00    -0.354 N 
ATOM     43  C   UNL A   1      41.215  27.328  28.533  1.00  0.00     0.074 A 
ATOM     44  C   UNL A   1      40.257  26.273  28.290  1.00  0.00     0.031 C 
ATOM     45  C   UNL A   1      46.838  24.474  27.238  1.00  0.00     0.029 A 
ATOM     46  C   UNL A   1      46.619  25.852  27.662  1.00  0.00     0.049 A 
ATOM     47  H   UNL A   1      44.810  26.753  28.163  1.00  0.00     0.167 HD
ATOM     48  C   UNL A   1      40.885  28.576  28.940  1.00  0.00     0.037 A 
ATOM     49  C   UNL A   1      47.576  26.788  27.803  1.00  0.00     0.037 A 
ATOM     50  C   UNL A   1      41.846  29.611  29.208  1.00  0.00     0.049 A 
ATOM     51  C   UNL A   1      47.184  28.172  28.245  1.00  0.00     0.074 A 
ATOM     52  C   UNL A   1      41.625  30.892  29.678  1.00  0.00     0.029 A 
ATOM     53  N   UNL A   1      43.216  29.480  29.027  1.00  0.00    -0.354 N 
ATOM     54  N   UNL A   1      45.993  28.646  28.522  1.00  0.00    -0.248 NA
ATOM     55  C   UNL A   1      48.269  29.150  28.399  1.00  0.00     0.031 C 
ATOM     56  C   UNL A   1      42.855  31.554  29.734  1.00  0.00     0.029 A 
ATOM     57  C   UNL A   1      43.850  30.666  29.357  1.00  0.00     0.049 A 
ATOM     58  H   UNL A   1      43.669  28.666  28.711  1.00  0.00     0.167 HD
ATOM     59  C   UNL A   1      46.189  29.963  28.918  1.00  0.00     0.074 A 
ATOM     60  C   UNL A   1      47.615  30.209  28.854  1.00  0.00     0.031 C 
ATOM     61  C   UNL A   1      45.273  30.886  29.302  1.00  0.00     0.037 A 
BRANCH  48  62
ATOM     62  C   UNL A   1      39.426  28.881  29.122  1.00  0.00     0.057 A 
ATOM     63  C   UNL A   1      38.628  29.349  28.068  1.00  0.00     0.134 A 
ATOM     64  C   UNL A   1      38.804  28.688  30.362  1.00  0.00     0.134 A 
ATOM     65  F   UNL A   1      39.163  29.569  26.856  1.00  0.00    -0.206 F 
ATOM     66  C   UNL A   1      37.276  29.644  28.247  1.00  0.00     0.040 A 
ATOM     67  C   UNL A   1      37.445  28.950  30.546  1.00  0.00     0.040 A 
ATOM     68  F   UNL A   1      39.504  28.239  31.414  1.00  0.00    -0.206 F 
ATOM     69  C   UNL A   1      36.679  29.437  29.489  1.00  0.00     0.006 A 
ENDBRANCH  48  62
BRANCH  49  70
ATOM     70  C   UNL A   1      49.000  26.446  27.550  1.00  0.00     0.057 A 
ATOM     71  C   UNL A   1      49.819  25.964  28.576  1.00  0.00     0.134 A 
ATOM     72  C   UNL A   1      49.577  26.599  26.283  1.00  0.00     0.134 A 
ATOM     73  F   UNL A   1      49.328  25.811  29.816  1.00  0.00    -0.206 F 
ATOM     74  C   UNL A   1      51.167  25.671  28.363  1.00  0.00     0.040 A 
ATOM     75  C   UNL A   1      50.916  26.283  26.047  1.00  0.00     0.040 A 
ATOM     76  F   UNL A   1      48.845  27.048  25.253  1.00  0.00    -0.206 F 
ATOM     77  C   UNL A   1      51.717  25.826  27.093  1.00  0.00     0.006 A 
ENDBRANCH  49  70
BRANCH  61  78
ATOM     78  C   UNL A   1      45.786  32.228  29.735  1.00  0.00     0.057 A 
ATOM     79  C   UNL A   1      45.915  33.299  28.842  1.00  0.00     0.134 A 
ATOM     80  C   UNL A   1      46.106  32.463  31.078  1.00  0.00     0.134 A 
ATOM     81  F   UNL A   1      45.636  33.137  27.540  1.00  0.00    -0.206 F 
ATOM     82  C   UNL A   1      46.369  34.550  29.267  1.00  0.00     0.040 A 
ATOM     83  C   UNL A   1      46.530  33.717  31.521  1.00  0.00     0.040 A 
ATOM     84  F   UNL A   1      45.994  31.483  31.988  1.00  0.00    -0.206 F 
ATOM     85  C   UNL A   1      46.668  34.762  30.611  1.00  0.00     0.006 A 
ENDBRANCH  61  78
ENDBRANCH  35  36
ENDBRANCH  27  30
ENDBRANCH  25  26
ENDBRANCH   1  25
TORSDOF 14
ENDMDL
MODEL 3
REMARK VINA RESULT:     -11.0      1.820      6.486
REMARK SMILES CCC[C@@]1(C(=O)NCCCNC(=O)c2ccc(-c3c4nc(c(-c5c(F)cccc5F)c5ccc([nH]5)c(-c5c(F)cccc5F)c5nc(c(-c6c(F)cccc6F)c6ccc3[nH]6)C=C5)C=C4)cc2)CCN(C(=O)[C@@H]2CC[NH2+][C@@H]2C)C1
REMARK SMILES IDX 9 1 8 2 7 3 5 4 6 5 4 7 68 8 79 9 69 10 70 11 3 12 2 13 1 14
REMARK SMILES IDX 71 15 72 16 73 17 74 18 77 19 75 20 76 21 78 22 10 25 11 26
REMARK SMILES IDX 12 27 13 29 14 30 15 31 67 32 16 33 66 34 17 35 18 36 19 37
REMARK SMILES IDX 60 38 20 39 65 40 59 41 61 42 21 43 64 44 58 45 57 46 22 48
REMARK SMILES IDX 48 49 31 50 47 51 32 52 35 53 46 54 62 55 33 56 34 57 45 59
REMARK SMILES IDX 63 60 36 61 23 62 24 63 29 64 25 65 26 66 28 67 30 68 27 69
REMARK SMILES IDX 49 70 50 71 55 72 51 73 52 74 54 75 56 76 53 77 37 78 38 79
REMARK SMILES IDX 43 80 39 81 40 82 42 83 44 84 41 85
REMARK H PARENT 7 6 76 23 76 24 11 28 61 47 35 58
REMARK Flexibility Score: inf
ROOT
ATOM      1  C   UNL A   1      37.790  19.786  25.006  1.00  0.00     0.042 C 
ENDROOT
BRANCH   1   2
ATOM      2  C   UNL A   1      36.696  20.836  25.001  1.00  0.00     0.117 C 
BRANCH   2   3
ATOM      3  N   UNL A   1      36.876  21.830  23.974  1.00  0.00    -0.355 N 
ATOM      4  C   UNL A   1      36.195  22.948  23.646  1.00  0.00     0.228 C 
ATOM      5  O   UNL A   1      36.730  23.616  22.750  1.00  0.00    -0.274 OA
ATOM      6  H   UNL A   1      37.654  21.659  23.394  1.00  0.00     0.163 HD
BRANCH   4   7
ATOM      7  C   UNL A   1      34.935  23.484  24.366  1.00  0.00     0.068 C 
ATOM      8  C   UNL A   1      33.748  22.552  24.023  1.00  0.00     0.040 C 
ATOM      9  C   UNL A   1      34.392  24.867  23.994  1.00  0.00     0.136 C 
ATOM     10  C   UNL A   1      32.944  23.261  22.943  1.00  0.00     0.120 C 
ATOM     11  N   UNL A   1      33.236  24.669  23.112  1.00  0.00    -0.341 N 
BRANCH   7  12
ATOM     12  C   UNL A   1      35.200  23.404  25.907  1.00  0.00     0.018 C 
BRANCH  12  13
ATOM     13  C   UNL A   1      33.999  23.154  26.839  1.00  0.00    -0.002 C 
ATOM     14  C   UNL A   1      34.012  21.837  27.594  1.00  0.00     0.004 C 
ENDBRANCH  12  13
ENDBRANCH   7  12
BRANCH  11  15
ATOM     15  C   UNL A   1      32.670  25.753  22.482  1.00  0.00     0.231 C 
ATOM     16  O   UNL A   1      32.641  25.784  21.243  1.00  0.00    -0.274 OA
BRANCH  15  17
ATOM     17  C   UNL A   1      32.028  26.926  23.232  1.00  0.00     0.142 C 
ATOM     18  C   UNL A   1      30.539  27.168  23.053  1.00  0.00     0.081 C 
ATOM     19  C   UNL A   1      32.659  28.311  23.126  1.00  0.00     0.192 C 
ATOM     20  C   UNL A   1      30.410  28.527  22.380  1.00  0.00     0.261 C 
ATOM     21  N   UNL A   1      31.733  29.139  22.344  1.00  0.00    -0.343 N 
ATOM     22  C   UNL A   1      34.053  28.422  22.536  1.00  0.00     0.076 C 
ATOM     23  H   UNL A   1      31.688  30.076  22.745  1.00  0.00     0.346 HD
ATOM     24  H   UNL A   1      32.058  29.206  21.379  1.00  0.00     0.346 HD
ENDBRANCH  15  17
ENDBRANCH  11  15
ENDBRANCH   4   7
ENDBRANCH   2   3
ENDBRANCH   1   2
BRANCH   1  25
ATOM     25  C   UNL A   1      39.029  20.244  25.752  1.00  0.00     0.118 C 
BRANCH  25  26
ATOM     26  N   UNL A   1      40.019  19.180  25.895  1.00  0.00    -0.352 N 
ATOM     27  C   UNL A   1      41.378  19.250  26.086  1.00  0.00     0.251 C 
ATOM     28  H   UNL A   1      39.654  18.267  25.848  1.00  0.00     0.163 HD
ATOM     29  O   UNL A   1      42.067  18.244  25.974  1.00  0.00    -0.269 OA
BRANCH  27  30
ATOM     30  C   UNL A   1      42.003  20.547  26.412  1.00  0.00     0.039 A 
ATOM     31  C   UNL A   1      42.374  21.408  25.375  1.00  0.00     0.014 A 
ATOM     32  C   UNL A   1      42.221  20.911  27.741  1.00  0.00     0.014 A 
ATOM     33  C   UNL A   1      42.896  22.666  25.681  1.00  0.00     0.010 A 
ATOM     34  C   UNL A   1      42.626  22.203  28.043  1.00  0.00     0.010 A 
ATOM     35  C   UNL A   1      42.985  23.088  27.017  1.00  0.00    -0.014 A 
BRANCH  35  36
ATOM     36  C   UNL A   1      43.486  24.435  27.384  1.00  0.00     0.031 A 
ATOM     37  C   UNL A   1      42.514  25.487  27.844  1.00  0.00     0.074 A 
ATOM     38  C   UNL A   1      44.789  24.734  27.220  1.00  0.00     0.049 A 
ATOM     39  N   UNL A   1      42.721  26.755  28.090  1.00  0.00    -0.248 NA
ATOM     40  C   UNL A   1      41.113  25.066  28.010  1.00  0.00     0.031 C 
ATOM     41  C   UNL A   1      45.818  23.812  26.735  1.00  0.00     0.029 A 
ATOM     42  N   UNL A   1      45.467  25.908  27.429  1.00  0.00    -0.354 N 
ATOM     43  C   UNL A   1      41.477  27.282  28.415  1.00  0.00     0.074 A 
ATOM     44  C   UNL A   1      40.512  26.216  28.269  1.00  0.00     0.031 C 
ATOM     45  C   UNL A   1      47.001  24.447  26.711  1.00  0.00     0.029 A 
ATOM     46  C   UNL A   1      46.805  25.831  27.129  1.00  0.00     0.049 A 
ATOM     47  H   UNL A   1      45.035  26.727  27.762  1.00  0.00     0.167 HD
ATOM     48  C   UNL A   1      41.172  28.534  28.828  1.00  0.00     0.037 A 
ATOM     49  C   UNL A   1      47.762  26.776  27.176  1.00  0.00     0.037 A 
ATOM     50  C   UNL A   1      42.142  29.581  28.999  1.00  0.00     0.049 A 
ATOM     51  C   UNL A   1      47.396  28.164  27.625  1.00  0.00     0.074 A 
ATOM     52  C   UNL A   1      41.949  30.868  29.465  1.00  0.00     0.029 A 
ATOM     53  N   UNL A   1      43.494  29.456  28.709  1.00  0.00    -0.354 N 
ATOM     54  N   UNL A   1      46.227  28.634  27.991  1.00  0.00    -0.248 NA
ATOM     55  C   UNL A   1      48.481  29.152  27.674  1.00  0.00     0.031 C 
ATOM     56  C   UNL A   1      43.174  31.539  29.409  1.00  0.00     0.029 A 
ATOM     57  C   UNL A   1      44.142  30.653  28.966  1.00  0.00     0.049 A 
ATOM     58  H   UNL A   1      43.926  28.640  28.370  1.00  0.00     0.167 HD
ATOM     59  C   UNL A   1      46.444  29.959  28.348  1.00  0.00     0.074 A 
ATOM     60  C   UNL A   1      47.858  30.214  28.164  1.00  0.00     0.031 C 
ATOM     61  C   UNL A   1      45.555  30.881  28.791  1.00  0.00     0.037 A 
BRANCH  48  62
ATOM     62  C   UNL A   1      39.730  28.832  29.124  1.00  0.00     0.057 A 
ATOM     63  C   UNL A   1      38.842  29.268  28.129  1.00  0.00     0.134 A 
ATOM     64  C   UNL A   1      39.215  28.664  30.415  1.00  0.00     0.134 A 
ATOM     65  F   UNL A   1      39.272  29.463  26.872  1.00  0.00    -0.206 F 
ATOM     66  C   UNL A   1      37.507  29.556  28.413  1.00  0.00     0.040 A 
ATOM     67  C   UNL A   1      37.873  28.919  30.706  1.00  0.00     0.040 A 
ATOM     68  F   UNL A   1      40.005  28.247  31.416  1.00  0.00    -0.206 F 
ATOM     69  C   UNL A   1      37.017  29.375  29.705  1.00  0.00     0.006 A 
ENDBRANCH  48  62
BRANCH  49  70
ATOM     70  C   UNL A   1      49.163  26.440  26.813  1.00  0.00     0.057 A 
ATOM     71  C   UNL A   1      50.047  25.911  27.760  1.00  0.00     0.134 A 
ATOM     72  C   UNL A   1      49.655  26.645  25.518  1.00  0.00     0.134 A 
ATOM     73  F   UNL A   1      49.640  25.707  29.022  1.00  0.00    -0.206 F 
ATOM     74  C   UNL A   1      51.375  25.622  27.443  1.00  0.00     0.040 A 
ATOM     75  C   UNL A   1      50.973  26.335  25.178  1.00  0.00     0.040 A 
ATOM     76  F   UNL A   1      48.858  27.140  24.560  1.00  0.00    -0.206 F 
ATOM     77  C   UNL A   1      51.840  25.830  26.147  1.00  0.00     0.006 A 
ENDBRANCH  49  70
BRANCH  61  78
ATOM     78  C   UNL A   1      46.089  32.235  29.159  1.00  0.00     0.057 A 
ATOM     79  C   UNL A   1      46.136  33.291  28.241  1.00  0.00     0.134 A 
ATOM     80  C   UNL A   1      46.517  32.494  30.468  1.00  0.00     0.134 A 
ATOM     81  F   UNL A   1      45.752  33.106  26.970  1.00  0.00    -0.206 F 
ATOM     82  C   UNL A   1      46.612  34.552  28.607  1.00  0.00     0.040 A 
ATOM     83  C   UNL A   1      46.965  33.758  30.853  1.00  0.00     0.040 A 
ATOM     84  F   UNL A   1      46.488  31.529  31.399  1.00  0.00    -0.206 F 
ATOM     85  C   UNL A   1      47.019  34.789  29.918  1.00  0.00     0.006 A 
ENDBRANCH  61  78
ENDBRANCH  35  36
ENDBRANCH  27  30
ENDBRANCH  25  26
ENDBRANCH   1  25
TORSDOF 14
ENDMDL
