MODEL 1
REMARK VINA RESULT:     -12.1      0.000      0.000
REMARK SMILES NS(=O)(=O)c1ccc(-n2ccnc2-c2ccc(O)c(C(=O)NCCCNC(=O)c3ccc(-c4c5nc(c(-c6c(F)cccc6F)c6ccc([nH]6)c(-c6c(F)cccc6F)c6nc(c(-c7c(F)cccc7F)c7ccc4[nH]7)C=C6)C=C5)cc3)c2)cc1
REMARK SMILES IDX 23 1 22 2 20 3 21 4 19 6 14 7 15 8 83 9 16 10 17 11 13 12
REMARK SMILES IDX 9 13 10 14 11 15 12 16 8 17 5 18 6 19 85 20 7 21 84 22 2 23
REMARK SMILES IDX 3 24 4 25 1 26 18 29 24 31 25 32 26 33 27 34 28 36 29 37
REMARK SMILES IDX 30 38 82 39 31 40 81 41 32 42 33 43 34 44 75 45 35 46 80 47
REMARK SMILES IDX 74 48 76 49 36 50 79 51 73 52 72 53 37 55 63 56 46 57 62 58
REMARK SMILES IDX 47 59 50 60 61 61 77 62 48 63 49 64 60 66 78 67 51 68 38 69
REMARK SMILES IDX 39 70 44 71 40 72 41 73 43 74 45 75 42 76 64 77 65 78 70 79
REMARK SMILES IDX 66 80 67 81 69 82 71 83 68 84 52 85 53 86 58 87 54 88 55 89
REMARK SMILES IDX 57 90 59 91 56 92
REMARK H PARENT 22 5 1 27 1 28 18 30 26 35 76 54 50 65
REMARK Flexibility Score: inf
ROOT
ATOM      1  C   UNL A   1      36.903  23.289  26.149  1.00  0.00     0.118 C 
ENDROOT
BRANCH   1   2
ATOM      2  N   UNL A   1      36.795  21.866  25.867  1.00  0.00    -0.352 N 
ATOM      3  C   UNL A   1      35.860  21.093  25.222  1.00  0.00     0.255 C 
ATOM      4  O   UNL A   1      36.148  19.906  25.044  1.00  0.00    -0.269 OA
ATOM      5  H   UNL A   1      37.554  21.344  26.214  1.00  0.00     0.163 HD
BRANCH   3   6
ATOM      6  C   UNL A   1      34.545  21.577  24.702  1.00  0.00     0.082 A 
ATOM      7  C   UNL A   1      33.187  22.956  23.192  1.00  0.00     0.019 A 
ATOM      8  C   UNL A   1      32.019  22.426  23.732  1.00  0.00     0.016 A 
ATOM      9  C   UNL A   1      34.425  22.572  23.736  1.00  0.00     0.029 A 
ATOM     10  C   UNL A   1      32.102  21.474  24.751  1.00  0.00     0.048 A 
ATOM     11  C   UNL A   1      33.350  21.042  25.213  1.00  0.00     0.128 A 
BRANCH   7  12
ATOM     12  C   UNL A   1      33.176  23.954  22.115  1.00  0.00     0.144 A 
ATOM     13  N   UNL A   1      32.790  25.291  22.273  1.00  0.00    -0.300 N 
ATOM     14  C   UNL A   1      32.459  25.746  21.017  1.00  0.00     0.113 A 
ATOM     15  C   UNL A   1      32.832  24.747  20.151  1.00  0.00     0.132 A 
ATOM     16  N   UNL A   1      33.298  23.659  20.833  1.00  0.00    -0.236 NA
BRANCH  13  17
ATOM     17  C   UNL A   1      32.681  26.038  23.480  1.00  0.00     0.047 A 
ATOM     18  C   UNL A   1      32.483  27.587  25.792  1.00  0.00     0.082 A 
ATOM     19  C   UNL A   1      31.338  27.320  25.038  1.00  0.00     0.024 A 
ATOM     20  C   UNL A   1      33.725  27.069  25.411  1.00  0.00     0.024 A 
ATOM     21  C   UNL A   1      31.439  26.559  23.870  1.00  0.00     0.028 A 
ATOM     22  C   UNL A   1      33.820  26.270  24.267  1.00  0.00     0.028 A 
BRANCH  18  23
ATOM     23  S   UNL A   1      32.332  28.565  27.259  1.00  0.00     0.238 S 
ATOM     24  O   UNL A   1      33.647  28.825  27.787  1.00  0.00    -0.207 OA
ATOM     25  O   UNL A   1      31.256  28.012  28.054  1.00  0.00    -0.207 OA
BRANCH  23  26
ATOM     26  N   UNL A   1      31.784  30.048  26.689  1.00  0.00    -0.225 NA
ATOM     27  H   UNL A   1      31.309  29.915  25.797  1.00  0.00     0.137 HD
ATOM     28  H   UNL A   1      32.577  30.677  26.561  1.00  0.00     0.137 HD
ENDBRANCH  23  26
ENDBRANCH  18  23
ENDBRANCH  13  17
ENDBRANCH   7  12
BRANCH  11  29
ATOM     29  O   UNL A   1      33.314  20.089  26.199  1.00  0.00    -0.507 OA
ATOM     30  H   UNL A   1      32.812  19.306  26.077  1.00  0.00     0.293 HD
ENDBRANCH  11  29
ENDBRANCH   3   6
ENDBRANCH   1   2
BRANCH   1  31
ATOM     31  C   UNL A   1      38.314  23.835  25.880  1.00  0.00     0.042 C 
BRANCH  31  32
ATOM     32  C   UNL A   1      39.283  23.405  26.968  1.00  0.00     0.118 C 
BRANCH  32  33
ATOM     33  N   UNL A   1      40.557  22.931  26.413  1.00  0.00    -0.352 N 
ATOM     34  C   UNL A   1      41.671  23.658  26.045  1.00  0.00     0.251 C 
ATOM     35  H   UNL A   1      40.627  21.957  26.286  1.00  0.00     0.163 HD
ATOM     36  O   UNL A   1      42.539  23.166  25.334  1.00  0.00    -0.269 OA
BRANCH  34  37
ATOM     37  C   UNL A   1      41.796  25.040  26.529  1.00  0.00     0.039 A 
ATOM     38  C   UNL A   1      41.226  26.118  25.844  1.00  0.00     0.014 A 
ATOM     39  C   UNL A   1      42.458  25.230  27.736  1.00  0.00     0.014 A 
ATOM     40  C   UNL A   1      41.251  27.375  26.442  1.00  0.00     0.010 A 
ATOM     41  C   UNL A   1      42.302  26.407  28.407  1.00  0.00     0.010 A 
ATOM     42  C   UNL A   1      41.769  27.502  27.739  1.00  0.00    -0.014 A 
BRANCH  42  43
ATOM     43  C   UNL A   1      41.668  28.744  28.490  1.00  0.00     0.031 A 
ATOM     44  C   UNL A   1      42.770  29.709  28.225  1.00  0.00     0.074 A 
ATOM     45  C   UNL A   1      40.540  29.077  29.156  1.00  0.00     0.049 A 
ATOM     46  N   UNL A   1      43.665  30.118  29.059  1.00  0.00    -0.248 NA
ATOM     47  C   UNL A   1      43.003  30.156  26.841  1.00  0.00     0.031 C 
ATOM     48  C   UNL A   1      39.275  28.335  29.247  1.00  0.00     0.029 A 
ATOM     49  N   UNL A   1      40.246  30.232  29.808  1.00  0.00    -0.354 N 
ATOM     50  C   UNL A   1      44.443  31.044  28.369  1.00  0.00     0.074 A 
ATOM     51  C   UNL A   1      44.119  30.879  26.978  1.00  0.00     0.031 C 
ATOM     52  C   UNL A   1      38.296  29.152  29.695  1.00  0.00     0.029 A 
ATOM     53  C   UNL A   1      38.893  30.415  30.085  1.00  0.00     0.049 A 
ATOM     54  H   UNL A   1      40.934  30.888  30.066  1.00  0.00     0.167 HD
ATOM     55  C   UNL A   1      45.101  32.035  29.034  1.00  0.00     0.037 A 
ATOM     56  C   UNL A   1      38.317  31.540  30.579  1.00  0.00     0.037 A 
ATOM     57  C   UNL A   1      45.159  31.749  30.447  1.00  0.00     0.049 A 
ATOM     58  C   UNL A   1      39.400  32.345  31.197  1.00  0.00     0.074 A 
ATOM     59  C   UNL A   1      45.680  30.718  31.206  1.00  0.00     0.029 A 
ATOM     60  N   UNL A   1      44.261  32.396  31.263  1.00  0.00    -0.354 N 
ATOM     61  N   UNL A   1      40.028  31.983  32.283  1.00  0.00    -0.248 NA
ATOM     62  C   UNL A   1      40.122  33.274  30.339  1.00  0.00     0.031 C 
ATOM     63  C   UNL A   1      44.713  30.494  32.230  1.00  0.00     0.029 A 
ATOM     64  C   UNL A   1      43.712  31.456  32.095  1.00  0.00     0.049 A 
ATOM     65  H   UNL A   1      44.051  33.358  31.251  1.00  0.00     0.167 HD
ATOM     66  C   UNL A   1      41.362  32.266  32.027  1.00  0.00     0.074 A 
ATOM     67  C   UNL A   1      41.350  33.131  30.847  1.00  0.00     0.031 C 
ATOM     68  C   UNL A   1      42.360  31.528  32.598  1.00  0.00     0.037 A 
BRANCH  55  69
ATOM     69  C   UNL A   1      45.338  33.427  28.498  1.00  0.00     0.057 A 
ATOM     70  C   UNL A   1      44.229  34.193  28.087  1.00  0.00     0.134 A 
ATOM     71  C   UNL A   1      46.590  33.922  28.084  1.00  0.00     0.134 A 
ATOM     72  F   UNL A   1      42.980  33.832  28.421  1.00  0.00    -0.206 F 
ATOM     73  C   UNL A   1      44.354  35.303  27.243  1.00  0.00     0.040 A 
ATOM     74  C   UNL A   1      46.727  35.059  27.283  1.00  0.00     0.040 A 
ATOM     75  F   UNL A   1      47.738  33.286  28.338  1.00  0.00    -0.206 F 
ATOM     76  C   UNL A   1      45.606  35.732  26.827  1.00  0.00     0.006 A 
ENDBRANCH  55  69
BRANCH  56  77
ATOM     77  C   UNL A   1      36.959  32.083  30.339  1.00  0.00     0.057 A 
ATOM     78  C   UNL A   1      35.927  31.901  31.271  1.00  0.00     0.134 A 
ATOM     79  C   UNL A   1      36.714  33.027  29.327  1.00  0.00     0.134 A 
ATOM     80  F   UNL A   1      36.077  31.049  32.296  1.00  0.00    -0.206 F 
ATOM     81  C   UNL A   1      34.734  32.636  31.217  1.00  0.00     0.040 A 
ATOM     82  C   UNL A   1      35.525  33.763  29.259  1.00  0.00     0.040 A 
ATOM     83  F   UNL A   1      37.655  33.331  28.421  1.00  0.00    -0.206 F 
ATOM     84  C   UNL A   1      34.535  33.581  30.216  1.00  0.00     0.006 A 
ENDBRANCH  56  77
BRANCH  68  85
ATOM     85  C   UNL A   1      41.982  30.544  33.674  1.00  0.00     0.057 A 
ATOM     86  C   UNL A   1      41.680  29.192  33.441  1.00  0.00     0.134 A 
ATOM     87  C   UNL A   1      42.075  30.943  35.010  1.00  0.00     0.134 A 
ATOM     88  F   UNL A   1      41.675  28.685  32.203  1.00  0.00    -0.206 F 
ATOM     89  C   UNL A   1      41.430  28.296  34.485  1.00  0.00     0.040 A 
ATOM     90  C   UNL A   1      41.862  30.050  36.064  1.00  0.00     0.040 A 
ATOM     91  F   UNL A   1      42.422  32.203  35.316  1.00  0.00    -0.206 F 
ATOM     92  C   UNL A   1      41.525  28.725  35.804  1.00  0.00     0.006 A 
ENDBRANCH  68  85
ENDBRANCH  42  43
ENDBRANCH  34  37
ENDBRANCH  32  33
ENDBRANCH  31  32
ENDBRANCH   1  31
TORSDOF 15
ENDMDL
MODEL 2
REMARK VINA RESULT:     -11.7      4.727      8.331
REMARK SMILES NS(=O)(=O)c1ccc(-n2ccnc2-c2ccc(O)c(C(=O)NCCCNC(=O)c3ccc(-c4c5nc(c(-c6c(F)cccc6F)c6ccc([nH]6)c(-c6c(F)cccc6F)c6nc(c(-c7c(F)cccc7F)c7ccc4[nH]7)C=C6)C=C5)cc3)c2)cc1
REMARK SMILES IDX 23 1 22 2 20 3 21 4 19 6 14 7 15 8 83 9 16 10 17 11 13 12
REMARK SMILES IDX 9 13 10 14 11 15 12 16 8 17 5 18 6 19 85 20 7 21 84 22 2 23
REMARK SMILES IDX 3 24 4 25 1 26 18 29 24 31 25 32 26 33 27 34 28 36 29 37
REMARK SMILES IDX 30 38 82 39 31 40 81 41 32 42 33 43 34 44 75 45 35 46 80 47
REMARK SMILES IDX 74 48 76 49 36 50 79 51 73 52 72 53 37 55 63 56 46 57 62 58
REMARK SMILES IDX 47 59 50 60 61 61 77 62 48 63 49 64 60 66 78 67 51 68 38 69
REMARK SMILES IDX 39 70 44 71 40 72 41 73 43 74 45 75 42 76 64 77 65 78 70 79
REMARK SMILES IDX 66 80 67 81 69 82 71 83 68 84 52 85 53 86 58 87 54 88 55 89
REMARK SMILES IDX 57 90 59 91 56 92
REMARK H PARENT 22 5 1 27 1 28 18 30 26 35 76 54 50 65
REMARK Flexibility Score: inf
ROOT
ATOM      1  C   UNL A   1      42.750  19.885  25.687  1.00  0.00     0.118 C 
ENDROOT
BRANCH   1   2
ATOM      2  N   UNL A   1      44.184  19.909  25.441  1.00  0.00    -0.352 N 
ATOM      3  C   UNL A   1      45.141  20.893  25.492  1.00  0.00     0.255 C 
ATOM      4  O   UNL A   1      46.314  20.534  25.346  1.00  0.00    -0.269 OA
ATOM      5  H   UNL A   1      44.545  19.030  25.180  1.00  0.00     0.163 HD
BRANCH   3   6
ATOM      6  C   UNL A   1      44.881  22.344  25.733  1.00  0.00     0.082 A 
ATOM      7  C   UNL A   1      45.117  24.396  27.059  1.00  0.00     0.019 A 
ATOM      8  C   UNL A   1      44.385  25.110  26.115  1.00  0.00     0.016 A 
ATOM      9  C   UNL A   1      45.290  23.013  26.884  1.00  0.00     0.029 A 
ATOM     10  C   UNL A   1      43.900  24.454  24.981  1.00  0.00     0.048 A 
ATOM     11  C   UNL A   1      44.164  23.094  24.785  1.00  0.00     0.128 A 
BRANCH   7  12
ATOM     12  C   UNL A   1      45.663  25.021  28.271  1.00  0.00     0.144 A 
ATOM     13  N   UNL A   1      46.920  25.634  28.352  1.00  0.00    -0.300 N 
ATOM     14  C   UNL A   1      47.252  25.652  29.688  1.00  0.00     0.113 A 
ATOM     15  C   UNL A   1      46.126  25.234  30.355  1.00  0.00     0.132 A 
ATOM     16  N   UNL A   1      45.143  24.875  29.477  1.00  0.00    -0.236 NA
BRANCH  13  17
ATOM     17  C   UNL A   1      47.746  26.090  27.287  1.00  0.00     0.047 A 
ATOM     18  C   UNL A   1      49.420  27.039  25.266  1.00  0.00     0.082 A 
ATOM     19  C   UNL A   1      49.761  25.874  25.958  1.00  0.00     0.024 A 
ATOM     20  C   UNL A   1      48.236  27.723  25.562  1.00  0.00     0.024 A 
ATOM     21  C   UNL A   1      48.933  25.408  26.981  1.00  0.00     0.028 A 
ATOM     22  C   UNL A   1      47.384  27.233  26.558  1.00  0.00     0.028 A 
BRANCH  18  23
ATOM     23  S   UNL A   1      50.492  27.618  23.983  1.00  0.00     0.238 S 
ATOM     24  O   UNL A   1      49.695  28.014  22.849  1.00  0.00    -0.207 OA
ATOM     25  O   UNL A   1      51.605  26.699  23.884  1.00  0.00    -0.207 OA
BRANCH  23  26
ATOM     26  N   UNL A   1      51.114  29.050  24.606  1.00  0.00    -0.225 NA
ATOM     27  H   UNL A   1      52.123  28.961  24.720  1.00  0.00     0.137 HD
ATOM     28  H   UNL A   1      50.685  29.240  25.512  1.00  0.00     0.137 HD
ENDBRANCH  23  26
ENDBRANCH  18  23
ENDBRANCH  13  17
ENDBRANCH   7  12
BRANCH  11  29
ATOM     29  O   UNL A   1      43.660  22.558  23.627  1.00  0.00    -0.507 OA
ATOM     30  H   UNL A   1      43.053  23.050  23.108  1.00  0.00     0.293 HD
ENDBRANCH  11  29
ENDBRANCH   3   6
ENDBRANCH   1   2
BRANCH   1  31
ATOM     31  C   UNL A   1      42.413  19.733  27.178  1.00  0.00     0.042 C 
BRANCH  31  32
ATOM     32  C   UNL A   1      41.481  20.838  27.644  1.00  0.00     0.118 C 
BRANCH  32  33
ATOM     33  N   UNL A   1      40.511  21.213  26.608  1.00  0.00    -0.352 N 
ATOM     34  C   UNL A   1      39.735  22.352  26.512  1.00  0.00     0.251 C 
ATOM     35  H   UNL A   1      40.398  20.562  25.878  1.00  0.00     0.163 HD
ATOM     36  O   UNL A   1      38.770  22.395  25.758  1.00  0.00    -0.269 OA
BRANCH  34  37
ATOM     37  C   UNL A   1      40.095  23.515  27.335  1.00  0.00     0.039 A 
ATOM     38  C   UNL A   1      41.387  23.693  27.838  1.00  0.00     0.014 A 
ATOM     39  C   UNL A   1      39.108  24.469  27.546  1.00  0.00     0.014 A 
ATOM     40  C   UNL A   1      41.694  24.891  28.476  1.00  0.00     0.010 A 
ATOM     41  C   UNL A   1      39.461  25.713  27.982  1.00  0.00     0.010 A 
ATOM     42  C   UNL A   1      40.728  25.907  28.517  1.00  0.00    -0.014 A 
BRANCH  42  43
ATOM     43  C   UNL A   1      41.036  27.242  29.009  1.00  0.00     0.031 A 
ATOM     44  C   UNL A   1      42.226  27.868  28.372  1.00  0.00     0.074 A 
ATOM     45  C   UNL A   1      40.163  27.930  29.778  1.00  0.00     0.049 A 
ATOM     46  N   UNL A   1      43.340  28.184  28.940  1.00  0.00    -0.248 NA
ATOM     47  C   UNL A   1      42.245  28.023  26.907  1.00  0.00     0.031 C 
ATOM     48  C   UNL A   1      38.825  27.528  30.231  1.00  0.00     0.029 A 
ATOM     49  N   UNL A   1      40.248  29.210  30.225  1.00  0.00    -0.354 N 
ATOM     50  C   UNL A   1      44.122  28.781  27.955  1.00  0.00     0.074 A 
ATOM     51  C   UNL A   1      43.485  28.478  26.702  1.00  0.00     0.031 C 
ATOM     52  C   UNL A   1      38.144  28.611  30.668  1.00  0.00     0.029 A 
ATOM     53  C   UNL A   1      39.047  29.745  30.687  1.00  0.00     0.049 A 
ATOM     54  H   UNL A   1      41.091  29.719  30.224  1.00  0.00     0.167 HD
ATOM     55  C   UNL A   1      45.088  29.683  28.284  1.00  0.00     0.037 A 
ATOM     56  C   UNL A   1      38.823  31.037  31.037  1.00  0.00     0.037 A 
ATOM     57  C   UNL A   1      45.386  29.619  29.695  1.00  0.00     0.049 A 
ATOM     58  C   UNL A   1      40.150  31.655  31.286  1.00  0.00     0.074 A 
ATOM     59  C   UNL A   1      45.841  28.629  30.544  1.00  0.00     0.029 A 
ATOM     60  N   UNL A   1      44.827  30.579  30.506  1.00  0.00    -0.354 N 
ATOM     61  N   UNL A   1      40.909  31.333  32.298  1.00  0.00    -0.248 NA
ATOM     62  C   UNL A   1      40.844  32.241  30.147  1.00  0.00     0.031 C 
ATOM     63  C   UNL A   1      45.088  28.802  31.744  1.00  0.00     0.029 A 
ATOM     64  C   UNL A   1      44.291  29.937  31.592  1.00  0.00     0.049 A 
ATOM     65  H   UNL A   1      44.814  31.549  30.336  1.00  0.00     0.167 HD
ATOM     66  C   UNL A   1      42.188  31.252  31.766  1.00  0.00     0.074 A 
ATOM     67  C   UNL A   1      42.099  31.898  30.456  1.00  0.00     0.031 C 
ATOM     68  C   UNL A   1      43.117  30.401  32.294  1.00  0.00     0.037 A 
BRANCH  55  69
ATOM     69  C   UNL A   1      45.477  30.879  27.448  1.00  0.00     0.057 A 
ATOM     70  C   UNL A   1      46.845  31.170  27.276  1.00  0.00     0.134 A 
ATOM     71  C   UNL A   1      44.597  31.912  27.071  1.00  0.00     0.134 A 
ATOM     72  F   UNL A   1      47.787  30.268  27.592  1.00  0.00    -0.206 F 
ATOM     73  C   UNL A   1      47.299  32.428  26.862  1.00  0.00     0.040 A 
ATOM     74  C   UNL A   1      45.040  33.154  26.608  1.00  0.00     0.040 A 
ATOM     75  F   UNL A   1      43.271  31.823  27.223  1.00  0.00    -0.206 F 
ATOM     76  C   UNL A   1      46.395  33.430  26.539  1.00  0.00     0.006 A 
ENDBRANCH  55  69
BRANCH  56  77
ATOM     77  C   UNL A   1      37.581  31.837  30.929  1.00  0.00     0.057 A 
ATOM     78  C   UNL A   1      37.010  32.450  32.053  1.00  0.00     0.134 A 
ATOM     79  C   UNL A   1      37.079  32.250  29.683  1.00  0.00     0.134 A 
ATOM     80  F   UNL A   1      37.446  32.153  33.286  1.00  0.00    -0.206 F 
ATOM     81  C   UNL A   1      36.020  33.437  31.945  1.00  0.00     0.040 A 
ATOM     82  C   UNL A   1      36.086  33.229  29.560  1.00  0.00     0.040 A 
ATOM     83  F   UNL A   1      37.595  31.780  28.538  1.00  0.00    -0.206 F 
ATOM     84  C   UNL A   1      35.564  33.839  30.693  1.00  0.00     0.006 A 
ENDBRANCH  56  77
BRANCH  68  85
ATOM     85  C   UNL A   1      42.788  29.716  33.594  1.00  0.00     0.057 A 
ATOM     86  C   UNL A   1      42.936  30.305  34.860  1.00  0.00     0.134 A 
ATOM     87  C   UNL A   1      42.157  28.469  33.554  1.00  0.00     0.134 A 
ATOM     88  F   UNL A   1      43.427  31.542  34.997  1.00  0.00    -0.206 F 
ATOM     89  C   UNL A   1      42.525  29.663  36.032  1.00  0.00     0.040 A 
ATOM     90  C   UNL A   1      41.710  27.832  34.714  1.00  0.00     0.040 A 
ATOM     91  F   UNL A   1      41.922  27.870  32.377  1.00  0.00    -0.206 F 
ATOM     92  C   UNL A   1      41.905  28.421  35.959  1.00  0.00     0.006 A 
ENDBRANCH  68  85
ENDBRANCH  42  43
ENDBRANCH  34  37
ENDBRANCH  32  33
ENDBRANCH  31  32
ENDBRANCH   1  31
TORSDOF 15
ENDMDL
MODEL 3
REMARK VINA RESULT:     -11.5      4.911     10.652
REMARK SMILES NS(=O)(=O)c1ccc(-n2ccnc2-c2ccc(O)c(C(=O)NCCCNC(=O)c3ccc(-c4c5nc(c(-c6c(F)cccc6F)c6ccc([nH]6)c(-c6c(F)cccc6F)c6nc(c(-c7c(F)cccc7F)c7ccc4[nH]7)C=C6)C=C5)cc3)c2)cc1
REMARK SMILES IDX 23 1 22 2 20 3 21 4 19 6 14 7 15 8 83 9 16 10 17 11 13 12
REMARK SMILES IDX 9 13 10 14 11 15 12 16 8 17 5 18 6 19 85 20 7 21 84 22 2 23
REMARK SMILES IDX 3 24 4 25 1 26 18 29 24 31 25 32 26 33 27 34 28 36 29 37
REMARK SMILES IDX 30 38 82 39 31 40 81 41 32 42 33 43 34 44 75 45 35 46 80 47
REMARK SMILES IDX 74 48 76 49 36 50 79 51 73 52 72 53 37 55 63 56 46 57 62 58
REMARK SMILES IDX 47 59 50 60 61 61 77 62 48 63 49 64 60 66 78 67 51 68 38 69
REMARK SMILES IDX 39 70 44 71 40 72 41 73 43 74 45 75 42 76 64 77 65 78 70 79
REMARK SMILES IDX 66 80 67 81 69 82 71 83 68 84 52 85 53 86 58 87 54 88 55 89
REMARK SMILES IDX 57 90 59 91 56 92
REMARK H PARENT 22 5 1 27 1 28 18 30 26 35 76 54 50 65
REMARK Flexibility Score: inf
ROOT
ATOM      1  C   UNL A   1      34.291  35.192  28.695  1.00  0.00     0.118 C 
ENDROOT
BRANCH   1   2
ATOM      2  N   UNL A   1      33.793  35.714  29.958  1.00  0.00    -0.352 N 
ATOM      3  C   UNL A   1      34.043  35.414  31.275  1.00  0.00     0.255 C 
ATOM      4  O   UNL A   1      33.532  36.156  32.120  1.00  0.00    -0.269 OA
ATOM      5  H   UNL A   1      33.133  36.437  29.845  1.00  0.00     0.163 HD
BRANCH   3   6
ATOM      6  C   UNL A   1      34.896  34.287  31.761  1.00  0.00     0.082 A 
ATOM      7  C   UNL A   1      37.004  33.032  31.811  1.00  0.00     0.019 A 
ATOM      8  C   UNL A   1      36.476  32.150  32.749  1.00  0.00     0.016 A 
ATOM      9  C   UNL A   1      36.180  34.041  31.284  1.00  0.00     0.029 A 
ATOM     10  C   UNL A   1      35.165  32.328  33.199  1.00  0.00     0.048 A 
ATOM     11  C   UNL A   1      34.395  33.396  32.725  1.00  0.00     0.128 A 
BRANCH   7  12
ATOM     12  C   UNL A   1      38.375  32.910  31.300  1.00  0.00     0.144 A 
ATOM     13  N   UNL A   1      39.531  33.124  32.062  1.00  0.00    -0.300 N 
ATOM     14  C   UNL A   1      40.539  33.388  31.164  1.00  0.00     0.113 A 
ATOM     15  C   UNL A   1      40.005  33.141  29.923  1.00  0.00     0.132 A 
ATOM     16  N   UNL A   1      38.680  32.820  30.017  1.00  0.00    -0.236 NA
BRANCH  13  17
ATOM     17  C   UNL A   1      39.657  33.144  33.480  1.00  0.00     0.047 A 
ATOM     18  C   UNL A   1      39.805  33.167  36.266  1.00  0.00     0.082 A 
ATOM     19  C   UNL A   1      39.938  31.960  35.576  1.00  0.00     0.024 A 
ATOM     20  C   UNL A   1      39.619  34.368  35.573  1.00  0.00     0.024 A 
ATOM     21  C   UNL A   1      39.847  31.945  34.182  1.00  0.00     0.028 A 
ATOM     22  C   UNL A   1      39.571  34.360  34.175  1.00  0.00     0.028 A 
BRANCH  18  23
ATOM     23  S   UNL A   1      39.910  33.159  38.032  1.00  0.00     0.238 S 
ATOM     24  O   UNL A   1      39.728  34.503  38.519  1.00  0.00    -0.207 OA
ATOM     25  O   UNL A   1      41.033  32.328  38.407  1.00  0.00    -0.207 OA
BRANCH  23  26
ATOM     26  N   UNL A   1      38.528  32.328  38.505  1.00  0.00    -0.225 NA
ATOM     27  H   UNL A   1      38.794  31.509  39.051  1.00  0.00     0.137 HD
ATOM     28  H   UNL A   1      38.010  32.031  37.677  1.00  0.00     0.137 HD
ENDBRANCH  23  26
ENDBRANCH  18  23
ENDBRANCH  13  17
ENDBRANCH   7  12
BRANCH  11  29
ATOM     29  O   UNL A   1      33.131  33.488  33.251  1.00  0.00    -0.507 OA
ATOM     30  H   UNL A   1      32.430  32.990  32.876  1.00  0.00     0.293 HD
ENDBRANCH  11  29
ENDBRANCH   3   6
ENDBRANCH   1   2
BRANCH   1  31
ATOM     31  C   UNL A   1      33.621  33.867  28.302  1.00  0.00     0.042 C 
BRANCH  31  32
ATOM     32  C   UNL A   1      34.639  32.742  28.224  1.00  0.00     0.118 C 
BRANCH  32  33
ATOM     33  N   UNL A   1      34.021  31.465  27.846  1.00  0.00    -0.352 N 
ATOM     34  C   UNL A   1      34.612  30.230  27.666  1.00  0.00     0.251 C 
ATOM     35  H   UNL A   1      33.047  31.493  27.700  1.00  0.00     0.163 HD
ATOM     36  O   UNL A   1      34.027  29.331  27.075  1.00  0.00    -0.269 OA
BRANCH  34  37
ATOM     37  C   UNL A   1      35.962  30.016  28.206  1.00  0.00     0.039 A 
ATOM     38  C   UNL A   1      36.179  29.704  29.552  1.00  0.00     0.014 A 
ATOM     39  C   UNL A   1      37.019  30.078  27.308  1.00  0.00     0.014 A 
ATOM     40  C   UNL A   1      37.466  29.362  29.957  1.00  0.00     0.010 A 
ATOM     41  C   UNL A   1      38.228  29.549  27.658  1.00  0.00     0.010 A 
ATOM     42  C   UNL A   1      38.479  29.262  28.993  1.00  0.00    -0.014 A 
BRANCH  42  43
ATOM     43  C   UNL A   1      39.799  28.742  29.315  1.00  0.00     0.031 A 
ATOM     44  C   UNL A   1      40.089  28.674  30.773  1.00  0.00     0.074 A 
ATOM     45  C   UNL A   1      40.570  28.141  28.382  1.00  0.00     0.049 A 
ATOM     46  N   UNL A   1      40.983  29.340  31.423  1.00  0.00    -0.248 NA
ATOM     47  C   UNL A   1      39.187  27.896  31.640  1.00  0.00     0.031 C 
ATOM     48  C   UNL A   1      40.266  27.886  26.967  1.00  0.00     0.029 A 
ATOM     49  N   UNL A   1      41.765  27.515  28.538  1.00  0.00    -0.354 N 
ATOM     50  C   UNL A   1      40.908  28.904  32.743  1.00  0.00     0.074 A 
ATOM     51  C   UNL A   1      39.673  28.175  32.853  1.00  0.00     0.031 C 
ATOM     52  C   UNL A   1      41.123  26.966  26.473  1.00  0.00     0.029 A 
ATOM     53  C   UNL A   1      42.135  26.695  27.474  1.00  0.00     0.049 A 
ATOM     54  H   UNL A   1      42.326  27.632  29.340  1.00  0.00     0.167 HD
ATOM     55  C   UNL A   1      41.994  28.972  33.563  1.00  0.00     0.037 A 
ATOM     56  C   UNL A   1      43.191  25.843  27.444  1.00  0.00     0.037 A 
ATOM     57  C   UNL A   1      43.003  29.839  33.001  1.00  0.00     0.049 A 
ATOM     58  C   UNL A   1      44.123  26.270  28.518  1.00  0.00     0.074 A 
ATOM     59  C   UNL A   1      43.038  31.169  32.630  1.00  0.00     0.029 A 
ATOM     60  N   UNL A   1      44.066  29.245  32.364  1.00  0.00    -0.354 N 
ATOM     61  N   UNL A   1      44.801  27.385  28.474  1.00  0.00    -0.248 NA
ATOM     62  C   UNL A   1      43.912  25.721  29.851  1.00  0.00     0.031 C 
ATOM     63  C   UNL A   1      43.789  31.191  31.417  1.00  0.00     0.029 A 
ATOM     64  C   UNL A   1      44.245  29.895  31.170  1.00  0.00     0.049 A 
ATOM     65  H   UNL A   1      44.601  28.491  32.702  1.00  0.00     0.167 HD
ATOM     66  C   UNL A   1      44.710  27.903  29.758  1.00  0.00     0.074 A 
ATOM     67  C   UNL A   1      44.218  26.798  30.582  1.00  0.00     0.031 C 
ATOM     68  C   UNL A   1      44.740  29.251  29.976  1.00  0.00     0.037 A 
BRANCH  55  69
ATOM     69  C   UNL A   1      42.324  27.975  34.648  1.00  0.00     0.057 A 
ATOM     70  C   UNL A   1      42.695  26.667  34.277  1.00  0.00     0.134 A 
ATOM     71  C   UNL A   1      42.002  28.138  36.009  1.00  0.00     0.134 A 
ATOM     72  F   UNL A   1      43.031  26.379  33.010  1.00  0.00    -0.206 F 
ATOM     73  C   UNL A   1      42.645  25.590  35.170  1.00  0.00     0.040 A 
ATOM     74  C   UNL A   1      41.998  27.078  36.920  1.00  0.00     0.040 A 
ATOM     75  F   UNL A   1      41.574  29.300  36.516  1.00  0.00    -0.206 F 
ATOM     76  C   UNL A   1      42.282  25.792  36.494  1.00  0.00     0.006 A 
ENDBRANCH  55  69
BRANCH  56  77
ATOM     77  C   UNL A   1      43.336  24.552  26.733  1.00  0.00     0.057 A 
ATOM     78  C   UNL A   1      42.740  23.380  27.221  1.00  0.00     0.134 A 
ATOM     79  C   UNL A   1      43.827  24.489  25.417  1.00  0.00     0.134 A 
ATOM     80  F   UNL A   1      42.208  23.348  28.452  1.00  0.00    -0.206 F 
ATOM     81  C   UNL A   1      42.612  22.224  26.437  1.00  0.00     0.040 A 
ATOM     82  C   UNL A   1      43.712  23.340  24.626  1.00  0.00     0.040 A 
ATOM     83  F   UNL A   1      44.358  25.568  24.824  1.00  0.00    -0.206 F 
ATOM     84  C   UNL A   1      43.088  22.206  25.130  1.00  0.00     0.006 A 
ENDBRANCH  56  77
BRANCH  68  85
ATOM     85  C   UNL A   1      45.090  30.146  28.817  1.00  0.00     0.057 A 
ATOM     86  C   UNL A   1      44.151  30.702  27.933  1.00  0.00     0.134 A 
ATOM     87  C   UNL A   1      46.412  30.581  28.682  1.00  0.00     0.134 A 
ATOM     88  F   UNL A   1      42.846  30.436  28.049  1.00  0.00    -0.206 F 
ATOM     89  C   UNL A   1      44.518  31.606  26.931  1.00  0.00     0.040 A 
ATOM     90  C   UNL A   1      46.786  31.510  27.707  1.00  0.00     0.040 A 
ATOM     91  F   UNL A   1      47.356  30.145  29.529  1.00  0.00    -0.206 F 
ATOM     92  C   UNL A   1      45.842  32.016  26.819  1.00  0.00     0.006 A 
ENDBRANCH  68  85
ENDBRANCH  42  43
ENDBRANCH  34  37
ENDBRANCH  32  33
ENDBRANCH  31  32
ENDBRANCH   1  31
TORSDOF 15
ENDMDL
