MODEL 1
REMARK VINA RESULT:     -11.3      0.000      0.000
REMARK SMILES CCCn1ncc(C(=O)N2CCC[C@@H]2C(=O)NCCCNC(=O)c2ccc(-c3c4nc(c(-c5c(F)cccc5F)c5ccc([nH]5)c(-c5c(F)cccc5F)c5nc(c(-c6c(F)cccc6F)c6ccc3[nH]6)C=C5)C=C4)cc2)c1C
REMARK SMILES IDX 18 1 17 2 15 3 16 4 14 6 10 7 11 8 12 9 13 10 8 11 9 12 7 13
REMARK SMILES IDX 4 14 5 15 78 16 6 17 79 18 3 19 2 20 1 21 19 22 20 23 21 24
REMARK SMILES IDX 22 25 23 27 24 28 25 29 77 30 26 31 76 32 27 33 28 34 29 35
REMARK SMILES IDX 70 36 30 37 75 38 69 39 71 40 31 41 74 42 68 43 67 44 32 46
REMARK SMILES IDX 58 47 41 48 57 49 42 50 45 51 56 52 72 53 43 54 44 55 55 57
REMARK SMILES IDX 73 58 46 59 33 60 34 61 39 62 35 63 36 64 38 65 40 66 37 67
REMARK SMILES IDX 59 68 60 69 65 70 61 71 62 72 64 73 66 74 63 75 47 76 48 77
REMARK SMILES IDX 53 78 49 79 50 80 52 81 54 82 51 83
REMARK H PARENT 17 5 21 26 71 45 45 56
REMARK Flexibility Score: inf
ROOT
ATOM      1  C   UNL A   1      37.723  21.246  24.770  1.00  0.00     0.117 C 
ENDROOT
BRANCH   1   2
ATOM      2  N   UNL A   1      36.810  21.726  25.788  1.00  0.00    -0.354 N 
ATOM      3  C   UNL A   1      35.444  21.692  25.836  1.00  0.00     0.242 C 
ATOM      4  O   UNL A   1      34.909  22.267  26.791  1.00  0.00    -0.273 OA
ATOM      5  H   UNL A   1      37.243  22.144  26.569  1.00  0.00     0.163 HD
BRANCH   3   6
ATOM      6  C   UNL A   1      34.586  21.159  24.663  1.00  0.00     0.174 C 
ATOM      7  N   UNL A   1      33.814  22.173  23.952  1.00  0.00    -0.327 N 
ATOM      8  C   UNL A   1      32.476  21.696  23.669  1.00  0.00     0.121 C 
ATOM      9  C   UNL A   1      32.185  20.738  24.811  1.00  0.00     0.024 C 
ATOM     10  C   UNL A   1      33.548  20.146  25.169  1.00  0.00     0.037 C 
BRANCH   7  11
ATOM     11  C   UNL A   1      34.471  23.140  23.210  1.00  0.00     0.258 C 
ATOM     12  O   UNL A   1      35.643  22.987  22.874  1.00  0.00    -0.269 OA
BRANCH  11  13
ATOM     13  C   UNL A   1      33.791  24.431  23.054  1.00  0.00     0.080 A 
ATOM     14  N   UNL A   1      32.687  26.278  23.590  1.00  0.00    -0.269 N 
ATOM     15  N   UNL A   1      32.388  26.076  22.292  1.00  0.00    -0.180 NA
ATOM     16  C   UNL A   1      33.635  25.392  24.049  1.00  0.00     0.048 A 
ATOM     17  C   UNL A   1      33.075  24.983  21.970  1.00  0.00     0.149 A 
ATOM     18  C   UNL A   1      34.300  25.475  25.374  1.00  0.00     0.067 C 
BRANCH  14  19
ATOM     19  C   UNL A   1      32.105  27.437  24.247  1.00  0.00     0.144 C 
BRANCH  19  20
ATOM     20  C   UNL A   1      30.675  27.284  24.779  1.00  0.00     0.020 C 
ATOM     21  C   UNL A   1      30.512  26.239  25.870  1.00  0.00     0.006 C 
ENDBRANCH  19  20
ENDBRANCH  14  19
ENDBRANCH  11  13
ENDBRANCH   7  11
ENDBRANCH   3   6
ENDBRANCH   1   2
BRANCH   1  22
ATOM     22  C   UNL A   1      38.406  19.924  25.103  1.00  0.00     0.042 C 
BRANCH  22  23
ATOM     23  C   UNL A   1      39.516  20.114  26.110  1.00  0.00     0.118 C 
BRANCH  23  24
ATOM     24  N   UNL A   1      40.685  19.264  25.832  1.00  0.00    -0.352 N 
ATOM     25  C   UNL A   1      42.019  19.640  25.739  1.00  0.00     0.251 C 
ATOM     26  H   UNL A   1      40.497  18.308  25.692  1.00  0.00     0.163 HD
ATOM     27  O   UNL A   1      42.848  18.945  25.191  1.00  0.00    -0.269 OA
BRANCH  25  28
ATOM     28  C   UNL A   1      42.392  20.925  26.351  1.00  0.00     0.039 A 
ATOM     29  C   UNL A   1      42.656  22.069  25.594  1.00  0.00     0.014 A 
ATOM     30  C   UNL A   1      42.337  20.971  27.735  1.00  0.00     0.014 A 
ATOM     31  C   UNL A   1      42.770  23.285  26.261  1.00  0.00     0.010 A 
ATOM     32  C   UNL A   1      42.164  22.179  28.336  1.00  0.00     0.010 A 
ATOM     33  C   UNL A   1      42.495  23.329  27.636  1.00  0.00    -0.014 A 
BRANCH  33  34
ATOM     34  C   UNL A   1      42.468  24.568  28.393  1.00  0.00     0.031 A 
ATOM     35  C   UNL A   1      41.222  25.359  28.233  1.00  0.00     0.074 A 
ATOM     36  C   UNL A   1      43.384  24.829  29.352  1.00  0.00     0.049 A 
ATOM     37  N   UNL A   1      41.075  26.471  27.594  1.00  0.00    -0.248 NA
ATOM     38  C   UNL A   1      39.954  24.766  28.688  1.00  0.00     0.031 C 
ATOM     39  C   UNL A   1      44.468  23.965  29.849  1.00  0.00     0.029 A 
ATOM     40  N   UNL A   1      43.472  25.905  30.175  1.00  0.00    -0.354 N 
ATOM     41  C   UNL A   1      39.745  26.842  27.778  1.00  0.00     0.074 A 
ATOM     42  C   UNL A   1      39.069  25.662  28.245  1.00  0.00     0.031 C 
ATOM     43  C   UNL A   1      44.932  24.442  31.024  1.00  0.00     0.029 A 
ATOM     44  C   UNL A   1      44.323  25.734  31.261  1.00  0.00     0.049 A 
ATOM     45  H   UNL A   1      42.973  26.738  30.015  1.00  0.00     0.167 HD
ATOM     46  C   UNL A   1      39.390  28.158  27.799  1.00  0.00     0.037 A 
ATOM     47  C   UNL A   1      44.495  26.597  32.292  1.00  0.00     0.037 A 
ATOM     48  C   UNL A   1      40.466  28.979  27.292  1.00  0.00     0.049 A 
ATOM     49  C   UNL A   1      43.991  27.918  31.838  1.00  0.00     0.074 A 
ATOM     50  C   UNL A   1      41.159  29.057  26.099  1.00  0.00     0.029 A 
ATOM     51  N   UNL A   1      41.244  29.632  28.220  1.00  0.00    -0.354 N 
ATOM     52  N   UNL A   1      44.556  28.619  30.892  1.00  0.00    -0.248 NA
ATOM     53  C   UNL A   1      42.588  28.219  32.083  1.00  0.00     0.031 C 
ATOM     54  C   UNL A   1      42.510  29.316  26.475  1.00  0.00     0.029 A 
ATOM     55  C   UNL A   1      42.555  29.463  27.863  1.00  0.00     0.049 A 
ATOM     56  H   UNL A   1      40.916  30.132  29.001  1.00  0.00     0.167 HD
ATOM     57  C   UNL A   1      43.500  29.125  30.146  1.00  0.00     0.074 A 
ATOM     58  C   UNL A   1      42.313  28.911  30.974  1.00  0.00     0.031 C 
ATOM     59  C   UNL A   1      43.642  29.386  28.812  1.00  0.00     0.037 A 
BRANCH  46  60
ATOM     60  C   UNL A   1      38.293  28.754  28.659  1.00  0.00     0.057 A 
ATOM     61  C   UNL A   1      37.466  29.746  28.092  1.00  0.00     0.134 A 
ATOM     62  C   UNL A   1      38.211  28.650  30.061  1.00  0.00     0.134 A 
ATOM     63  F   UNL A   1      37.425  29.934  26.763  1.00  0.00    -0.206 F 
ATOM     64  C   UNL A   1      36.730  30.648  28.867  1.00  0.00     0.040 A 
ATOM     65  C   UNL A   1      37.439  29.515  30.842  1.00  0.00     0.040 A 
ATOM     66  F   UNL A   1      38.933  27.777  30.770  1.00  0.00    -0.206 F 
ATOM     67  C   UNL A   1      36.731  30.547  30.251  1.00  0.00     0.006 A 
ENDBRANCH  46  60
BRANCH  47  68
ATOM     68  C   UNL A   1      44.775  26.283  33.710  1.00  0.00     0.057 A 
ATOM     69  C   UNL A   1      43.763  25.854  34.578  1.00  0.00     0.134 A 
ATOM     70  C   UNL A   1      46.094  26.140  34.180  1.00  0.00     0.134 A 
ATOM     71  F   UNL A   1      42.477  25.908  34.201  1.00  0.00    -0.206 F 
ATOM     72  C   UNL A   1      44.046  25.303  35.836  1.00  0.00     0.040 A 
ATOM     73  C   UNL A   1      46.390  25.595  35.433  1.00  0.00     0.040 A 
ATOM     74  F   UNL A   1      47.142  26.445  33.399  1.00  0.00    -0.206 F 
ATOM     75  C   UNL A   1      45.363  25.162  36.263  1.00  0.00     0.006 A 
ENDBRANCH  47  68
BRANCH  59  76
ATOM     76  C   UNL A   1      45.027  29.362  28.225  1.00  0.00     0.057 A 
ATOM     77  C   UNL A   1      45.610  28.235  27.626  1.00  0.00     0.134 A 
ATOM     78  C   UNL A   1      45.708  30.575  28.084  1.00  0.00     0.134 A 
ATOM     79  F   UNL A   1      44.992  27.049  27.630  1.00  0.00    -0.206 F 
ATOM     80  C   UNL A   1      46.824  28.311  26.935  1.00  0.00     0.040 A 
ATOM     81  C   UNL A   1      46.905  30.670  27.370  1.00  0.00     0.040 A 
ATOM     82  F   UNL A   1      45.183  31.705  28.584  1.00  0.00    -0.206 F 
ATOM     83  C   UNL A   1      47.470  29.535  26.796  1.00  0.00     0.006 A 
ENDBRANCH  59  76
ENDBRANCH  33  34
ENDBRANCH  25  28
ENDBRANCH  23  24
ENDBRANCH  22  23
ENDBRANCH   1  22
TORSDOF 14
ENDMDL
MODEL 2
REMARK VINA RESULT:     -11.3      2.991      7.660
REMARK SMILES CCCn1ncc(C(=O)N2CCC[C@@H]2C(=O)NCCCNC(=O)c2ccc(-c3c4nc(c(-c5c(F)cccc5F)c5ccc([nH]5)c(-c5c(F)cccc5F)c5nc(c(-c6c(F)cccc6F)c6ccc3[nH]6)C=C5)C=C4)cc2)c1C
REMARK SMILES IDX 18 1 17 2 15 3 16 4 14 6 10 7 11 8 12 9 13 10 8 11 9 12 7 13
REMARK SMILES IDX 4 14 5 15 78 16 6 17 79 18 3 19 2 20 1 21 19 22 20 23 21 24
REMARK SMILES IDX 22 25 23 27 24 28 25 29 77 30 26 31 76 32 27 33 28 34 29 35
REMARK SMILES IDX 70 36 30 37 75 38 69 39 71 40 31 41 74 42 68 43 67 44 32 46
REMARK SMILES IDX 58 47 41 48 57 49 42 50 45 51 56 52 72 53 43 54 44 55 55 57
REMARK SMILES IDX 73 58 46 59 33 60 34 61 39 62 35 63 36 64 38 65 40 66 37 67
REMARK SMILES IDX 59 68 60 69 65 70 61 71 62 72 64 73 66 74 63 75 47 76 48 77
REMARK SMILES IDX 53 78 49 79 50 80 52 81 54 82 51 83
REMARK H PARENT 17 5 21 26 71 45 45 56
REMARK Flexibility Score: inf
ROOT
ATOM      1  C   UNL A   1      33.426  29.631  26.380  1.00  0.00     0.117 C 
ENDROOT
BRANCH   1   2
ATOM      2  N   UNL A   1      33.511  29.290  24.975  1.00  0.00    -0.354 N 
ATOM      3  C   UNL A   1      32.551  28.830  24.117  1.00  0.00     0.242 C 
ATOM      4  O   UNL A   1      32.925  28.526  22.978  1.00  0.00    -0.273 OA
ATOM      5  H   UNL A   1      34.403  29.409  24.573  1.00  0.00     0.163 HD
BRANCH   3   6
ATOM      6  C   UNL A   1      31.114  28.495  24.585  1.00  0.00     0.174 C 
ATOM      7  N   UNL A   1      30.851  27.075  24.801  1.00  0.00    -0.327 N 
ATOM      8  C   UNL A   1      29.556  26.705  24.267  1.00  0.00     0.121 C 
ATOM      9  C   UNL A   1      29.357  27.664  23.106  1.00  0.00     0.024 C 
ATOM     10  C   UNL A   1      30.085  28.938  23.534  1.00  0.00     0.037 C 
BRANCH   7  11
ATOM     11  C   UNL A   1      31.488  26.408  25.833  1.00  0.00     0.258 C 
ATOM     12  O   UNL A   1      31.306  26.738  27.003  1.00  0.00    -0.269 OA
BRANCH  11  13
ATOM     13  C   UNL A   1      32.551  25.468  25.459  1.00  0.00     0.080 A 
ATOM     14  N   UNL A   1      33.627  23.549  25.182  1.00  0.00    -0.269 N 
ATOM     15  N   UNL A   1      34.606  24.472  25.253  1.00  0.00    -0.180 NA
ATOM     16  C   UNL A   1      32.375  24.119  25.163  1.00  0.00     0.048 A 
ATOM     17  C   UNL A   1      33.952  25.623  25.392  1.00  0.00     0.149 A 
ATOM     18  C   UNL A   1      31.112  23.381  24.907  1.00  0.00     0.067 C 
BRANCH  14  19
ATOM     19  C   UNL A   1      34.018  22.161  24.995  1.00  0.00     0.144 C 
BRANCH  19  20
ATOM     20  C   UNL A   1      34.544  21.420  26.230  1.00  0.00     0.020 C 
ATOM     21  C   UNL A   1      34.058  21.975  27.559  1.00  0.00     0.006 C 
ENDBRANCH  19  20
ENDBRANCH  14  19
ENDBRANCH  11  13
ENDBRANCH   7  11
ENDBRANCH   3   6
ENDBRANCH   1   2
BRANCH   1  22
ATOM     22  C   UNL A   1      34.456  28.939  27.266  1.00  0.00     0.042 C 
BRANCH  22  23
ATOM     23  C   UNL A   1      35.569  29.881  27.660  1.00  0.00     0.118 C 
BRANCH  23  24
ATOM     24  N   UNL A   1      35.642  30.093  29.115  1.00  0.00    -0.352 N 
ATOM     25  C   UNL A   1      36.542  29.544  30.019  1.00  0.00     0.251 C 
ATOM     26  H   UNL A   1      34.967  30.700  29.495  1.00  0.00     0.163 HD
ATOM     27  O   UNL A   1      36.322  29.516  31.212  1.00  0.00    -0.269 OA
BRANCH  25  28
ATOM     28  C   UNL A   1      37.793  29.001  29.467  1.00  0.00     0.039 A 
ATOM     29  C   UNL A   1      38.412  29.539  28.337  1.00  0.00     0.014 A 
ATOM     30  C   UNL A   1      38.395  28.001  30.214  1.00  0.00     0.014 A 
ATOM     31  C   UNL A   1      39.701  29.113  28.030  1.00  0.00     0.010 A 
ATOM     32  C   UNL A   1      39.736  27.809  30.078  1.00  0.00     0.010 A 
ATOM     33  C   UNL A   1      40.362  28.263  28.928  1.00  0.00    -0.014 A 
BRANCH  33  34
ATOM     34  C   UNL A   1      41.749  27.864  28.756  1.00  0.00     0.031 A 
ATOM     35  C   UNL A   1      41.937  26.626  27.960  1.00  0.00     0.074 A 
ATOM     36  C   UNL A   1      42.766  28.696  29.071  1.00  0.00     0.049 A 
ATOM     37  N   UNL A   1      42.304  25.465  28.387  1.00  0.00    -0.248 NA
ATOM     38  C   UNL A   1      41.506  26.629  26.552  1.00  0.00     0.031 C 
ATOM     39  C   UNL A   1      42.705  30.088  29.544  1.00  0.00     0.029 A 
ATOM     40  N   UNL A   1      44.102  28.498  28.929  1.00  0.00    -0.354 N 
ATOM     41  C   UNL A   1      42.388  24.653  27.259  1.00  0.00     0.074 A 
ATOM     42  C   UNL A   1      41.672  25.345  26.223  1.00  0.00     0.031 C 
ATOM     43  C   UNL A   1      43.916  30.672  29.413  1.00  0.00     0.029 A 
ATOM     44  C   UNL A   1      44.872  29.651  29.038  1.00  0.00     0.049 A 
ATOM     45  H   UNL A   1      44.493  27.611  28.760  1.00  0.00     0.167 HD
ATOM     46  C   UNL A   1      43.281  23.624  27.212  1.00  0.00     0.037 A 
ATOM     47  C   UNL A   1      46.205  29.752  28.815  1.00  0.00     0.037 A 
ATOM     48  C   UNL A   1      43.801  23.346  28.531  1.00  0.00     0.049 A 
ATOM     49  C   UNL A   1      46.761  28.378  28.891  1.00  0.00     0.074 A 
ATOM     50  C   UNL A   1      43.249  22.975  29.742  1.00  0.00     0.029 A 
ATOM     51  N   UNL A   1      45.053  23.834  28.825  1.00  0.00    -0.354 N 
ATOM     52  N   UNL A   1      46.794  27.674  29.990  1.00  0.00    -0.248 NA
ATOM     53  C   UNL A   1      46.817  27.609  27.656  1.00  0.00     0.031 C 
ATOM     54  C   UNL A   1      43.990  23.701  30.722  1.00  0.00     0.029 A 
ATOM     55  C   UNL A   1      45.001  24.407  30.066  1.00  0.00     0.049 A 
ATOM     56  H   UNL A   1      45.846  23.779  28.244  1.00  0.00     0.167 HD
ATOM     57  C   UNL A   1      46.441  26.389  29.600  1.00  0.00     0.074 A 
ATOM     58  C   UNL A   1      46.546  26.394  28.140  1.00  0.00     0.031 C 
ATOM     59  C   UNL A   1      45.805  25.540  30.462  1.00  0.00     0.037 A 
BRANCH  46  60
ATOM     60  C   UNL A   1      44.018  23.162  25.970  1.00  0.00     0.057 A 
ATOM     61  C   UNL A   1      44.026  21.783  25.674  1.00  0.00     0.134 A 
ATOM     62  C   UNL A   1      44.959  23.924  25.252  1.00  0.00     0.134 A 
ATOM     63  F   UNL A   1      43.160  20.945  26.265  1.00  0.00    -0.206 F 
ATOM     64  C   UNL A   1      44.983  21.196  24.840  1.00  0.00     0.040 A 
ATOM     65  C   UNL A   1      45.889  23.353  24.378  1.00  0.00     0.040 A 
ATOM     66  F   UNL A   1      45.106  25.242  25.414  1.00  0.00    -0.206 F 
ATOM     67  C   UNL A   1      45.934  21.980  24.203  1.00  0.00     0.006 A 
ENDBRANCH  46  60
BRANCH  47  68
ATOM     68  C   UNL A   1      46.953  30.897  28.249  1.00  0.00     0.057 A 
ATOM     69  C   UNL A   1      46.705  31.364  26.952  1.00  0.00     0.134 A 
ATOM     70  C   UNL A   1      47.742  31.728  29.065  1.00  0.00     0.134 A 
ATOM     71  F   UNL A   1      45.926  30.662  26.116  1.00  0.00    -0.206 F 
ATOM     72  C   UNL A   1      47.202  32.592  26.495  1.00  0.00     0.040 A 
ATOM     73  C   UNL A   1      48.247  32.955  28.621  1.00  0.00     0.040 A 
ATOM     74  F   UNL A   1      47.975  31.417  30.349  1.00  0.00    -0.206 F 
ATOM     75  C   UNL A   1      47.967  33.398  27.334  1.00  0.00     0.006 A 
ENDBRANCH  47  68
BRANCH  59  76
ATOM     76  C   UNL A   1      45.728  25.927  31.915  1.00  0.00     0.057 A 
ATOM     77  C   UNL A   1      44.603  26.511  32.515  1.00  0.00     0.134 A 
ATOM     78  C   UNL A   1      46.753  25.507  32.767  1.00  0.00     0.134 A 
ATOM     79  F   UNL A   1      43.534  26.865  31.793  1.00  0.00    -0.206 F 
ATOM     80  C   UNL A   1      44.512  26.685  33.901  1.00  0.00     0.040 A 
ATOM     81  C   UNL A   1      46.662  25.645  34.154  1.00  0.00     0.040 A 
ATOM     82  F   UNL A   1      47.836  24.890  32.267  1.00  0.00    -0.206 F 
ATOM     83  C   UNL A   1      45.540  26.240  34.726  1.00  0.00     0.006 A 
ENDBRANCH  59  76
ENDBRANCH  33  34
ENDBRANCH  25  28
ENDBRANCH  23  24
ENDBRANCH  22  23
ENDBRANCH   1  22
TORSDOF 14
ENDMDL
MODEL 3
REMARK VINA RESULT:     -11.2      1.526      3.297
REMARK SMILES CCCn1ncc(C(=O)N2CCC[C@@H]2C(=O)NCCCNC(=O)c2ccc(-c3c4nc(c(-c5c(F)cccc5F)c5ccc([nH]5)c(-c5c(F)cccc5F)c5nc(c(-c6c(F)cccc6F)c6ccc3[nH]6)C=C5)C=C4)cc2)c1C
REMARK SMILES IDX 18 1 17 2 15 3 16 4 14 6 10 7 11 8 12 9 13 10 8 11 9 12 7 13
REMARK SMILES IDX 4 14 5 15 78 16 6 17 79 18 3 19 2 20 1 21 19 22 20 23 21 24
REMARK SMILES IDX 22 25 23 27 24 28 25 29 77 30 26 31 76 32 27 33 28 34 29 35
REMARK SMILES IDX 70 36 30 37 75 38 69 39 71 40 31 41 74 42 68 43 67 44 32 46
REMARK SMILES IDX 58 47 41 48 57 49 42 50 45 51 56 52 72 53 43 54 44 55 55 57
REMARK SMILES IDX 73 58 46 59 33 60 34 61 39 62 35 63 36 64 38 65 40 66 37 67
REMARK SMILES IDX 59 68 60 69 65 70 61 71 62 72 64 73 66 74 63 75 47 76 48 77
REMARK SMILES IDX 53 78 49 79 50 80 52 81 54 82 51 83
REMARK H PARENT 17 5 21 26 71 45 45 56
REMARK Flexibility Score: inf
ROOT
ATOM      1  C   UNL A   1      36.647  21.180  25.009  1.00  0.00     0.117 C 
ENDROOT
BRANCH   1   2
ATOM      2  N   UNL A   1      35.876  21.262  26.232  1.00  0.00    -0.354 N 
ATOM      3  C   UNL A   1      34.769  22.008  26.531  1.00  0.00     0.242 C 
ATOM      4  O   UNL A   1      34.365  21.957  27.699  1.00  0.00    -0.273 OA
ATOM      5  H   UNL A   1      36.200  20.689  26.966  1.00  0.00     0.163 HD
BRANCH   3   6
ATOM      6  C   UNL A   1      34.169  23.033  25.539  1.00  0.00     0.174 C 
ATOM      7  N   UNL A   1      33.529  22.452  24.363  1.00  0.00    -0.327 N 
ATOM      8  C   UNL A   1      33.880  23.192  23.168  1.00  0.00     0.121 C 
ATOM      9  C   UNL A   1      35.266  23.734  23.472  1.00  0.00     0.024 C 
ATOM     10  C   UNL A   1      35.265  23.956  24.984  1.00  0.00     0.037 C 
BRANCH   7  11
ATOM     11  C   UNL A   1      32.369  21.710  24.509  1.00  0.00     0.258 C 
ATOM     12  O   UNL A   1      31.490  22.065  25.290  1.00  0.00    -0.269 OA
BRANCH  11  13
ATOM     13  C   UNL A   1      32.346  20.385  23.879  1.00  0.00     0.080 A 
ATOM     14  N   UNL A   1      32.823  18.252  23.506  1.00  0.00    -0.269 N 
ATOM     15  N   UNL A   1      32.423  18.719  22.307  1.00  0.00    -0.180 NA
ATOM     16  C   UNL A   1      32.661  19.182  24.507  1.00  0.00     0.048 A 
ATOM     17  C   UNL A   1      32.113  19.991  22.544  1.00  0.00     0.149 A 
ATOM     18  C   UNL A   1      32.837  18.908  25.954  1.00  0.00     0.067 C 
BRANCH  14  19
ATOM     19  C   UNL A   1      33.210  16.853  23.593  1.00  0.00     0.144 C 
BRANCH  19  20
ATOM     20  C   UNL A   1      34.695  16.562  23.845  1.00  0.00     0.020 C 
ATOM     21  C   UNL A   1      34.997  15.916  25.187  1.00  0.00     0.006 C 
ENDBRANCH  19  20
ENDBRANCH  14  19
ENDBRANCH  11  13
ENDBRANCH   7  11
ENDBRANCH   3   6
ENDBRANCH   1   2
BRANCH   1  22
ATOM     22  C   UNL A   1      37.675  20.055  24.980  1.00  0.00     0.042 C 
BRANCH  22  23
ATOM     23  C   UNL A   1      38.951  20.453  25.683  1.00  0.00     0.118 C 
BRANCH  23  24
ATOM     24  N   UNL A   1      39.918  19.348  25.771  1.00  0.00    -0.352 N 
ATOM     25  C   UNL A   1      41.293  19.421  25.956  1.00  0.00     0.251 C 
ATOM     26  H   UNL A   1      39.544  18.442  25.687  1.00  0.00     0.163 HD
ATOM     27  O   UNL A   1      42.030  18.496  25.688  1.00  0.00    -0.269 OA
BRANCH  25  28
ATOM     28  C   UNL A   1      41.825  20.678  26.506  1.00  0.00     0.039 A 
ATOM     29  C   UNL A   1      42.230  21.741  25.696  1.00  0.00     0.014 A 
ATOM     30  C   UNL A   1      41.777  20.798  27.886  1.00  0.00     0.014 A 
ATOM     31  C   UNL A   1      42.496  22.965  26.305  1.00  0.00     0.010 A 
ATOM     32  C   UNL A   1      41.758  22.046  28.428  1.00  0.00     0.010 A 
ATOM     33  C   UNL A   1      42.229  23.109  27.674  1.00  0.00    -0.014 A 
BRANCH  33  34
ATOM     34  C   UNL A   1      42.358  24.378  28.370  1.00  0.00     0.031 A 
ATOM     35  C   UNL A   1      41.200  25.290  28.204  1.00  0.00     0.074 A 
ATOM     36  C   UNL A   1      43.326  24.581  29.291  1.00  0.00     0.049 A 
ATOM     37  N   UNL A   1      41.152  26.381  27.516  1.00  0.00    -0.248 NA
ATOM     38  C   UNL A   1      39.890  24.859  28.721  1.00  0.00     0.031 C 
ATOM     39  C   UNL A   1      44.326  23.629  29.801  1.00  0.00     0.029 A 
ATOM     40  N   UNL A   1      43.555  25.678  30.058  1.00  0.00    -0.354 N 
ATOM     41  C   UNL A   1      39.876  26.902  27.716  1.00  0.00     0.074 A 
ATOM     42  C   UNL A   1      39.093  25.824  28.258  1.00  0.00     0.031 C 
ATOM     43  C   UNL A   1      44.875  24.106  30.939  1.00  0.00     0.029 A 
ATOM     44  C   UNL A   1      44.416  25.466  31.129  1.00  0.00     0.049 A 
ATOM     45  H   UNL A   1      43.142  26.552  29.871  1.00  0.00     0.167 HD
ATOM     46  C   UNL A   1      39.664  28.248  27.682  1.00  0.00     0.037 A 
ATOM     47  C   UNL A   1      44.711  26.352  32.111  1.00  0.00     0.037 A 
ATOM     48  C   UNL A   1      40.805  28.924  27.109  1.00  0.00     0.049 A 
ATOM     49  C   UNL A   1      44.337  27.697  31.607  1.00  0.00     0.074 A 
ATOM     50  C   UNL A   1      41.464  28.871  25.895  1.00  0.00     0.029 A 
ATOM     51  N   UNL A   1      41.677  29.530  27.982  1.00  0.00    -0.354 N 
ATOM     52  N   UNL A   1      44.943  28.289  30.613  1.00  0.00    -0.248 NA
ATOM     53  C   UNL A   1      42.982  28.159  31.873  1.00  0.00     0.031 C 
ATOM     54  C   UNL A   1      42.847  29.000  26.222  1.00  0.00     0.029 A 
ATOM     55  C   UNL A   1      42.950  29.205  27.600  1.00  0.00     0.049 A 
ATOM     56  H   UNL A   1      41.428  30.099  28.746  1.00  0.00     0.167 HD
ATOM     57  C   UNL A   1      43.925  28.871  29.871  1.00  0.00     0.074 A 
ATOM     58  C   UNL A   1      42.748  28.825  30.740  1.00  0.00     0.031 C 
ATOM     59  C   UNL A   1      44.052  29.054  28.523  1.00  0.00     0.037 A 
BRANCH  46  60
ATOM     60  C   UNL A   1      38.664  28.998  28.541  1.00  0.00     0.057 A 
ATOM     61  C   UNL A   1      38.682  28.775  29.934  1.00  0.00     0.134 A 
ATOM     62  C   UNL A   1      37.514  29.655  28.064  1.00  0.00     0.134 A 
ATOM     63  F   UNL A   1      39.732  28.184  30.525  1.00  0.00    -0.206 F 
ATOM     64  C   UNL A   1      37.586  29.056  30.757  1.00  0.00     0.040 A 
ATOM     65  C   UNL A   1      36.433  29.985  28.887  1.00  0.00     0.040 A 
ATOM     66  F   UNL A   1      37.317  29.936  26.772  1.00  0.00    -0.206 F 
ATOM     67  C   UNL A   1      36.446  29.645  30.229  1.00  0.00     0.006 A 
ENDBRANCH  46  60
BRANCH  47  68
ATOM     68  C   UNL A   1      45.000  26.074  33.535  1.00  0.00     0.057 A 
ATOM     69  C   UNL A   1      46.154  26.567  34.158  1.00  0.00     0.134 A 
ATOM     70  C   UNL A   1      44.016  25.543  34.389  1.00  0.00     0.134 A 
ATOM     71  F   UNL A   1      47.128  27.134  33.431  1.00  0.00    -0.206 F 
ATOM     72  C   UNL A   1      46.316  26.544  35.550  1.00  0.00     0.040 A 
ATOM     73  C   UNL A   1      44.166  25.510  35.779  1.00  0.00     0.040 A 
ATOM     74  F   UNL A   1      42.839  25.117  33.906  1.00  0.00    -0.206 F 
ATOM     75  C   UNL A   1      45.316  26.024  36.367  1.00  0.00     0.006 A 
ENDBRANCH  47  68
BRANCH  59  76
ATOM     76  C   UNL A   1      45.408  28.854  27.901  1.00  0.00     0.057 A 
ATOM     77  C   UNL A   1      45.849  27.643  27.347  1.00  0.00     0.134 A 
ATOM     78  C   UNL A   1      46.207  29.979  27.680  1.00  0.00     0.134 A 
ATOM     79  F   UNL A   1      45.111  26.531  27.429  1.00  0.00    -0.206 F 
ATOM     80  C   UNL A   1      47.042  27.555  26.621  1.00  0.00     0.040 A 
ATOM     81  C   UNL A   1      47.384  29.911  26.930  1.00  0.00     0.040 A 
ATOM     82  F   UNL A   1      45.820  31.182  28.134  1.00  0.00    -0.206 F 
ATOM     83  C   UNL A   1      47.808  28.695  26.402  1.00  0.00     0.006 A 
ENDBRANCH  59  76
ENDBRANCH  33  34
ENDBRANCH  25  28
ENDBRANCH  23  24
ENDBRANCH  22  23
ENDBRANCH   1  22
TORSDOF 14
ENDMDL
