MODEL 1
REMARK VINA RESULT:     -12.0      0.000      0.000
REMARK SMILES O=C(NCCCNC(=O)[C@H]1C[C@H]2CCCC[C@@H]2[N@@H+]1CC[C@@H]1CCCO1)c1ccc(-c2c3nc(c(-c4c(F)cccc4F)c4ccc([nH]4)c(-c4c(F)cccc4F)c4nc(c(-c5c(F)cccc5F)c5ccc2[nH]5)C=C4)C=C3)cc1
REMARK SMILES IDX 5 1 4 2 3 3 1 4 2 5 26 7 27 8 79 9 28 10 78 11 29 12 30 13
REMARK SMILES IDX 31 14 72 15 32 16 77 17 71 18 73 19 33 20 76 21 70 22 69 23
REMARK SMILES IDX 34 25 60 26 43 27 59 28 44 29 47 30 58 31 74 32 45 33 46 34
REMARK SMILES IDX 57 36 75 37 48 38 35 39 36 40 41 41 37 42 38 43 40 44 42 45
REMARK SMILES IDX 39 46 61 47 62 48 67 49 63 50 64 51 66 52 68 53 65 54 49 55
REMARK SMILES IDX 50 56 55 57 51 58 52 59 54 60 56 61 53 62 6 63 7 64 8 65
REMARK SMILES IDX 9 67 10 68 11 69 18 70 12 71 17 72 13 74 16 75 14 76 15 77
REMARK SMILES IDX 19 78 20 79 21 80 22 81 25 82 23 83 24 84
REMARK H PARENT 3 6 73 24 47 35 7 66 18 73
REMARK Flexibility Score: inf
ROOT
ATOM      1  C   UNL A   1      37.591  19.671  24.750  1.00  0.00     0.042 C 
ENDROOT
BRANCH   1   2
ATOM      2  C   UNL A   1      38.646  20.154  25.708  1.00  0.00     0.118 C 
BRANCH   2   3
ATOM      3  N   UNL A   1      39.781  19.232  25.782  1.00  0.00    -0.352 N 
ATOM      4  O   UNL A   1      41.940  18.571  25.819  1.00  0.00    -0.269 OA
ATOM      5  C   UNL A   1      41.114  19.456  26.041  1.00  0.00     0.251 C 
ATOM      6  H   UNL A   1      39.552  18.289  25.617  1.00  0.00     0.163 HD
BRANCH   5   7
ATOM      7  C   UNL A   1      41.559  20.767  26.556  1.00  0.00     0.039 A 
ATOM      8  C   UNL A   1      41.646  21.846  25.689  1.00  0.00     0.014 A 
ATOM      9  C   UNL A   1      41.894  20.938  27.903  1.00  0.00     0.014 A 
ATOM     10  C   UNL A   1      42.326  22.983  26.070  1.00  0.00     0.010 A 
ATOM     11  C   UNL A   1      42.380  22.176  28.344  1.00  0.00     0.010 A 
ATOM     12  C   UNL A   1      42.634  23.200  27.419  1.00  0.00    -0.014 A 
BRANCH  12  13
ATOM     13  C   UNL A   1      43.105  24.556  27.797  1.00  0.00     0.031 A 
ATOM     14  C   UNL A   1      44.542  24.964  27.656  1.00  0.00     0.074 A 
ATOM     15  C   UNL A   1      42.174  25.452  28.188  1.00  0.00     0.049 A 
ATOM     16  N   UNL A   1      45.084  26.134  27.887  1.00  0.00    -0.248 NA
ATOM     17  C   UNL A   1      45.498  23.938  27.215  1.00  0.00     0.031 C 
ATOM     18  C   UNL A   1      40.747  25.157  28.376  1.00  0.00     0.029 A 
ATOM     19  N   UNL A   1      42.262  26.794  28.445  1.00  0.00    -0.354 N 
ATOM     20  C   UNL A   1      46.441  25.982  27.636  1.00  0.00     0.074 A 
ATOM     21  C   UNL A   1      46.648  24.598  27.267  1.00  0.00     0.031 C 
ATOM     22  C   UNL A   1      40.085  26.293  28.619  1.00  0.00     0.029 A 
ATOM     23  C   UNL A   1      41.048  27.377  28.724  1.00  0.00     0.049 A 
ATOM     24  H   UNL A   1      43.110  27.293  28.431  1.00  0.00     0.167 HD
ATOM     25  C   UNL A   1      47.418  26.919  27.701  1.00  0.00     0.037 A 
ATOM     26  C   UNL A   1      40.740  28.641  29.062  1.00  0.00     0.037 A 
ATOM     27  C   UNL A   1      47.195  28.295  28.067  1.00  0.00     0.049 A 
ATOM     28  C   UNL A   1      41.848  29.643  29.152  1.00  0.00     0.074 A 
ATOM     29  C   UNL A   1      48.117  29.322  28.169  1.00  0.00     0.029 A 
ATOM     30  N   UNL A   1      45.959  28.839  28.390  1.00  0.00    -0.354 N 
ATOM     31  N   UNL A   1      43.126  29.481  28.910  1.00  0.00    -0.248 NA
ATOM     32  C   UNL A   1      41.477  30.997  29.571  1.00  0.00     0.031 C 
ATOM     33  C   UNL A   1      47.448  30.473  28.596  1.00  0.00     0.029 A 
ATOM     34  C   UNL A   1      46.098  30.182  28.705  1.00  0.00     0.049 A 
ATOM     35  H   UNL A   1      45.108  28.344  28.395  1.00  0.00     0.167 HD
ATOM     36  C   UNL A   1      43.713  30.716  29.138  1.00  0.00     0.074 A 
ATOM     37  C   UNL A   1      42.642  31.623  29.501  1.00  0.00     0.031 C 
ATOM     38  C   UNL A   1      45.020  31.066  29.067  1.00  0.00     0.037 A 
BRANCH  25  39
ATOM     39  C   UNL A   1      48.822  26.485  27.384  1.00  0.00     0.057 A 
ATOM     40  C   UNL A   1      49.692  26.015  28.376  1.00  0.00     0.134 A 
ATOM     41  C   UNL A   1      49.292  26.488  26.064  1.00  0.00     0.134 A 
ATOM     42  F   UNL A   1      49.312  25.998  29.663  1.00  0.00    -0.206 F 
ATOM     43  C   UNL A   1      50.984  25.579  28.069  1.00  0.00     0.040 A 
ATOM     44  C   UNL A   1      50.571  26.029  25.742  1.00  0.00     0.040 A 
ATOM     45  F   UNL A   1      48.511  26.920  25.063  1.00  0.00    -0.206 F 
ATOM     46  C   UNL A   1      51.423  25.577  26.747  1.00  0.00     0.006 A 
ENDBRANCH  25  39
BRANCH  26  47
ATOM     47  C   UNL A   1      39.337  29.003  29.386  1.00  0.00     0.057 A 
ATOM     48  C   UNL A   1      38.469  29.515  28.415  1.00  0.00     0.134 A 
ATOM     49  C   UNL A   1      38.830  28.844  30.683  1.00  0.00     0.134 A 
ATOM     50  F   UNL A   1      38.897  29.702  27.158  1.00  0.00    -0.206 F 
ATOM     51  C   UNL A   1      37.158  29.879  28.726  1.00  0.00     0.040 A 
ATOM     52  C   UNL A   1      37.511  29.169  31.000  1.00  0.00     0.040 A 
ATOM     53  F   UNL A   1      39.603  28.344  31.657  1.00  0.00    -0.206 F 
ATOM     54  C   UNL A   1      36.674  29.700  30.022  1.00  0.00     0.006 A 
ENDBRANCH  26  47
BRANCH  38  55
ATOM     55  C   UNL A   1      45.344  32.501  29.360  1.00  0.00     0.057 A 
ATOM     56  C   UNL A   1      45.686  32.935  30.649  1.00  0.00     0.134 A 
ATOM     57  C   UNL A   1      45.306  33.461  28.342  1.00  0.00     0.134 A 
ATOM     58  F   UNL A   1      45.722  32.066  31.671  1.00  0.00    -0.206 F 
ATOM     59  C   UNL A   1      45.940  34.279  30.921  1.00  0.00     0.040 A 
ATOM     60  C   UNL A   1      45.591  34.804  28.596  1.00  0.00     0.040 A 
ATOM     61  F   UNL A   1      44.994  33.111  27.085  1.00  0.00    -0.206 F 
ATOM     62  C   UNL A   1      45.897  35.217  29.891  1.00  0.00     0.006 A 
ENDBRANCH  38  55
ENDBRANCH  12  13
ENDBRANCH   5   7
ENDBRANCH   2   3
ENDBRANCH   1   2
BRANCH   1  63
ATOM     63  C   UNL A   1      36.275  20.361  25.001  1.00  0.00     0.118 C 
BRANCH  63  64
ATOM     64  N   UNL A   1      36.279  21.776  24.714  1.00  0.00    -0.351 N 
ATOM     65  C   UNL A   1      35.366  22.755  24.968  1.00  0.00     0.278 C 
ATOM     66  H   UNL A   1      37.089  22.092  24.252  1.00  0.00     0.163 HD
ATOM     67  O   UNL A   1      35.722  23.903  24.669  1.00  0.00    -0.268 OA
BRANCH  65  68
ATOM     68  C   UNL A   1      33.960  22.519  25.586  1.00  0.00     0.274 C 
ATOM     69  C   UNL A   1      33.426  23.623  26.501  1.00  0.00     0.085 C 
ATOM     70  N   UNL A   1      32.921  22.298  24.531  1.00  0.00    -0.322 N 
ATOM     71  C   UNL A   1      32.129  24.085  25.832  1.00  0.00     0.054 C 
ATOM     72  C   UNL A   1      32.217  23.571  24.400  1.00  0.00     0.188 C 
ATOM     73  H   UNL A   1      33.296  22.089  23.606  1.00  0.00     0.349 HD
ATOM     74  C   UNL A   1      31.828  25.571  25.937  1.00  0.00     0.010 C 
ATOM     75  C   UNL A   1      30.994  23.892  23.550  1.00  0.00     0.065 C 
ATOM     76  C   UNL A   1      30.604  25.943  25.106  1.00  0.00     0.001 C 
ATOM     77  C   UNL A   1      30.625  25.386  23.676  1.00  0.00     0.006 C 
BRANCH  70  78
ATOM     78  C   UNL A   1      32.177  21.047  24.698  1.00  0.00     0.265 C 
BRANCH  78  79
ATOM     79  C   UNL A   1      32.528  19.739  23.941  1.00  0.00     0.093 C 
BRANCH  79  80
ATOM     80  C   UNL A   1      33.163  18.539  24.652  1.00  0.00     0.123 C 
ATOM     81  C   UNL A   1      34.054  17.588  23.877  1.00  0.00     0.034 C 
ATOM     82  O   UNL A   1      32.153  17.748  25.301  1.00  0.00    -0.378 OA
ATOM     83  C   UNL A   1      33.569  16.203  24.248  1.00  0.00     0.031 C 
ATOM     84  C   UNL A   1      32.669  16.421  25.441  1.00  0.00     0.160 C 
ENDBRANCH  79  80
ENDBRANCH  78  79
ENDBRANCH  70  78
ENDBRANCH  65  68
ENDBRANCH  63  64
ENDBRANCH   1  63
TORSDOF 13
ENDMDL
MODEL 2
REMARK VINA RESULT:     -11.9      5.385     10.413
REMARK SMILES O=C(NCCCNC(=O)[C@H]1C[C@H]2CCCC[C@@H]2[N@@H+]1CC[C@@H]1CCCO1)c1ccc(-c2c3nc(c(-c4c(F)cccc4F)c4ccc([nH]4)c(-c4c(F)cccc4F)c4nc(c(-c5c(F)cccc5F)c5ccc2[nH]5)C=C4)C=C3)cc1
REMARK SMILES IDX 5 1 4 2 3 3 1 4 2 5 26 7 27 8 79 9 28 10 78 11 29 12 30 13
REMARK SMILES IDX 31 14 72 15 32 16 77 17 71 18 73 19 33 20 76 21 70 22 69 23
REMARK SMILES IDX 34 25 60 26 43 27 59 28 44 29 47 30 58 31 74 32 45 33 46 34
REMARK SMILES IDX 57 36 75 37 48 38 35 39 36 40 41 41 37 42 38 43 40 44 42 45
REMARK SMILES IDX 39 46 61 47 62 48 67 49 63 50 64 51 66 52 68 53 65 54 49 55
REMARK SMILES IDX 50 56 55 57 51 58 52 59 54 60 56 61 53 62 6 63 7 64 8 65
REMARK SMILES IDX 9 67 10 68 11 69 18 70 12 71 17 72 13 74 16 75 14 76 15 77
REMARK SMILES IDX 19 78 20 79 21 80 22 81 25 82 23 83 24 84
REMARK H PARENT 3 6 73 24 47 35 7 66 18 73
REMARK Flexibility Score: inf
ROOT
ATOM      1  C   UNL A   1      31.242  32.332  26.501  1.00  0.00     0.042 C 
ENDROOT
BRANCH   1   2
ATOM      2  C   UNL A   1      32.495  32.811  27.183  1.00  0.00     0.118 C 
BRANCH   2   3
ATOM      3  N   UNL A   1      32.380  34.202  27.626  1.00  0.00    -0.352 N 
ATOM      4  O   UNL A   1      32.597  35.987  28.991  1.00  0.00    -0.269 OA
ATOM      5  C   UNL A   1      33.017  34.886  28.636  1.00  0.00     0.251 C 
ATOM      6  H   UNL A   1      31.733  34.740  27.114  1.00  0.00     0.163 HD
BRANCH   5   7
ATOM      7  C   UNL A   1      34.185  34.289  29.313  1.00  0.00     0.039 A 
ATOM      8  C   UNL A   1      35.462  34.577  28.851  1.00  0.00     0.014 A 
ATOM      9  C   UNL A   1      34.028  33.440  30.413  1.00  0.00     0.014 A 
ATOM     10  C   UNL A   1      36.533  33.817  29.269  1.00  0.00     0.010 A 
ATOM     11  C   UNL A   1      35.153  32.835  30.988  1.00  0.00     0.010 A 
ATOM     12  C   UNL A   1      36.414  32.993  30.395  1.00  0.00    -0.014 A 
BRANCH  12  13
ATOM     13  C   UNL A   1      37.667  32.429  30.956  1.00  0.00     0.031 A 
ATOM     14  C   UNL A   1      38.260  32.932  32.239  1.00  0.00     0.074 A 
ATOM     15  C   UNL A   1      38.215  31.372  30.318  1.00  0.00     0.049 A 
ATOM     16  N   UNL A   1      39.313  32.491  32.880  1.00  0.00    -0.248 NA
ATOM     17  C   UNL A   1      37.603  34.079  32.884  1.00  0.00     0.031 C 
ATOM     18  C   UNL A   1      37.730  30.809  29.050  1.00  0.00     0.029 A 
ATOM     19  N   UNL A   1      39.254  30.548  30.659  1.00  0.00    -0.354 N 
ATOM     20  C   UNL A   1      39.456  33.312  33.991  1.00  0.00     0.074 A 
ATOM     21  C   UNL A   1      38.401  34.300  33.921  1.00  0.00     0.031 C 
ATOM     22  C   UNL A   1      38.401  29.686  28.775  1.00  0.00     0.029 A 
ATOM     23  C   UNL A   1      39.440  29.510  29.777  1.00  0.00     0.049 A 
ATOM     24  H   UNL A   1      39.812  30.684  31.458  1.00  0.00     0.167 HD
ATOM     25  C   UNL A   1      40.380  33.237  34.979  1.00  0.00     0.037 A 
ATOM     26  C   UNL A   1      40.368  28.538  29.751  1.00  0.00     0.037 A 
ATOM     27  C   UNL A   1      41.423  32.243  35.036  1.00  0.00     0.049 A 
ATOM     28  C   UNL A   1      41.391  28.502  30.842  1.00  0.00     0.074 A 
ATOM     29  C   UNL A   1      42.413  32.084  35.990  1.00  0.00     0.029 A 
ATOM     30  N   UNL A   1      41.611  31.237  34.098  1.00  0.00    -0.354 N 
ATOM     31  N   UNL A   1      41.510  29.287  31.886  1.00  0.00    -0.248 NA
ATOM     32  C   UNL A   1      42.413  27.455  30.750  1.00  0.00     0.031 C 
ATOM     33  C   UNL A   1      43.225  31.011  35.607  1.00  0.00     0.029 A 
ATOM     34  C   UNL A   1      42.708  30.463  34.444  1.00  0.00     0.049 A 
ATOM     35  H   UNL A   1      41.048  31.093  33.303  1.00  0.00     0.167 HD
ATOM     36  C   UNL A   1      42.616  28.824  32.582  1.00  0.00     0.074 A 
ATOM     37  C   UNL A   1      43.106  27.667  31.859  1.00  0.00     0.031 C 
ATOM     38  C   UNL A   1      43.182  29.318  33.709  1.00  0.00     0.037 A 
BRANCH  25  39
ATOM     39  C   UNL A   1      40.317  34.265  36.073  1.00  0.00     0.057 A 
ATOM     40  C   UNL A   1      40.997  35.487  35.980  1.00  0.00     0.134 A 
ATOM     41  C   UNL A   1      39.524  34.055  37.209  1.00  0.00     0.134 A 
ATOM     42  F   UNL A   1      41.785  35.748  34.926  1.00  0.00    -0.206 F 
ATOM     43  C   UNL A   1      40.904  36.453  36.985  1.00  0.00     0.040 A 
ATOM     44  C   UNL A   1      39.402  35.025  38.206  1.00  0.00     0.040 A 
ATOM     45  F   UNL A   1      38.840  32.910  37.361  1.00  0.00    -0.206 F 
ATOM     46  C   UNL A   1      40.097  36.227  38.098  1.00  0.00     0.006 A 
ENDBRANCH  25  39
BRANCH  26  47
ATOM     47  C   UNL A   1      40.393  27.564  28.630  1.00  0.00     0.057 A 
ATOM     48  C   UNL A   1      41.153  27.791  27.478  1.00  0.00     0.134 A 
ATOM     49  C   UNL A   1      39.651  26.375  28.688  1.00  0.00     0.134 A 
ATOM     50  F   UNL A   1      41.876  28.914  27.356  1.00  0.00    -0.206 F 
ATOM     51  C   UNL A   1      41.155  26.887  26.414  1.00  0.00     0.040 A 
ATOM     52  C   UNL A   1      39.673  25.446  27.648  1.00  0.00     0.040 A 
ATOM     53  F   UNL A   1      38.913  26.088  29.769  1.00  0.00    -0.206 F 
ATOM     54  C   UNL A   1      40.418  25.707  26.501  1.00  0.00     0.006 A 
ENDBRANCH  26  47
BRANCH  38  55
ATOM     55  C   UNL A   1      44.377  28.580  34.235  1.00  0.00     0.057 A 
ATOM     56  C   UNL A   1      44.250  27.508  35.130  1.00  0.00     0.134 A 
ATOM     57  C   UNL A   1      45.670  28.951  33.849  1.00  0.00     0.134 A 
ATOM     58  F   UNL A   1      43.039  27.116  35.554  1.00  0.00    -0.206 F 
ATOM     59  C   UNL A   1      45.369  26.858  35.651  1.00  0.00     0.040 A 
ATOM     60  C   UNL A   1      46.796  28.286  34.338  1.00  0.00     0.040 A 
ATOM     61  F   UNL A   1      45.861  29.963  32.989  1.00  0.00    -0.206 F 
ATOM     62  C   UNL A   1      46.647  27.245  35.251  1.00  0.00     0.006 A 
ENDBRANCH  38  55
ENDBRANCH  12  13
ENDBRANCH   5   7
ENDBRANCH   2   3
ENDBRANCH   1   2
BRANCH   1  63
ATOM     63  C   UNL A   1      31.408  30.924  25.990  1.00  0.00     0.118 C 
BRANCH  63  64
ATOM     64  N   UNL A   1      32.589  30.248  26.473  1.00  0.00    -0.351 N 
ATOM     65  C   UNL A   1      33.231  29.127  26.043  1.00  0.00     0.278 C 
ATOM     66  H   UNL A   1      33.006  30.676  27.256  1.00  0.00     0.163 HD
ATOM     67  O   UNL A   1      34.289  28.863  26.632  1.00  0.00    -0.268 OA
BRANCH  65  68
ATOM     68  C   UNL A   1      32.731  28.199  24.902  1.00  0.00     0.274 C 
ATOM     69  C   UNL A   1      33.653  27.043  24.510  1.00  0.00     0.085 C 
ATOM     70  N   UNL A   1      31.400  27.594  25.222  1.00  0.00    -0.322 N 
ATOM     71  C   UNL A   1      32.821  25.784  24.759  1.00  0.00     0.054 C 
ATOM     72  C   UNL A   1      31.685  26.233  25.670  1.00  0.00     0.188 C 
ATOM     73  H   UNL A   1      30.906  28.045  25.992  1.00  0.00     0.349 HD
ATOM     74  C   UNL A   1      33.589  24.579  25.280  1.00  0.00     0.010 C 
ATOM     75  C   UNL A   1      30.697  25.128  26.021  1.00  0.00     0.065 C 
ATOM     76  C   UNL A   1      32.641  23.439  25.641  1.00  0.00     0.001 C 
ATOM     77  C   UNL A   1      31.446  23.867  26.503  1.00  0.00     0.006 C 
BRANCH  70  78
ATOM     78  C   UNL A   1      30.383  27.847  24.199  1.00  0.00     0.265 C 
BRANCH  78  79
ATOM     79  C   UNL A   1      30.668  28.625  22.887  1.00  0.00     0.093 C 
BRANCH  79  80
ATOM     80  C   UNL A   1      29.889  29.892  22.513  1.00  0.00     0.123 C 
ATOM     81  C   UNL A   1      28.904  30.490  23.498  1.00  0.00     0.034 C 
ATOM     82  O   UNL A   1      29.192  29.703  21.270  1.00  0.00    -0.378 OA
ATOM     83  C   UNL A   1      27.653  30.760  22.690  1.00  0.00     0.031 C 
ATOM     84  C   UNL A   1      28.090  30.615  21.252  1.00  0.00     0.160 C 
ENDBRANCH  79  80
ENDBRANCH  78  79
ENDBRANCH  70  78
ENDBRANCH  65  68
ENDBRANCH  63  64
ENDBRANCH   1  63
TORSDOF 13
ENDMDL
MODEL 3
REMARK VINA RESULT:     -11.8      1.559      2.419
REMARK SMILES O=C(NCCCNC(=O)[C@H]1C[C@H]2CCCC[C@@H]2[N@@H+]1CC[C@@H]1CCCO1)c1ccc(-c2c3nc(c(-c4c(F)cccc4F)c4ccc([nH]4)c(-c4c(F)cccc4F)c4nc(c(-c5c(F)cccc5F)c5ccc2[nH]5)C=C4)C=C3)cc1
REMARK SMILES IDX 5 1 4 2 3 3 1 4 2 5 26 7 27 8 79 9 28 10 78 11 29 12 30 13
REMARK SMILES IDX 31 14 72 15 32 16 77 17 71 18 73 19 33 20 76 21 70 22 69 23
REMARK SMILES IDX 34 25 60 26 43 27 59 28 44 29 47 30 58 31 74 32 45 33 46 34
REMARK SMILES IDX 57 36 75 37 48 38 35 39 36 40 41 41 37 42 38 43 40 44 42 45
REMARK SMILES IDX 39 46 61 47 62 48 67 49 63 50 64 51 66 52 68 53 65 54 49 55
REMARK SMILES IDX 50 56 55 57 51 58 52 59 54 60 56 61 53 62 6 63 7 64 8 65
REMARK SMILES IDX 9 67 10 68 11 69 18 70 12 71 17 72 13 74 16 75 14 76 15 77
REMARK SMILES IDX 19 78 20 79 21 80 22 81 25 82 23 83 24 84
REMARK H PARENT 3 6 73 24 47 35 7 66 18 73
REMARK Flexibility Score: inf
ROOT
ATOM      1  C   UNL A   1      38.075  19.533  24.968  1.00  0.00     0.042 C 
ENDROOT
BRANCH   1   2
ATOM      2  C   UNL A   1      39.149  20.055  25.884  1.00  0.00     0.118 C 
BRANCH   2   3
ATOM      3  N   UNL A   1      40.357  19.229  25.839  1.00  0.00    -0.352 N 
ATOM      4  O   UNL A   1      42.557  18.749  25.681  1.00  0.00    -0.269 OA
ATOM      5  C   UNL A   1      41.684  19.558  25.993  1.00  0.00     0.251 C 
ATOM      6  H   UNL A   1      40.191  18.274  25.667  1.00  0.00     0.163 HD
BRANCH   5   7
ATOM      7  C   UNL A   1      42.063  20.889  26.506  1.00  0.00     0.039 A 
ATOM      8  C   UNL A   1      42.131  21.099  27.876  1.00  0.00     0.014 A 
ATOM      9  C   UNL A   1      42.356  21.944  25.635  1.00  0.00     0.014 A 
ATOM     10  C   UNL A   1      42.193  22.383  28.375  1.00  0.00     0.010 A 
ATOM     11  C   UNL A   1      42.644  23.213  26.154  1.00  0.00     0.010 A 
ATOM     12  C   UNL A   1      42.529  23.449  27.532  1.00  0.00    -0.014 A 
BRANCH  12  13
ATOM     13  C   UNL A   1      42.855  24.745  28.177  1.00  0.00     0.031 A 
ATOM     14  C   UNL A   1      44.264  25.127  28.523  1.00  0.00     0.074 A 
ATOM     15  C   UNL A   1      41.844  25.622  28.361  1.00  0.00     0.049 A 
ATOM     16  N   UNL A   1      44.704  26.252  29.031  1.00  0.00    -0.248 NA
ATOM     17  C   UNL A   1      45.315  24.127  28.285  1.00  0.00     0.031 C 
ATOM     18  C   UNL A   1      40.429  25.347  28.075  1.00  0.00     0.029 A 
ATOM     19  N   UNL A   1      41.842  26.927  28.775  1.00  0.00    -0.354 N 
ATOM     20  C   UNL A   1      46.074  26.089  29.188  1.00  0.00     0.074 A 
ATOM     21  C   UNL A   1      46.391  24.746  28.753  1.00  0.00     0.031 C 
ATOM     22  C   UNL A   1      39.718  26.470  28.227  1.00  0.00     0.029 A 
ATOM     23  C   UNL A   1      40.598  27.510  28.733  1.00  0.00     0.049 A 
ATOM     24  H   UNL A   1      42.652  27.401  29.072  1.00  0.00     0.167 HD
ATOM     25  C   UNL A   1      46.980  26.988  29.645  1.00  0.00     0.037 A 
ATOM     26  C   UNL A   1      40.194  28.741  29.095  1.00  0.00     0.037 A 
ATOM     27  C   UNL A   1      46.648  28.324  30.072  1.00  0.00     0.049 A 
ATOM     28  C   UNL A   1      41.217  29.697  29.624  1.00  0.00     0.074 A 
ATOM     29  C   UNL A   1      47.490  29.309  30.558  1.00  0.00     0.029 A 
ATOM     30  N   UNL A   1      45.369  28.865  30.062  1.00  0.00    -0.354 N 
ATOM     31  N   UNL A   1      42.509  29.527  29.764  1.00  0.00    -0.248 NA
ATOM     32  C   UNL A   1      40.728  31.011  30.053  1.00  0.00     0.031 C 
ATOM     33  C   UNL A   1      46.716  30.428  30.882  1.00  0.00     0.029 A 
ATOM     34  C   UNL A   1      45.398  30.164  30.546  1.00  0.00     0.049 A 
ATOM     35  H   UNL A   1      44.560  28.396  29.756  1.00  0.00     0.167 HD
ATOM     36  C   UNL A   1      42.992  30.715  30.291  1.00  0.00     0.074 A 
ATOM     37  C   UNL A   1      41.856  31.608  30.406  1.00  0.00     0.031 C 
ATOM     38  C   UNL A   1      44.256  31.035  30.657  1.00  0.00     0.037 A 
BRANCH  25  39
ATOM     39  C   UNL A   1      48.415  26.551  29.725  1.00  0.00     0.057 A 
ATOM     40  C   UNL A   1      49.333  26.838  28.705  1.00  0.00     0.134 A 
ATOM     41  C   UNL A   1      48.900  25.884  30.857  1.00  0.00     0.134 A 
ATOM     42  F   UNL A   1      48.934  27.462  27.586  1.00  0.00    -0.206 F 
ATOM     43  C   UNL A   1      50.675  26.461  28.803  1.00  0.00     0.040 A 
ATOM     44  C   UNL A   1      50.245  25.527  30.978  1.00  0.00     0.040 A 
ATOM     45  F   UNL A   1      48.079  25.582  31.874  1.00  0.00    -0.206 F 
ATOM     46  C   UNL A   1      51.136  25.812  29.945  1.00  0.00     0.006 A 
ENDBRANCH  25  39
BRANCH  26  47
ATOM     47  C   UNL A   1      38.757  29.105  29.016  1.00  0.00     0.057 A 
ATOM     48  C   UNL A   1      37.916  29.018  30.130  1.00  0.00     0.134 A 
ATOM     49  C   UNL A   1      38.190  29.552  27.814  1.00  0.00     0.134 A 
ATOM     50  F   UNL A   1      38.395  28.586  31.306  1.00  0.00    -0.206 F 
ATOM     51  C   UNL A   1      36.559  29.336  30.047  1.00  0.00     0.040 A 
ATOM     52  C   UNL A   1      36.844  29.909  27.726  1.00  0.00     0.040 A 
ATOM     53  F   UNL A   1      38.944  29.674  26.712  1.00  0.00    -0.206 F 
ATOM     54  C   UNL A   1      36.021  29.789  28.843  1.00  0.00     0.006 A 
ENDBRANCH  26  47
BRANCH  38  55
ATOM     55  C   UNL A   1      44.468  32.422  31.186  1.00  0.00     0.057 A 
ATOM     56  C   UNL A   1      44.758  33.502  30.339  1.00  0.00     0.134 A 
ATOM     57  C   UNL A   1      44.389  32.680  32.560  1.00  0.00     0.134 A 
ATOM     58  F   UNL A   1      44.865  33.317  29.014  1.00  0.00    -0.206 F 
ATOM     59  C   UNL A   1      45.000  34.779  30.845  1.00  0.00     0.040 A 
ATOM     60  C   UNL A   1      44.597  33.960  33.074  1.00  0.00     0.040 A 
ATOM     61  F   UNL A   1      44.108  31.692  33.424  1.00  0.00    -0.206 F 
ATOM     62  C   UNL A   1      44.915  35.011  32.217  1.00  0.00     0.006 A 
ENDBRANCH  38  55
ENDBRANCH  12  13
ENDBRANCH   5   7
ENDBRANCH   2   3
ENDBRANCH   1   2
BRANCH   1  63
ATOM     63  C   UNL A   1      37.003  20.568  24.743  1.00  0.00     0.118 C 
BRANCH  63  64
ATOM     64  N   UNL A   1      37.415  21.924  25.020  1.00  0.00    -0.351 N 
ATOM     65  C   UNL A   1      36.704  23.038  25.348  1.00  0.00     0.278 C 
ATOM     66  H   UNL A   1      38.387  22.070  24.963  1.00  0.00     0.163 HD
ATOM     67  O   UNL A   1      37.381  24.040  25.616  1.00  0.00    -0.268 OA
BRANCH  65  68
ATOM     68  C   UNL A   1      35.153  23.118  25.402  1.00  0.00     0.274 C 
ATOM     69  C   UNL A   1      34.557  24.405  25.974  1.00  0.00     0.085 C 
ATOM     70  N   UNL A   1      34.541  22.928  24.049  1.00  0.00    -0.322 N 
ATOM     71  C   UNL A   1      33.708  24.977  24.837  1.00  0.00     0.054 C 
ATOM     72  C   UNL A   1      34.201  24.269  23.580  1.00  0.00     0.188 C 
ATOM     73  H   UNL A   1      35.173  22.539  23.350  1.00  0.00     0.349 HD
ATOM     74  C   UNL A   1      33.693  26.493  24.724  1.00  0.00     0.010 C 
ATOM     75  C   UNL A   1      33.455  24.666  22.312  1.00  0.00     0.065 C 
ATOM     76  C   UNL A   1      32.950  26.942  23.470  1.00  0.00     0.001 C 
ATOM     77  C   UNL A   1      33.372  26.203  22.193  1.00  0.00     0.006 C 
BRANCH  70  78
ATOM     78  C   UNL A   1      33.553  21.847  24.002  1.00  0.00     0.265 C 
BRANCH  78  79
ATOM     79  C   UNL A   1      33.595  20.612  24.941  1.00  0.00     0.093 C 
BRANCH  79  80
ATOM     80  C   UNL A   1      33.033  19.252  24.512  1.00  0.00     0.123 C 
ATOM     81  C   UNL A   1      33.948  18.044  24.448  1.00  0.00     0.034 C 
ATOM     82  O   UNL A   1      32.375  19.360  23.239  1.00  0.00    -0.378 OA
ATOM     83  C   UNL A   1      33.654  17.398  23.111  1.00  0.00     0.031 C 
ATOM     84  C   UNL A   1      32.382  18.061  22.639  1.00  0.00     0.160 C 
ENDBRANCH  79  80
ENDBRANCH  78  79
ENDBRANCH  70  78
ENDBRANCH  65  68
ENDBRANCH  63  64
ENDBRANCH   1  63
TORSDOF 13
ENDMDL
