MODEL 1
REMARK VINA RESULT:     -11.7      0.000      0.000
REMARK SMILES CC1(C)CCC[C@@H]1Nc1cccc(F)c1C(=O)NCCCNC(=O)c1ccc(-c2c3nc(c(-c4c(F)cccc4F)c4ccc([nH]4)c(-c4c(F)cccc4F)c4nc(c(-c5c(F)cccc5F)c5ccc2[nH]5)C=C4)C=C3)cc1
REMARK SMILES IDX 20 1 19 2 18 3 16 4 17 5 15 7 9 8 10 9 11 10 13 11 12 12
REMARK SMILES IDX 14 13 8 14 7 16 1 17 2 18 3 19 4 20 5 21 6 22 21 23 22 24
REMARK SMILES IDX 23 25 24 27 25 28 26 29 78 30 27 31 77 32 28 33 29 34 30 35
REMARK SMILES IDX 71 36 31 37 76 38 70 39 72 40 32 41 75 42 69 43 68 44 33 46
REMARK SMILES IDX 59 47 42 48 58 49 43 50 46 51 57 52 73 53 44 54 45 55 56 57
REMARK SMILES IDX 74 58 47 59 34 60 35 61 40 62 36 63 37 64 39 65 41 66 38 67
REMARK SMILES IDX 60 68 61 69 66 70 62 71 63 72 65 73 67 74 64 75 48 76 49 77
REMARK SMILES IDX 54 78 50 79 51 80 53 81 55 82 52 83
REMARK H PARENT 18 6 8 15 22 26 72 45 46 56
REMARK Flexibility Score: inf
ROOT
ATOM      1  C   UNL A   1      38.002  19.638  24.933  1.00  0.00     0.042 C 
ENDROOT
BRANCH   1   2
ATOM      2  C   UNL A   1      37.020  20.754  24.566  1.00  0.00     0.118 C 
BRANCH   2   3
ATOM      3  N   UNL A   1      35.987  20.867  25.577  1.00  0.00    -0.352 N 
ATOM      4  C   UNL A   1      34.661  20.523  25.634  1.00  0.00     0.256 C 
ATOM      5  O   UNL A   1      34.079  20.896  26.659  1.00  0.00    -0.269 OA
ATOM      6  H   UNL A   1      36.310  21.283  26.409  1.00  0.00     0.163 HD
BRANCH   4   7
ATOM      7  C   UNL A   1      33.924  19.688  24.631  1.00  0.00     0.098 A 
ATOM      8  C   UNL A   1      32.777  20.253  23.991  1.00  0.00     0.050 A 
ATOM      9  C   UNL A   1      32.036  19.458  23.097  1.00  0.00     0.027 A 
ATOM     10  C   UNL A   1      32.407  18.148  22.806  1.00  0.00     0.005 A 
ATOM     11  C   UNL A   1      34.307  18.393  24.268  1.00  0.00     0.138 A 
ATOM     12  C   UNL A   1      33.550  17.620  23.387  1.00  0.00     0.040 A 
ATOM     13  F   UNL A   1      35.450  17.846  24.691  1.00  0.00    -0.206 F 
BRANCH   8  14
ATOM     14  N   UNL A   1      32.392  21.571  24.234  1.00  0.00    -0.381 N 
ATOM     15  H   UNL A   1      32.093  21.800  25.143  1.00  0.00     0.160 HD
BRANCH  14  16
ATOM     16  C   UNL A   1      32.401  22.628  23.241  1.00  0.00     0.084 C 
ATOM     17  C   UNL A   1      34.865  23.243  22.973  1.00  0.00     0.013 C 
ATOM     18  C   UNL A   1      33.498  23.693  23.501  1.00  0.00    -0.015 C 
ATOM     19  C   UNL A   1      33.650  24.110  24.978  1.00  0.00     0.013 C 
ATOM     20  C   UNL A   1      32.950  24.872  22.677  1.00  0.00     0.008 C 
ATOM     21  C   UNL A   1      31.447  24.865  22.941  1.00  0.00     0.003 C 
ATOM     22  C   UNL A   1      31.084  23.415  23.262  1.00  0.00     0.025 C 
ENDBRANCH  14  16
ENDBRANCH   8  14
ENDBRANCH   4   7
ENDBRANCH   2   3
ENDBRANCH   1   2
BRANCH   1  23
ATOM     23  C   UNL A   1      39.051  20.062  25.961  1.00  0.00     0.118 C 
BRANCH  23  24
ATOM     24  N   UNL A   1      40.252  19.242  25.885  1.00  0.00    -0.352 N 
ATOM     25  C   UNL A   1      41.572  19.589  26.022  1.00  0.00     0.251 C 
ATOM     26  H   UNL A   1      40.091  18.287  25.708  1.00  0.00     0.163 HD
ATOM     27  O   UNL A   1      42.443  18.790  25.689  1.00  0.00    -0.269 OA
BRANCH  25  28
ATOM     28  C   UNL A   1      41.962  20.912  26.560  1.00  0.00     0.039 A 
ATOM     29  C   UNL A   1      42.261  21.939  25.660  1.00  0.00     0.014 A 
ATOM     30  C   UNL A   1      42.101  21.128  27.934  1.00  0.00     0.014 A 
ATOM     31  C   UNL A   1      42.652  23.193  26.136  1.00  0.00     0.010 A 
ATOM     32  C   UNL A   1      42.426  22.398  28.410  1.00  0.00     0.010 A 
ATOM     33  C   UNL A   1      42.711  23.441  27.517  1.00  0.00    -0.014 A 
BRANCH  33  34
ATOM     34  C   UNL A   1      43.070  24.784  28.041  1.00  0.00     0.031 A 
ATOM     35  C   UNL A   1      42.004  25.814  28.292  1.00  0.00     0.074 A 
ATOM     36  C   UNL A   1      44.365  25.091  28.246  1.00  0.00     0.049 A 
ATOM     37  N   UNL A   1      42.130  27.056  28.684  1.00  0.00    -0.248 NA
ATOM     38  C   UNL A   1      40.612  25.399  28.053  1.00  0.00     0.031 C 
ATOM     39  C   UNL A   1      45.495  24.190  28.011  1.00  0.00     0.029 A 
ATOM     40  N   UNL A   1      44.952  26.248  28.696  1.00  0.00    -0.354 N 
ATOM     41  C   UNL A   1      40.842  27.574  28.727  1.00  0.00     0.074 A 
ATOM     42  C   UNL A   1      39.952  26.527  28.273  1.00  0.00     0.031 C 
ATOM     43  C   UNL A   1      46.633  24.814  28.349  1.00  0.00     0.029 A 
ATOM     44  C   UNL A   1      46.321  26.172  28.784  1.00  0.00     0.049 A 
ATOM     45  H   UNL A   1      44.441  27.055  28.932  1.00  0.00     0.167 HD
ATOM     46  C   UNL A   1      40.437  28.800  29.132  1.00  0.00     0.037 A 
ATOM     47  C   UNL A   1      47.224  27.094  29.169  1.00  0.00     0.037 A 
ATOM     48  C   UNL A   1      41.323  29.831  29.604  1.00  0.00     0.049 A 
ATOM     49  C   UNL A   1      46.751  28.454  29.596  1.00  0.00     0.074 A 
ATOM     50  C   UNL A   1      41.003  31.093  30.075  1.00  0.00     0.029 A 
ATOM     51  N   UNL A   1      42.704  29.716  29.673  1.00  0.00    -0.354 N 
ATOM     52  N   UNL A   1      45.527  28.917  29.665  1.00  0.00    -0.248 NA
ATOM     53  C   UNL A   1      47.783  29.420  29.999  1.00  0.00     0.031 C 
ATOM     54  C   UNL A   1      42.192  31.756  30.390  1.00  0.00     0.029 A 
ATOM     55  C   UNL A   1      43.250  30.891  30.163  1.00  0.00     0.049 A 
ATOM     56  H   UNL A   1      43.218  28.918  29.413  1.00  0.00     0.167 HD
ATOM     57  C   UNL A   1      45.637  30.217  30.139  1.00  0.00     0.074 A 
ATOM     58  C   UNL A   1      47.049  30.466  30.353  1.00  0.00     0.031 C 
ATOM     59  C   UNL A   1      44.657  31.122  30.376  1.00  0.00     0.037 A 
BRANCH  46  60
ATOM     60  C   UNL A   1      38.965  29.095  29.096  1.00  0.00     0.057 A 
ATOM     61  C   UNL A   1      38.351  29.543  27.919  1.00  0.00     0.134 A 
ATOM     62  C   UNL A   1      38.167  28.994  30.243  1.00  0.00     0.134 A 
ATOM     63  F   UNL A   1      39.057  29.670  26.786  1.00  0.00    -0.206 F 
ATOM     64  C   UNL A   1      36.997  29.886  27.888  1.00  0.00     0.040 A 
ATOM     65  C   UNL A   1      36.808  29.309  30.217  1.00  0.00     0.040 A 
ATOM     66  F   UNL A   1      38.692  28.563  31.400  1.00  0.00    -0.206 F 
ATOM     67  C   UNL A   1      36.221  29.765  29.039  1.00  0.00     0.006 A 
ENDBRANCH  46  60
BRANCH  47  68
ATOM     68  C   UNL A   1      48.665  26.738  29.206  1.00  0.00     0.057 A 
ATOM     69  C   UNL A   1      49.244  26.133  30.327  1.00  0.00     0.134 A 
ATOM     70  C   UNL A   1      49.502  27.029  28.124  1.00  0.00     0.134 A 
ATOM     71  F   UNL A   1      48.497  25.836  31.400  1.00  0.00    -0.206 F 
ATOM     72  C   UNL A   1      50.610  25.846  30.378  1.00  0.00     0.040 A 
ATOM     73  C   UNL A   1      50.865  26.727  28.152  1.00  0.00     0.040 A 
ATOM     74  F   UNL A   1      49.001  27.593  27.016  1.00  0.00    -0.206 F 
ATOM     75  C   UNL A   1      51.424  26.141  29.286  1.00  0.00     0.006 A 
ENDBRANCH  47  68
BRANCH  59  76
ATOM     76  C   UNL A   1      45.064  32.461  30.916  1.00  0.00     0.057 A 
ATOM     77  C   UNL A   1      45.421  33.501  30.046  1.00  0.00     0.134 A 
ATOM     78  C   UNL A   1      45.177  32.698  32.290  1.00  0.00     0.134 A 
ATOM     79  F   UNL A   1      45.345  33.334  28.717  1.00  0.00    -0.206 F 
ATOM     80  C   UNL A   1      45.891  34.724  30.527  1.00  0.00     0.040 A 
ATOM     81  C   UNL A   1      45.621  33.926  32.783  1.00  0.00     0.040 A 
ATOM     82  F   UNL A   1      44.840  31.747  33.174  1.00  0.00    -0.206 F 
ATOM     83  C   UNL A   1      45.989  34.940  31.899  1.00  0.00     0.006 A 
ENDBRANCH  59  76
ENDBRANCH  33  34
ENDBRANCH  25  28
ENDBRANCH  23  24
ENDBRANCH   1  23
TORSDOF 12
ENDMDL
MODEL 2
REMARK VINA RESULT:     -11.7      0.480      6.295
REMARK SMILES CC1(C)CCC[C@@H]1Nc1cccc(F)c1C(=O)NCCCNC(=O)c1ccc(-c2c3nc(c(-c4c(F)cccc4F)c4ccc([nH]4)c(-c4c(F)cccc4F)c4nc(c(-c5c(F)cccc5F)c5ccc2[nH]5)C=C4)C=C3)cc1
REMARK SMILES IDX 20 1 19 2 18 3 16 4 17 5 15 7 9 8 10 9 11 10 13 11 12 12
REMARK SMILES IDX 14 13 8 14 7 16 1 17 2 18 3 19 4 20 5 21 6 22 21 23 22 24
REMARK SMILES IDX 23 25 24 27 25 28 26 29 78 30 27 31 77 32 28 33 29 34 30 35
REMARK SMILES IDX 71 36 31 37 76 38 70 39 72 40 32 41 75 42 69 43 68 44 33 46
REMARK SMILES IDX 59 47 42 48 58 49 43 50 46 51 57 52 73 53 44 54 45 55 56 57
REMARK SMILES IDX 74 58 47 59 34 60 35 61 40 62 36 63 37 64 39 65 41 66 38 67
REMARK SMILES IDX 60 68 61 69 66 70 62 71 63 72 65 73 67 74 64 75 48 76 49 77
REMARK SMILES IDX 54 78 50 79 51 80 53 81 55 82 52 83
REMARK H PARENT 18 6 8 15 22 26 72 45 46 56
REMARK Flexibility Score: inf
ROOT
ATOM      1  C   UNL A   1      38.033  19.618  24.867  1.00  0.00     0.042 C 
ENDROOT
BRANCH   1   2
ATOM      2  C   UNL A   1      37.070  20.764  24.544  1.00  0.00     0.118 C 
BRANCH   2   3
ATOM      3  N   UNL A   1      36.051  20.869  25.571  1.00  0.00    -0.352 N 
ATOM      4  C   UNL A   1      34.728  20.518  25.645  1.00  0.00     0.256 C 
ATOM      5  O   UNL A   1      34.158  20.886  26.679  1.00  0.00    -0.269 OA
ATOM      6  H   UNL A   1      36.383  21.285  26.398  1.00  0.00     0.163 HD
BRANCH   4   7
ATOM      7  C   UNL A   1      33.980  19.681  24.651  1.00  0.00     0.098 A 
ATOM      8  C   UNL A   1      32.835  20.250  24.012  1.00  0.00     0.050 A 
ATOM      9  C   UNL A   1      32.085  19.455  23.126  1.00  0.00     0.027 A 
ATOM     10  C   UNL A   1      32.445  18.141  22.842  1.00  0.00     0.005 A 
ATOM     11  C   UNL A   1      34.354  18.382  24.294  1.00  0.00     0.138 A 
ATOM     12  C   UNL A   1      33.587  17.609  23.421  1.00  0.00     0.040 A 
ATOM     13  F   UNL A   1      35.495  17.830  24.716  1.00  0.00    -0.206 F 
BRANCH   8  14
ATOM     14  N   UNL A   1      32.460  21.572  24.248  1.00  0.00    -0.381 N 
ATOM     15  H   UNL A   1      32.155  21.807  25.154  1.00  0.00     0.160 HD
BRANCH  14  16
ATOM     16  C   UNL A   1      32.488  22.627  23.253  1.00  0.00     0.084 C 
ATOM     17  C   UNL A   1      34.955  23.248  23.035  1.00  0.00     0.013 C 
ATOM     18  C   UNL A   1      33.576  23.696  23.532  1.00  0.00    -0.015 C 
ATOM     19  C   UNL A   1      33.695  24.116  25.011  1.00  0.00     0.013 C 
ATOM     20  C   UNL A   1      33.042  24.871  22.694  1.00  0.00     0.008 C 
ATOM     21  C   UNL A   1      31.534  24.860  22.926  1.00  0.00     0.003 C 
ATOM     22  C   UNL A   1      31.168  23.411  23.243  1.00  0.00     0.025 C 
ENDBRANCH  14  16
ENDBRANCH   8  14
ENDBRANCH   4   7
ENDBRANCH   2   3
ENDBRANCH   1   2
BRANCH   1  23
ATOM     23  C   UNL A   1      39.006  19.939  26.002  1.00  0.00     0.118 C 
BRANCH  23  24
ATOM     24  N   UNL A   1      40.252  19.197  25.877  1.00  0.00    -0.352 N 
ATOM     25  C   UNL A   1      41.551  19.622  25.992  1.00  0.00     0.251 C 
ATOM     26  H   UNL A   1      40.146  18.238  25.681  1.00  0.00     0.163 HD
ATOM     27  O   UNL A   1      42.461  18.887  25.619  1.00  0.00    -0.269 OA
BRANCH  25  28
ATOM     28  C   UNL A   1      41.873  20.953  26.554  1.00  0.00     0.039 A 
ATOM     29  C   UNL A   1      42.202  21.990  25.674  1.00  0.00     0.014 A 
ATOM     30  C   UNL A   1      41.919  21.171  27.934  1.00  0.00     0.014 A 
ATOM     31  C   UNL A   1      42.531  23.252  26.175  1.00  0.00     0.010 A 
ATOM     32  C   UNL A   1      42.180  22.448  28.430  1.00  0.00     0.010 A 
ATOM     33  C   UNL A   1      42.495  23.500  27.556  1.00  0.00    -0.014 A 
BRANCH  33  34
ATOM     34  C   UNL A   1      42.786  24.850  28.102  1.00  0.00     0.031 A 
ATOM     35  C   UNL A   1      44.186  25.225  28.500  1.00  0.00     0.074 A 
ATOM     36  C   UNL A   1      41.777  25.724  28.284  1.00  0.00     0.049 A 
ATOM     37  N   UNL A   1      44.621  26.329  29.053  1.00  0.00    -0.248 NA
ATOM     38  C   UNL A   1      45.235  24.221  28.262  1.00  0.00     0.031 C 
ATOM     39  C   UNL A   1      40.371  25.468  27.966  1.00  0.00     0.029 A 
ATOM     40  N   UNL A   1      41.776  27.002  28.783  1.00  0.00    -0.354 N 
ATOM     41  C   UNL A   1      45.985  26.148  29.240  1.00  0.00     0.074 A 
ATOM     42  C   UNL A   1      46.299  24.810  28.788  1.00  0.00     0.031 C 
ATOM     43  C   UNL A   1      39.650  26.564  28.247  1.00  0.00     0.029 A 
ATOM     44  C   UNL A   1      40.533  27.585  28.802  1.00  0.00     0.049 A 
ATOM     45  H   UNL A   1      42.591  27.458  29.097  1.00  0.00     0.167 HD
ATOM     46  C   UNL A   1      46.896  27.026  29.721  1.00  0.00     0.037 A 
ATOM     47  C   UNL A   1      40.147  28.805  29.223  1.00  0.00     0.037 A 
ATOM     48  C   UNL A   1      46.584  28.365  30.148  1.00  0.00     0.049 A 
ATOM     49  C   UNL A   1      41.173  29.755  29.770  1.00  0.00     0.074 A 
ATOM     50  C   UNL A   1      47.446  29.344  30.613  1.00  0.00     0.029 A 
ATOM     51  N   UNL A   1      45.311  28.915  30.157  1.00  0.00    -0.354 N 
ATOM     52  N   UNL A   1      42.465  29.582  29.908  1.00  0.00    -0.248 NA
ATOM     53  C   UNL A   1      40.690  31.068  30.221  1.00  0.00     0.031 C 
ATOM     54  C   UNL A   1      46.689  30.472  30.940  1.00  0.00     0.029 A 
ATOM     55  C   UNL A   1      45.363  30.214  30.634  1.00  0.00     0.049 A 
ATOM     56  H   UNL A   1      44.493  28.451  29.866  1.00  0.00     0.167 HD
ATOM     57  C   UNL A   1      42.954  30.769  30.438  1.00  0.00     0.074 A 
ATOM     58  C   UNL A   1      41.820  31.659  30.585  1.00  0.00     0.031 C 
ATOM     59  C   UNL A   1      44.227  31.091  30.771  1.00  0.00     0.037 A 
BRANCH  46  60
ATOM     60  C   UNL A   1      48.326  26.574  29.799  1.00  0.00     0.057 A 
ATOM     61  C   UNL A   1      49.206  26.785  28.730  1.00  0.00     0.134 A 
ATOM     62  C   UNL A   1      48.816  25.876  30.911  1.00  0.00     0.134 A 
ATOM     63  F   UNL A   1      48.802  27.439  27.632  1.00  0.00    -0.206 F 
ATOM     64  C   UNL A   1      50.520  26.310  28.762  1.00  0.00     0.040 A 
ATOM     65  C   UNL A   1      50.134  25.420  30.965  1.00  0.00     0.040 A 
ATOM     66  F   UNL A   1      48.027  25.650  31.972  1.00  0.00    -0.206 F 
ATOM     67  C   UNL A   1      50.987  25.629  29.884  1.00  0.00     0.006 A 
ENDBRANCH  46  60
BRANCH  47  68
ATOM     68  C   UNL A   1      38.722  29.205  29.100  1.00  0.00     0.057 A 
ATOM     69  C   UNL A   1      37.848  29.157  30.193  1.00  0.00     0.134 A 
ATOM     70  C   UNL A   1      38.196  29.616  27.871  1.00  0.00     0.134 A 
ATOM     71  F   UNL A   1      38.289  28.765  31.397  1.00  0.00    -0.206 F 
ATOM     72  C   UNL A   1      36.497  29.485  30.063  1.00  0.00     0.040 A 
ATOM     73  C   UNL A   1      36.853  29.969  27.731  1.00  0.00     0.040 A 
ATOM     74  F   UNL A   1      38.989  29.698  26.792  1.00  0.00    -0.206 F 
ATOM     75  C   UNL A   1      35.997  29.896  28.828  1.00  0.00     0.006 A 
ENDBRANCH  47  68
BRANCH  59  76
ATOM     76  C   UNL A   1      44.477  32.469  31.307  1.00  0.00     0.057 A 
ATOM     77  C   UNL A   1      44.398  32.723  32.684  1.00  0.00     0.134 A 
ATOM     78  C   UNL A   1      44.718  33.556  30.461  1.00  0.00     0.134 A 
ATOM     79  F   UNL A   1      44.158  31.724  33.548  1.00  0.00    -0.206 F 
ATOM     80  C   UNL A   1      44.535  34.013  33.196  1.00  0.00     0.040 A 
ATOM     81  C   UNL A   1      44.883  34.848  30.964  1.00  0.00     0.040 A 
ATOM     82  F   UNL A   1      44.816  33.378  29.135  1.00  0.00    -0.206 F 
ATOM     83  C   UNL A   1      44.781  35.080  32.335  1.00  0.00     0.006 A 
ENDBRANCH  59  76
ENDBRANCH  33  34
ENDBRANCH  25  28
ENDBRANCH  23  24
ENDBRANCH   1  23
TORSDOF 12
ENDMDL
MODEL 3
REMARK VINA RESULT:     -11.7      0.866      1.872
REMARK SMILES CC1(C)CCC[C@@H]1Nc1cccc(F)c1C(=O)NCCCNC(=O)c1ccc(-c2c3nc(c(-c4c(F)cccc4F)c4ccc([nH]4)c(-c4c(F)cccc4F)c4nc(c(-c5c(F)cccc5F)c5ccc2[nH]5)C=C4)C=C3)cc1
REMARK SMILES IDX 20 1 19 2 18 3 16 4 17 5 15 7 9 8 10 9 11 10 13 11 12 12
REMARK SMILES IDX 14 13 8 14 7 16 1 17 2 18 3 19 4 20 5 21 6 22 21 23 22 24
REMARK SMILES IDX 23 25 24 27 25 28 26 29 78 30 27 31 77 32 28 33 29 34 30 35
REMARK SMILES IDX 71 36 31 37 76 38 70 39 72 40 32 41 75 42 69 43 68 44 33 46
REMARK SMILES IDX 59 47 42 48 58 49 43 50 46 51 57 52 73 53 44 54 45 55 56 57
REMARK SMILES IDX 74 58 47 59 34 60 35 61 40 62 36 63 37 64 39 65 41 66 38 67
REMARK SMILES IDX 60 68 61 69 66 70 62 71 63 72 65 73 67 74 64 75 48 76 49 77
REMARK SMILES IDX 54 78 50 79 51 80 53 81 55 82 52 83
REMARK H PARENT 18 6 8 15 22 26 72 45 46 56
REMARK Flexibility Score: inf
ROOT
ATOM      1  C   UNL A   1      37.970  19.690  24.962  1.00  0.00     0.042 C 
ENDROOT
BRANCH   1   2
ATOM      2  C   UNL A   1      36.983  20.812  24.628  1.00  0.00     0.118 C 
BRANCH   2   3
ATOM      3  N   UNL A   1      35.944  20.884  25.636  1.00  0.00    -0.352 N 
ATOM      4  C   UNL A   1      34.625  20.513  25.679  1.00  0.00     0.256 C 
ATOM      5  O   UNL A   1      34.031  20.854  26.709  1.00  0.00    -0.269 OA
ATOM      6  H   UNL A   1      36.255  21.289  26.477  1.00  0.00     0.163 HD
BRANCH   4   7
ATOM      7  C   UNL A   1      33.908  19.685  24.656  1.00  0.00     0.098 A 
ATOM      8  C   UNL A   1      32.776  20.255  23.995  1.00  0.00     0.050 A 
ATOM      9  C   UNL A   1      32.053  19.466  23.080  1.00  0.00     0.027 A 
ATOM     10  C   UNL A   1      32.430  18.158  22.789  1.00  0.00     0.005 A 
ATOM     11  C   UNL A   1      34.299  18.393  24.292  1.00  0.00     0.138 A 
ATOM     12  C   UNL A   1      33.560  17.626  23.391  1.00  0.00     0.040 A 
ATOM     13  F   UNL A   1      35.433  17.842  24.736  1.00  0.00    -0.206 F 
BRANCH   8  14
ATOM     14  N   UNL A   1      32.387  21.571  24.238  1.00  0.00    -0.381 N 
ATOM     15  H   UNL A   1      32.068  21.795  25.142  1.00  0.00     0.160 HD
BRANCH  14  16
ATOM     16  C   UNL A   1      32.418  22.635  23.253  1.00  0.00     0.084 C 
ATOM     17  C   UNL A   1      34.889  23.241  23.032  1.00  0.00     0.013 C 
ATOM     18  C   UNL A   1      33.515  23.694  23.538  1.00  0.00    -0.015 C 
ATOM     19  C   UNL A   1      33.642  24.099  25.021  1.00  0.00     0.013 C 
ATOM     20  C   UNL A   1      32.986  24.880  22.713  1.00  0.00     0.008 C 
ATOM     21  C   UNL A   1      31.479  24.877  22.950  1.00  0.00     0.003 C 
ATOM     22  C   UNL A   1      31.104  23.428  23.255  1.00  0.00     0.025 C 
ENDBRANCH  14  16
ENDBRANCH   8  14
ENDBRANCH   4   7
ENDBRANCH   2   3
ENDBRANCH   1   2
BRANCH   1  23
ATOM     23  C   UNL A   1      39.029  20.092  25.989  1.00  0.00     0.118 C 
BRANCH  23  24
ATOM     24  N   UNL A   1      40.173  19.192  25.974  1.00  0.00    -0.352 N 
ATOM     25  C   UNL A   1      41.514  19.463  26.073  1.00  0.00     0.251 C 
ATOM     26  H   UNL A   1      39.949  18.238  25.880  1.00  0.00     0.163 HD
ATOM     27  O   UNL A   1      42.328  18.583  25.803  1.00  0.00    -0.269 OA
BRANCH  25  28
ATOM     28  C   UNL A   1      41.995  20.797  26.495  1.00  0.00     0.039 A 
ATOM     29  C   UNL A   1      42.289  21.746  25.510  1.00  0.00     0.014 A 
ATOM     30  C   UNL A   1      42.223  21.099  27.841  1.00  0.00     0.014 A 
ATOM     31  C   UNL A   1      42.764  23.008  25.875  1.00  0.00     0.010 A 
ATOM     32  C   UNL A   1      42.633  22.381  28.208  1.00  0.00     0.010 A 
ATOM     33  C   UNL A   1      42.914  23.346  27.230  1.00  0.00    -0.014 A 
BRANCH  33  34
ATOM     34  C   UNL A   1      43.364  24.701  27.638  1.00  0.00     0.031 A 
ATOM     35  C   UNL A   1      42.365  25.735  28.077  1.00  0.00     0.074 A 
ATOM     36  C   UNL A   1      44.672  25.014  27.568  1.00  0.00     0.049 A 
ATOM     37  N   UNL A   1      42.562  26.986  28.406  1.00  0.00    -0.248 NA
ATOM     38  C   UNL A   1      40.957  25.313  28.136  1.00  0.00     0.031 C 
ATOM     39  C   UNL A   1      45.735  24.108  27.129  1.00  0.00     0.029 A 
ATOM     40  N   UNL A   1      45.332  26.182  27.861  1.00  0.00    -0.354 N 
ATOM     41  C   UNL A   1      41.306  27.503  28.699  1.00  0.00     0.074 A 
ATOM     42  C   UNL A   1      40.348  26.445  28.460  1.00  0.00     0.031 C 
ATOM     43  C   UNL A   1      46.915  24.742  27.213  1.00  0.00     0.029 A 
ATOM     44  C   UNL A   1      46.690  26.110  27.671  1.00  0.00     0.049 A 
ATOM     45  H   UNL A   1      44.874  26.994  28.178  1.00  0.00     0.167 HD
ATOM     46  C   UNL A   1      40.984  28.739  29.149  1.00  0.00     0.037 A 
ATOM     47  C   UNL A   1      47.646  27.042  27.842  1.00  0.00     0.037 A 
ATOM     48  C   UNL A   1      41.942  29.782  29.406  1.00  0.00     0.049 A 
ATOM     49  C   UNL A   1      47.263  28.412  28.324  1.00  0.00     0.074 A 
ATOM     50  C   UNL A   1      41.717  31.055  29.902  1.00  0.00     0.029 A 
ATOM     51  N   UNL A   1      43.308  29.670  29.195  1.00  0.00    -0.354 N 
ATOM     52  N   UNL A   1      46.075  28.875  28.630  1.00  0.00    -0.248 NA
ATOM     53  C   UNL A   1      48.349  29.388  28.486  1.00  0.00     0.031 C 
ATOM     54  C   UNL A   1      42.942  31.726  29.953  1.00  0.00     0.029 A 
ATOM     55  C   UNL A   1      43.936  30.857  29.536  1.00  0.00     0.049 A 
ATOM     56  H   UNL A   1      43.764  28.867  28.855  1.00  0.00     0.167 HD
ATOM     57  C   UNL A   1      46.272  30.186  29.042  1.00  0.00     0.074 A 
ATOM     58  C   UNL A   1      47.696  30.441  28.958  1.00  0.00     0.031 C 
ATOM     59  C   UNL A   1      45.355  31.095  29.452  1.00  0.00     0.037 A 
BRANCH  46  60
ATOM     60  C   UNL A   1      39.534  29.031  29.406  1.00  0.00     0.057 A 
ATOM     61  C   UNL A   1      38.975  28.831  30.675  1.00  0.00     0.134 A 
ATOM     62  C   UNL A   1      38.677  29.454  28.382  1.00  0.00     0.134 A 
ATOM     63  F   UNL A   1      39.737  28.420  31.699  1.00  0.00    -0.206 F 
ATOM     64  C   UNL A   1      37.613  29.034  30.912  1.00  0.00     0.040 A 
ATOM     65  C   UNL A   1      37.320  29.685  28.613  1.00  0.00     0.040 A 
ATOM     66  F   UNL A   1      39.151  29.673  27.146  1.00  0.00    -0.206 F 
ATOM     67  C   UNL A   1      36.783  29.467  29.880  1.00  0.00     0.006 A 
ENDBRANCH  46  60
BRANCH  47  68
ATOM     68  C   UNL A   1      49.067  26.689  27.593  1.00  0.00     0.057 A 
ATOM     69  C   UNL A   1      49.639  26.797  26.319  1.00  0.00     0.134 A 
ATOM     70  C   UNL A   1      49.876  26.202  28.625  1.00  0.00     0.134 A 
ATOM     71  F   UNL A   1      48.914  27.250  25.287  1.00  0.00    -0.206 F 
ATOM     72  C   UNL A   1      50.960  26.416  26.078  1.00  0.00     0.040 A 
ATOM     73  C   UNL A   1      51.205  25.839  28.403  1.00  0.00     0.040 A 
ATOM     74  F   UNL A   1      49.389  26.092  29.869  1.00  0.00    -0.206 F 
ATOM     75  C   UNL A   1      51.748  25.938  27.124  1.00  0.00     0.006 A 
ENDBRANCH  47  68
BRANCH  59  76
ATOM     76  C   UNL A   1      45.855  32.447  29.866  1.00  0.00     0.057 A 
ATOM     77  C   UNL A   1      46.194  32.703  31.202  1.00  0.00     0.134 A 
ATOM     78  C   UNL A   1      45.927  33.514  28.963  1.00  0.00     0.134 A 
ATOM     79  F   UNL A   1      46.137  31.725  32.119  1.00  0.00    -0.206 F 
ATOM     80  C   UNL A   1      46.573  33.977  31.626  1.00  0.00     0.040 A 
ATOM     81  C   UNL A   1      46.329  34.787  29.371  1.00  0.00     0.040 A 
ATOM     82  F   UNL A   1      45.625  33.331  27.669  1.00  0.00    -0.206 F 
ATOM     83  C   UNL A   1      46.643  35.023  30.710  1.00  0.00     0.006 A 
ENDBRANCH  59  76
ENDBRANCH  33  34
ENDBRANCH  25  28
ENDBRANCH  23  24
ENDBRANCH   1  23
TORSDOF 12
ENDMDL
