MODEL 1
REMARK VINA RESULT:     -12.0      0.000      0.000
REMARK SMILES CCC1(C(=O)NCCCNC(=O)c2ccc(-c3c4nc(c(-c5c(F)cccc5F)c5ccc([nH]5)c(-c5c(F)cccc5F)c5nc(c(-c6c(F)cccc6F)c6ccc3[nH]6)C=C5)C=C4)cc2)CCN(c2ncnc3c2CCCC3)CC1
REMARK SMILES IDX 8 1 7 2 6 3 4 4 5 5 3 7 67 8 81 9 68 10 80 11 69 12 2 13
REMARK SMILES IDX 1 14 70 15 71 16 75 17 72 18 74 19 76 20 73 21 79 22 77 23
REMARK SMILES IDX 78 24 9 25 10 26 11 27 12 29 13 30 14 31 66 32 15 33 65 34
REMARK SMILES IDX 16 35 17 36 18 37 59 38 19 39 64 40 58 41 60 42 20 43 63 44
REMARK SMILES IDX 57 45 56 46 21 48 47 49 30 50 46 51 31 52 34 53 45 54 61 55
REMARK SMILES IDX 32 56 33 57 44 59 62 60 35 61 22 62 23 63 28 64 24 65 25 66
REMARK SMILES IDX 27 67 29 68 26 69 48 70 49 71 54 72 50 73 51 74 53 75 55 76
REMARK SMILES IDX 52 77 36 78 37 79 42 80 38 81 39 82 41 83 43 84 40 85
REMARK H PARENT 6 6 10 28 60 47 34 58
REMARK Flexibility Score: inf
ROOT
ATOM      1  C   UNL A   1      37.435  19.368  24.988  1.00  0.00     0.042 C 
ENDROOT
BRANCH   1   2
ATOM      2  C   UNL A   1      36.200  20.227  24.717  1.00  0.00     0.117 C 
BRANCH   2   3
ATOM      3  N   UNL A   1      35.633  20.800  25.928  1.00  0.00    -0.356 N 
ATOM      4  C   UNL A   1      34.472  21.463  26.189  1.00  0.00     0.226 C 
ATOM      5  O   UNL A   1      34.309  21.770  27.376  1.00  0.00    -0.274 OA
ATOM      6  H   UNL A   1      36.205  20.685  26.720  1.00  0.00     0.163 HD
BRANCH   4   7
ATOM      7  C   UNL A   1      33.420  21.840  25.100  1.00  0.00     0.052 C 
ATOM      8  C   UNL A   1      32.116  22.268  25.828  1.00  0.00     0.038 C 
ATOM      9  C   UNL A   1      34.036  22.909  24.150  1.00  0.00     0.038 C 
ATOM     10  C   UNL A   1      31.268  23.303  25.096  1.00  0.00     0.119 C 
ATOM     11  C   UNL A   1      33.074  23.966  23.603  1.00  0.00     0.119 C 
ATOM     12  N   UNL A   1      32.147  24.374  24.651  1.00  0.00    -0.356 N 
BRANCH   7  13
ATOM     13  C   UNL A   1      33.152  20.525  24.284  1.00  0.00     0.013 C 
ATOM     14  C   UNL A   1      32.533  19.351  25.029  1.00  0.00     0.005 C 
ENDBRANCH   7  13
BRANCH  12  15
ATOM     15  C   UNL A   1      31.543  25.624  24.483  1.00  0.00     0.135 A 
ATOM     16  N   UNL A   1      30.559  25.737  23.573  1.00  0.00    -0.219 NA
ATOM     17  C   UNL A   1      32.006  26.736  25.195  1.00  0.00     0.016 A 
ATOM     18  C   UNL A   1      30.034  26.956  23.393  1.00  0.00     0.224 A 
ATOM     19  C   UNL A   1      31.409  27.959  24.905  1.00  0.00     0.049 A 
ATOM     20  C   UNL A   1      33.086  26.638  26.233  1.00  0.00     0.041 C 
ATOM     21  N   UNL A   1      30.413  28.083  24.007  1.00  0.00    -0.241 NA
ATOM     22  C   UNL A   1      31.930  29.251  25.488  1.00  0.00     0.057 C 
ATOM     23  C   UNL A   1      33.834  27.948  26.460  1.00  0.00     0.005 C 
ATOM     24  C   UNL A   1      32.835  29.069  26.705  1.00  0.00     0.007 C 
ENDBRANCH  12  15
ENDBRANCH   4   7
ENDBRANCH   2   3
ENDBRANCH   1   2
BRANCH   1  25
ATOM     25  C   UNL A   1      38.640  20.118  25.538  1.00  0.00     0.118 C 
BRANCH  25  26
ATOM     26  N   UNL A   1      39.796  19.253  25.722  1.00  0.00    -0.352 N 
ATOM     27  C   UNL A   1      41.085  19.520  26.111  1.00  0.00     0.251 C 
ATOM     28  H   UNL A   1      39.620  18.302  25.534  1.00  0.00     0.163 HD
ATOM     29  O   UNL A   1      41.931  18.638  25.983  1.00  0.00    -0.269 OA
BRANCH  27  30
ATOM     30  C   UNL A   1      41.497  20.837  26.663  1.00  0.00     0.039 A 
ATOM     31  C   UNL A   1      41.872  21.844  25.763  1.00  0.00     0.014 A 
ATOM     32  C   UNL A   1      41.611  21.076  28.034  1.00  0.00     0.014 A 
ATOM     33  C   UNL A   1      42.302  23.091  26.232  1.00  0.00     0.010 A 
ATOM     34  C   UNL A   1      41.964  22.346  28.502  1.00  0.00     0.010 A 
ATOM     35  C   UNL A   1      42.323  23.364  27.608  1.00  0.00    -0.014 A 
BRANCH  35  36
ATOM     36  C   UNL A   1      42.716  24.704  28.120  1.00  0.00     0.031 A 
ATOM     37  C   UNL A   1      41.681  25.766  28.383  1.00  0.00     0.074 A 
ATOM     38  C   UNL A   1      44.021  24.996  28.288  1.00  0.00     0.049 A 
ATOM     39  N   UNL A   1      41.847  27.005  28.773  1.00  0.00    -0.248 NA
ATOM     40  C   UNL A   1      40.279  25.395  28.147  1.00  0.00     0.031 C 
ATOM     41  C   UNL A   1      45.134  24.086  28.012  1.00  0.00     0.029 A 
ATOM     42  N   UNL A   1      44.632  26.148  28.720  1.00  0.00    -0.354 N 
ATOM     43  C   UNL A   1      40.578  27.569  28.801  1.00  0.00     0.074 A 
ATOM     44  C   UNL A   1      39.656  26.547  28.353  1.00  0.00     0.031 C 
ATOM     45  C   UNL A   1      46.290  24.709  28.293  1.00  0.00     0.029 A 
ATOM     46  C   UNL A   1      46.002  26.066  28.745  1.00  0.00     0.049 A 
ATOM     47  H   UNL A   1      44.135  26.954  28.985  1.00  0.00     0.167 HD
ATOM     48  C   UNL A   1      40.210  28.817  29.178  1.00  0.00     0.037 A 
ATOM     49  C   UNL A   1      46.928  26.981  29.090  1.00  0.00     0.037 A 
ATOM     50  C   UNL A   1      41.116  29.822  29.670  1.00  0.00     0.049 A 
ATOM     51  C   UNL A   1      46.494  28.341  29.555  1.00  0.00     0.074 A 
ATOM     52  C   UNL A   1      40.821  31.077  30.174  1.00  0.00     0.029 A 
ATOM     53  N   UNL A   1      42.494  29.688  29.717  1.00  0.00    -0.354 N 
ATOM     54  N   UNL A   1      45.283  28.832  29.651  1.00  0.00    -0.248 NA
ATOM     55  C   UNL A   1      47.556  29.270  29.966  1.00  0.00     0.031 C 
ATOM     56  C   UNL A   1      42.025  31.716  30.495  1.00  0.00     0.029 A 
ATOM     57  C   UNL A   1      43.067  30.846  30.220  1.00  0.00     0.049 A 
ATOM     58  H   UNL A   1      42.993  28.887  29.435  1.00  0.00     0.167 HD
ATOM     59  C   UNL A   1      45.434  30.122  30.142  1.00  0.00     0.074 A 
ATOM     60  C   UNL A   1      46.854  30.331  30.341  1.00  0.00     0.031 C 
ATOM     61  C   UNL A   1      44.480  31.049  30.401  1.00  0.00     0.037 A 
BRANCH  48  62
ATOM     62  C   UNL A   1      38.754  29.165  29.075  1.00  0.00     0.057 A 
ATOM     63  C   UNL A   1      37.892  29.082  30.175  1.00  0.00     0.134 A 
ATOM     64  C   UNL A   1      38.212  29.607  27.861  1.00  0.00     0.134 A 
ATOM     65  F   UNL A   1      38.347  28.655  31.363  1.00  0.00    -0.206 F 
ATOM     66  C   UNL A   1      36.537  29.397  30.067  1.00  0.00     0.040 A 
ATOM     67  C   UNL A   1      36.863  29.948  27.745  1.00  0.00     0.040 A 
ATOM     68  F   UNL A   1      38.984  29.716  26.769  1.00  0.00    -0.206 F 
ATOM     69  C   UNL A   1      36.020  29.836  28.849  1.00  0.00     0.006 A 
ENDBRANCH  48  62
BRANCH  49  70
ATOM     70  C   UNL A   1      48.364  26.622  29.029  1.00  0.00     0.057 A 
ATOM     71  C   UNL A   1      48.981  25.941  30.084  1.00  0.00     0.134 A 
ATOM     72  C   UNL A   1      49.143  26.921  27.906  1.00  0.00     0.134 A 
ATOM     73  F   UNL A   1      48.286  25.643  31.191  1.00  0.00    -0.206 F 
ATOM     74  C   UNL A   1      50.325  25.574  30.028  1.00  0.00     0.040 A 
ATOM     75  C   UNL A   1      50.484  26.546  27.828  1.00  0.00     0.040 A 
ATOM     76  F   UNL A   1      48.604  27.566  26.859  1.00  0.00    -0.206 F 
ATOM     77  C   UNL A   1      51.080  25.871  28.893  1.00  0.00     0.006 A 
ENDBRANCH  49  70
BRANCH  61  78
ATOM     78  C   UNL A   1      44.945  32.373  30.928  1.00  0.00     0.057 A 
ATOM     79  C   UNL A   1      45.113  32.597  32.300  1.00  0.00     0.134 A 
ATOM     80  C   UNL A   1      45.248  33.426  30.056  1.00  0.00     0.134 A 
ATOM     81  F   UNL A   1      44.825  31.632  33.186  1.00  0.00    -0.206 F 
ATOM     82  C   UNL A   1      45.547  33.831  32.788  1.00  0.00     0.040 A 
ATOM     83  C   UNL A   1      45.701  34.657  30.532  1.00  0.00     0.040 A 
ATOM     84  F   UNL A   1      45.113  33.274  28.730  1.00  0.00    -0.206 F 
ATOM     85  C   UNL A   1      45.847  34.863  31.903  1.00  0.00     0.006 A 
ENDBRANCH  61  78
ENDBRANCH  35  36
ENDBRANCH  27  30
ENDBRANCH  25  26
ENDBRANCH   1  25
TORSDOF 12
ENDMDL
MODEL 2
REMARK VINA RESULT:     -12.0      2.649      7.474
REMARK SMILES CCC1(C(=O)NCCCNC(=O)c2ccc(-c3c4nc(c(-c5c(F)cccc5F)c5ccc([nH]5)c(-c5c(F)cccc5F)c5nc(c(-c6c(F)cccc6F)c6ccc3[nH]6)C=C5)C=C4)cc2)CCN(c2ncnc3c2CCCC3)CC1
REMARK SMILES IDX 8 1 7 2 6 3 4 4 5 5 3 7 67 8 81 9 68 10 80 11 69 12 2 13
REMARK SMILES IDX 1 14 70 15 71 16 75 17 72 18 74 19 76 20 73 21 79 22 77 23
REMARK SMILES IDX 78 24 9 25 10 26 11 27 12 29 13 30 14 31 66 32 15 33 65 34
REMARK SMILES IDX 16 35 17 36 18 37 59 38 19 39 64 40 58 41 60 42 20 43 63 44
REMARK SMILES IDX 57 45 56 46 21 48 47 49 30 50 46 51 31 52 34 53 45 54 61 55
REMARK SMILES IDX 32 56 33 57 44 59 62 60 35 61 22 62 23 63 28 64 24 65 25 66
REMARK SMILES IDX 27 67 29 68 26 69 48 70 49 71 54 72 50 73 51 74 53 75 55 76
REMARK SMILES IDX 52 77 36 78 37 79 42 80 38 81 39 82 41 83 43 84 40 85
REMARK H PARENT 6 6 10 28 60 47 34 58
REMARK Flexibility Score: inf
ROOT
ATOM      1  C   UNL A   1      34.461  28.195  26.059  1.00  0.00     0.042 C 
ENDROOT
BRANCH   1   2
ATOM      2  C   UNL A   1      33.658  27.918  24.788  1.00  0.00     0.117 C 
BRANCH   2   3
ATOM      3  N   UNL A   1      32.552  28.846  24.605  1.00  0.00    -0.356 N 
ATOM      4  C   UNL A   1      31.251  28.681  24.237  1.00  0.00     0.226 C 
ATOM      5  O   UNL A   1      30.581  29.721  24.231  1.00  0.00    -0.274 OA
ATOM      6  H   UNL A   1      32.793  29.782  24.783  1.00  0.00     0.163 HD
BRANCH   4   7
ATOM      7  C   UNL A   1      30.627  27.310  23.830  1.00  0.00     0.052 C 
ATOM      8  C   UNL A   1      31.461  26.740  22.649  1.00  0.00     0.038 C 
ATOM      9  C   UNL A   1      30.544  26.399  25.090  1.00  0.00     0.038 C 
ATOM     10  C   UNL A   1      31.524  25.219  22.569  1.00  0.00     0.119 C 
ATOM     11  C   UNL A   1      30.768  24.902  24.861  1.00  0.00     0.119 C 
ATOM     12  N   UNL A   1      31.841  24.708  23.894  1.00  0.00    -0.356 N 
BRANCH   7  13
ATOM     13  C   UNL A   1      29.171  27.627  23.333  1.00  0.00     0.013 C 
ATOM     14  C   UNL A   1      28.041  26.766  23.877  1.00  0.00     0.005 C 
ENDBRANCH   7  13
BRANCH  12  15
ATOM     15  C   UNL A   1      32.482  23.466  23.929  1.00  0.00     0.135 A 
ATOM     16  N   UNL A   1      31.752  22.367  23.670  1.00  0.00    -0.219 NA
ATOM     17  C   UNL A   1      33.828  23.374  24.297  1.00  0.00     0.016 A 
ATOM     18  C   UNL A   1      32.375  21.186  23.763  1.00  0.00     0.224 A 
ATOM     19  C   UNL A   1      34.366  22.094  24.392  1.00  0.00     0.049 A 
ATOM     20  C   UNL A   1      34.676  24.582  24.570  1.00  0.00     0.041 C 
ATOM     21  N   UNL A   1      33.650  20.986  24.120  1.00  0.00    -0.241 NA
ATOM     22  C   UNL A   1      35.756  21.859  24.933  1.00  0.00     0.057 C 
ATOM     23  C   UNL A   1      35.867  24.299  25.480  1.00  0.00     0.005 C 
ATOM     24  C   UNL A   1      36.642  23.103  24.947  1.00  0.00     0.007 C 
ENDBRANCH  12  15
ENDBRANCH   4   7
ENDBRANCH   2   3
ENDBRANCH   1   2
BRANCH   1  25
ATOM     25  C   UNL A   1      33.630  28.484  27.302  1.00  0.00     0.118 C 
BRANCH  25  26
ATOM     26  N   UNL A   1      33.634  29.895  27.656  1.00  0.00    -0.352 N 
ATOM     27  C   UNL A   1      34.573  30.679  28.279  1.00  0.00     0.251 C 
ATOM     28  H   UNL A   1      32.812  30.375  27.402  1.00  0.00     0.163 HD
ATOM     29  O   UNL A   1      34.244  31.802  28.653  1.00  0.00    -0.269 OA
BRANCH  27  30
ATOM     30  C   UNL A   1      35.962  30.214  28.531  1.00  0.00     0.039 A 
ATOM     31  C   UNL A   1      36.894  30.320  27.491  1.00  0.00     0.014 A 
ATOM     32  C   UNL A   1      36.345  29.599  29.725  1.00  0.00     0.014 A 
ATOM     33  C   UNL A   1      38.207  29.865  27.664  1.00  0.00     0.010 A 
ATOM     34  C   UNL A   1      37.675  29.217  29.927  1.00  0.00     0.010 A 
ATOM     35  C   UNL A   1      38.619  29.336  28.897  1.00  0.00    -0.014 A 
BRANCH  35  36
ATOM     36  C   UNL A   1      40.026  28.907  29.118  1.00  0.00     0.031 A 
ATOM     37  C   UNL A   1      41.032  29.844  29.730  1.00  0.00     0.074 A 
ATOM     38  C   UNL A   1      40.421  27.687  28.706  1.00  0.00     0.049 A 
ATOM     39  N   UNL A   1      42.312  29.660  29.942  1.00  0.00    -0.248 NA
ATOM     40  C   UNL A   1      40.544  31.173  30.126  1.00  0.00     0.031 C 
ATOM     41  C   UNL A   1      39.569  26.700  28.040  1.00  0.00     0.029 A 
ATOM     42  N   UNL A   1      41.649  27.075  28.774  1.00  0.00    -0.354 N 
ATOM     43  C   UNL A   1      42.786  30.856  30.468  1.00  0.00     0.074 A 
ATOM     44  C   UNL A   1      41.664  31.769  30.509  1.00  0.00     0.031 C 
ATOM     45  C   UNL A   1      40.295  25.602  27.774  1.00  0.00     0.029 A 
ATOM     46  C   UNL A   1      41.666  25.815  28.226  1.00  0.00     0.049 A 
ATOM     47  H   UNL A   1      42.441  27.498  29.177  1.00  0.00     0.167 HD
ATOM     48  C   UNL A   1      44.036  31.161  30.892  1.00  0.00     0.037 A 
ATOM     49  C   UNL A   1      42.672  24.930  28.097  1.00  0.00     0.037 A 
ATOM     50  C   UNL A   1      45.144  30.243  30.899  1.00  0.00     0.049 A 
ATOM     51  C   UNL A   1      44.036  25.270  28.621  1.00  0.00     0.074 A 
ATOM     52  C   UNL A   1      46.418  30.431  31.408  1.00  0.00     0.029 A 
ATOM     53  N   UNL A   1      45.111  28.962  30.371  1.00  0.00    -0.354 N 
ATOM     54  N   UNL A   1      44.449  26.377  29.189  1.00  0.00    -0.248 NA
ATOM     55  C   UNL A   1      45.072  24.236  28.494  1.00  0.00     0.031 C 
ATOM     56  C   UNL A   1      47.166  29.274  31.155  1.00  0.00     0.029 A 
ATOM     57  C   UNL A   1      46.348  28.355  30.520  1.00  0.00     0.049 A 
ATOM     58  H   UNL A   1      44.324  28.544  29.952  1.00  0.00     0.167 HD
ATOM     59  C   UNL A   1      45.787  26.171  29.495  1.00  0.00     0.074 A 
ATOM     60  C   UNL A   1      46.112  24.825  29.068  1.00  0.00     0.031 C 
ATOM     61  C   UNL A   1      46.666  27.023  30.077  1.00  0.00     0.037 A 
BRANCH  48  62
ATOM     62  C   UNL A   1      44.270  32.558  31.390  1.00  0.00     0.057 A 
ATOM     63  C   UNL A   1      44.684  33.589  30.537  1.00  0.00     0.134 A 
ATOM     64  C   UNL A   1      44.061  32.878  32.738  1.00  0.00     0.134 A 
ATOM     65  F   UNL A   1      44.912  33.344  29.237  1.00  0.00    -0.206 F 
ATOM     66  C   UNL A   1      44.911  34.882  31.011  1.00  0.00     0.040 A 
ATOM     67  C   UNL A   1      44.261  34.173  33.219  1.00  0.00     0.040 A 
ATOM     68  F   UNL A   1      43.658  31.939  33.607  1.00  0.00    -0.206 F 
ATOM     69  C   UNL A   1      44.695  35.177  32.356  1.00  0.00     0.006 A 
ENDBRANCH  48  62
BRANCH  49  70
ATOM     70  C   UNL A   1      42.410  23.619  27.458  1.00  0.00     0.057 A 
ATOM     71  C   UNL A   1      42.032  22.510  28.223  1.00  0.00     0.134 A 
ATOM     72  C   UNL A   1      42.498  23.452  26.072  1.00  0.00     0.134 A 
ATOM     73  F   UNL A   1      41.948  22.609  29.558  1.00  0.00    -0.206 F 
ATOM     74  C   UNL A   1      41.758  21.277  27.632  1.00  0.00     0.040 A 
ATOM     75  C   UNL A   1      42.209  22.229  25.465  1.00  0.00     0.040 A 
ATOM     76  F   UNL A   1      42.847  24.483  25.287  1.00  0.00    -0.206 F 
ATOM     77  C   UNL A   1      41.839  21.136  26.247  1.00  0.00     0.006 A 
ENDBRANCH  49  70
BRANCH  61  78
ATOM     78  C   UNL A   1      48.063  26.521  30.283  1.00  0.00     0.057 A 
ATOM     79  C   UNL A   1      49.062  26.718  29.321  1.00  0.00     0.134 A 
ATOM     80  C   UNL A   1      48.420  25.856  31.463  1.00  0.00     0.134 A 
ATOM     81  F   UNL A   1      48.778  27.335  28.165  1.00  0.00    -0.206 F 
ATOM     82  C   UNL A   1      50.363  26.251  29.516  1.00  0.00     0.040 A 
ATOM     83  C   UNL A   1      49.722  25.403  31.677  1.00  0.00     0.040 A 
ATOM     84  F   UNL A   1      47.511  25.641  32.426  1.00  0.00    -0.206 F 
ATOM     85  C   UNL A   1      50.697  25.595  30.699  1.00  0.00     0.006 A 
ENDBRANCH  61  78
ENDBRANCH  35  36
ENDBRANCH  27  30
ENDBRANCH  25  26
ENDBRANCH   1  25
TORSDOF 12
ENDMDL
MODEL 3
REMARK VINA RESULT:     -11.9      3.675      8.911
REMARK SMILES CCC1(C(=O)NCCCNC(=O)c2ccc(-c3c4nc(c(-c5c(F)cccc5F)c5ccc([nH]5)c(-c5c(F)cccc5F)c5nc(c(-c6c(F)cccc6F)c6ccc3[nH]6)C=C5)C=C4)cc2)CCN(c2ncnc3c2CCCC3)CC1
REMARK SMILES IDX 8 1 7 2 6 3 4 4 5 5 3 7 67 8 81 9 68 10 80 11 69 12 2 13
REMARK SMILES IDX 1 14 70 15 71 16 75 17 72 18 74 19 76 20 73 21 79 22 77 23
REMARK SMILES IDX 78 24 9 25 10 26 11 27 12 29 13 30 14 31 66 32 15 33 65 34
REMARK SMILES IDX 16 35 17 36 18 37 59 38 19 39 64 40 58 41 60 42 20 43 63 44
REMARK SMILES IDX 57 45 56 46 21 48 47 49 30 50 46 51 31 52 34 53 45 54 61 55
REMARK SMILES IDX 32 56 33 57 44 59 62 60 35 61 22 62 23 63 28 64 24 65 25 66
REMARK SMILES IDX 27 67 29 68 26 69 48 70 49 71 54 72 50 73 51 74 53 75 55 76
REMARK SMILES IDX 52 77 36 78 37 79 42 80 38 81 39 82 41 83 43 84 40 85
REMARK H PARENT 6 6 10 28 60 47 34 58
REMARK Flexibility Score: inf
ROOT
ATOM      1  C   UNL A   1      31.206  31.206  25.787  1.00  0.00     0.042 C 
ENDROOT
BRANCH   1   2
ATOM      2  C   UNL A   1      31.380  29.785  25.252  1.00  0.00     0.117 C 
BRANCH   2   3
ATOM      3  N   UNL A   1      32.573  29.632  24.432  1.00  0.00    -0.356 N 
ATOM      4  C   UNL A   1      32.954  28.706  23.509  1.00  0.00     0.226 C 
ATOM      5  O   UNL A   1      34.045  28.932  22.972  1.00  0.00    -0.274 OA
ATOM      6  H   UNL A   1      33.237  30.343  24.572  1.00  0.00     0.163 HD
BRANCH   4   7
ATOM      7  C   UNL A   1      32.119  27.438  23.149  1.00  0.00     0.052 C 
ATOM      8  C   UNL A   1      32.962  26.575  22.170  1.00  0.00     0.038 C 
ATOM      9  C   UNL A   1      31.687  26.727  24.464  1.00  0.00     0.038 C 
ATOM     10  C   UNL A   1      32.720  25.072  22.249  1.00  0.00     0.119 C 
ATOM     11  C   UNL A   1      31.623  25.198  24.420  1.00  0.00     0.119 C 
ATOM     12  N   UNL A   1      32.750  24.683  23.651  1.00  0.00    -0.356 N 
BRANCH   7  13
ATOM     13  C   UNL A   1      30.837  27.962  22.407  1.00  0.00     0.013 C 
ATOM     14  C   UNL A   1      29.498  27.784  23.108  1.00  0.00     0.005 C 
ENDBRANCH   7  13
BRANCH  12  15
ATOM     15  C   UNL A   1      33.110  23.356  23.905  1.00  0.00     0.135 A 
ATOM     16  N   UNL A   1      32.165  22.407  23.783  1.00  0.00    -0.219 NA
ATOM     17  C   UNL A   1      34.401  23.044  24.344  1.00  0.00     0.016 A 
ATOM     18  C   UNL A   1      32.521  21.152  24.084  1.00  0.00     0.224 A 
ATOM     19  C   UNL A   1      34.652  21.711  24.658  1.00  0.00     0.049 A 
ATOM     20  C   UNL A   1      35.483  24.076  24.469  1.00  0.00     0.041 C 
ATOM     21  N   UNL A   1      33.718  20.749  24.526  1.00  0.00    -0.241 NA
ATOM     22  C   UNL A   1      35.952  21.280  25.292  1.00  0.00     0.057 C 
ATOM     23  C   UNL A   1      36.575  23.698  25.465  1.00  0.00     0.005 C 
ATOM     24  C   UNL A   1      37.083  22.297  25.157  1.00  0.00     0.007 C 
ENDBRANCH  12  15
ENDBRANCH   4   7
ENDBRANCH   2   3
ENDBRANCH   1   2
BRANCH   1  25
ATOM     25  C   UNL A   1      32.125  31.583  26.941  1.00  0.00     0.118 C 
BRANCH  25  26
ATOM     26  N   UNL A   1      32.086  33.007  27.239  1.00  0.00    -0.352 N 
ATOM     27  C   UNL A   1      32.903  33.804  28.002  1.00  0.00     0.251 C 
ATOM     28  H   UNL A   1      31.337  33.486  26.815  1.00  0.00     0.163 HD
ATOM     29  O   UNL A   1      32.529  34.945  28.266  1.00  0.00    -0.269 OA
BRANCH  27  30
ATOM     30  C   UNL A   1      34.210  33.335  28.531  1.00  0.00     0.039 A 
ATOM     31  C   UNL A   1      34.208  32.521  29.672  1.00  0.00     0.014 A 
ATOM     32  C   UNL A   1      35.432  33.746  27.993  1.00  0.00     0.014 A 
ATOM     33  C   UNL A   1      35.414  32.080  30.231  1.00  0.00     0.010 A 
ATOM     34  C   UNL A   1      36.632  33.243  28.503  1.00  0.00     0.010 A 
ATOM     35  C   UNL A   1      36.639  32.413  29.633  1.00  0.00    -0.014 A 
BRANCH  35  36
ATOM     36  C   UNL A   1      37.925  31.901  30.178  1.00  0.00     0.031 A 
ATOM     37  C   UNL A   1      38.553  30.649  29.628  1.00  0.00     0.074 A 
ATOM     38  C   UNL A   1      38.502  32.529  31.221  1.00  0.00     0.049 A 
ATOM     39  N   UNL A   1      39.637  30.026  30.019  1.00  0.00    -0.248 NA
ATOM     40  C   UNL A   1      37.855  29.992  28.513  1.00  0.00     0.031 C 
ATOM     41  C   UNL A   1      37.972  33.715  31.895  1.00  0.00     0.029 A 
ATOM     42  N   UNL A   1      39.658  32.246  31.907  1.00  0.00    -0.354 N 
ATOM     43  C   UNL A   1      39.735  28.893  29.221  1.00  0.00     0.074 A 
ATOM     44  C   UNL A   1      38.581  28.896  28.348  1.00  0.00     0.031 C 
ATOM     45  C   UNL A   1      38.806  34.066  32.887  1.00  0.00     0.029 A 
ATOM     46  C   UNL A   1      39.914  33.119  32.936  1.00  0.00     0.049 A 
ATOM     47  H   UNL A   1      40.246  31.490  31.682  1.00  0.00     0.167 HD
ATOM     48  C   UNL A   1      40.703  27.946  29.204  1.00  0.00     0.037 A 
ATOM     49  C   UNL A   1      40.925  33.153  33.824  1.00  0.00     0.037 A 
ATOM     50  C   UNL A   1      41.878  27.963  30.036  1.00  0.00     0.049 A 
ATOM     51  C   UNL A   1      42.014  32.123  33.753  1.00  0.00     0.074 A 
ATOM     52  C   UNL A   1      42.963  27.104  30.015  1.00  0.00     0.029 A 
ATOM     53  N   UNL A   1      42.120  28.887  31.041  1.00  0.00    -0.354 N 
ATOM     54  N   UNL A   1      42.133  31.103  32.939  1.00  0.00    -0.248 NA
ATOM     55  C   UNL A   1      43.114  32.253  34.719  1.00  0.00     0.031 C 
ATOM     56  C   UNL A   1      43.847  27.488  31.031  1.00  0.00     0.029 A 
ATOM     57  C   UNL A   1      43.327  28.605  31.663  1.00  0.00     0.049 A 
ATOM     58  H   UNL A   1      41.523  29.633  31.277  1.00  0.00     0.167 HD
ATOM     59  C   UNL A   1      43.322  30.476  33.286  1.00  0.00     0.074 A 
ATOM     60  C   UNL A   1      43.897  31.242  34.373  1.00  0.00     0.031 C 
ATOM     61  C   UNL A   1      43.883  29.364  32.753  1.00  0.00     0.037 A 
BRANCH  48  62
ATOM     62  C   UNL A   1      40.530  26.804  28.246  1.00  0.00     0.057 A 
ATOM     63  C   UNL A   1      41.257  26.722  27.052  1.00  0.00     0.134 A 
ATOM     64  C   UNL A   1      39.638  25.762  28.533  1.00  0.00     0.134 A 
ATOM     65  F   UNL A   1      42.120  27.693  26.714  1.00  0.00    -0.206 F 
ATOM     66  C   UNL A   1      41.082  25.662  26.162  1.00  0.00     0.040 A 
ATOM     67  C   UNL A   1      39.472  24.684  27.662  1.00  0.00     0.040 A 
ATOM     68  F   UNL A   1      38.916  25.776  29.663  1.00  0.00    -0.206 F 
ATOM     69  C   UNL A   1      40.189  24.636  26.469  1.00  0.00     0.006 A 
ENDBRANCH  48  62
BRANCH  49  70
ATOM     70  C   UNL A   1      40.960  34.226  34.845  1.00  0.00     0.057 A 
ATOM     71  C   UNL A   1      41.563  35.459  34.573  1.00  0.00     0.134 A 
ATOM     72  C   UNL A   1      40.367  34.057  36.101  1.00  0.00     0.134 A 
ATOM     73  F   UNL A   1      42.161  35.670  33.391  1.00  0.00    -0.206 F 
ATOM     74  C   UNL A   1      41.580  36.486  35.516  1.00  0.00     0.040 A 
ATOM     75  C   UNL A   1      40.361  35.082  37.048  1.00  0.00     0.040 A 
ATOM     76  F   UNL A   1      39.766  32.899  36.416  1.00  0.00    -0.206 F 
ATOM     77  C   UNL A   1      40.971  36.300  36.756  1.00  0.00     0.006 A 
ENDBRANCH  49  70
BRANCH  61  78
ATOM     78  C   UNL A   1      45.186  28.911  33.339  1.00  0.00     0.057 A 
ATOM     79  C   UNL A   1      45.234  27.987  34.391  1.00  0.00     0.134 A 
ATOM     80  C   UNL A   1      46.403  29.385  32.835  1.00  0.00     0.134 A 
ATOM     81  F   UNL A   1      44.101  27.509  34.927  1.00  0.00    -0.206 F 
ATOM     82  C   UNL A   1      46.449  27.566  34.935  1.00  0.00     0.040 A 
ATOM     83  C   UNL A   1      47.623  28.955  33.357  1.00  0.00     0.040 A 
ATOM     84  F   UNL A   1      46.425  30.267  31.824  1.00  0.00    -0.206 F 
ATOM     85  C   UNL A   1      47.648  28.047  34.414  1.00  0.00     0.006 A 
ENDBRANCH  61  78
ENDBRANCH  35  36
ENDBRANCH  27  30
ENDBRANCH  25  26
ENDBRANCH   1  25
TORSDOF 12
ENDMDL
