MODEL 1
REMARK VINA RESULT:     -13.2      0.000      0.000
REMARK SMILES O=C(NCCCNC(=O)[C@H]1Cc2c([nH]c3ccccc23)[C@@H](c2ccc(OC(F)(F)F)cc2)[NH2+]1)c1ccc(-c2c3nc(c(-c4c(F)cccc4F)c4ccc([nH]4)c(-c4c(F)cccc4F)c4nc(c(-c5c(F)cccc5F)c5ccc2[nH]5)C=C4)C=C3)cc1
REMARK SMILES IDX 5 1 4 2 3 3 1 4 2 5 34 7 35 8 87 9 36 10 86 11 37 12 38 13
REMARK SMILES IDX 39 14 80 15 40 16 85 17 79 18 81 19 41 20 84 21 78 22 77 23
REMARK SMILES IDX 42 25 68 26 51 27 67 28 52 29 55 30 66 31 82 32 53 33 54 34
REMARK SMILES IDX 65 36 83 37 56 38 43 39 44 40 49 41 45 42 46 43 48 44 50 45
REMARK SMILES IDX 47 46 69 47 70 48 75 49 71 50 72 51 74 52 76 53 73 54 57 55
REMARK SMILES IDX 58 56 63 57 59 58 60 59 62 60 64 61 61 62 6 63 7 64 8 65
REMARK SMILES IDX 9 67 10 68 11 69 33 70 12 71 21 72 13 75 20 76 14 77 15 78
REMARK SMILES IDX 19 79 16 81 18 82 17 83 22 84 23 85 32 86 24 87 31 88 25 89
REMARK SMILES IDX 26 90 27 91 28 92 29 93 30 94
REMARK H PARENT 3 6 81 24 55 35 7 66 33 73 33 74 14 80
REMARK Flexibility Score: inf
ROOT
ATOM      1  C   UNL A   1      35.272  22.274  25.738  1.00  0.00     0.042 C 
ENDROOT
BRANCH   1   2
ATOM      2  C   UNL A   1      36.574  22.230  24.942  1.00  0.00     0.118 C 
BRANCH   2   3
ATOM      3  N   UNL A   1      37.416  21.096  25.300  1.00  0.00    -0.352 N 
ATOM      4  O   UNL A   1      39.284  19.996  25.907  1.00  0.00    -0.269 OA
ATOM      5  C   UNL A   1      38.673  21.060  25.854  1.00  0.00     0.251 C 
ATOM      6  H   UNL A   1      37.021  20.213  25.115  1.00  0.00     0.163 HD
BRANCH   5   7
ATOM      7  C   UNL A   1      39.303  22.296  26.364  1.00  0.00     0.039 A 
ATOM      8  C   UNL A   1      38.853  23.552  25.953  1.00  0.00     0.014 A 
ATOM      9  C   UNL A   1      40.347  22.196  27.287  1.00  0.00     0.014 A 
ATOM     10  C   UNL A   1      39.552  24.693  26.329  1.00  0.00     0.010 A 
ATOM     11  C   UNL A   1      40.988  23.352  27.741  1.00  0.00     0.010 A 
ATOM     12  C   UNL A   1      40.625  24.608  27.232  1.00  0.00    -0.014 A 
BRANCH  12  13
ATOM     13  C   UNL A   1      41.324  25.849  27.650  1.00  0.00     0.031 A 
ATOM     14  C   UNL A   1      42.716  26.154  27.170  1.00  0.00     0.074 A 
ATOM     15  C   UNL A   1      40.679  26.724  28.446  1.00  0.00     0.049 A 
ATOM     16  N   UNL A   1      43.458  27.208  27.407  1.00  0.00    -0.248 NA
ATOM     17  C   UNL A   1      43.365  25.144  26.321  1.00  0.00     0.031 C 
ATOM     18  C   UNL A   1      39.330  26.536  28.983  1.00  0.00     0.029 A 
ATOM     19  N   UNL A   1      41.060  27.951  28.923  1.00  0.00    -0.354 N 
ATOM     20  C   UNL A   1      44.665  26.978  26.760  1.00  0.00     0.074 A 
ATOM     21  C   UNL A   1      44.569  25.672  26.143  1.00  0.00     0.031 C 
ATOM     22  C   UNL A   1      38.973  27.631  29.668  1.00  0.00     0.029 A 
ATOM     23  C   UNL A   1      40.089  28.571  29.672  1.00  0.00     0.049 A 
ATOM     24  H   UNL A   1      41.941  28.350  28.745  1.00  0.00     0.167 HD
ATOM     25  C   UNL A   1      45.752  27.784  26.682  1.00  0.00     0.037 A 
ATOM     26  C   UNL A   1      40.097  29.760  30.299  1.00  0.00     0.037 A 
ATOM     27  C   UNL A   1      45.838  29.090  27.286  1.00  0.00     0.049 A 
ATOM     28  C   UNL A   1      41.322  30.623  30.217  1.00  0.00     0.074 A 
ATOM     29  C   UNL A   1      46.879  30.001  27.226  1.00  0.00     0.029 A 
ATOM     30  N   UNL A   1      44.847  29.667  28.067  1.00  0.00    -0.354 N 
ATOM     31  N   UNL A   1      42.440  30.410  29.567  1.00  0.00    -0.248 NA
ATOM     32  C   UNL A   1      41.284  31.891  30.956  1.00  0.00     0.031 C 
ATOM     33  C   UNL A   1      46.539  31.108  28.013  1.00  0.00     0.029 A 
ATOM     34  C   UNL A   1      45.264  30.911  28.516  1.00  0.00     0.049 A 
ATOM     35  H   UNL A   1      43.977  29.255  28.271  1.00  0.00     0.167 HD
ATOM     36  C   UNL A   1      43.230  31.529  29.796  1.00  0.00     0.074 A 
ATOM     37  C   UNL A   1      42.456  32.422  30.636  1.00  0.00     0.031 C 
ATOM     38  C   UNL A   1      44.482  31.792  29.348  1.00  0.00     0.037 A 
BRANCH  25  39
ATOM     39  C   UNL A   1      46.950  27.263  25.937  1.00  0.00     0.057 A 
ATOM     40  C   UNL A   1      47.129  27.483  24.565  1.00  0.00     0.134 A 
ATOM     41  C   UNL A   1      47.948  26.546  26.611  1.00  0.00     0.134 A 
ATOM     42  F   UNL A   1      46.206  28.150  23.857  1.00  0.00    -0.206 F 
ATOM     43  C   UNL A   1      48.242  26.984  23.885  1.00  0.00     0.040 A 
ATOM     44  C   UNL A   1      49.078  26.066  25.945  1.00  0.00     0.040 A 
ATOM     45  F   UNL A   1      47.845  26.305  27.926  1.00  0.00    -0.206 F 
ATOM     46  C   UNL A   1      49.224  26.278  24.576  1.00  0.00     0.006 A 
ENDBRANCH  25  39
BRANCH  26  47
ATOM     47  C   UNL A   1      38.894  30.205  31.045  1.00  0.00     0.057 A 
ATOM     48  C   UNL A   1      38.705  29.849  32.385  1.00  0.00     0.134 A 
ATOM     49  C   UNL A   1      37.918  31.011  30.446  1.00  0.00     0.134 A 
ATOM     50  F   UNL A   1      39.599  29.066  33.008  1.00  0.00    -0.206 F 
ATOM     51  C   UNL A   1      37.584  30.271  33.101  1.00  0.00     0.040 A 
ATOM     52  C   UNL A   1      36.806  31.461  31.157  1.00  0.00     0.040 A 
ATOM     53  F   UNL A   1      38.048  31.392  29.167  1.00  0.00    -0.206 F 
ATOM     54  C   UNL A   1      36.635  31.087  32.489  1.00  0.00     0.006 A 
ENDBRANCH  26  47
BRANCH  38  55
ATOM     55  C   UNL A   1      45.074  33.120  29.722  1.00  0.00     0.057 A 
ATOM     56  C   UNL A   1      44.880  34.266  28.940  1.00  0.00     0.134 A 
ATOM     57  C   UNL A   1      45.832  33.255  30.892  1.00  0.00     0.134 A 
ATOM     58  F   UNL A   1      44.176  34.201  27.800  1.00  0.00    -0.206 F 
ATOM     59  C   UNL A   1      45.442  35.493  29.295  1.00  0.00     0.040 A 
ATOM     60  C   UNL A   1      46.377  34.482  31.271  1.00  0.00     0.040 A 
ATOM     61  F   UNL A   1      46.050  32.197  31.687  1.00  0.00    -0.206 F 
ATOM     62  C   UNL A   1      46.189  35.604  30.467  1.00  0.00     0.006 A 
ENDBRANCH  38  55
ENDBRANCH  12  13
ENDBRANCH   5   7
ENDBRANCH   2   3
ENDBRANCH   1   2
BRANCH   1  63
ATOM     63  C   UNL A   1      34.496  23.574  25.567  1.00  0.00     0.118 C 
BRANCH  63  64
ATOM     64  N   UNL A   1      33.273  23.569  26.351  1.00  0.00    -0.351 N 
ATOM     65  C   UNL A   1      32.271  24.488  26.456  1.00  0.00     0.278 C 
ATOM     66  H   UNL A   1      33.145  22.761  26.901  1.00  0.00     0.163 HD
ATOM     67  O   UNL A   1      31.373  24.247  27.266  1.00  0.00    -0.268 OA
BRANCH  65  68
ATOM     68  C   UNL A   1      32.282  25.743  25.573  1.00  0.00     0.277 C 
ATOM     69  C   UNL A   1      30.810  26.166  25.357  1.00  0.00     0.114 C 
ATOM     70  N   UNL A   1      33.070  26.823  26.218  1.00  0.00    -0.325 N 
ATOM     71  C   UNL A   1      30.807  27.437  24.587  1.00  0.00    -0.006 A 
ATOM     72  C   UNL A   1      33.181  28.048  25.394  1.00  0.00     0.262 C 
ATOM     73  H   UNL A   1      34.010  26.472  26.401  1.00  0.00     0.347 HD
ATOM     74  H   UNL A   1      32.579  27.082  27.074  1.00  0.00     0.347 HD
ATOM     75  C   UNL A   1      31.913  28.264  24.605  1.00  0.00     0.083 A 
ATOM     76  C   UNL A   1      29.808  28.045  23.789  1.00  0.00     0.003 A 
ATOM     77  N   UNL A   1      31.663  29.300  23.742  1.00  0.00    -0.353 N 
ATOM     78  C   UNL A   1      30.366  29.218  23.276  1.00  0.00     0.046 A 
ATOM     79  C   UNL A   1      28.480  27.719  23.460  1.00  0.00     0.010 A 
ATOM     80  H   UNL A   1      32.312  29.998  23.493  1.00  0.00     0.166 HD
ATOM     81  C   UNL A   1      29.646  30.090  22.450  1.00  0.00     0.026 A 
ATOM     82  C   UNL A   1      27.746  28.585  22.645  1.00  0.00     0.001 A 
ATOM     83  C   UNL A   1      28.323  29.752  22.149  1.00  0.00     0.002 A 
BRANCH  72  84
ATOM     84  C   UNL A   1      33.572  29.214  26.304  1.00  0.00     0.016 A 
ATOM     85  C   UNL A   1      32.714  30.290  26.580  1.00  0.00     0.014 A 
ATOM     86  C   UNL A   1      34.819  29.197  26.954  1.00  0.00     0.014 A 
ATOM     87  C   UNL A   1      33.105  31.324  27.434  1.00  0.00     0.047 A 
ATOM     88  C   UNL A   1      35.196  30.217  27.839  1.00  0.00     0.047 A 
ATOM     89  C   UNL A   1      34.340  31.289  28.080  1.00  0.00     0.129 A 
BRANCH  89  90
ATOM     90  O   UNL A   1      34.574  32.353  28.901  1.00  0.00    -0.406 OA
BRANCH  90  91
ATOM     91  C   UNL A   1      35.240  33.474  28.348  1.00  0.00     0.573 C 
ATOM     92  F   UNL A   1      36.287  33.099  27.586  1.00  0.00    -0.132 F 
ATOM     93  F   UNL A   1      34.394  34.230  27.615  1.00  0.00    -0.132 F 
ATOM     94  F   UNL A   1      35.710  34.238  29.361  1.00  0.00    -0.132 F 
ENDBRANCH  90  91
ENDBRANCH  89  90
ENDBRANCH  72  84
ENDBRANCH  65  68
ENDBRANCH  63  64
ENDBRANCH   1  63
TORSDOF 13
ENDMDL
MODEL 2
REMARK VINA RESULT:     -13.2      3.694      9.379
REMARK SMILES O=C(NCCCNC(=O)[C@H]1Cc2c([nH]c3ccccc23)[C@@H](c2ccc(OC(F)(F)F)cc2)[NH2+]1)c1ccc(-c2c3nc(c(-c4c(F)cccc4F)c4ccc([nH]4)c(-c4c(F)cccc4F)c4nc(c(-c5c(F)cccc5F)c5ccc2[nH]5)C=C4)C=C3)cc1
REMARK SMILES IDX 5 1 4 2 3 3 1 4 2 5 34 7 35 8 87 9 36 10 86 11 37 12 38 13
REMARK SMILES IDX 39 14 80 15 40 16 85 17 79 18 81 19 41 20 84 21 78 22 77 23
REMARK SMILES IDX 42 25 68 26 51 27 67 28 52 29 55 30 66 31 82 32 53 33 54 34
REMARK SMILES IDX 65 36 83 37 56 38 43 39 44 40 49 41 45 42 46 43 48 44 50 45
REMARK SMILES IDX 47 46 69 47 70 48 75 49 71 50 72 51 74 52 76 53 73 54 57 55
REMARK SMILES IDX 58 56 63 57 59 58 60 59 62 60 64 61 61 62 6 63 7 64 8 65
REMARK SMILES IDX 9 67 10 68 11 69 33 70 12 71 21 72 13 75 20 76 14 77 15 78
REMARK SMILES IDX 19 79 16 81 18 82 17 83 22 84 23 85 32 86 24 87 31 88 25 89
REMARK SMILES IDX 26 90 27 91 28 92 29 93 30 94
REMARK H PARENT 3 6 81 24 55 35 7 66 33 73 33 74 14 80
REMARK Flexibility Score: inf
ROOT
ATOM      1  C   UNL A   1      31.979  28.283  25.111  1.00  0.00     0.042 C 
ENDROOT
BRANCH   1   2
ATOM      2  C   UNL A   1      32.994  29.423  25.162  1.00  0.00     0.118 C 
BRANCH   2   3
ATOM      3  N   UNL A   1      32.455  30.632  25.771  1.00  0.00    -0.352 N 
ATOM      4  O   UNL A   1      32.174  32.239  27.322  1.00  0.00    -0.269 OA
ATOM      5  C   UNL A   1      32.883  31.346  26.863  1.00  0.00     0.251 C 
ATOM      6  H   UNL A   1      31.654  30.996  25.327  1.00  0.00     0.163 HD
BRANCH   5   7
ATOM      7  C   UNL A   1      34.176  31.032  27.505  1.00  0.00     0.039 A 
ATOM      8  C   UNL A   1      34.496  29.723  27.870  1.00  0.00     0.014 A 
ATOM      9  C   UNL A   1      35.095  32.062  27.723  1.00  0.00     0.014 A 
ATOM     10  C   UNL A   1      35.651  29.473  28.601  1.00  0.00     0.010 A 
ATOM     11  C   UNL A   1      36.302  31.792  28.374  1.00  0.00     0.010 A 
ATOM     12  C   UNL A   1      36.571  30.503  28.858  1.00  0.00    -0.014 A 
BRANCH  12  13
ATOM     13  C   UNL A   1      37.817  30.197  29.604  1.00  0.00     0.031 A 
ATOM     14  C   UNL A   1      38.006  30.657  31.022  1.00  0.00     0.074 A 
ATOM     15  C   UNL A   1      38.774  29.465  29.001  1.00  0.00     0.049 A 
ATOM     16  N   UNL A   1      39.014  30.445  31.832  1.00  0.00    -0.248 NA
ATOM     17  C   UNL A   1      36.928  31.468  31.609  1.00  0.00     0.031 C 
ATOM     18  C   UNL A   1      38.711  28.967  27.625  1.00  0.00     0.029 A 
ATOM     19  N   UNL A   1      39.974  28.995  29.470  1.00  0.00    -0.354 N 
ATOM     20  C   UNL A   1      38.706  31.114  33.010  1.00  0.00     0.074 A 
ATOM     21  C   UNL A   1      37.429  31.763  32.802  1.00  0.00     0.031 C 
ATOM     22  C   UNL A   1      39.794  28.216  27.379  1.00  0.00     0.029 A 
ATOM     23  C   UNL A   1      40.656  28.230  28.556  1.00  0.00     0.049 A 
ATOM     24  H   UNL A   1      40.312  29.186  30.374  1.00  0.00     0.167 HD
ATOM     25  C   UNL A   1      39.418  31.176  34.161  1.00  0.00     0.037 A 
ATOM     26  C   UNL A   1      41.847  27.613  28.649  1.00  0.00     0.037 A 
ATOM     27  C   UNL A   1      40.682  30.516  34.369  1.00  0.00     0.049 A 
ATOM     28  C   UNL A   1      42.627  27.717  29.927  1.00  0.00     0.074 A 
ATOM     29  C   UNL A   1      41.460  30.482  35.514  1.00  0.00     0.029 A 
ATOM     30  N   UNL A   1      41.358  29.780  33.406  1.00  0.00    -0.354 N 
ATOM     31  N   UNL A   1      42.303  28.318  31.046  1.00  0.00    -0.248 NA
ATOM     32  C   UNL A   1      43.937  27.056  29.953  1.00  0.00     0.031 C 
ATOM     33  C   UNL A   1      42.630  29.768  35.229  1.00  0.00     0.029 A 
ATOM     34  C   UNL A   1      42.556  29.310  33.924  1.00  0.00     0.049 A 
ATOM     35  H   UNL A   1      41.035  29.615  32.491  1.00  0.00     0.167 HD
ATOM     36  C   UNL A   1      43.357  28.087  31.919  1.00  0.00     0.074 A 
ATOM     37  C   UNL A   1      44.324  27.280  31.202  1.00  0.00     0.031 C 
ATOM     38  C   UNL A   1      43.508  28.503  33.201  1.00  0.00     0.037 A 
BRANCH  25  39
ATOM     39  C   UNL A   1      38.858  32.011  35.279  1.00  0.00     0.057 A 
ATOM     40  C   UNL A   1      38.980  33.407  35.300  1.00  0.00     0.134 A 
ATOM     41  C   UNL A   1      38.169  31.408  36.339  1.00  0.00     0.134 A 
ATOM     42  F   UNL A   1      39.638  34.047  34.323  1.00  0.00    -0.206 F 
ATOM     43  C   UNL A   1      38.462  34.169  36.351  1.00  0.00     0.040 A 
ATOM     44  C   UNL A   1      37.625  32.163  37.381  1.00  0.00     0.040 A 
ATOM     45  F   UNL A   1      38.008  30.077  36.380  1.00  0.00    -0.206 F 
ATOM     46  C   UNL A   1      37.778  33.547  37.392  1.00  0.00     0.006 A 
ENDBRANCH  25  39
BRANCH  26  47
ATOM     47  C   UNL A   1      42.361  26.829  27.499  1.00  0.00     0.057 A 
ATOM     48  C   UNL A   1      43.073  27.449  26.467  1.00  0.00     0.134 A 
ATOM     49  C   UNL A   1      42.171  25.445  27.414  1.00  0.00     0.134 A 
ATOM     50  F   UNL A   1      43.273  28.776  26.485  1.00  0.00    -0.206 F 
ATOM     51  C   UNL A   1      43.571  26.721  25.385  1.00  0.00     0.040 A 
ATOM     52  C   UNL A   1      42.686  24.701  26.352  1.00  0.00     0.040 A 
ATOM     53  F   UNL A   1      41.504  24.793  28.378  1.00  0.00    -0.206 F 
ATOM     54  C   UNL A   1      43.386  25.342  25.331  1.00  0.00     0.006 A 
ENDBRANCH  26  47
BRANCH  38  55
ATOM     55  C   UNL A   1      44.744  28.054  33.922  1.00  0.00     0.057 A 
ATOM     56  C   UNL A   1      45.916  28.822  33.936  1.00  0.00     0.134 A 
ATOM     57  C   UNL A   1      44.754  26.844  34.628  1.00  0.00     0.134 A 
ATOM     58  F   UNL A   1      45.977  29.983  33.267  1.00  0.00    -0.206 F 
ATOM     59  C   UNL A   1      47.062  28.389  34.605  1.00  0.00     0.040 A 
ATOM     60  C   UNL A   1      45.885  26.414  35.323  1.00  0.00     0.040 A 
ATOM     61  F   UNL A   1      43.663  26.065  34.659  1.00  0.00    -0.206 F 
ATOM     62  C   UNL A   1      47.046  27.184  35.306  1.00  0.00     0.006 A 
ENDBRANCH  38  55
ENDBRANCH  12  13
ENDBRANCH   5   7
ENDBRANCH   2   3
ENDBRANCH   1   2
BRANCH   1  63
ATOM     63  C   UNL A   1      32.617  26.900  25.071  1.00  0.00     0.118 C 
BRANCH  63  64
ATOM     64  N   UNL A   1      33.090  26.573  23.737  1.00  0.00    -0.351 N 
ATOM     65  C   UNL A   1      33.645  25.432  23.237  1.00  0.00     0.278 C 
ATOM     66  H   UNL A   1      32.992  27.300  23.080  1.00  0.00     0.163 HD
ATOM     67  O   UNL A   1      34.023  25.462  22.064  1.00  0.00    -0.268 OA
BRANCH  65  68
ATOM     68  C   UNL A   1      33.756  24.180  24.116  1.00  0.00     0.277 C 
ATOM     69  C   UNL A   1      33.459  22.957  23.218  1.00  0.00     0.114 C 
ATOM     70  N   UNL A   1      35.107  24.093  24.726  1.00  0.00    -0.325 N 
ATOM     71  C   UNL A   1      33.661  21.730  24.030  1.00  0.00    -0.006 A 
ATOM     72  C   UNL A   1      35.270  22.942  25.643  1.00  0.00     0.262 C 
ATOM     73  H   UNL A   1      35.280  24.950  25.251  1.00  0.00     0.347 HD
ATOM     74  H   UNL A   1      35.772  23.964  23.963  1.00  0.00     0.347 HD
ATOM     75  C   UNL A   1      34.475  21.760  25.146  1.00  0.00     0.083 A 
ATOM     76  C   UNL A   1      33.170  20.412  23.872  1.00  0.00     0.003 A 
ATOM     77  N   UNL A   1      34.398  20.528  25.742  1.00  0.00    -0.353 N 
ATOM     78  C   UNL A   1      33.654  19.673  24.954  1.00  0.00     0.046 A 
ATOM     79  C   UNL A   1      32.371  19.770  22.908  1.00  0.00     0.010 A 
ATOM     80  H   UNL A   1      34.811  20.290  26.603  1.00  0.00     0.166 HD
ATOM     81  C   UNL A   1      33.377  18.310  25.112  1.00  0.00     0.026 A 
ATOM     82  C   UNL A   1      32.095  18.407  23.048  1.00  0.00     0.001 A 
ATOM     83  C   UNL A   1      32.593  17.690  24.134  1.00  0.00     0.002 A 
BRANCH  72  84
ATOM     84  C   UNL A   1      36.765  22.673  25.826  1.00  0.00     0.016 A 
ATOM     85  C   UNL A   1      37.383  21.480  25.421  1.00  0.00     0.014 A 
ATOM     86  C   UNL A   1      37.588  23.678  26.366  1.00  0.00     0.014 A 
ATOM     87  C   UNL A   1      38.755  21.285  25.589  1.00  0.00     0.047 A 
ATOM     88  C   UNL A   1      38.972  23.495  26.501  1.00  0.00     0.047 A 
ATOM     89  C   UNL A   1      39.562  22.293  26.116  1.00  0.00     0.129 A 
BRANCH  89  90
ATOM     90  O   UNL A   1      40.884  21.969  26.198  1.00  0.00    -0.406 OA
BRANCH  90  91
ATOM     91  C   UNL A   1      41.338  21.363  27.394  1.00  0.00     0.573 C 
ATOM     92  F   UNL A   1      40.765  21.924  28.479  1.00  0.00    -0.132 F 
ATOM     93  F   UNL A   1      41.094  20.034  27.389  1.00  0.00    -0.132 F 
ATOM     94  F   UNL A   1      42.676  21.540  27.487  1.00  0.00    -0.132 F 
ENDBRANCH  90  91
ENDBRANCH  89  90
ENDBRANCH  72  84
ENDBRANCH  65  68
ENDBRANCH  63  64
ENDBRANCH   1  63
TORSDOF 13
ENDMDL
MODEL 3
REMARK VINA RESULT:     -13.2      2.202      3.800
REMARK SMILES O=C(NCCCNC(=O)[C@H]1Cc2c([nH]c3ccccc23)[C@@H](c2ccc(OC(F)(F)F)cc2)[NH2+]1)c1ccc(-c2c3nc(c(-c4c(F)cccc4F)c4ccc([nH]4)c(-c4c(F)cccc4F)c4nc(c(-c5c(F)cccc5F)c5ccc2[nH]5)C=C4)C=C3)cc1
REMARK SMILES IDX 5 1 4 2 3 3 1 4 2 5 34 7 35 8 87 9 36 10 86 11 37 12 38 13
REMARK SMILES IDX 39 14 80 15 40 16 85 17 79 18 81 19 41 20 84 21 78 22 77 23
REMARK SMILES IDX 42 25 68 26 51 27 67 28 52 29 55 30 66 31 82 32 53 33 54 34
REMARK SMILES IDX 65 36 83 37 56 38 43 39 44 40 49 41 45 42 46 43 48 44 50 45
REMARK SMILES IDX 47 46 69 47 70 48 75 49 71 50 72 51 74 52 76 53 73 54 57 55
REMARK SMILES IDX 58 56 63 57 59 58 60 59 62 60 64 61 61 62 6 63 7 64 8 65
REMARK SMILES IDX 9 67 10 68 11 69 33 70 12 71 21 72 13 75 20 76 14 77 15 78
REMARK SMILES IDX 19 79 16 81 18 82 17 83 22 84 23 85 32 86 24 87 31 88 25 89
REMARK SMILES IDX 26 90 27 91 28 92 29 93 30 94
REMARK H PARENT 3 6 81 24 55 35 7 66 33 73 33 74 14 80
REMARK Flexibility Score: inf
ROOT
ATOM      1  C   UNL A   1      34.593  21.928  26.679  1.00  0.00     0.042 C 
ENDROOT
BRANCH   1   2
ATOM      2  C   UNL A   1      35.906  22.476  26.126  1.00  0.00     0.118 C 
BRANCH   2   3
ATOM      3  N   UNL A   1      36.903  21.437  25.902  1.00  0.00    -0.352 N 
ATOM      4  O   UNL A   1      38.933  20.541  25.523  1.00  0.00    -0.269 OA
ATOM      5  C   UNL A   1      38.275  21.499  25.920  1.00  0.00     0.251 C 
ATOM      6  H   UNL A   1      36.533  20.545  25.706  1.00  0.00     0.163 HD
BRANCH   5   7
ATOM      7  C   UNL A   1      38.963  22.719  26.392  1.00  0.00     0.039 A 
ATOM      8  C   UNL A   1      38.519  23.985  26.009  1.00  0.00     0.014 A 
ATOM      9  C   UNL A   1      40.059  22.592  27.251  1.00  0.00     0.014 A 
ATOM     10  C   UNL A   1      39.266  25.109  26.344  1.00  0.00     0.010 A 
ATOM     11  C   UNL A   1      40.753  23.732  27.665  1.00  0.00     0.010 A 
ATOM     12  C   UNL A   1      40.389  24.997  27.180  1.00  0.00    -0.014 A 
BRANCH  12  13
ATOM     13  C   UNL A   1      41.142  26.221  27.555  1.00  0.00     0.031 A 
ATOM     14  C   UNL A   1      42.554  26.436  27.089  1.00  0.00     0.074 A 
ATOM     15  C   UNL A   1      40.527  27.161  28.299  1.00  0.00     0.049 A 
ATOM     16  N   UNL A   1      43.343  27.463  27.293  1.00  0.00    -0.248 NA
ATOM     17  C   UNL A   1      43.167  25.359  26.298  1.00  0.00     0.031 C 
ATOM     18  C   UNL A   1      39.161  27.063  28.818  1.00  0.00     0.029 A 
ATOM     19  N   UNL A   1      40.959  28.389  28.729  1.00  0.00    -0.354 N 
ATOM     20  C   UNL A   1      44.549  27.146  26.680  1.00  0.00     0.074 A 
ATOM     21  C   UNL A   1      44.398  25.820  26.119  1.00  0.00     0.031 C 
ATOM     22  C   UNL A   1      38.848  28.204  29.448  1.00  0.00     0.029 A 
ATOM     23  C   UNL A   1      40.008  29.088  29.431  1.00  0.00     0.049 A 
ATOM     24  H   UNL A   1      41.862  28.736  28.550  1.00  0.00     0.167 HD
ATOM     25  C   UNL A   1      45.675  27.894  26.586  1.00  0.00     0.037 A 
ATOM     26  C   UNL A   1      40.063  30.302  30.005  1.00  0.00     0.037 A 
ATOM     27  C   UNL A   1      45.815  29.220  27.133  1.00  0.00     0.049 A 
ATOM     28  C   UNL A   1      41.330  31.101  29.907  1.00  0.00     0.074 A 
ATOM     29  C   UNL A   1      46.900  30.076  27.053  1.00  0.00     0.029 A 
ATOM     30  N   UNL A   1      44.841  29.880  27.869  1.00  0.00    -0.354 N 
ATOM     31  N   UNL A   1      42.447  30.805  29.288  1.00  0.00    -0.248 NA
ATOM     32  C   UNL A   1      41.342  32.401  30.588  1.00  0.00     0.031 C 
ATOM     33  C   UNL A   1      46.601  31.233  27.783  1.00  0.00     0.029 A 
ATOM     34  C   UNL A   1      45.310  31.121  28.270  1.00  0.00     0.049 A 
ATOM     35  H   UNL A   1      43.948  29.519  28.075  1.00  0.00     0.167 HD
ATOM     36  C   UNL A   1      43.287  31.893  29.483  1.00  0.00     0.074 A 
ATOM     37  C   UNL A   1      42.544  32.859  30.267  1.00  0.00     0.031 C 
ATOM     38  C   UNL A   1      44.558  32.076  29.047  1.00  0.00     0.037 A 
BRANCH  25  39
ATOM     39  C   UNL A   1      46.858  27.283  25.888  1.00  0.00     0.057 A 
ATOM     40  C   UNL A   1      47.101  27.477  24.522  1.00  0.00     0.134 A 
ATOM     41  C   UNL A   1      47.778  26.503  26.601  1.00  0.00     0.134 A 
ATOM     42  F   UNL A   1      46.253  28.203  23.777  1.00  0.00    -0.206 F 
ATOM     43  C   UNL A   1      48.199  26.895  23.885  1.00  0.00     0.040 A 
ATOM     44  C   UNL A   1      48.894  25.938  25.980  1.00  0.00     0.040 A 
ATOM     45  F   UNL A   1      47.611  26.281  27.914  1.00  0.00    -0.206 F 
ATOM     46  C   UNL A   1      49.102  26.127  24.616  1.00  0.00     0.006 A 
ENDBRANCH  25  39
BRANCH  26  47
ATOM     47  C   UNL A   1      38.871  30.838  30.707  1.00  0.00     0.057 A 
ATOM     48  C   UNL A   1      37.943  31.642  30.038  1.00  0.00     0.134 A 
ATOM     49  C   UNL A   1      38.622  30.544  32.053  1.00  0.00     0.134 A 
ATOM     50  F   UNL A   1      38.136  31.971  28.752  1.00  0.00    -0.206 F 
ATOM     51  C   UNL A   1      36.811  32.142  30.685  1.00  0.00     0.040 A 
ATOM     52  C   UNL A   1      37.482  31.015  32.704  1.00  0.00     0.040 A 
ATOM     53  F   UNL A   1      39.472  29.770  32.745  1.00  0.00    -0.206 F 
ATOM     54  C   UNL A   1      36.575  31.821  32.020  1.00  0.00     0.006 A 
ENDBRANCH  26  47
BRANCH  38  55
ATOM     55  C   UNL A   1      45.208  33.388  29.373  1.00  0.00     0.057 A 
ATOM     56  C   UNL A   1      45.075  34.510  28.543  1.00  0.00     0.134 A 
ATOM     57  C   UNL A   1      45.962  33.536  30.544  1.00  0.00     0.134 A 
ATOM     58  F   UNL A   1      44.379  34.429  27.399  1.00  0.00    -0.206 F 
ATOM     59  C   UNL A   1      45.691  35.723  28.854  1.00  0.00     0.040 A 
ATOM     60  C   UNL A   1      46.560  34.751  30.879  1.00  0.00     0.040 A 
ATOM     61  F   UNL A   1      46.123  32.503  31.385  1.00  0.00    -0.206 F 
ATOM     62  C   UNL A   1      46.431  35.847  30.028  1.00  0.00     0.006 A 
ENDBRANCH  38  55
ENDBRANCH  12  13
ENDBRANCH   5   7
ENDBRANCH   2   3
ENDBRANCH   1   2
BRANCH   1  63
ATOM     63  C   UNL A   1      33.358  22.608  26.103  1.00  0.00     0.118 C 
BRANCH  63  64
ATOM     64  N   UNL A   1      33.562  22.993  24.716  1.00  0.00    -0.351 N 
ATOM     65  C   UNL A   1      33.282  24.154  24.058  1.00  0.00     0.278 C 
ATOM     66  H   UNL A   1      33.974  22.295  24.157  1.00  0.00     0.163 HD
ATOM     67  O   UNL A   1      33.502  24.175  22.845  1.00  0.00    -0.268 OA
BRANCH  65  68
ATOM     68  C   UNL A   1      32.742  25.365  24.828  1.00  0.00     0.277 C 
ATOM     69  C   UNL A   1      33.925  26.337  25.048  1.00  0.00     0.114 C 
ATOM     70  N   UNL A   1      31.641  26.012  24.069  1.00  0.00    -0.325 N 
ATOM     71  C   UNL A   1      33.398  27.561  25.704  1.00  0.00    -0.006 A 
ATOM     72  C   UNL A   1      31.023  27.154  24.781  1.00  0.00     0.262 C 
ATOM     73  H   UNL A   1      30.919  25.314  23.892  1.00  0.00     0.347 HD
ATOM     74  H   UNL A   1      32.046  26.380  23.208  1.00  0.00     0.347 HD
ATOM     75  C   UNL A   1      32.064  27.895  25.584  1.00  0.00     0.083 A 
ATOM     76  C   UNL A   1      34.040  28.560  26.474  1.00  0.00     0.003 A 
ATOM     77  N   UNL A   1      31.848  29.004  26.360  1.00  0.00    -0.353 N 
ATOM     78  C   UNL A   1      33.048  29.461  26.868  1.00  0.00     0.046 A 
ATOM     79  C   UNL A   1      35.371  28.793  26.867  1.00  0.00     0.010 A 
ATOM     80  H   UNL A   1      30.969  29.414  26.529  1.00  0.00     0.166 HD
ATOM     81  C   UNL A   1      33.331  30.597  27.635  1.00  0.00     0.026 A 
ATOM     82  C   UNL A   1      35.669  29.930  27.625  1.00  0.00     0.001 A 
ATOM     83  C   UNL A   1      34.663  30.816  28.001  1.00  0.00     0.002 A 
BRANCH  72  84
ATOM     84  C   UNL A   1      30.271  28.014  23.762  1.00  0.00     0.016 A 
ATOM     85  C   UNL A   1      28.871  28.041  23.669  1.00  0.00     0.014 A 
ATOM     86  C   UNL A   1      30.994  28.870  22.912  1.00  0.00     0.014 A 
ATOM     87  C   UNL A   1      28.226  28.856  22.737  1.00  0.00     0.047 A 
ATOM     88  C   UNL A   1      30.344  29.715  22.002  1.00  0.00     0.047 A 
ATOM     89  C   UNL A   1      28.954  29.708  21.908  1.00  0.00     0.129 A 
BRANCH  89  90
ATOM     90  O   UNL A   1      28.189  30.462  21.066  1.00  0.00    -0.406 OA
BRANCH  90  91
ATOM     91  C   UNL A   1      27.986  31.822  21.405  1.00  0.00     0.573 C 
ATOM     92  F   UNL A   1      29.158  32.461  21.602  1.00  0.00    -0.132 F 
ATOM     93  F   UNL A   1      27.278  32.461  20.448  1.00  0.00    -0.132 F 
ATOM     94  F   UNL A   1      27.278  31.878  22.556  1.00  0.00    -0.132 F 
ENDBRANCH  90  91
ENDBRANCH  89  90
ENDBRANCH  72  84
ENDBRANCH  65  68
ENDBRANCH  63  64
ENDBRANCH   1  63
TORSDOF 13
ENDMDL
