MODEL 1
REMARK VINA RESULT:     -10.8      0.000      0.000
REMARK SMILES CC(C)[C@H](NC(=O)[C@H](C)NC(=O)C[NH3+])C(=O)NCCCNC(=O)c1ccc(-c2c3nc(c(-c4c(F)cccc4F)c4ccc([nH]4)c(-c4c(F)cccc4F)c4nc(c(-c5c(F)cccc5F)c5ccc2[nH]5)C=C4)C=C3)cc1
REMARK SMILES IDX 15 1 16 2 17 3 4 5 2 6 1 7 3 8 5 9 6 10 7 12 8 13 9 14 10 15
REMARK SMILES IDX 11 16 12 18 13 19 14 20 18 24 19 25 20 26 21 27 22 28 23 30
REMARK SMILES IDX 24 31 25 32 77 33 26 34 76 35 27 36 28 37 29 38 70 39 30 40
REMARK SMILES IDX 75 41 69 42 71 43 31 44 74 45 68 46 67 47 32 49 58 50 41 51
REMARK SMILES IDX 57 52 42 53 45 54 56 55 72 56 43 57 44 58 55 60 73 61 46 62
REMARK SMILES IDX 33 63 34 64 39 65 35 66 36 67 38 68 40 69 37 70 59 71 60 72
REMARK SMILES IDX 65 73 61 74 62 75 64 76 66 77 63 78 47 79 48 80 53 81 49 82
REMARK SMILES IDX 50 83 52 84 54 85 51 86
REMARK H PARENT 17 4 5 11 10 17 14 21 14 22 14 23 21 29 71 48 45 59
REMARK Flexibility Score: inf
ROOT
ATOM      1  C   UNL A   1      33.312  28.936  26.706  1.00  0.00     0.242 C 
ATOM      2  O   UNL A   1      34.420  28.787  27.226  1.00  0.00    -0.273 OA
ATOM      3  N   UNL A   1      32.614  30.073  27.002  1.00  0.00    -0.354 N 
ATOM      4  H   UNL A   1      32.863  30.518  27.844  1.00  0.00     0.163 HD
ENDROOT
BRANCH   1   5
ATOM      5  C   UNL A   1      32.814  27.954  25.622  1.00  0.00     0.173 C 
BRANCH   5   6
ATOM      6  C   UNL A   1      33.023  26.501  26.140  1.00  0.00     0.015 C 
ATOM      7  C   UNL A   1      31.682  25.758  26.137  1.00  0.00     0.010 C 
ATOM      8  C   UNL A   1      34.064  25.671  25.388  1.00  0.00     0.010 C 
ENDBRANCH   5   6
BRANCH   5   9
ATOM      9  N   UNL A   1      33.415  28.270  24.327  1.00  0.00    -0.342 N 
ATOM     10  C   UNL A   1      32.789  28.601  23.155  1.00  0.00     0.242 C 
ATOM     11  H   UNL A   1      34.399  28.239  24.293  1.00  0.00     0.164 HD
ATOM     12  O   UNL A   1      33.512  28.902  22.202  1.00  0.00    -0.273 OA
BRANCH  10  13
ATOM     13  C   UNL A   1      31.243  28.549  23.045  1.00  0.00     0.168 C 
ATOM     14  C   UNL A   1      30.781  27.152  22.623  1.00  0.00     0.041 C 
BRANCH  13  15
ATOM     15  N   UNL A   1      30.754  29.508  22.055  1.00  0.00    -0.340 N 
ATOM     16  C   UNL A   1      29.492  30.016  21.922  1.00  0.00     0.275 C 
ATOM     17  H   UNL A   1      31.418  29.829  21.403  1.00  0.00     0.164 HD
ATOM     18  O   UNL A   1      29.176  30.543  20.854  1.00  0.00    -0.268 OA
BRANCH  16  19
ATOM     19  C   UNL A   1      28.508  29.925  23.092  1.00  0.00     0.360 C 
BRANCH  19  20
ATOM     20  N   UNL A   1      27.298  29.186  22.704  1.00  0.00    -0.350 N 
ATOM     21  H   UNL A   1      27.473  28.184  22.781  1.00  0.00     0.344 HD
ATOM     22  H   UNL A   1      27.055  29.416  21.740  1.00  0.00     0.344 HD
ATOM     23  H   UNL A   1      26.529  29.446  23.320  1.00  0.00     0.344 HD
ENDBRANCH  19  20
ENDBRANCH  16  19
ENDBRANCH  13  15
ENDBRANCH  10  13
ENDBRANCH   5   9
ENDBRANCH   1   5
BRANCH   3  24
ATOM     24  C   UNL A   1      31.556  30.710  26.243  1.00  0.00     0.117 C 
BRANCH  24  25
ATOM     25  C   UNL A   1      31.387  32.185  26.558  1.00  0.00     0.042 C 
BRANCH  25  26
ATOM     26  C   UNL A   1      32.591  32.800  27.256  1.00  0.00     0.118 C 
BRANCH  26  27
ATOM     27  N   UNL A   1      32.384  34.204  27.600  1.00  0.00    -0.352 N 
ATOM     28  C   UNL A   1      32.968  34.980  28.568  1.00  0.00     0.251 C 
ATOM     29  H   UNL A   1      31.716  34.669  27.046  1.00  0.00     0.163 HD
ATOM     30  O   UNL A   1      32.493  36.083  28.830  1.00  0.00    -0.269 OA
BRANCH  28  31
ATOM     31  C   UNL A   1      34.150  34.493  29.304  1.00  0.00     0.039 A 
ATOM     32  C   UNL A   1      33.980  33.933  30.573  1.00  0.00     0.014 A 
ATOM     33  C   UNL A   1      35.428  34.599  28.753  1.00  0.00     0.014 A 
ATOM     34  C   UNL A   1      35.081  33.413  31.252  1.00  0.00     0.010 A 
ATOM     35  C   UNL A   1      36.506  33.989  29.382  1.00  0.00     0.010 A 
ATOM     36  C   UNL A   1      36.347  33.397  30.643  1.00  0.00    -0.014 A 
BRANCH  36  37
ATOM     37  C   UNL A   1      37.519  32.774  31.305  1.00  0.00     0.031 A 
ATOM     38  C   UNL A   1      38.191  31.581  30.683  1.00  0.00     0.074 A 
ATOM     39  C   UNL A   1      37.929  33.234  32.502  1.00  0.00     0.049 A 
ATOM     40  N   UNL A   1      39.176  30.852  31.143  1.00  0.00    -0.248 NA
ATOM     41  C   UNL A   1      37.665  31.126  29.385  1.00  0.00     0.031 C 
ATOM     42  C   UNL A   1      37.324  34.349  33.234  1.00  0.00     0.029 A 
ATOM     43  N   UNL A   1      38.947  32.815  33.321  1.00  0.00    -0.354 N 
ATOM     44  C   UNL A   1      39.373  29.848  30.205  1.00  0.00     0.074 A 
ATOM     45  C   UNL A   1      38.367  30.022  29.180  1.00  0.00     0.031 C 
ATOM     46  C   UNL A   1      37.998  34.541  34.379  1.00  0.00     0.029 A 
ATOM     47  C   UNL A   1      39.053  33.540  34.483  1.00  0.00     0.049 A 
ATOM     48  H   UNL A   1      39.545  32.065  33.097  1.00  0.00     0.167 HD
ATOM     49  C   UNL A   1      40.323  28.884  30.183  1.00  0.00     0.037 A 
ATOM     50  C   UNL A   1      39.901  33.405  35.520  1.00  0.00     0.037 A 
ATOM     51  C   UNL A   1      41.335  28.728  31.195  1.00  0.00     0.049 A 
ATOM     52  C   UNL A   1      40.943  32.322  35.478  1.00  0.00     0.074 A 
ATOM     53  C   UNL A   1      42.381  27.825  31.236  1.00  0.00     0.029 A 
ATOM     54  N   UNL A   1      41.420  29.494  32.349  1.00  0.00    -0.354 N 
ATOM     55  N   UNL A   1      41.167  31.427  34.547  1.00  0.00    -0.248 NA
ATOM     56  C   UNL A   1      41.852  32.235  36.628  1.00  0.00     0.031 C 
ATOM     57  C   UNL A   1      43.070  28.009  32.439  1.00  0.00     0.029 A 
ATOM     58  C   UNL A   1      42.487  29.065  33.121  1.00  0.00     0.049 A 
ATOM     59  H   UNL A   1      40.813  30.232  32.584  1.00  0.00     0.167 HD
ATOM     60  C   UNL A   1      42.259  30.689  34.983  1.00  0.00     0.074 A 
ATOM     61  C   UNL A   1      42.661  31.252  36.256  1.00  0.00     0.031 C 
ATOM     62  C   UNL A   1      42.876  29.640  34.385  1.00  0.00     0.037 A 
BRANCH  49  63
ATOM     63  C   UNL A   1      40.308  27.923  29.028  1.00  0.00     0.057 A 
ATOM     64  C   UNL A   1      41.028  28.167  27.851  1.00  0.00     0.134 A 
ATOM     65  C   UNL A   1      39.581  26.727  29.102  1.00  0.00     0.134 A 
ATOM     66  F   UNL A   1      41.735  29.298  27.707  1.00  0.00    -0.206 F 
ATOM     67  C   UNL A   1      40.998  27.276  26.777  1.00  0.00     0.040 A 
ATOM     68  C   UNL A   1      39.569  25.813  28.047  1.00  0.00     0.040 A 
ATOM     69  F   UNL A   1      38.874  26.425  30.201  1.00  0.00    -0.206 F 
ATOM     70  C   UNL A   1      40.272  26.091  26.876  1.00  0.00     0.006 A 
ENDBRANCH  49  63
BRANCH  50  71
ATOM     71  C   UNL A   1      39.816  34.337  36.674  1.00  0.00     0.057 A 
ATOM     72  C   UNL A   1      39.122  33.984  37.837  1.00  0.00     0.134 A 
ATOM     73  C   UNL A   1      40.424  35.598  36.643  1.00  0.00     0.134 A 
ATOM     74  F   UNL A   1      38.505  32.796  37.920  1.00  0.00    -0.206 F 
ATOM     75  C   UNL A   1      39.019  34.857  38.921  1.00  0.00     0.040 A 
ATOM     76  C   UNL A   1      40.352  36.470  37.731  1.00  0.00     0.040 A 
ATOM     77  F   UNL A   1      41.111  35.992  35.562  1.00  0.00    -0.206 F 
ATOM     78  C   UNL A   1      39.641  36.104  38.871  1.00  0.00     0.006 A 
ENDBRANCH  50  71
BRANCH  62  79
ATOM     79  C   UNL A   1      44.071  29.058  35.081  1.00  0.00     0.057 A 
ATOM     80  C   UNL A   1      45.373  29.507  34.825  1.00  0.00     0.134 A 
ATOM     81  C   UNL A   1      43.913  28.058  36.051  1.00  0.00     0.134 A 
ATOM     82  F   UNL A   1      45.597  30.453  33.898  1.00  0.00    -0.206 F 
ATOM     83  C   UNL A   1      46.475  28.967  35.490  1.00  0.00     0.040 A 
ATOM     84  C   UNL A   1      45.003  27.533  36.744  1.00  0.00     0.040 A 
ATOM     85  F   UNL A   1      42.692  27.589  36.352  1.00  0.00    -0.206 F 
ATOM     86  C   UNL A   1      46.291  27.982  36.459  1.00  0.00     0.006 A 
ENDBRANCH  62  79
ENDBRANCH  36  37
ENDBRANCH  28  31
ENDBRANCH  26  27
ENDBRANCH  25  26
ENDBRANCH  24  25
ENDBRANCH   3  24
TORSDOF 16
ENDMDL
MODEL 2
REMARK VINA RESULT:     -10.8      1.057      6.394
REMARK SMILES CC(C)[C@H](NC(=O)[C@H](C)NC(=O)C[NH3+])C(=O)NCCCNC(=O)c1ccc(-c2c3nc(c(-c4c(F)cccc4F)c4ccc([nH]4)c(-c4c(F)cccc4F)c4nc(c(-c5c(F)cccc5F)c5ccc2[nH]5)C=C4)C=C3)cc1
REMARK SMILES IDX 15 1 16 2 17 3 4 5 2 6 1 7 3 8 5 9 6 10 7 12 8 13 9 14 10 15
REMARK SMILES IDX 11 16 12 18 13 19 14 20 18 24 19 25 20 26 21 27 22 28 23 30
REMARK SMILES IDX 24 31 25 32 77 33 26 34 76 35 27 36 28 37 29 38 70 39 30 40
REMARK SMILES IDX 75 41 69 42 71 43 31 44 74 45 68 46 67 47 32 49 58 50 41 51
REMARK SMILES IDX 57 52 42 53 45 54 56 55 72 56 43 57 44 58 55 60 73 61 46 62
REMARK SMILES IDX 33 63 34 64 39 65 35 66 36 67 38 68 40 69 37 70 59 71 60 72
REMARK SMILES IDX 65 73 61 74 62 75 64 76 66 77 63 78 47 79 48 80 53 81 49 82
REMARK SMILES IDX 50 83 52 84 54 85 51 86
REMARK H PARENT 17 4 5 11 10 17 14 21 14 22 14 23 21 29 71 48 45 59
REMARK Flexibility Score: inf
ROOT
ATOM      1  C   UNL A   1      33.544  29.108  26.814  1.00  0.00     0.242 C 
ATOM      2  O   UNL A   1      34.717  29.073  27.192  1.00  0.00    -0.273 OA
ATOM      3  N   UNL A   1      32.748  30.112  27.290  1.00  0.00    -0.354 N 
ATOM      4  H   UNL A   1      33.039  30.521  28.137  1.00  0.00     0.163 HD
ENDROOT
BRANCH   1   5
ATOM      5  C   UNL A   1      33.046  28.153  25.707  1.00  0.00     0.173 C 
BRANCH   5   6
ATOM      6  C   UNL A   1      33.195  26.689  26.214  1.00  0.00     0.015 C 
ATOM      7  C   UNL A   1      31.806  26.055  26.366  1.00  0.00     0.010 C 
ATOM      8  C   UNL A   1      34.078  25.776  25.363  1.00  0.00     0.010 C 
ENDBRANCH   5   6
BRANCH   5   9
ATOM      9  N   UNL A   1      33.694  28.462  24.432  1.00  0.00    -0.342 N 
ATOM     10  C   UNL A   1      33.118  28.610  23.198  1.00  0.00     0.242 C 
ATOM     11  H   UNL A   1      34.671  28.577  24.465  1.00  0.00     0.164 HD
ATOM     12  O   UNL A   1      33.861  28.948  22.274  1.00  0.00    -0.273 OA
BRANCH  10  13
ATOM     13  C   UNL A   1      31.610  28.319  22.992  1.00  0.00     0.168 C 
ATOM     14  C   UNL A   1      31.401  26.883  22.503  1.00  0.00     0.041 C 
BRANCH  13  15
ATOM     15  N   UNL A   1      31.030  29.225  22.001  1.00  0.00    -0.340 N 
ATOM     16  C   UNL A   1      29.894  29.979  22.107  1.00  0.00     0.275 C 
ATOM     17  H   UNL A   1      31.520  29.302  21.151  1.00  0.00     0.164 HD
ATOM     18  O   UNL A   1      29.378  30.419  21.078  1.00  0.00    -0.268 OA
BRANCH  16  19
ATOM     19  C   UNL A   1      29.294  30.262  23.487  1.00  0.00     0.360 C 
BRANCH  19  20
ATOM     20  N   UNL A   1      29.508  31.663  23.875  1.00  0.00    -0.350 N 
ATOM     21  H   UNL A   1      28.607  32.109  24.047  1.00  0.00     0.344 HD
ATOM     22  H   UNL A   1      29.992  32.153  23.122  1.00  0.00     0.344 HD
ATOM     23  H   UNL A   1      30.073  31.699  24.722  1.00  0.00     0.344 HD
ENDBRANCH  19  20
ENDBRANCH  16  19
ENDBRANCH  13  15
ENDBRANCH  10  13
ENDBRANCH   5   9
ENDBRANCH   1   5
BRANCH   3  24
ATOM     24  C   UNL A   1      31.532  30.653  26.716  1.00  0.00     0.117 C 
BRANCH  24  25
ATOM     25  C   UNL A   1      31.403  32.157  26.876  1.00  0.00     0.042 C 
BRANCH  25  26
ATOM     26  C   UNL A   1      32.737  32.866  27.057  1.00  0.00     0.118 C 
BRANCH  26  27
ATOM     27  N   UNL A   1      32.590  34.203  27.626  1.00  0.00    -0.352 N 
ATOM     28  C   UNL A   1      33.180  34.775  28.724  1.00  0.00     0.251 C 
ATOM     29  H   UNL A   1      31.964  34.789  27.143  1.00  0.00     0.163 HD
ATOM     30  O   UNL A   1      32.753  35.843  29.157  1.00  0.00    -0.269 OA
BRANCH  28  31
ATOM     31  C   UNL A   1      34.313  34.109  29.395  1.00  0.00     0.039 A 
ATOM     32  C   UNL A   1      34.055  33.134  30.362  1.00  0.00     0.014 A 
ATOM     33  C   UNL A   1      35.630  34.451  29.083  1.00  0.00     0.014 A 
ATOM     34  C   UNL A   1      35.116  32.453  30.959  1.00  0.00     0.010 A 
ATOM     35  C   UNL A   1      36.680  33.704  29.598  1.00  0.00     0.010 A 
ATOM     36  C   UNL A   1      36.437  32.702  30.549  1.00  0.00    -0.014 A 
BRANCH  36  37
ATOM     37  C   UNL A   1      37.578  31.935  31.103  1.00  0.00     0.031 A 
ATOM     38  C   UNL A   1      38.086  32.231  32.487  1.00  0.00     0.074 A 
ATOM     39  C   UNL A   1      38.205  31.025  30.332  1.00  0.00     0.049 A 
ATOM     40  N   UNL A   1      39.115  31.725  33.117  1.00  0.00    -0.248 NA
ATOM     41  C   UNL A   1      37.359  33.256  33.254  1.00  0.00     0.031 C 
ATOM     42  C   UNL A   1      37.843  30.688  28.954  1.00  0.00     0.029 A 
ATOM     43  N   UNL A   1      39.287  30.224  30.595  1.00  0.00    -0.354 N 
ATOM     44  C   UNL A   1      39.169  32.381  34.340  1.00  0.00     0.074 A 
ATOM     45  C   UNL A   1      38.109  33.364  34.340  1.00  0.00     0.031 C 
ATOM     46  C   UNL A   1      38.670  29.733  28.503  1.00  0.00     0.029 A 
ATOM     47  C   UNL A   1      39.646  29.419  29.540  1.00  0.00     0.049 A 
ATOM     48  H   UNL A   1      39.763  30.225  31.457  1.00  0.00     0.167 HD
ATOM     49  C   UNL A   1      40.008  32.165  35.380  1.00  0.00     0.037 A 
ATOM     50  C   UNL A   1      40.654  28.535  29.421  1.00  0.00     0.037 A 
ATOM     51  C   UNL A   1      41.048  31.170  35.383  1.00  0.00     0.049 A 
ATOM     52  C   UNL A   1      41.578  28.318  30.587  1.00  0.00     0.074 A 
ATOM     53  C   UNL A   1      41.911  30.828  36.408  1.00  0.00     0.029 A 
ATOM     54  N   UNL A   1      41.369  30.362  34.301  1.00  0.00    -0.354 N 
ATOM     55  N   UNL A   1      41.570  28.891  31.767  1.00  0.00    -0.248 NA
ATOM     56  C   UNL A   1      42.648  27.328  30.407  1.00  0.00     0.031 C 
ATOM     57  C   UNL A   1      42.789  29.849  35.931  1.00  0.00     0.029 A 
ATOM     58  C   UNL A   1      42.435  29.540  34.627  1.00  0.00     0.049 A 
ATOM     59  H   UNL A   1      40.907  30.372  33.432  1.00  0.00     0.167 HD
ATOM     60  C   UNL A   1      42.612  28.312  32.478  1.00  0.00     0.074 A 
ATOM     61  C   UNL A   1      43.221  27.331  31.602  1.00  0.00     0.031 C 
ATOM     62  C   UNL A   1      43.027  28.566  33.744  1.00  0.00     0.037 A 
BRANCH  49  63
ATOM     63  C   UNL A   1      39.834  33.025  36.600  1.00  0.00     0.057 A 
ATOM     64  C   UNL A   1      40.596  34.182  36.809  1.00  0.00     0.134 A 
ATOM     65  C   UNL A   1      38.875  32.703  37.570  1.00  0.00     0.134 A 
ATOM     66  F   UNL A   1      41.541  34.542  35.926  1.00  0.00    -0.206 F 
ATOM     67  C   UNL A   1      40.437  34.968  37.951  1.00  0.00     0.040 A 
ATOM     68  C   UNL A   1      38.684  33.498  38.702  1.00  0.00     0.040 A 
ATOM     69  F   UNL A   1      38.104  31.613  37.433  1.00  0.00    -0.206 F 
ATOM     70  C   UNL A   1      39.473  34.630  38.899  1.00  0.00     0.006 A 
ENDBRANCH  49  63
BRANCH  50  71
ATOM     71  C   UNL A   1      40.825  27.771  28.159  1.00  0.00     0.057 A 
ATOM     72  C   UNL A   1      41.589  28.282  27.105  1.00  0.00     0.134 A 
ATOM     73  C   UNL A   1      40.234  26.515  27.978  1.00  0.00     0.134 A 
ATOM     74  F   UNL A   1      42.169  29.487  27.212  1.00  0.00    -0.206 F 
ATOM     75  C   UNL A   1      41.744  27.583  25.906  1.00  0.00     0.040 A 
ATOM     76  C   UNL A   1      40.402  25.792  26.795  1.00  0.00     0.040 A 
ATOM     77  F   UNL A   1      39.497  25.965  28.955  1.00  0.00    -0.206 F 
ATOM     78  C   UNL A   1      41.153  26.329  25.752  1.00  0.00     0.006 A 
ENDBRANCH  50  71
BRANCH  62  79
ATOM     79  C   UNL A   1      44.171  27.748  34.269  1.00  0.00     0.057 A 
ATOM     80  C   UNL A   1      45.496  28.198  34.207  1.00  0.00     0.134 A 
ATOM     81  C   UNL A   1      43.937  26.510  34.883  1.00  0.00     0.134 A 
ATOM     82  F   UNL A   1      45.791  29.369  33.621  1.00  0.00    -0.206 F 
ATOM     83  C   UNL A   1      46.549  27.434  34.714  1.00  0.00     0.040 A 
ATOM     84  C   UNL A   1      44.977  25.753  35.420  1.00  0.00     0.040 A 
ATOM     85  F   UNL A   1      42.689  26.025  34.985  1.00  0.00    -0.206 F 
ATOM     86  C   UNL A   1      46.290  26.211  35.329  1.00  0.00     0.006 A 
ENDBRANCH  62  79
ENDBRANCH  36  37
ENDBRANCH  28  31
ENDBRANCH  26  27
ENDBRANCH  25  26
ENDBRANCH  24  25
ENDBRANCH   3  24
TORSDOF 16
ENDMDL
MODEL 3
REMARK VINA RESULT:     -10.8      6.254     11.079
REMARK SMILES CC(C)[C@H](NC(=O)[C@H](C)NC(=O)C[NH3+])C(=O)NCCCNC(=O)c1ccc(-c2c3nc(c(-c4c(F)cccc4F)c4ccc([nH]4)c(-c4c(F)cccc4F)c4nc(c(-c5c(F)cccc5F)c5ccc2[nH]5)C=C4)C=C3)cc1
REMARK SMILES IDX 15 1 16 2 17 3 4 5 2 6 1 7 3 8 5 9 6 10 7 12 8 13 9 14 10 15
REMARK SMILES IDX 11 16 12 18 13 19 14 20 18 24 19 25 20 26 21 27 22 28 23 30
REMARK SMILES IDX 24 31 25 32 77 33 26 34 76 35 27 36 28 37 29 38 70 39 30 40
REMARK SMILES IDX 75 41 69 42 71 43 31 44 74 45 68 46 67 47 32 49 58 50 41 51
REMARK SMILES IDX 57 52 42 53 45 54 56 55 72 56 43 57 44 58 55 60 73 61 46 62
REMARK SMILES IDX 33 63 34 64 39 65 35 66 36 67 38 68 40 69 37 70 59 71 60 72
REMARK SMILES IDX 65 73 61 74 62 75 64 76 66 77 63 78 47 79 48 80 53 81 49 82
REMARK SMILES IDX 50 83 52 84 54 85 51 86
REMARK H PARENT 17 4 5 11 10 17 14 21 14 22 14 23 21 29 71 48 45 59
REMARK Flexibility Score: inf
ROOT
ATOM      1  C   UNL A   1      36.786  23.137  25.166  1.00  0.00     0.242 C 
ATOM      2  O   UNL A   1      37.435  24.103  25.577  1.00  0.00    -0.273 OA
ATOM      3  N   UNL A   1      37.468  21.993  24.861  1.00  0.00    -0.354 N 
ATOM      4  H   UNL A   1      38.425  22.107  24.658  1.00  0.00     0.163 HD
ENDROOT
BRANCH   1   5
ATOM      5  C   UNL A   1      35.242  23.169  25.166  1.00  0.00     0.173 C 
BRANCH   5   6
ATOM      6  C   UNL A   1      34.778  24.570  24.670  1.00  0.00     0.015 C 
ATOM      7  C   UNL A   1      34.199  24.448  23.255  1.00  0.00     0.010 C 
ATOM      8  C   UNL A   1      33.774  25.294  25.568  1.00  0.00     0.010 C 
ENDBRANCH   5   6
BRANCH   5   9
ATOM      9  N   UNL A   1      34.719  22.739  26.462  1.00  0.00    -0.342 N 
ATOM     10  C   UNL A   1      33.880  21.691  26.737  1.00  0.00     0.242 C 
ATOM     11  H   UNL A   1      35.007  23.272  27.238  1.00  0.00     0.164 HD
ATOM     12  O   UNL A   1      33.633  21.473  27.925  1.00  0.00    -0.273 OA
BRANCH  10  13
ATOM     13  C   UNL A   1      33.251  20.863  25.588  1.00  0.00     0.168 C 
ATOM     14  C   UNL A   1      31.928  21.488  25.136  1.00  0.00     0.041 C 
BRANCH  13  15
ATOM     15  N   UNL A   1      32.982  19.491  26.015  1.00  0.00    -0.340 N 
ATOM     16  C   UNL A   1      32.749  18.392  25.235  1.00  0.00     0.275 C 
ATOM     17  H   UNL A   1      32.968  19.338  26.988  1.00  0.00     0.164 HD
ATOM     18  O   UNL A   1      32.220  17.404  25.747  1.00  0.00    -0.268 OA
BRANCH  16  19
ATOM     19  C   UNL A   1      33.150  18.410  23.757  1.00  0.00     0.360 C 
BRANCH  19  20
ATOM     20  N   UNL A   1      31.962  18.386  22.890  1.00  0.00    -0.350 N 
ATOM     21  H   UNL A   1      32.027  17.596  22.248  1.00  0.00     0.344 HD
ATOM     22  H   UNL A   1      31.914  19.254  22.357  1.00  0.00     0.344 HD
ATOM     23  H   UNL A   1      31.125  18.292  23.464  1.00  0.00     0.344 HD
ENDBRANCH  19  20
ENDBRANCH  16  19
ENDBRANCH  13  15
ENDBRANCH  10  13
ENDBRANCH   5   9
ENDBRANCH   1   5
BRANCH   3  24
ATOM     24  C   UNL A   1      36.971  20.632  24.794  1.00  0.00     0.117 C 
BRANCH  24  25
ATOM     25  C   UNL A   1      38.053  19.582  24.965  1.00  0.00     0.042 C 
BRANCH  25  26
ATOM     26  C   UNL A   1      39.251  20.068  25.768  1.00  0.00     0.118 C 
BRANCH  26  27
ATOM     27  N   UNL A   1      40.276  19.040  25.924  1.00  0.00    -0.352 N 
ATOM     28  C   UNL A   1      41.627  19.152  26.133  1.00  0.00     0.251 C 
ATOM     29  H   UNL A   1      39.944  18.115  25.868  1.00  0.00     0.163 HD
ATOM     30  O   UNL A   1      42.344  18.161  26.019  1.00  0.00    -0.269 OA
BRANCH  28  31
ATOM     31  C   UNL A   1      42.223  20.457  26.480  1.00  0.00     0.039 A 
ATOM     32  C   UNL A   1      42.796  21.235  25.470  1.00  0.00     0.014 A 
ATOM     33  C   UNL A   1      42.231  20.910  27.801  1.00  0.00     0.014 A 
ATOM     34  C   UNL A   1      43.306  22.496  25.775  1.00  0.00     0.010 A 
ATOM     35  C   UNL A   1      42.644  22.205  28.085  1.00  0.00     0.010 A 
ATOM     36  C   UNL A   1      43.194  23.010  27.078  1.00  0.00    -0.014 A 
BRANCH  36  37
ATOM     37  C   UNL A   1      43.651  24.381  27.413  1.00  0.00     0.031 A 
ATOM     38  C   UNL A   1      42.655  25.425  27.838  1.00  0.00     0.074 A 
ATOM     39  C   UNL A   1      44.949  24.706  27.259  1.00  0.00     0.049 A 
ATOM     40  N   UNL A   1      42.846  26.693  28.098  1.00  0.00    -0.248 NA
ATOM     41  C   UNL A   1      41.253  24.993  27.958  1.00  0.00     0.031 C 
ATOM     42  C   UNL A   1      46.001  23.798  26.799  1.00  0.00     0.029 A 
ATOM     43  N   UNL A   1      45.604  25.894  27.464  1.00  0.00    -0.354 N 
ATOM     44  C   UNL A   1      41.591  27.211  28.391  1.00  0.00     0.074 A 
ATOM     45  C   UNL A   1      40.638  26.137  28.218  1.00  0.00     0.031 C 
ATOM     46  C   UNL A   1      47.172  24.454  26.783  1.00  0.00     0.029 A 
ATOM     47  C   UNL A   1      46.948  25.837  27.188  1.00  0.00     0.049 A 
ATOM     48  H   UNL A   1      45.153  26.711  27.779  1.00  0.00     0.167 HD
ATOM     49  C   UNL A   1      41.264  28.461  28.795  1.00  0.00     0.037 A 
ATOM     50  C   UNL A   1      47.892  26.794  27.248  1.00  0.00     0.037 A 
ATOM     51  C   UNL A   1      42.219  29.521  28.986  1.00  0.00     0.049 A 
ATOM     52  C   UNL A   1      47.504  28.178  27.691  1.00  0.00     0.074 A 
ATOM     53  C   UNL A   1      42.001  30.804  29.454  1.00  0.00     0.029 A 
ATOM     54  N   UNL A   1      43.576  29.418  28.714  1.00  0.00    -0.354 N 
ATOM     55  N   UNL A   1      46.326  28.634  28.040  1.00  0.00    -0.248 NA
ATOM     56  C   UNL A   1      48.579  29.177  27.755  1.00  0.00     0.031 C 
ATOM     57  C   UNL A   1      43.216  31.495  29.414  1.00  0.00     0.029 A 
ATOM     58  C   UNL A   1      44.202  30.625  28.977  1.00  0.00     0.049 A 
ATOM     59  H   UNL A   1      44.026  28.608  28.381  1.00  0.00     0.167 HD
ATOM     60  C   UNL A   1      46.521  29.963  28.392  1.00  0.00     0.074 A 
ATOM     61  C   UNL A   1      47.935  30.234  28.228  1.00  0.00     0.031 C 
ATOM     62  C   UNL A   1      45.613  30.877  28.813  1.00  0.00     0.037 A 
BRANCH  49  63
ATOM     63  C   UNL A   1      39.813  28.747  29.054  1.00  0.00     0.057 A 
ATOM     64  C   UNL A   1      38.962  29.237  28.054  1.00  0.00     0.134 A 
ATOM     65  C   UNL A   1      39.251  28.510  30.316  1.00  0.00     0.134 A 
ATOM     66  F   UNL A   1      39.436  29.499  26.826  1.00  0.00    -0.206 F 
ATOM     67  C   UNL A   1      37.617  29.513  28.306  1.00  0.00     0.040 A 
ATOM     68  C   UNL A   1      37.900  28.751  30.573  1.00  0.00     0.040 A 
ATOM     69  F   UNL A   1      40.004  28.035  31.319  1.00  0.00    -0.206 F 
ATOM     70  C   UNL A   1      37.081  29.263  29.568  1.00  0.00     0.006 A 
ENDBRANCH  49  63
BRANCH  50  71
ATOM     71  C   UNL A   1      49.300  26.471  26.901  1.00  0.00     0.057 A 
ATOM     72  C   UNL A   1      49.788  26.670  25.605  1.00  0.00     0.134 A 
ATOM     73  C   UNL A   1      50.189  25.960  27.854  1.00  0.00     0.134 A 
ATOM     74  F   UNL A   1      48.980  27.143  24.644  1.00  0.00    -0.206 F 
ATOM     75  C   UNL A   1      51.104  26.353  25.262  1.00  0.00     0.040 A 
ATOM     76  C   UNL A   1      51.515  25.664  27.532  1.00  0.00     0.040 A 
ATOM     77  F   UNL A   1      49.786  25.755  29.117  1.00  0.00    -0.206 F 
ATOM     78  C   UNL A   1      51.974  25.853  26.230  1.00  0.00     0.006 A 
ENDBRANCH  50  71
BRANCH  62  79
ATOM     79  C   UNL A   1      46.125  32.244  29.162  1.00  0.00     0.057 A 
ATOM     80  C   UNL A   1      46.571  32.564  30.451  1.00  0.00     0.134 A 
ATOM     81  C   UNL A   1      46.209  33.243  28.183  1.00  0.00     0.134 A 
ATOM     82  F   UNL A   1      46.506  31.657  31.439  1.00  0.00    -0.206 F 
ATOM     83  C   UNL A   1      47.059  33.836  30.759  1.00  0.00     0.040 A 
ATOM     84  C   UNL A   1      46.723  34.507  28.472  1.00  0.00     0.040 A 
ATOM     85  F   UNL A   1      45.808  33.000  26.926  1.00  0.00    -0.206 F 
ATOM     86  C   UNL A   1      47.143  34.809  29.765  1.00  0.00     0.006 A 
ENDBRANCH  62  79
ENDBRANCH  36  37
ENDBRANCH  28  31
ENDBRANCH  26  27
ENDBRANCH  25  26
ENDBRANCH  24  25
ENDBRANCH   3  24
TORSDOF 16
ENDMDL
