MODEL 1
REMARK VINA RESULT:     -12.5      0.000      0.000
REMARK SMILES NS(=O)(=O)c1ccc(/N=C/c2ccc(O)c(C(=O)NCCCNC(=O)c3ccc(-c4c5nc(c(-c6c(F)cccc6F)c6ccc([nH]6)c(-c6c(F)cccc6F)c6nc(c(-c7c(F)cccc7F)c7ccc4[nH]7)C=C6)C=C5)cc3)c2)cc1
REMARK SMILES IDX 20 1 19 2 17 3 18 4 16 6 11 7 12 8 80 9 13 10 14 11 10 12
REMARK SMILES IDX 9 13 8 14 5 15 6 16 82 17 7 18 81 19 2 20 3 21 4 22 1 23
REMARK SMILES IDX 15 26 21 28 22 29 23 30 24 31 25 33 26 34 27 35 79 36 28 37
REMARK SMILES IDX 78 38 29 39 30 40 31 41 72 42 32 43 77 44 71 45 73 46 33 47
REMARK SMILES IDX 76 48 70 49 69 50 34 52 60 53 43 54 59 55 44 56 47 57 58 58
REMARK SMILES IDX 74 59 45 60 46 61 57 63 75 64 48 65 35 66 36 67 41 68 37 69
REMARK SMILES IDX 38 70 40 71 42 72 39 73 61 74 62 75 67 76 63 77 64 78 66 79
REMARK SMILES IDX 68 80 65 81 49 82 50 83 55 84 51 85 52 86 54 87 56 88 53 89
REMARK H PARENT 19 5 1 24 1 25 15 27 23 32 73 51 47 62
REMARK Flexibility Score: inf
ROOT
ATOM      1  C   UNL A   1      36.578  20.756  24.847  1.00  0.00     0.118 C 
ENDROOT
BRANCH   1   2
ATOM      2  N   UNL A   1      36.965  22.081  25.318  1.00  0.00    -0.352 N 
ATOM      3  C   UNL A   1      36.277  23.161  25.817  1.00  0.00     0.255 C 
ATOM      4  O   UNL A   1      36.936  24.163  26.112  1.00  0.00    -0.269 OA
ATOM      5  H   UNL A   1      37.936  22.237  25.264  1.00  0.00     0.163 HD
BRANCH   3   6
ATOM      6  C   UNL A   1      34.796  23.242  25.956  1.00  0.00     0.082 A 
ATOM      7  C   UNL A   1      32.680  24.371  25.571  1.00  0.00    -0.006 A 
ATOM      8  C   UNL A   1      32.048  23.583  26.529  1.00  0.00     0.013 A 
ATOM      9  C   UNL A   1      34.009  24.118  25.215  1.00  0.00     0.027 A 
ATOM     10  C   UNL A   1      32.777  22.575  27.161  1.00  0.00     0.047 A 
ATOM     11  C   UNL A   1      34.143  22.427  26.899  1.00  0.00     0.128 A 
BRANCH   7  12
ATOM     12  C   UNL A   1      32.013  25.578  25.028  1.00  0.00     0.119 C 
ATOM     13  N   UNL A   1      30.770  25.521  24.675  1.00  0.00    -0.256 NA
BRANCH  13  14
ATOM     14  C   UNL A   1      30.138  26.594  24.030  1.00  0.00     0.063 A 
ATOM     15  C   UNL A   1      29.000  28.917  22.935  1.00  0.00     0.082 A 
ATOM     16  C   UNL A   1      30.384  28.836  23.095  1.00  0.00     0.024 A 
ATOM     17  C   UNL A   1      28.179  27.857  23.325  1.00  0.00     0.024 A 
ATOM     18  C   UNL A   1      30.941  27.676  23.642  1.00  0.00     0.030 A 
ATOM     19  C   UNL A   1      28.750  26.704  23.877  1.00  0.00     0.030 A 
BRANCH  15  20
ATOM     20  S   UNL A   1      28.267  30.385  22.279  1.00  0.00     0.238 S 
ATOM     21  O   UNL A   1      27.263  30.875  23.196  1.00  0.00    -0.207 OA
ATOM     22  O   UNL A   1      28.008  30.187  20.874  1.00  0.00    -0.207 OA
BRANCH  20  23
ATOM     23  N   UNL A   1      29.530  31.490  22.374  1.00  0.00    -0.225 NA
ATOM     24  H   UNL A   1      29.387  32.229  21.687  1.00  0.00     0.137 HD
ATOM     25  H   UNL A   1      30.412  31.014  22.183  1.00  0.00     0.137 HD
ENDBRANCH  20  23
ENDBRANCH  15  20
ENDBRANCH  13  14
ENDBRANCH   7  12
BRANCH  11  26
ATOM     26  O   UNL A   1      34.782  21.452  27.620  1.00  0.00    -0.507 OA
ATOM     27  H   UNL A   1      34.924  21.566  28.539  1.00  0.00     0.293 HD
ENDBRANCH  11  26
ENDBRANCH   3   6
ENDBRANCH   1   2
BRANCH   1  28
ATOM     28  C   UNL A   1      37.662  19.704  25.000  1.00  0.00     0.042 C 
BRANCH  28  29
ATOM     29  C   UNL A   1      38.888  20.175  25.761  1.00  0.00     0.118 C 
BRANCH  29  30
ATOM     30  N   UNL A   1      39.939  19.165  25.821  1.00  0.00    -0.352 N 
ATOM     31  C   UNL A   1      41.301  19.287  25.952  1.00  0.00     0.251 C 
ATOM     32  H   UNL A   1      39.616  18.237  25.758  1.00  0.00     0.163 HD
ATOM     33  O   UNL A   1      42.016  18.309  25.753  1.00  0.00    -0.269 OA
BRANCH  31  34
ATOM     34  C   UNL A   1      41.913  20.581  26.317  1.00  0.00     0.039 A 
ATOM     35  C   UNL A   1      42.284  21.472  25.306  1.00  0.00     0.014 A 
ATOM     36  C   UNL A   1      42.149  20.911  27.653  1.00  0.00     0.014 A 
ATOM     37  C   UNL A   1      42.818  22.718  25.641  1.00  0.00     0.010 A 
ATOM     38  C   UNL A   1      42.570  22.191  27.988  1.00  0.00     0.010 A 
ATOM     39  C   UNL A   1      42.924  23.106  26.986  1.00  0.00    -0.014 A 
BRANCH  39  40
ATOM     40  C   UNL A   1      43.413  24.452  27.375  1.00  0.00     0.031 A 
ATOM     41  C   UNL A   1      42.439  25.510  27.817  1.00  0.00     0.074 A 
ATOM     42  C   UNL A   1      44.723  24.744  27.257  1.00  0.00     0.049 A 
ATOM     43  N   UNL A   1      42.659  26.766  28.115  1.00  0.00    -0.248 NA
ATOM     44  C   UNL A   1      41.023  25.115  27.906  1.00  0.00     0.031 C 
ATOM     45  C   UNL A   1      45.760  23.821  26.789  1.00  0.00     0.029 A 
ATOM     46  N   UNL A   1      45.407  25.907  27.511  1.00  0.00    -0.354 N 
ATOM     47  C   UNL A   1      41.414  27.308  28.407  1.00  0.00     0.074 A 
ATOM     48  C   UNL A   1      40.436  26.267  28.188  1.00  0.00     0.031 C 
ATOM     49  C   UNL A   1      46.949  24.441  26.819  1.00  0.00     0.029 A 
ATOM     50  C   UNL A   1      46.756  25.819  27.260  1.00  0.00     0.049 A 
ATOM     51  H   UNL A   1      44.974  26.726  27.841  1.00  0.00     0.167 HD
ATOM     52  C   UNL A   1      41.114  28.554  28.847  1.00  0.00     0.037 A 
ATOM     53  C   UNL A   1      47.725  26.747  27.365  1.00  0.00     0.037 A 
ATOM     54  C   UNL A   1      42.096  29.580  29.084  1.00  0.00     0.049 A 
ATOM     55  C   UNL A   1      47.364  28.128  27.838  1.00  0.00     0.074 A 
ATOM     56  C   UNL A   1      41.905  30.856  29.585  1.00  0.00     0.029 A 
ATOM     57  N   UNL A   1      43.454  29.448  28.831  1.00  0.00    -0.354 N 
ATOM     58  N   UNL A   1      46.192  28.607  28.181  1.00  0.00    -0.248 NA
ATOM     59  C   UNL A   1      48.463  29.098  27.945  1.00  0.00     0.031 C 
ATOM     60  C   UNL A   1      43.138  31.515  29.579  1.00  0.00     0.029 A 
ATOM     61  C   UNL A   1      44.108  30.629  29.138  1.00  0.00     0.049 A 
ATOM     62  H   UNL A   1      43.887  28.634  28.485  1.00  0.00     0.167 HD
ATOM     63  C   UNL A   1      46.418  29.919  28.575  1.00  0.00     0.074 A 
ATOM     64  C   UNL A   1      47.840  30.156  28.443  1.00  0.00     0.031 C 
ATOM     65  C   UNL A   1      45.527  30.845  29.007  1.00  0.00     0.037 A 
BRANCH  52  66
ATOM     66  C   UNL A   1      39.668  28.873  29.101  1.00  0.00     0.057 A 
ATOM     67  C   UNL A   1      38.816  29.319  28.082  1.00  0.00     0.134 A 
ATOM     68  C   UNL A   1      39.113  28.705  30.376  1.00  0.00     0.134 A 
ATOM     69  F   UNL A   1      39.285  29.513  26.839  1.00  0.00    -0.206 F 
ATOM     70  C   UNL A   1      37.474  29.614  28.326  1.00  0.00     0.040 A 
ATOM     71  C   UNL A   1      37.764  28.966  30.626  1.00  0.00     0.040 A 
ATOM     72  F   UNL A   1      39.867  28.276  31.399  1.00  0.00    -0.206 F 
ATOM     73  C   UNL A   1      36.942  29.430  29.601  1.00  0.00     0.006 A 
ENDBRANCH  52  66
BRANCH  53  74
ATOM     74  C   UNL A   1      49.131  26.399  27.034  1.00  0.00     0.057 A 
ATOM     75  C   UNL A   1      49.622  26.535  25.730  1.00  0.00     0.134 A 
ATOM     76  C   UNL A   1      50.014  25.912  28.006  1.00  0.00     0.134 A 
ATOM     77  F   UNL A   1      48.821  26.978  24.751  1.00  0.00    -0.206 F 
ATOM     78  C   UNL A   1      50.931  26.177  25.399  1.00  0.00     0.040 A 
ATOM     79  C   UNL A   1      51.333  25.580  27.696  1.00  0.00     0.040 A 
ATOM     80  F   UNL A   1      49.609  25.767  29.277  1.00  0.00    -0.206 F 
ATOM     81  C   UNL A   1      51.792  25.703  26.386  1.00  0.00     0.006 A 
ENDBRANCH  53  74
BRANCH  65  82
ATOM     82  C   UNL A   1      46.069  32.187  29.411  1.00  0.00     0.057 A 
ATOM     83  C   UNL A   1      46.519  32.446  30.712  1.00  0.00     0.134 A 
ATOM     84  C   UNL A   1      46.179  33.221  28.471  1.00  0.00     0.134 A 
ATOM     85  F   UNL A   1      46.431  31.504  31.663  1.00  0.00    -0.206 F 
ATOM     86  C   UNL A   1      47.033  33.693  31.070  1.00  0.00     0.040 A 
ATOM     87  C   UNL A   1      46.721  34.461  28.809  1.00  0.00     0.040 A 
ATOM     88  F   UNL A   1      45.778  33.036  27.204  1.00  0.00    -0.206 F 
ATOM     89  C   UNL A   1      47.143  34.703  30.115  1.00  0.00     0.006 A 
ENDBRANCH  65  82
ENDBRANCH  39  40
ENDBRANCH  31  34
ENDBRANCH  29  30
ENDBRANCH  28  29
ENDBRANCH   1  28
TORSDOF 15
ENDMDL
MODEL 2
REMARK VINA RESULT:     -12.4      1.173      6.306
REMARK SMILES NS(=O)(=O)c1ccc(/N=C/c2ccc(O)c(C(=O)NCCCNC(=O)c3ccc(-c4c5nc(c(-c6c(F)cccc6F)c6ccc([nH]6)c(-c6c(F)cccc6F)c6nc(c(-c7c(F)cccc7F)c7ccc4[nH]7)C=C6)C=C5)cc3)c2)cc1
REMARK SMILES IDX 20 1 19 2 17 3 18 4 16 6 11 7 12 8 80 9 13 10 14 11 10 12
REMARK SMILES IDX 9 13 8 14 5 15 6 16 82 17 7 18 81 19 2 20 3 21 4 22 1 23
REMARK SMILES IDX 15 26 21 28 22 29 23 30 24 31 25 33 26 34 27 35 79 36 28 37
REMARK SMILES IDX 78 38 29 39 30 40 31 41 72 42 32 43 77 44 71 45 73 46 33 47
REMARK SMILES IDX 76 48 70 49 69 50 34 52 60 53 43 54 59 55 44 56 47 57 58 58
REMARK SMILES IDX 74 59 45 60 46 61 57 63 75 64 48 65 35 66 36 67 41 68 37 69
REMARK SMILES IDX 38 70 40 71 42 72 39 73 61 74 62 75 67 76 63 77 64 78 66 79
REMARK SMILES IDX 68 80 65 81 49 82 50 83 55 84 51 85 52 86 54 87 56 88 53 89
REMARK H PARENT 19 5 1 24 1 25 15 27 23 32 73 51 47 62
REMARK Flexibility Score: inf
ROOT
ATOM      1  C   UNL A   1      36.685  20.641  24.870  1.00  0.00     0.118 C 
ENDROOT
BRANCH   1   2
ATOM      2  N   UNL A   1      36.996  22.018  25.236  1.00  0.00    -0.352 N 
ATOM      3  C   UNL A   1      36.245  23.097  25.640  1.00  0.00     0.255 C 
ATOM      4  O   UNL A   1      36.848  24.153  25.860  1.00  0.00    -0.269 OA
ATOM      5  H   UNL A   1      37.958  22.221  25.181  1.00  0.00     0.163 HD
BRANCH   3   6
ATOM      6  C   UNL A   1      34.760  23.111  25.756  1.00  0.00     0.082 A 
ATOM      7  C   UNL A   1      32.593  24.070  25.228  1.00  0.00    -0.006 A 
ATOM      8  C   UNL A   1      31.991  23.361  26.263  1.00  0.00     0.013 A 
ATOM      9  C   UNL A   1      33.938  23.853  24.914  1.00  0.00     0.027 A 
ATOM     10  C   UNL A   1      32.763  22.473  27.012  1.00  0.00     0.047 A 
ATOM     11  C   UNL A   1      34.139  22.373  26.779  1.00  0.00     0.128 A 
BRANCH   7  12
ATOM     12  C   UNL A   1      31.870  25.170  24.545  1.00  0.00     0.119 C 
ATOM     13  N   UNL A   1      31.679  26.292  25.161  1.00  0.00    -0.256 NA
BRANCH  13  14
ATOM     14  C   UNL A   1      30.884  27.308  24.610  1.00  0.00     0.063 A 
ATOM     15  C   UNL A   1      29.302  29.193  23.256  1.00  0.00     0.082 A 
ATOM     16  C   UNL A   1      28.924  27.850  23.261  1.00  0.00     0.024 A 
ATOM     17  C   UNL A   1      30.466  29.602  23.910  1.00  0.00     0.024 A 
ATOM     18  C   UNL A   1      29.718  26.918  23.937  1.00  0.00     0.030 A 
ATOM     19  C   UNL A   1      31.255  28.658  24.578  1.00  0.00     0.030 A 
BRANCH  15  20
ATOM     20  S   UNL A   1      28.336  30.385  22.380  1.00  0.00     0.238 S 
ATOM     21  O   UNL A   1      27.303  30.902  23.249  1.00  0.00    -0.207 OA
ATOM     22  O   UNL A   1      28.061  29.879  21.058  1.00  0.00    -0.207 OA
BRANCH  20  23
ATOM     23  N   UNL A   1      29.423  31.651  22.182  1.00  0.00    -0.225 NA
ATOM     24  H   UNL A   1      29.008  32.513  22.536  1.00  0.00     0.137 HD
ATOM     25  H   UNL A   1      29.640  31.761  21.191  1.00  0.00     0.137 HD
ENDBRANCH  20  23
ENDBRANCH  15  20
ENDBRANCH  13  14
ENDBRANCH   7  12
BRANCH  11  26
ATOM     26  O   UNL A   1      34.819  21.523  27.612  1.00  0.00    -0.507 OA
ATOM     27  H   UNL A   1      35.654  21.773  27.959  1.00  0.00     0.293 HD
ENDBRANCH  11  26
ENDBRANCH   3   6
ENDBRANCH   1   2
BRANCH   1  28
ATOM     28  C   UNL A   1      37.866  19.692  24.971  1.00  0.00     0.042 C 
BRANCH  28  29
ATOM     29  C   UNL A   1      38.930  20.122  25.964  1.00  0.00     0.118 C 
BRANCH  29  30
ATOM     30  N   UNL A   1      40.108  19.262  25.937  1.00  0.00    -0.352 N 
ATOM     31  C   UNL A   1      41.444  19.558  26.064  1.00  0.00     0.251 C 
ATOM     32  H   UNL A   1      39.913  18.307  25.804  1.00  0.00     0.163 HD
ATOM     33  O   UNL A   1      42.281  18.704  25.784  1.00  0.00    -0.269 OA
BRANCH  31  34
ATOM     34  C   UNL A   1      41.882  20.892  26.523  1.00  0.00     0.039 A 
ATOM     35  C   UNL A   1      42.275  21.846  25.580  1.00  0.00     0.014 A 
ATOM     36  C   UNL A   1      41.936  21.200  27.884  1.00  0.00     0.014 A 
ATOM     37  C   UNL A   1      42.645  23.125  26.000  1.00  0.00     0.010 A 
ATOM     38  C   UNL A   1      42.190  22.503  28.292  1.00  0.00     0.010 A 
ATOM     39  C   UNL A   1      42.562  23.478  27.356  1.00  0.00    -0.014 A 
BRANCH  39  40
ATOM     40  C   UNL A   1      42.872  24.852  27.826  1.00  0.00     0.031 A 
ATOM     41  C   UNL A   1      44.299  25.254  28.091  1.00  0.00     0.074 A 
ATOM     42  C   UNL A   1      41.867  25.710  28.086  1.00  0.00     0.049 A 
ATOM     43  N   UNL A   1      44.765  26.374  28.583  1.00  0.00    -0.248 NA
ATOM     44  C   UNL A   1      45.337  24.252  27.795  1.00  0.00     0.031 C 
ATOM     45  C   UNL A   1      40.441  25.421  27.920  1.00  0.00     0.029 A 
ATOM     46  N   UNL A   1      41.890  27.000  28.556  1.00  0.00    -0.354 N 
ATOM     47  C   UNL A   1      46.141  26.203  28.669  1.00  0.00     0.074 A 
ATOM     48  C   UNL A   1      46.429  24.852  28.244  1.00  0.00     0.031 C 
ATOM     49  C   UNL A   1      39.730  26.510  28.252  1.00  0.00     0.029 A 
ATOM     50  C   UNL A   1      40.642  27.556  28.701  1.00  0.00     0.049 A 
ATOM     51  H   UNL A   1      42.722  27.480  28.769  1.00  0.00     0.167 HD
ATOM     52  C   UNL A   1      47.084  27.101  29.042  1.00  0.00     0.037 A 
ATOM     53  C   UNL A   1      40.275  28.769  29.154  1.00  0.00     0.037 A 
ATOM     54  C   UNL A   1      46.793  28.452  29.445  1.00  0.00     0.049 A 
ATOM     55  C   UNL A   1      41.339  29.742  29.579  1.00  0.00     0.074 A 
ATOM     56  C   UNL A   1      47.678  29.459  29.786  1.00  0.00     0.029 A 
ATOM     57  N   UNL A   1      45.516  28.982  29.566  1.00  0.00    -0.354 N 
ATOM     58  N   UNL A   1      42.643  29.593  29.587  1.00  0.00    -0.248 NA
ATOM     59  C   UNL A   1      40.883  31.056  30.054  1.00  0.00     0.031 C 
ATOM     60  C   UNL A   1      46.936  30.580  30.170  1.00  0.00     0.029 A 
ATOM     61  C   UNL A   1      45.590  30.294  30.004  1.00  0.00     0.049 A 
ATOM     62  H   UNL A   1      44.682  28.497  29.368  1.00  0.00     0.167 HD
ATOM     63  C   UNL A   1      43.161  30.801  30.034  1.00  0.00     0.074 A 
ATOM     64  C   UNL A   1      42.033  31.677  30.272  1.00  0.00     0.031 C 
ATOM     65  C   UNL A   1      44.456  31.154  30.230  1.00  0.00     0.037 A 
BRANCH  52  66
ATOM     66  C   UNL A   1      48.517  26.650  29.030  1.00  0.00     0.057 A 
ATOM     67  C   UNL A   1      49.125  26.080  30.157  1.00  0.00     0.134 A 
ATOM     68  C   UNL A   1      49.292  26.761  27.869  1.00  0.00     0.134 A 
ATOM     69  F   UNL A   1      48.445  25.955  31.307  1.00  0.00    -0.206 F 
ATOM     70  C   UNL A   1      50.458  25.664  30.139  1.00  0.00     0.040 A 
ATOM     71  C   UNL A   1      50.616  26.319  27.827  1.00  0.00     0.040 A 
ATOM     72  F   UNL A   1      48.775  27.292  26.751  1.00  0.00    -0.206 F 
ATOM     73  C   UNL A   1      51.205  25.776  28.968  1.00  0.00     0.006 A 
ENDBRANCH  52  66
BRANCH  53  74
ATOM     74  C   UNL A   1      38.838  29.141  29.211  1.00  0.00     0.057 A 
ATOM     75  C   UNL A   1      38.181  29.665  28.092  1.00  0.00     0.134 A 
ATOM     76  C   UNL A   1      38.088  28.992  30.385  1.00  0.00     0.134 A 
ATOM     77  F   UNL A   1      38.848  29.849  26.943  1.00  0.00    -0.206 F 
ATOM     78  C   UNL A   1      36.840  30.051  28.143  1.00  0.00     0.040 A 
ATOM     79  C   UNL A   1      36.739  29.345  30.442  1.00  0.00     0.040 A 
ATOM     80  F   UNL A   1      38.654  28.486  31.490  1.00  0.00    -0.206 F 
ATOM     81  C   UNL A   1      36.114  29.886  29.320  1.00  0.00     0.006 A 
ENDBRANCH  53  74
BRANCH  65  82
ATOM     82  C   UNL A   1      44.725  32.560  30.684  1.00  0.00     0.057 A 
ATOM     83  C   UNL A   1      44.882  33.618  29.778  1.00  0.00     0.134 A 
ATOM     84  C   UNL A   1      44.787  32.866  32.051  1.00  0.00     0.134 A 
ATOM     85  F   UNL A   1      44.846  33.392  28.456  1.00  0.00    -0.206 F 
ATOM     86  C   UNL A   1      45.119  34.922  30.214  1.00  0.00     0.040 A 
ATOM     87  C   UNL A   1      44.991  34.171  32.499  1.00  0.00     0.040 A 
ATOM     88  F   UNL A   1      44.633  31.903  32.972  1.00  0.00    -0.206 F 
ATOM     89  C   UNL A   1      45.166  35.203  31.579  1.00  0.00     0.006 A 
ENDBRANCH  65  82
ENDBRANCH  39  40
ENDBRANCH  31  34
ENDBRANCH  29  30
ENDBRANCH  28  29
ENDBRANCH   1  28
TORSDOF 15
ENDMDL
MODEL 3
REMARK VINA RESULT:     -12.3      5.303     10.596
REMARK SMILES NS(=O)(=O)c1ccc(/N=C/c2ccc(O)c(C(=O)NCCCNC(=O)c3ccc(-c4c5nc(c(-c6c(F)cccc6F)c6ccc([nH]6)c(-c6c(F)cccc6F)c6nc(c(-c7c(F)cccc7F)c7ccc4[nH]7)C=C6)C=C5)cc3)c2)cc1
REMARK SMILES IDX 20 1 19 2 17 3 18 4 16 6 11 7 12 8 80 9 13 10 14 11 10 12
REMARK SMILES IDX 9 13 8 14 5 15 6 16 82 17 7 18 81 19 2 20 3 21 4 22 1 23
REMARK SMILES IDX 15 26 21 28 22 29 23 30 24 31 25 33 26 34 27 35 79 36 28 37
REMARK SMILES IDX 78 38 29 39 30 40 31 41 72 42 32 43 77 44 71 45 73 46 33 47
REMARK SMILES IDX 76 48 70 49 69 50 34 52 60 53 43 54 59 55 44 56 47 57 58 58
REMARK SMILES IDX 74 59 45 60 46 61 57 63 75 64 48 65 35 66 36 67 41 68 37 69
REMARK SMILES IDX 38 70 40 71 42 72 39 73 61 74 62 75 67 76 63 77 64 78 66 79
REMARK SMILES IDX 68 80 65 81 49 82 50 83 55 84 51 85 52 86 54 87 56 88 53 89
REMARK H PARENT 19 5 1 24 1 25 15 27 23 32 73 51 47 62
REMARK Flexibility Score: inf
ROOT
ATOM      1  C   UNL A   1      31.653  30.196  26.615  1.00  0.00     0.118 C 
ENDROOT
BRANCH   1   2
ATOM      2  N   UNL A   1      32.975  29.741  27.030  1.00  0.00    -0.352 N 
ATOM      3  C   UNL A   1      33.851  28.788  26.566  1.00  0.00     0.255 C 
ATOM      4  O   UNL A   1      34.911  28.649  27.184  1.00  0.00    -0.269 OA
ATOM      5  H   UNL A   1      33.316  30.223  27.818  1.00  0.00     0.163 HD
BRANCH   3   6
ATOM      6  C   UNL A   1      33.586  27.862  25.430  1.00  0.00     0.082 A 
ATOM      7  C   UNL A   1      33.425  25.624  24.500  1.00  0.00    -0.006 A 
ATOM      8  C   UNL A   1      33.441  26.128  23.202  1.00  0.00     0.013 A 
ATOM      9  C   UNL A   1      33.382  26.495  25.593  1.00  0.00     0.027 A 
ATOM     10  C   UNL A   1      33.465  27.510  23.015  1.00  0.00     0.047 A 
ATOM     11  C   UNL A   1      33.567  28.366  24.117  1.00  0.00     0.128 A 
BRANCH   7  12
ATOM     12  C   UNL A   1      33.608  24.175  24.749  1.00  0.00     0.119 C 
ATOM     13  N   UNL A   1      33.302  23.321  23.826  1.00  0.00    -0.256 NA
BRANCH  13  14
ATOM     14  C   UNL A   1      33.328  21.939  24.065  1.00  0.00     0.063 A 
ATOM     15  C   UNL A   1      33.643  19.171  24.420  1.00  0.00     0.082 A 
ATOM     16  C   UNL A   1      34.609  20.045  24.919  1.00  0.00     0.024 A 
ATOM     17  C   UNL A   1      32.529  19.662  23.737  1.00  0.00     0.024 A 
ATOM     18  C   UNL A   1      34.444  21.422  24.737  1.00  0.00     0.030 A 
ATOM     19  C   UNL A   1      32.379  21.042  23.556  1.00  0.00     0.030 A 
BRANCH  15  20
ATOM     20  S   UNL A   1      33.845  17.425  24.606  1.00  0.00     0.238 S 
ATOM     21  O   UNL A   1      35.249  17.113  24.746  1.00  0.00    -0.207 OA
ATOM     22  O   UNL A   1      32.989  16.755  23.658  1.00  0.00    -0.207 OA
BRANCH  20  23
ATOM     23  N   UNL A   1      33.177  17.147  26.123  1.00  0.00    -0.225 NA
ATOM     24  H   UNL A   1      33.836  16.616  26.692  1.00  0.00     0.137 HD
ATOM     25  H   UNL A   1      32.311  16.615  26.021  1.00  0.00     0.137 HD
ENDBRANCH  20  23
ENDBRANCH  15  20
ENDBRANCH  13  14
ENDBRANCH   7  12
BRANCH  11  26
ATOM     26  O   UNL A   1      33.652  29.702  23.823  1.00  0.00    -0.507 OA
ATOM     27  H   UNL A   1      34.293  30.236  24.250  1.00  0.00     0.293 HD
ENDBRANCH  11  26
ENDBRANCH   3   6
ENDBRANCH   1   2
BRANCH   1  28
ATOM     28  C   UNL A   1      31.463  31.701  26.697  1.00  0.00     0.042 C 
BRANCH  28  29
ATOM     29  C   UNL A   1      32.751  32.485  26.873  1.00  0.00     0.118 C 
BRANCH  29  30
ATOM     30  N   UNL A   1      32.524  33.839  27.364  1.00  0.00    -0.352 N 
ATOM     31  C   UNL A   1      33.058  34.511  28.437  1.00  0.00     0.251 C 
ATOM     32  H   UNL A   1      31.878  34.362  26.836  1.00  0.00     0.163 HD
ATOM     33  O   UNL A   1      32.555  35.572  28.796  1.00  0.00    -0.269 OA
BRANCH  31  34
ATOM     34  C   UNL A   1      34.221  33.967  29.168  1.00  0.00     0.039 A 
ATOM     35  C   UNL A   1      34.018  32.996  30.153  1.00  0.00     0.014 A 
ATOM     36  C   UNL A   1      35.512  34.429  28.906  1.00  0.00     0.014 A 
ATOM     37  C   UNL A   1      35.114  32.440  30.815  1.00  0.00     0.010 A 
ATOM     38  C   UNL A   1      36.607  33.794  29.479  1.00  0.00     0.010 A 
ATOM     39  C   UNL A   1      36.420  32.802  30.451  1.00  0.00    -0.014 A 
BRANCH  39  40
ATOM     40  C   UNL A   1      37.609  32.173  31.081  1.00  0.00     0.031 A 
ATOM     41  C   UNL A   1      38.344  31.070  30.367  1.00  0.00     0.074 A 
ATOM     42  C   UNL A   1      37.979  32.541  32.323  1.00  0.00     0.049 A 
ATOM     43  N   UNL A   1      39.348  30.340  30.784  1.00  0.00    -0.248 NA
ATOM     44  C   UNL A   1      37.868  30.717  29.019  1.00  0.00     0.031 C 
ATOM     45  C   UNL A   1      37.314  33.560  33.139  1.00  0.00     0.029 A 
ATOM     46  N   UNL A   1      39.000  32.091  33.123  1.00  0.00    -0.354 N 
ATOM     47  C   UNL A   1      39.608  29.438  29.761  1.00  0.00     0.074 A 
ATOM     48  C   UNL A   1      38.618  29.665  28.732  1.00  0.00     0.031 C 
ATOM     49  C   UNL A   1      37.962  33.679  34.308  1.00  0.00     0.029 A 
ATOM     50  C   UNL A   1      39.055  32.714  34.346  1.00  0.00     0.049 A 
ATOM     51  H   UNL A   1      39.631  31.389  32.846  1.00  0.00     0.167 HD
ATOM     52  C   UNL A   1      40.601  28.521  29.672  1.00  0.00     0.037 A 
ATOM     53  C   UNL A   1      39.888  32.521  35.386  1.00  0.00     0.037 A 
ATOM     54  C   UNL A   1      41.597  28.314  30.690  1.00  0.00     0.049 A 
ATOM     55  C   UNL A   1      40.971  31.484  35.270  1.00  0.00     0.074 A 
ATOM     56  C   UNL A   1      42.680  27.452  30.674  1.00  0.00     0.029 A 
ATOM     57  N   UNL A   1      41.628  28.974  31.910  1.00  0.00    -0.354 N 
ATOM     58  N   UNL A   1      41.252  30.687  34.267  1.00  0.00    -0.248 NA
ATOM     59  C   UNL A   1      41.860  31.323  36.430  1.00  0.00     0.031 C 
ATOM     60  C   UNL A   1      43.331  27.548  31.908  1.00  0.00     0.029 A 
ATOM     61  C   UNL A   1      42.695  28.518  32.667  1.00  0.00     0.049 A 
ATOM     62  H   UNL A   1      40.987  29.665  32.195  1.00  0.00     0.167 HD
ATOM     63  C   UNL A   1      42.365  29.956  34.661  1.00  0.00     0.074 A 
ATOM     64  C   UNL A   1      42.717  30.416  35.988  1.00  0.00     0.031 C 
ATOM     65  C   UNL A   1      43.035  28.991  33.984  1.00  0.00     0.037 A 
BRANCH  52  66
ATOM     66  C   UNL A   1      40.658  27.675  28.431  1.00  0.00     0.057 A 
ATOM     67  C   UNL A   1      41.391  28.062  27.302  1.00  0.00     0.134 A 
ATOM     68  C   UNL A   1      39.996  26.442  28.376  1.00  0.00     0.134 A 
ATOM     69  F   UNL A   1      42.040  29.237  27.281  1.00  0.00    -0.206 F 
ATOM     70  C   UNL A   1      41.438  27.271  26.152  1.00  0.00     0.040 A 
ATOM     71  C   UNL A   1      40.061  25.626  27.245  1.00  0.00     0.040 A 
ATOM     72  F   UNL A   1      39.279  26.004  29.422  1.00  0.00    -0.206 F 
ATOM     73  C   UNL A   1      40.778  26.044  26.125  1.00  0.00     0.006 A 
ENDBRANCH  52  66
BRANCH  53  74
ATOM     74  C   UNL A   1      39.745  33.337  36.619  1.00  0.00     0.057 A 
ATOM     75  C   UNL A   1      38.863  32.960  37.638  1.00  0.00     0.134 A 
ATOM     76  C   UNL A   1      40.476  34.518  36.805  1.00  0.00     0.134 A 
ATOM     77  F   UNL A   1      38.121  31.850  37.512  1.00  0.00    -0.206 F 
ATOM     78  C   UNL A   1      38.692  33.738  38.785  1.00  0.00     0.040 A 
ATOM     79  C   UNL A   1      40.338  35.289  37.961  1.00  0.00     0.040 A 
ATOM     80  F   UNL A   1      41.346  34.931  35.872  1.00  0.00    -0.206 F 
ATOM     81  C   UNL A   1      39.437  34.903  38.951  1.00  0.00     0.006 A 
ENDBRANCH  53  74
BRANCH  65  82
ATOM     82  C   UNL A   1      44.245  28.397  34.650  1.00  0.00     0.057 A 
ATOM     83  C   UNL A   1      45.518  28.967  34.522  1.00  0.00     0.134 A 
ATOM     84  C   UNL A   1      44.123  27.262  35.462  1.00  0.00     0.134 A 
ATOM     85  F   UNL A   1      45.707  30.048  33.749  1.00  0.00    -0.206 F 
ATOM     86  C   UNL A   1      46.631  28.413  35.155  1.00  0.00     0.040 A 
ATOM     87  C   UNL A   1      45.222  26.718  36.126  1.00  0.00     0.040 A 
ATOM     88  F   UNL A   1      42.930  26.674  35.636  1.00  0.00    -0.206 F 
ATOM     89  C   UNL A   1      46.483  27.289  35.968  1.00  0.00     0.006 A 
ENDBRANCH  65  82
ENDBRANCH  39  40
ENDBRANCH  31  34
ENDBRANCH  29  30
ENDBRANCH  28  29
ENDBRANCH   1  28
TORSDOF 15
ENDMDL
