MODEL 1
REMARK VINA RESULT:     -11.3      0.000      0.000
REMARK SMILES O=C(CSc1ccccc1C(=O)NCCCNC(=O)c1ccc(-c2c3nc(c(-c4c(F)cccc4F)c4ccc([nH]4)c(-c4c(F)cccc4F)c4nc(c(-c5c(F)cccc5F)c5ccc2[nH]5)C=C4)C=C3)cc1)c1ccc(Cl)cc1
REMARK SMILES IDX 14 1 13 2 11 3 12 4 10 6 5 7 6 8 7 9 9 10 8 11 4 12 3 13
REMARK SMILES IDX 2 14 1 15 74 16 75 17 80 18 76 19 79 20 77 21 78 22 15 23
REMARK SMILES IDX 16 24 17 25 18 26 19 28 20 29 21 30 73 31 22 32 72 33 23 34
REMARK SMILES IDX 24 35 25 36 66 37 26 38 71 39 65 40 67 41 27 42 70 43 64 44
REMARK SMILES IDX 63 45 28 47 54 48 37 49 53 50 38 51 41 52 52 53 68 54 39 55
REMARK SMILES IDX 40 56 51 58 69 59 42 60 29 61 30 62 35 63 31 64 32 65 34 66
REMARK SMILES IDX 36 67 33 68 55 69 56 70 61 71 57 72 58 73 60 74 62 75 59 76
REMARK SMILES IDX 43 77 44 78 49 79 45 80 46 81 48 82 50 83 47 84
REMARK H PARENT 13 5 17 27 67 46 41 57
REMARK Flexibility Score: inf
ROOT
ATOM      1  C   UNL A   1      32.336  26.263  26.188  1.00  0.00     0.118 C 
ENDROOT
BRANCH   1   2
ATOM      2  N   UNL A   1      31.286  25.448  26.756  1.00  0.00    -0.352 N 
ATOM      3  C   UNL A   1      31.112  24.090  26.794  1.00  0.00     0.252 C 
ATOM      4  O   UNL A   1      30.047  23.668  27.248  1.00  0.00    -0.269 OA
ATOM      5  H   UNL A   1      30.569  25.961  27.194  1.00  0.00     0.163 HD
BRANCH   3   6
ATOM      6  C   UNL A   1      32.196  23.116  26.500  1.00  0.00     0.053 A 
ATOM      7  C   UNL A   1      32.555  22.577  25.248  1.00  0.00     0.020 A 
ATOM      8  C   UNL A   1      33.501  21.531  25.229  1.00  0.00     0.016 A 
ATOM      9  C   UNL A   1      34.078  21.029  26.397  1.00  0.00     0.001 A 
ATOM     10  C   UNL A   1      32.780  22.589  27.674  1.00  0.00     0.015 A 
ATOM     11  C   UNL A   1      33.709  21.552  27.625  1.00  0.00     0.001 A 
BRANCH   7  12
ATOM     12  S   UNL A   1      31.694  22.843  23.702  1.00  0.00    -0.117 SA
BRANCH  12  13
ATOM     13  C   UNL A   1      32.972  23.405  22.530  1.00  0.00     0.156 C 
BRANCH  13  14
ATOM     14  C   UNL A   1      33.955  24.452  23.002  1.00  0.00     0.173 C 
ATOM     15  O   UNL A   1      33.755  25.662  22.952  1.00  0.00    -0.293 OA
BRANCH  14  16
ATOM     16  C   UNL A   1      35.151  23.950  23.730  1.00  0.00     0.018 A 
ATOM     17  C   UNL A   1      35.969  22.960  23.175  1.00  0.00     0.013 A 
ATOM     18  C   UNL A   1      35.421  24.443  25.011  1.00  0.00     0.013 A 
ATOM     19  C   UNL A   1      37.024  22.426  23.920  1.00  0.00     0.021 A 
ATOM     20  C   UNL A   1      36.482  23.913  25.752  1.00  0.00     0.021 A 
ATOM     21  C   UNL A   1      37.272  22.900  25.208  1.00  0.00     0.041 A 
ATOM     22  Cl  UNL A   1      38.563  22.232  26.127  1.00  0.00    -0.084 Cl
ENDBRANCH  14  16
ENDBRANCH  13  14
ENDBRANCH  12  13
ENDBRANCH   7  12
ENDBRANCH   3   6
ENDBRANCH   1   2
BRANCH   1  23
ATOM     23  C   UNL A   1      32.391  27.612  26.900  1.00  0.00     0.042 C 
BRANCH  23  24
ATOM     24  C   UNL A   1      33.756  28.280  26.831  1.00  0.00     0.118 C 
BRANCH  24  25
ATOM     25  N   UNL A   1      33.696  29.651  27.320  1.00  0.00    -0.352 N 
ATOM     26  C   UNL A   1      34.596  30.367  28.063  1.00  0.00     0.251 C 
ATOM     27  H   UNL A   1      32.876  30.141  27.079  1.00  0.00     0.163 HD
ATOM     28  O   UNL A   1      34.216  31.410  28.610  1.00  0.00    -0.269 OA
BRANCH  26  29
ATOM     29  C   UNL A   1      36.002  29.928  28.235  1.00  0.00     0.039 A 
ATOM     30  C   UNL A   1      36.384  29.345  29.450  1.00  0.00     0.014 A 
ATOM     31  C   UNL A   1      36.972  30.153  27.254  1.00  0.00     0.014 A 
ATOM     32  C   UNL A   1      37.712  28.961  29.661  1.00  0.00     0.010 A 
ATOM     33  C   UNL A   1      38.272  29.681  27.426  1.00  0.00     0.010 A 
ATOM     34  C   UNL A   1      38.666  29.106  28.642  1.00  0.00    -0.014 A 
BRANCH  34  35
ATOM     35  C   UNL A   1      40.086  28.713  28.847  1.00  0.00     0.031 A 
ATOM     36  C   UNL A   1      41.057  29.688  29.462  1.00  0.00     0.074 A 
ATOM     37  C   UNL A   1      40.516  27.505  28.439  1.00  0.00     0.049 A 
ATOM     38  N   UNL A   1      42.345  29.559  29.664  1.00  0.00    -0.248 NA
ATOM     39  C   UNL A   1      40.517  30.992  29.876  1.00  0.00     0.031 C 
ATOM     40  C   UNL A   1      39.692  26.487  27.786  1.00  0.00     0.029 A 
ATOM     41  N   UNL A   1      41.761  26.930  28.507  1.00  0.00    -0.354 N 
ATOM     42  C   UNL A   1      42.768  30.768  30.203  1.00  0.00     0.074 A 
ATOM     43  C   UNL A   1      41.613  31.637  30.248  1.00  0.00     0.031 C 
ATOM     44  C   UNL A   1      40.445  25.403  27.538  1.00  0.00     0.029 A 
ATOM     45  C   UNL A   1      41.811  25.660  27.984  1.00  0.00     0.049 A 
ATOM     46  H   UNL A   1      42.544  27.385  28.893  1.00  0.00     0.167 HD
ATOM     47  C   UNL A   1      44.000  31.118  30.645  1.00  0.00     0.037 A 
ATOM     48  C   UNL A   1      42.841  24.801  27.876  1.00  0.00     0.037 A 
ATOM     49  C   UNL A   1      45.140  30.240  30.641  1.00  0.00     0.049 A 
ATOM     50  C   UNL A   1      44.194  25.201  28.396  1.00  0.00     0.074 A 
ATOM     51  C   UNL A   1      46.415  30.479  31.122  1.00  0.00     0.029 A 
ATOM     52  N   UNL A   1      45.139  28.950  30.132  1.00  0.00    -0.354 N 
ATOM     53  N   UNL A   1      44.563  26.327  28.957  1.00  0.00    -0.248 NA
ATOM     54  C   UNL A   1      45.270  24.208  28.277  1.00  0.00     0.031 C 
ATOM     55  C   UNL A   1      47.195  29.343  30.878  1.00  0.00     0.029 A 
ATOM     56  C   UNL A   1      46.394  28.384  30.281  1.00  0.00     0.049 A 
ATOM     57  H   UNL A   1      44.362  28.502  29.727  1.00  0.00     0.167 HD
ATOM     58  C   UNL A   1      45.903  26.168  29.283  1.00  0.00     0.074 A 
ATOM     59  C   UNL A   1      46.279  24.831  28.868  1.00  0.00     0.031 C 
ATOM     60  C   UNL A   1      46.748  27.048  29.874  1.00  0.00     0.037 A 
BRANCH  47  61
ATOM     61  C   UNL A   1      44.173  32.509  31.180  1.00  0.00     0.057 A 
ATOM     62  C   UNL A   1      43.860  32.834  32.507  1.00  0.00     0.134 A 
ATOM     63  C   UNL A   1      44.684  33.530  30.369  1.00  0.00     0.134 A 
ATOM     64  F   UNL A   1      43.356  31.905  33.333  1.00  0.00    -0.206 F 
ATOM     65  C   UNL A   1      44.021  34.130  33.000  1.00  0.00     0.040 A 
ATOM     66  C   UNL A   1      44.874  34.825  30.858  1.00  0.00     0.040 A 
ATOM     67  F   UNL A   1      45.011  33.288  29.091  1.00  0.00    -0.206 F 
ATOM     68  C   UNL A   1      44.536  35.128  32.176  1.00  0.00     0.006 A 
ENDBRANCH  47  61
BRANCH  48  69
ATOM     69  C   UNL A   1      42.626  23.458  27.284  1.00  0.00     0.057 A 
ATOM     70  C   UNL A   1      42.177  22.388  28.068  1.00  0.00     0.134 A 
ATOM     71  C   UNL A   1      42.862  23.208  25.927  1.00  0.00     0.134 A 
ATOM     72  F   UNL A   1      41.952  22.562  29.379  1.00  0.00    -0.206 F 
ATOM     73  C   UNL A   1      41.986  21.115  27.530  1.00  0.00     0.040 A 
ATOM     74  C   UNL A   1      42.653  21.945  25.370  1.00  0.00     0.040 A 
ATOM     75  F   UNL A   1      43.284  24.192  25.121  1.00  0.00    -0.206 F 
ATOM     76  C   UNL A   1      42.219  20.892  26.174  1.00  0.00     0.006 A 
ENDBRANCH  48  69
BRANCH  60  77
ATOM     77  C   UNL A   1      48.147  26.581  30.143  1.00  0.00     0.057 A 
ATOM     78  C   UNL A   1      48.497  25.946  31.340  1.00  0.00     0.134 A 
ATOM     79  C   UNL A   1      49.147  26.738  29.174  1.00  0.00     0.134 A 
ATOM     80  F   UNL A   1      47.586  25.778  32.311  1.00  0.00    -0.206 F 
ATOM     81  C   UNL A   1      49.798  25.501  31.574  1.00  0.00     0.040 A 
ATOM     82  C   UNL A   1      50.446  26.276  29.387  1.00  0.00     0.040 A 
ATOM     83  F   UNL A   1      48.873  27.331  28.003  1.00  0.00    -0.206 F 
ATOM     84  C   UNL A   1      50.776  25.659  30.592  1.00  0.00     0.006 A 
ENDBRANCH  60  77
ENDBRANCH  34  35
ENDBRANCH  26  29
ENDBRANCH  24  25
ENDBRANCH  23  24
ENDBRANCH   1  23
TORSDOF 14
ENDMDL
MODEL 2
REMARK VINA RESULT:     -11.2      3.898      5.490
REMARK SMILES O=C(CSc1ccccc1C(=O)NCCCNC(=O)c1ccc(-c2c3nc(c(-c4c(F)cccc4F)c4ccc([nH]4)c(-c4c(F)cccc4F)c4nc(c(-c5c(F)cccc5F)c5ccc2[nH]5)C=C4)C=C3)cc1)c1ccc(Cl)cc1
REMARK SMILES IDX 14 1 13 2 11 3 12 4 10 6 5 7 6 8 7 9 9 10 8 11 4 12 3 13
REMARK SMILES IDX 2 14 1 15 74 16 75 17 80 18 76 19 79 20 77 21 78 22 15 23
REMARK SMILES IDX 16 24 17 25 18 26 19 28 20 29 21 30 73 31 22 32 72 33 23 34
REMARK SMILES IDX 24 35 25 36 66 37 26 38 71 39 65 40 67 41 27 42 70 43 64 44
REMARK SMILES IDX 63 45 28 47 54 48 37 49 53 50 38 51 41 52 52 53 68 54 39 55
REMARK SMILES IDX 40 56 51 58 69 59 42 60 29 61 30 62 35 63 31 64 32 65 34 66
REMARK SMILES IDX 36 67 33 68 55 69 56 70 61 71 57 72 58 73 60 74 62 75 59 76
REMARK SMILES IDX 43 77 44 78 49 79 45 80 46 81 48 82 50 83 47 84
REMARK H PARENT 13 5 17 27 67 46 41 57
REMARK Flexibility Score: inf
ROOT
ATOM      1  C   UNL A   1      33.687  30.228  27.187  1.00  0.00     0.118 C 
ENDROOT
BRANCH   1   2
ATOM      2  N   UNL A   1      32.746  29.233  27.650  1.00  0.00    -0.352 N 
ATOM      3  C   UNL A   1      32.248  28.108  27.049  1.00  0.00     0.252 C 
ATOM      4  O   UNL A   1      31.354  27.499  27.641  1.00  0.00    -0.269 OA
ATOM      5  H   UNL A   1      32.403  29.394  28.558  1.00  0.00     0.163 HD
BRANCH   3   6
ATOM      6  C   UNL A   1      32.850  27.489  25.840  1.00  0.00     0.053 A 
ATOM      7  C   UNL A   1      32.593  27.804  24.490  1.00  0.00     0.020 A 
ATOM      8  C   UNL A   1      33.146  26.965  23.500  1.00  0.00     0.016 A 
ATOM      9  C   UNL A   1      33.927  25.854  23.822  1.00  0.00     0.001 A 
ATOM     10  C   UNL A   1      33.633  26.353  26.148  1.00  0.00     0.015 A 
ATOM     11  C   UNL A   1      34.163  25.540  25.149  1.00  0.00     0.001 A 
BRANCH   7  12
ATOM     12  S   UNL A   1      31.361  28.959  23.896  1.00  0.00    -0.117 SA
BRANCH  12  13
ATOM     13  C   UNL A   1      30.221  27.966  22.877  1.00  0.00     0.156 C 
BRANCH  13  14
ATOM     14  C   UNL A   1      29.236  27.067  23.588  1.00  0.00     0.173 C 
ATOM     15  O   UNL A   1      28.022  27.246  23.605  1.00  0.00    -0.293 OA
BRANCH  14  16
ATOM     16  C   UNL A   1      29.782  25.799  24.141  1.00  0.00     0.018 A 
ATOM     17  C   UNL A   1      29.846  25.583  25.522  1.00  0.00     0.013 A 
ATOM     18  C   UNL A   1      30.289  24.838  23.260  1.00  0.00     0.013 A 
ATOM     19  C   UNL A   1      30.461  24.432  26.023  1.00  0.00     0.021 A 
ATOM     20  C   UNL A   1      30.898  23.683  23.762  1.00  0.00     0.021 A 
ATOM     21  C   UNL A   1      30.990  23.490  25.141  1.00  0.00     0.041 A 
ATOM     22  Cl  UNL A   1      31.758  22.082  25.760  1.00  0.00    -0.084 Cl
ENDBRANCH  14  16
ENDBRANCH  13  14
ENDBRANCH  12  13
ENDBRANCH   7  12
ENDBRANCH   3   6
ENDBRANCH   1   2
BRANCH   1  23
ATOM     23  C   UNL A   1      32.950  31.328  26.427  1.00  0.00     0.042 C 
BRANCH  23  24
ATOM     24  C   UNL A   1      31.891  32.037  27.258  1.00  0.00     0.118 C 
BRANCH  24  25
ATOM     25  N   UNL A   1      32.151  33.468  27.331  1.00  0.00    -0.352 N 
ATOM     26  C   UNL A   1      33.074  34.165  28.065  1.00  0.00     0.251 C 
ATOM     27  H   UNL A   1      31.570  34.024  26.762  1.00  0.00     0.163 HD
ATOM     28  O   UNL A   1      32.927  35.387  28.195  1.00  0.00    -0.269 OA
BRANCH  26  29
ATOM     29  C   UNL A   1      34.233  33.501  28.710  1.00  0.00     0.039 A 
ATOM     30  C   UNL A   1      35.494  33.612  28.111  1.00  0.00     0.014 A 
ATOM     31  C   UNL A   1      34.088  32.704  29.849  1.00  0.00     0.014 A 
ATOM     32  C   UNL A   1      36.599  32.961  28.670  1.00  0.00     0.010 A 
ATOM     33  C   UNL A   1      35.205  32.137  30.460  1.00  0.00     0.010 A 
ATOM     34  C   UNL A   1      36.469  32.235  29.863  1.00  0.00    -0.014 A 
BRANCH  34  35
ATOM     35  C   UNL A   1      37.628  31.527  30.470  1.00  0.00     0.031 A 
ATOM     36  C   UNL A   1      38.030  31.819  31.893  1.00  0.00     0.074 A 
ATOM     37  C   UNL A   1      38.348  30.660  29.735  1.00  0.00     0.049 A 
ATOM     38  N   UNL A   1      39.045  31.355  32.580  1.00  0.00    -0.248 NA
ATOM     39  C   UNL A   1      37.201  32.784  32.633  1.00  0.00     0.031 C 
ATOM     40  C   UNL A   1      38.096  30.323  28.333  1.00  0.00     0.029 A 
ATOM     41  N   UNL A   1      39.448  29.908  30.064  1.00  0.00    -0.354 N 
ATOM     42  C   UNL A   1      38.989  31.989  33.816  1.00  0.00     0.074 A 
ATOM     43  C   UNL A   1      37.873  32.908  33.769  1.00  0.00     0.031 C 
ATOM     44  C   UNL A   1      38.997  29.412  27.930  1.00  0.00     0.029 A 
ATOM     45  C   UNL A   1      39.908  29.124  29.033  1.00  0.00     0.049 A 
ATOM     46  H   UNL A   1      39.867  29.927  30.954  1.00  0.00     0.167 HD
ATOM     47  C   UNL A   1      39.776  31.805  34.902  1.00  0.00     0.037 A 
ATOM     48  C   UNL A   1      40.948  28.270  28.983  1.00  0.00     0.037 A 
ATOM     49  C   UNL A   1      40.860  30.860  34.965  1.00  0.00     0.049 A 
ATOM     50  C   UNL A   1      41.793  28.063  30.208  1.00  0.00     0.074 A 
ATOM     51  C   UNL A   1      41.678  30.555  36.039  1.00  0.00     0.029 A 
ATOM     52  N   UNL A   1      41.272  30.062  33.909  1.00  0.00    -0.354 N 
ATOM     53  N   UNL A   1      41.690  28.626  31.388  1.00  0.00    -0.248 NA
ATOM     54  C   UNL A   1      42.894  27.096  30.099  1.00  0.00     0.031 C 
ATOM     55  C   UNL A   1      42.606  29.595  35.623  1.00  0.00     0.029 A 
ATOM     56  C   UNL A   1      42.338  29.272  34.303  1.00  0.00     0.049 A 
ATOM     57  H   UNL A   1      40.866  30.057  33.012  1.00  0.00     0.167 HD
ATOM     58  C   UNL A   1      42.690  28.062  32.168  1.00  0.00     0.074 A 
ATOM     59  C   UNL A   1      43.383  27.104  31.330  1.00  0.00     0.031 C 
ATOM     60  C   UNL A   1      43.008  28.314  33.461  1.00  0.00     0.037 A 
BRANCH  47  61
ATOM     61  C   UNL A   1      39.486  32.639  36.116  1.00  0.00     0.057 A 
ATOM     62  C   UNL A   1      38.556  32.235  37.084  1.00  0.00     0.134 A 
ATOM     63  C   UNL A   1      40.161  33.846  36.334  1.00  0.00     0.134 A 
ATOM     64  F   UNL A   1      37.867  31.095  36.929  1.00  0.00    -0.206 F 
ATOM     65  C   UNL A   1      38.288  33.015  38.211  1.00  0.00     0.040 A 
ATOM     66  C   UNL A   1      39.921  34.622  37.470  1.00  0.00     0.040 A 
ATOM     67  F   UNL A   1      41.069  34.290  35.452  1.00  0.00    -0.206 F 
ATOM     68  C   UNL A   1      38.976  34.210  38.408  1.00  0.00     0.006 A 
ENDBRANCH  47  61
BRANCH  48  69
ATOM     69  C   UNL A   1      41.226  27.514  27.736  1.00  0.00     0.057 A 
ATOM     70  C   UNL A   1      40.709  26.226  27.545  1.00  0.00     0.134 A 
ATOM     71  C   UNL A   1      42.009  28.054  26.709  1.00  0.00     0.134 A 
ATOM     72  F   UNL A   1      39.968  25.649  28.502  1.00  0.00    -0.206 F 
ATOM     73  C   UNL A   1      40.976  25.496  26.387  1.00  0.00     0.040 A 
ATOM     74  C   UNL A   1      42.263  27.344  25.535  1.00  0.00     0.040 A 
ATOM     75  F   UNL A   1      42.524  29.286  26.828  1.00  0.00    -0.206 F 
ATOM     76  C   UNL A   1      41.751  26.058  25.374  1.00  0.00     0.006 A 
ENDBRANCH  48  69
BRANCH  60  77
ATOM     77  C   UNL A   1      44.125  27.515  34.061  1.00  0.00     0.057 A 
ATOM     78  C   UNL A   1      45.449  27.970  34.049  1.00  0.00     0.134 A 
ATOM     79  C   UNL A   1      43.865  26.291  34.691  1.00  0.00     0.134 A 
ATOM     80  F   UNL A   1      45.764  29.128  33.450  1.00  0.00    -0.206 F 
ATOM     81  C   UNL A   1      46.479  27.226  34.625  1.00  0.00     0.040 A 
ATOM     82  C   UNL A   1      44.883  25.549  35.291  1.00  0.00     0.040 A 
ATOM     83  F   UNL A   1      42.616  25.804  34.743  1.00  0.00    -0.206 F 
ATOM     84  C   UNL A   1      46.196  26.014  35.254  1.00  0.00     0.006 A 
ENDBRANCH  60  77
ENDBRANCH  34  35
ENDBRANCH  26  29
ENDBRANCH  24  25
ENDBRANCH  23  24
ENDBRANCH   1  23
TORSDOF 14
ENDMDL
MODEL 3
REMARK VINA RESULT:     -11.1      2.778      7.271
REMARK SMILES O=C(CSc1ccccc1C(=O)NCCCNC(=O)c1ccc(-c2c3nc(c(-c4c(F)cccc4F)c4ccc([nH]4)c(-c4c(F)cccc4F)c4nc(c(-c5c(F)cccc5F)c5ccc2[nH]5)C=C4)C=C3)cc1)c1ccc(Cl)cc1
REMARK SMILES IDX 14 1 13 2 11 3 12 4 10 6 5 7 6 8 7 9 9 10 8 11 4 12 3 13
REMARK SMILES IDX 2 14 1 15 74 16 75 17 80 18 76 19 79 20 77 21 78 22 15 23
REMARK SMILES IDX 16 24 17 25 18 26 19 28 20 29 21 30 73 31 22 32 72 33 23 34
REMARK SMILES IDX 24 35 25 36 66 37 26 38 71 39 65 40 67 41 27 42 70 43 64 44
REMARK SMILES IDX 63 45 28 47 54 48 37 49 53 50 38 51 41 52 52 53 68 54 39 55
REMARK SMILES IDX 40 56 51 58 69 59 42 60 29 61 30 62 35 63 31 64 32 65 34 66
REMARK SMILES IDX 36 67 33 68 55 69 56 70 61 71 57 72 58 73 60 74 62 75 59 76
REMARK SMILES IDX 43 77 44 78 49 79 45 80 46 81 48 82 50 83 47 84
REMARK H PARENT 13 5 17 27 67 46 41 57
REMARK Flexibility Score: inf
ROOT
ATOM      1  C   UNL A   1      33.347  30.581  27.048  1.00  0.00     0.118 C 
ENDROOT
BRANCH   1   2
ATOM      2  N   UNL A   1      32.544  29.517  27.606  1.00  0.00    -0.352 N 
ATOM      3  C   UNL A   1      32.125  28.325  27.077  1.00  0.00     0.252 C 
ATOM      4  O   UNL A   1      31.338  27.654  27.748  1.00  0.00    -0.269 OA
ATOM      5  H   UNL A   1      32.246  29.677  28.530  1.00  0.00     0.163 HD
BRANCH   3   6
ATOM      6  C   UNL A   1      32.707  27.723  25.849  1.00  0.00     0.053 A 
ATOM      7  C   UNL A   1      32.347  27.976  24.510  1.00  0.00     0.020 A 
ATOM      8  C   UNL A   1      32.911  27.157  23.510  1.00  0.00     0.016 A 
ATOM      9  C   UNL A   1      33.800  26.124  23.811  1.00  0.00     0.001 A 
ATOM     10  C   UNL A   1      33.599  26.665  26.138  1.00  0.00     0.015 A 
ATOM     11  C   UNL A   1      34.138  25.869  25.130  1.00  0.00     0.001 A 
BRANCH   7  12
ATOM     12  S   UNL A   1      30.990  29.007  23.962  1.00  0.00    -0.117 SA
BRANCH  12  13
ATOM     13  C   UNL A   1      29.897  27.899  23.013  1.00  0.00     0.156 C 
BRANCH  13  14
ATOM     14  C   UNL A   1      29.045  26.916  23.781  1.00  0.00     0.173 C 
ATOM     15  O   UNL A   1      27.823  26.985  23.876  1.00  0.00    -0.293 OA
BRANCH  14  16
ATOM     16  C   UNL A   1      29.737  25.703  24.291  1.00  0.00     0.018 A 
ATOM     17  C   UNL A   1      29.895  25.488  25.665  1.00  0.00     0.013 A 
ATOM     18  C   UNL A   1      30.285  24.799  23.375  1.00  0.00     0.013 A 
ATOM     19  C   UNL A   1      30.642  24.398  26.121  1.00  0.00     0.021 A 
ATOM     20  C   UNL A   1      31.026  23.705  23.833  1.00  0.00     0.021 A 
ATOM     21  C   UNL A   1      31.210  23.515  25.203  1.00  0.00     0.041 A 
ATOM     22  Cl  UNL A   1      32.140  22.183  25.767  1.00  0.00    -0.084 Cl
ENDBRANCH  14  16
ENDBRANCH  13  14
ENDBRANCH  12  13
ENDBRANCH   7  12
ENDBRANCH   3   6
ENDBRANCH   1   2
BRANCH   1  23
ATOM     23  C   UNL A   1      34.828  30.288  27.272  1.00  0.00     0.042 C 
BRANCH  23  24
ATOM     24  C   UNL A   1      35.552  31.376  28.051  1.00  0.00     0.118 C 
BRANCH  24  25
ATOM     25  N   UNL A   1      35.489  31.128  29.485  1.00  0.00    -0.352 N 
ATOM     26  C   UNL A   1      36.307  30.381  30.291  1.00  0.00     0.251 C 
ATOM     27  H   UNL A   1      34.738  31.565  29.948  1.00  0.00     0.163 HD
ATOM     28  O   UNL A   1      35.903  30.072  31.419  1.00  0.00    -0.269 OA
BRANCH  26  29
ATOM     29  C   UNL A   1      37.650  29.931  29.852  1.00  0.00     0.039 A 
ATOM     30  C   UNL A   1      38.534  29.412  30.806  1.00  0.00     0.014 A 
ATOM     31  C   UNL A   1      38.085  30.083  28.532  1.00  0.00     0.014 A 
ATOM     32  C   UNL A   1      39.823  29.020  30.432  1.00  0.00     0.010 A 
ATOM     33  C   UNL A   1      39.333  29.601  28.141  1.00  0.00     0.010 A 
ATOM     34  C   UNL A   1      40.229  29.090  29.091  1.00  0.00    -0.014 A 
BRANCH  34  35
ATOM     35  C   UNL A   1      41.598  28.687  28.672  1.00  0.00     0.031 A 
ATOM     36  C   UNL A   1      41.870  27.268  28.245  1.00  0.00     0.074 A 
ATOM     37  C   UNL A   1      42.606  29.578  28.720  1.00  0.00     0.049 A 
ATOM     38  N   UNL A   1      43.004  26.707  27.906  1.00  0.00    -0.248 NA
ATOM     39  C   UNL A   1      40.721  26.348  28.225  1.00  0.00     0.031 C 
ATOM     40  C   UNL A   1      42.489  30.969  29.160  1.00  0.00     0.029 A 
ATOM     41  N   UNL A   1      43.934  29.442  28.401  1.00  0.00    -0.354 N 
ATOM     42  C   UNL A   1      42.709  25.371  27.660  1.00  0.00     0.074 A 
ATOM     43  C   UNL A   1      41.301  25.192  27.937  1.00  0.00     0.031 C 
ATOM     44  C   UNL A   1      43.688  31.565  29.058  1.00  0.00     0.029 A 
ATOM     45  C   UNL A   1      44.664  30.593  28.576  1.00  0.00     0.049 A 
ATOM     46  H   UNL A   1      44.327  28.599  28.078  1.00  0.00     0.167 HD
ATOM     47  C   UNL A   1      43.527  24.387  27.217  1.00  0.00     0.037 A 
ATOM     48  C   UNL A   1      45.972  30.836  28.373  1.00  0.00     0.037 A 
ATOM     49  C   UNL A   1      44.918  24.573  26.899  1.00  0.00     0.049 A 
ATOM     50  C   UNL A   1      46.856  29.736  27.857  1.00  0.00     0.074 A 
ATOM     51  C   UNL A   1      45.817  23.655  26.386  1.00  0.00     0.029 A 
ATOM     52  N   UNL A   1      45.610  25.764  27.060  1.00  0.00    -0.354 N 
ATOM     53  N   UNL A   1      46.548  28.493  27.573  1.00  0.00    -0.248 NA
ATOM     54  C   UNL A   1      48.268  30.072  27.626  1.00  0.00     0.031 C 
ATOM     55  C   UNL A   1      47.062  24.281  26.265  1.00  0.00     0.029 A 
ATOM     56  C   UNL A   1      46.927  25.601  26.665  1.00  0.00     0.049 A 
ATOM     57  H   UNL A   1      45.223  26.601  27.403  1.00  0.00     0.167 HD
ATOM     58  C   UNL A   1      47.717  27.910  27.103  1.00  0.00     0.074 A 
ATOM     59  C   UNL A   1      48.738  28.938  27.129  1.00  0.00     0.031 C 
ATOM     60  C   UNL A   1      47.927  26.637  26.686  1.00  0.00     0.037 A 
BRANCH  47  61
ATOM     61  C   UNL A   1      42.933  23.020  27.042  1.00  0.00     0.057 A 
ATOM     62  C   UNL A   1      42.632  22.502  25.773  1.00  0.00     0.134 A 
ATOM     63  C   UNL A   1      42.682  22.200  28.148  1.00  0.00     0.134 A 
ATOM     64  F   UNL A   1      42.838  23.241  24.673  1.00  0.00    -0.206 F 
ATOM     65  C   UNL A   1      42.078  21.231  25.615  1.00  0.00     0.040 A 
ATOM     66  C   UNL A   1      42.152  20.916  28.001  1.00  0.00     0.040 A 
ATOM     67  F   UNL A   1      42.951  22.628  29.390  1.00  0.00    -0.206 F 
ATOM     68  C   UNL A   1      41.842  20.432  26.731  1.00  0.00     0.006 A 
ENDBRANCH  47  61
BRANCH  48  69
ATOM     69  C   UNL A   1      46.520  32.193  28.619  1.00  0.00     0.057 A 
ATOM     70  C   UNL A   1      46.550  33.154  27.600  1.00  0.00     0.134 A 
ATOM     71  C   UNL A   1      47.024  32.565  29.871  1.00  0.00     0.134 A 
ATOM     72  F   UNL A   1      46.097  32.850  26.375  1.00  0.00    -0.206 F 
ATOM     73  C   UNL A   1      47.077  34.428  27.811  1.00  0.00     0.040 A 
ATOM     74  C   UNL A   1      47.533  33.843  30.103  1.00  0.00     0.040 A 
ATOM     75  F   UNL A   1      47.015  31.694  30.890  1.00  0.00    -0.206 F 
ATOM     76  C   UNL A   1      47.566  34.778  29.069  1.00  0.00     0.006 A 
ENDBRANCH  48  69
BRANCH  60  77
ATOM     77  C   UNL A   1      49.300  26.297  26.187  1.00  0.00     0.057 A 
ATOM     78  C   UNL A   1      49.723  26.638  24.897  1.00  0.00     0.134 A 
ATOM     79  C   UNL A   1      50.220  25.652  27.024  1.00  0.00     0.134 A 
ATOM     80  F   UNL A   1      48.883  27.245  24.045  1.00  0.00    -0.206 F 
ATOM     81  C   UNL A   1      51.008  26.331  24.449  1.00  0.00     0.040 A 
ATOM     82  C   UNL A   1      51.515  25.361  26.595  1.00  0.00     0.040 A 
ATOM     83  F   UNL A   1      49.878  25.307  28.274  1.00  0.00    -0.206 F 
ATOM     84  C   UNL A   1      51.910  25.696  25.301  1.00  0.00     0.006 A 
ENDBRANCH  60  77
ENDBRANCH  34  35
ENDBRANCH  26  29
ENDBRANCH  24  25
ENDBRANCH  23  24
ENDBRANCH   1  23
TORSDOF 14
ENDMDL
