MODEL 1
REMARK VINA RESULT:     -10.7      0.000      0.000
REMARK SMILES O=C(NCCCNC(=O)[C@@H](Cc1ccccc1Br)CC(F)(F)F)c1ccc(-c2c3nc(c(-c4c(F)cccc4F)c4ccc([nH]4)c(-c4c(F)cccc4F)c4nc(c(-c5c(F)cccc5F)c5ccc2[nH]5)C=C4)C=C3)cc1
REMARK SMILES IDX 5 1 4 2 3 3 1 4 2 5 24 7 25 8 77 9 26 10 76 11 27 12 28 13
REMARK SMILES IDX 29 14 70 15 30 16 75 17 69 18 71 19 31 20 74 21 68 22 67 23
REMARK SMILES IDX 32 25 58 26 41 27 57 28 42 29 45 30 56 31 72 32 43 33 44 34
REMARK SMILES IDX 55 36 73 37 46 38 33 39 34 40 39 41 35 42 36 43 38 44 40 45
REMARK SMILES IDX 37 46 59 47 60 48 65 49 61 50 62 51 64 52 66 53 63 54 47 55
REMARK SMILES IDX 48 56 53 57 49 58 50 59 52 60 54 61 51 62 6 63 7 64 8 65
REMARK SMILES IDX 9 67 10 68 11 69 12 70 13 71 17 72 14 73 16 74 18 75 15 76
REMARK SMILES IDX 19 77 20 78 21 79 22 80 23 81
REMARK H PARENT 3 6 71 24 45 35 7 66
REMARK Flexibility Score: inf
ROOT
ATOM      1  C   UNL A   1      32.492  28.543  27.248  1.00  0.00     0.042 C 
ENDROOT
BRANCH   1   2
ATOM      2  C   UNL A   1      33.504  29.524  26.675  1.00  0.00     0.118 C 
BRANCH   2   3
ATOM      3  N   UNL A   1      33.726  30.646  27.568  1.00  0.00    -0.352 N 
ATOM      4  O   UNL A   1      34.521  31.801  29.300  1.00  0.00    -0.269 OA
ATOM      5  C   UNL A   1      34.723  30.910  28.473  1.00  0.00     0.251 C 
ATOM      6  H   UNL A   1      33.034  31.345  27.514  1.00  0.00     0.163 HD
BRANCH   5   7
ATOM      7  C   UNL A   1      36.023  30.186  28.504  1.00  0.00     0.039 A 
ATOM      8  C   UNL A   1      36.958  30.247  27.469  1.00  0.00     0.014 A 
ATOM      9  C   UNL A   1      36.397  29.556  29.704  1.00  0.00     0.014 A 
ATOM     10  C   UNL A   1      38.211  29.644  27.601  1.00  0.00     0.010 A 
ATOM     11  C   UNL A   1      37.688  29.038  29.874  1.00  0.00     0.010 A 
ATOM     12  C   UNL A   1      38.616  29.094  28.827  1.00  0.00    -0.014 A 
BRANCH  12  13
ATOM     13  C   UNL A   1      40.052  28.767  29.041  1.00  0.00     0.031 A 
ATOM     14  C   UNL A   1      41.007  29.743  29.664  1.00  0.00     0.074 A 
ATOM     15  C   UNL A   1      40.499  27.560  28.633  1.00  0.00     0.049 A 
ATOM     16  N   UNL A   1      42.286  29.596  29.909  1.00  0.00    -0.248 NA
ATOM     17  C   UNL A   1      40.469  31.054  30.055  1.00  0.00     0.031 C 
ATOM     18  C   UNL A   1      39.684  26.541  27.965  1.00  0.00     0.029 A 
ATOM     19  N   UNL A   1      41.740  26.978  28.724  1.00  0.00    -0.354 N 
ATOM     20  C   UNL A   1      42.711  30.795  30.462  1.00  0.00     0.074 A 
ATOM     21  C   UNL A   1      41.556  31.669  30.507  1.00  0.00     0.031 C 
ATOM     22  C   UNL A   1      40.430  25.450  27.745  1.00  0.00     0.029 A 
ATOM     23  C   UNL A   1      41.791  25.709  28.197  1.00  0.00     0.049 A 
ATOM     24  H   UNL A   1      42.518  27.427  29.126  1.00  0.00     0.167 HD
ATOM     25  C   UNL A   1      43.949  31.133  30.897  1.00  0.00     0.037 A 
ATOM     26  C   UNL A   1      42.820  24.850  28.068  1.00  0.00     0.037 A 
ATOM     27  C   UNL A   1      45.091  30.253  30.878  1.00  0.00     0.049 A 
ATOM     28  C   UNL A   1      44.178  25.258  28.554  1.00  0.00     0.074 A 
ATOM     29  C   UNL A   1      46.361  30.481  31.384  1.00  0.00     0.029 A 
ATOM     30  N   UNL A   1      45.108  28.987  30.317  1.00  0.00    -0.354 N 
ATOM     31  N   UNL A   1      44.542  26.369  29.143  1.00  0.00    -0.248 NA
ATOM     32  C   UNL A   1      45.271  24.298  28.346  1.00  0.00     0.031 C 
ATOM     33  C   UNL A   1      47.157  29.369  31.090  1.00  0.00     0.029 A 
ATOM     34  C   UNL A   1      46.374  28.436  30.431  1.00  0.00     0.049 A 
ATOM     35  H   UNL A   1      44.335  28.544  29.898  1.00  0.00     0.167 HD
ATOM     36  C   UNL A   1      45.904  26.246  29.375  1.00  0.00     0.074 A 
ATOM     37  C   UNL A   1      46.296  24.939  28.890  1.00  0.00     0.031 C 
ATOM     38  C   UNL A   1      46.755  27.142  29.930  1.00  0.00     0.037 A 
BRANCH  25  39
ATOM     39  C   UNL A   1      44.154  32.517  31.433  1.00  0.00     0.057 A 
ATOM     40  C   UNL A   1      44.055  32.801  32.800  1.00  0.00     0.134 A 
ATOM     41  C   UNL A   1      44.547  33.558  30.582  1.00  0.00     0.134 A 
ATOM     42  F   UNL A   1      43.678  31.848  33.665  1.00  0.00    -0.206 F 
ATOM     43  C   UNL A   1      44.336  34.072  33.302  1.00  0.00     0.040 A 
ATOM     44  C   UNL A   1      44.847  34.829  31.074  1.00  0.00     0.040 A 
ATOM     45  F   UNL A   1      44.669  33.349  29.262  1.00  0.00    -0.206 F 
ATOM     46  C   UNL A   1      44.742  35.089  32.439  1.00  0.00     0.006 A 
ENDBRANCH  25  39
BRANCH  26  47
ATOM     47  C   UNL A   1      42.609  23.532  27.423  1.00  0.00     0.057 A 
ATOM     48  C   UNL A   1      42.703  23.379  26.035  1.00  0.00     0.134 A 
ATOM     49  C   UNL A   1      42.306  22.394  28.180  1.00  0.00     0.134 A 
ATOM     50  F   UNL A   1      42.971  24.437  25.257  1.00  0.00    -0.206 F 
ATOM     51  C   UNL A   1      42.489  22.144  25.422  1.00  0.00     0.040 A 
ATOM     52  C   UNL A   1      42.115  21.148  27.582  1.00  0.00     0.040 A 
ATOM     53  F   UNL A   1      42.208  22.475  29.515  1.00  0.00    -0.206 F 
ATOM     54  C   UNL A   1      42.200  21.023  26.198  1.00  0.00     0.006 A 
ENDBRANCH  26  47
BRANCH  38  55
ATOM     55  C   UNL A   1      48.192  26.735  30.031  1.00  0.00     0.057 A 
ATOM     56  C   UNL A   1      48.661  25.983  31.115  1.00  0.00     0.134 A 
ATOM     57  C   UNL A   1      49.110  27.077  29.032  1.00  0.00     0.134 A 
ATOM     58  F   UNL A   1      47.833  25.639  32.113  1.00  0.00    -0.206 F 
ATOM     59  C   UNL A   1      50.000  25.600  31.211  1.00  0.00     0.040 A 
ATOM     60  C   UNL A   1      50.447  26.684  29.107  1.00  0.00     0.040 A 
ATOM     61  F   UNL A   1      48.723  27.794  27.967  1.00  0.00    -0.206 F 
ATOM     62  C   UNL A   1      50.896  25.948  30.202  1.00  0.00     0.006 A 
ENDBRANCH  38  55
ENDBRANCH  12  13
ENDBRANCH   5   7
ENDBRANCH   2   3
ENDBRANCH   1   2
BRANCH   1  63
ATOM     63  C   UNL A   1      31.915  27.592  26.207  1.00  0.00     0.117 C 
BRANCH  63  64
ATOM     64  N   UNL A   1      31.437  26.378  26.846  1.00  0.00    -0.356 N 
ATOM     65  C   UNL A   1      31.750  25.073  26.676  1.00  0.00     0.223 C 
ATOM     66  H   UNL A   1      30.752  26.536  27.536  1.00  0.00     0.163 HD
ATOM     67  O   UNL A   1      30.998  24.250  27.208  1.00  0.00    -0.275 OA
BRANCH  65  68
ATOM     68  C   UNL A   1      32.967  24.582  25.901  1.00  0.00     0.092 C 
BRANCH  68  69
ATOM     69  C   UNL A   1      33.783  23.473  26.606  1.00  0.00     0.050 C 
BRANCH  69  70
ATOM     70  C   UNL A   1      35.084  22.964  26.023  1.00  0.00    -0.033 A 
ATOM     71  C   UNL A   1      36.200  23.824  26.059  1.00  0.00     0.005 A 
ATOM     72  C   UNL A   1      35.242  21.727  25.374  1.00  0.00     0.021 A 
ATOM     73  C   UNL A   1      37.439  23.442  25.530  1.00  0.00     0.000 A 
ATOM     74  C   UNL A   1      36.492  21.333  24.874  1.00  0.00     0.016 A 
ATOM     75  Br  UNL A   1      33.800  20.541  25.032  1.00  0.00    -0.051 Br
ATOM     76  C   UNL A   1      37.591  22.185  24.960  1.00  0.00     0.001 A 
ENDBRANCH  69  70
ENDBRANCH  68  69
BRANCH  68  77
ATOM     77  C   UNL A   1      32.777  24.428  24.388  1.00  0.00     0.129 C 
BRANCH  77  78
ATOM     78  C   UNL A   1      33.748  25.252  23.566  1.00  0.00     0.389 C 
ATOM     79  F   UNL A   1      34.335  26.211  24.309  1.00  0.00    -0.171 F 
ATOM     80  F   UNL A   1      34.729  24.454  23.082  1.00  0.00    -0.171 F 
ATOM     81  F   UNL A   1      33.154  25.836  22.508  1.00  0.00    -0.171 F 
ENDBRANCH  77  78
ENDBRANCH  68  77
ENDBRANCH  65  68
ENDBRANCH  63  64
ENDBRANCH   1  63
TORSDOF 14
ENDMDL
MODEL 2
REMARK VINA RESULT:     -10.6      4.198      8.296
REMARK SMILES O=C(NCCCNC(=O)[C@@H](Cc1ccccc1Br)CC(F)(F)F)c1ccc(-c2c3nc(c(-c4c(F)cccc4F)c4ccc([nH]4)c(-c4c(F)cccc4F)c4nc(c(-c5c(F)cccc5F)c5ccc2[nH]5)C=C4)C=C3)cc1
REMARK SMILES IDX 5 1 4 2 3 3 1 4 2 5 24 7 25 8 77 9 26 10 76 11 27 12 28 13
REMARK SMILES IDX 29 14 70 15 30 16 75 17 69 18 71 19 31 20 74 21 68 22 67 23
REMARK SMILES IDX 32 25 58 26 41 27 57 28 42 29 45 30 56 31 72 32 43 33 44 34
REMARK SMILES IDX 55 36 73 37 46 38 33 39 34 40 39 41 35 42 36 43 38 44 40 45
REMARK SMILES IDX 37 46 59 47 60 48 65 49 61 50 62 51 64 52 66 53 63 54 47 55
REMARK SMILES IDX 48 56 53 57 49 58 50 59 52 60 54 61 51 62 6 63 7 64 8 65
REMARK SMILES IDX 9 67 10 68 11 69 12 70 13 71 17 72 14 73 16 74 18 75 15 76
REMARK SMILES IDX 19 77 20 78 21 79 22 80 23 81
REMARK H PARENT 3 6 71 24 45 35 7 66
REMARK Flexibility Score: inf
ROOT
ATOM      1  C   UNL A   1      31.468  32.050  26.748  1.00  0.00     0.042 C 
ENDROOT
BRANCH   1   2
ATOM      2  C   UNL A   1      32.713  32.696  27.340  1.00  0.00     0.118 C 
BRANCH   2   3
ATOM      3  N   UNL A   1      32.509  34.109  27.599  1.00  0.00    -0.352 N 
ATOM      4  O   UNL A   1      32.460  36.034  28.722  1.00  0.00    -0.269 OA
ATOM      5  C   UNL A   1      33.014  34.944  28.563  1.00  0.00     0.251 C 
ATOM      6  H   UNL A   1      31.895  34.548  26.966  1.00  0.00     0.163 HD
BRANCH   5   7
ATOM      7  C   UNL A   1      34.188  34.607  29.415  1.00  0.00     0.039 A 
ATOM      8  C   UNL A   1      34.073  34.110  30.714  1.00  0.00     0.014 A 
ATOM      9  C   UNL A   1      35.461  34.626  28.819  1.00  0.00     0.014 A 
ATOM     10  C   UNL A   1      35.203  33.699  31.426  1.00  0.00     0.010 A 
ATOM     11  C   UNL A   1      36.581  34.122  29.494  1.00  0.00     0.010 A 
ATOM     12  C   UNL A   1      36.458  33.636  30.801  1.00  0.00    -0.014 A 
BRANCH  12  13
ATOM     13  C   UNL A   1      37.564  32.889  31.461  1.00  0.00     0.031 A 
ATOM     14  C   UNL A   1      38.217  31.699  30.818  1.00  0.00     0.074 A 
ATOM     15  C   UNL A   1      37.964  33.292  32.686  1.00  0.00     0.049 A 
ATOM     16  N   UNL A   1      39.189  30.950  31.278  1.00  0.00    -0.248 NA
ATOM     17  C   UNL A   1      37.714  31.287  29.500  1.00  0.00     0.031 C 
ATOM     18  C   UNL A   1      37.375  34.402  33.442  1.00  0.00     0.029 A 
ATOM     19  N   UNL A   1      38.959  32.827  33.510  1.00  0.00    -0.354 N 
ATOM     20  C   UNL A   1      39.402  29.969  30.320  1.00  0.00     0.074 A 
ATOM     21  C   UNL A   1      38.449  30.209  29.255  1.00  0.00     0.031 C 
ATOM     22  C   UNL A   1      38.043  34.557  34.594  1.00  0.00     0.029 A 
ATOM     23  C   UNL A   1      39.066  33.525  34.690  1.00  0.00     0.049 A 
ATOM     24  H   UNL A   1      39.540  32.066  33.279  1.00  0.00     0.167 HD
ATOM     25  C   UNL A   1      40.313  28.966  30.327  1.00  0.00     0.037 A 
ATOM     26  C   UNL A   1      39.879  33.345  35.748  1.00  0.00     0.037 A 
ATOM     27  C   UNL A   1      41.280  28.746  31.374  1.00  0.00     0.049 A 
ATOM     28  C   UNL A   1      40.871  32.221  35.726  1.00  0.00     0.074 A 
ATOM     29  C   UNL A   1      42.300  27.811  31.419  1.00  0.00     0.029 A 
ATOM     30  N   UNL A   1      41.339  29.457  32.560  1.00  0.00    -0.354 N 
ATOM     31  N   UNL A   1      41.108  31.350  34.777  1.00  0.00    -0.248 NA
ATOM     32  C   UNL A   1      41.701  32.047  36.926  1.00  0.00     0.031 C 
ATOM     33  C   UNL A   1      42.950  27.928  32.652  1.00  0.00     0.029 A 
ATOM     34  C   UNL A   1      42.355  28.959  33.360  1.00  0.00     0.049 A 
ATOM     35  H   UNL A   1      40.747  30.207  32.801  1.00  0.00     0.167 HD
ATOM     36  C   UNL A   1      42.109  30.524  35.263  1.00  0.00     0.074 A 
ATOM     37  C   UNL A   1      42.457  31.015  36.580  1.00  0.00     0.031 C 
ATOM     38  C   UNL A   1      42.680  29.446  34.674  1.00  0.00     0.037 A 
BRANCH  25  39
ATOM     39  C   UNL A   1      40.319  28.013  29.171  1.00  0.00     0.057 A 
ATOM     40  C   UNL A   1      39.525  26.861  29.160  1.00  0.00     0.134 A 
ATOM     41  C   UNL A   1      41.058  28.301  28.016  1.00  0.00     0.134 A 
ATOM     42  F   UNL A   1      38.798  26.527  30.237  1.00  0.00    -0.206 F 
ATOM     43  C   UNL A   1      39.468  26.026  28.043  1.00  0.00     0.040 A 
ATOM     44  C   UNL A   1      40.997  27.483  26.887  1.00  0.00     0.040 A 
ATOM     45  F   UNL A   1      41.833  29.395  27.960  1.00  0.00    -0.206 F 
ATOM     46  C   UNL A   1      40.199  26.342  26.899  1.00  0.00     0.006 A 
ENDBRANCH  25  39
BRANCH  26  47
ATOM     47  C   UNL A   1      39.765  34.233  36.930  1.00  0.00     0.057 A 
ATOM     48  C   UNL A   1      40.460  35.446  36.997  1.00  0.00     0.134 A 
ATOM     49  C   UNL A   1      38.960  33.886  38.022  1.00  0.00     0.134 A 
ATOM     50  F   UNL A   1      41.261  35.821  35.990  1.00  0.00    -0.206 F 
ATOM     51  C   UNL A   1      40.369  36.277  38.115  1.00  0.00     0.040 A 
ATOM     52  C   UNL A   1      38.841  34.720  39.135  1.00  0.00     0.040 A 
ATOM     53  F   UNL A   1      38.266  32.740  38.016  1.00  0.00    -0.206 F 
ATOM     54  C   UNL A   1      39.553  35.916  39.185  1.00  0.00     0.006 A 
ENDBRANCH  26  47
BRANCH  38  55
ATOM     55  C   UNL A   1      43.734  28.727  35.459  1.00  0.00     0.057 A 
ATOM     56  C   UNL A   1      45.090  29.048  35.322  1.00  0.00     0.134 A 
ATOM     57  C   UNL A   1      43.392  27.722  36.371  1.00  0.00     0.134 A 
ATOM     58  F   UNL A   1      45.481  29.991  34.451  1.00  0.00    -0.206 F 
ATOM     59  C   UNL A   1      46.073  28.381  36.054  1.00  0.00     0.040 A 
ATOM     60  C   UNL A   1      44.365  27.061  37.122  1.00  0.00     0.040 A 
ATOM     61  F   UNL A   1      42.110  27.370  36.549  1.00  0.00    -0.206 F 
ATOM     62  C   UNL A   1      45.711  27.387  36.961  1.00  0.00     0.006 A 
ENDBRANCH  38  55
ENDBRANCH  12  13
ENDBRANCH   5   7
ENDBRANCH   2   3
ENDBRANCH   1   2
BRANCH   1  63
ATOM     63  C   UNL A   1      31.738  30.692  26.111  1.00  0.00     0.117 C 
BRANCH  63  64
ATOM     64  N   UNL A   1      31.757  29.656  27.129  1.00  0.00    -0.356 N 
ATOM     65  C   UNL A   1      31.681  28.306  27.060  1.00  0.00     0.223 C 
ATOM     66  H   UNL A   1      31.843  30.002  28.047  1.00  0.00     0.163 HD
ATOM     67  O   UNL A   1      31.487  27.708  28.123  1.00  0.00    -0.275 OA
BRANCH  65  68
ATOM     68  C   UNL A   1      31.840  27.508  25.771  1.00  0.00     0.092 C 
BRANCH  68  69
ATOM     69  C   UNL A   1      33.303  27.213  25.366  1.00  0.00     0.050 C 
BRANCH  69  70
ATOM     70  C   UNL A   1      33.717  25.850  24.854  1.00  0.00    -0.033 A 
ATOM     71  C   UNL A   1      34.210  24.918  25.790  1.00  0.00     0.005 A 
ATOM     72  C   UNL A   1      33.721  25.469  23.500  1.00  0.00     0.021 A 
ATOM     73  C   UNL A   1      34.629  23.640  25.403  1.00  0.00     0.000 A 
ATOM     74  C   UNL A   1      34.109  24.177  23.119  1.00  0.00     0.016 A 
ATOM     75  Br  UNL A   1      33.306  26.664  22.084  1.00  0.00    -0.051 Br
ATOM     76  C   UNL A   1      34.554  23.261  24.069  1.00  0.00     0.001 A 
ENDBRANCH  69  70
ENDBRANCH  68  69
BRANCH  68  77
ATOM     77  C   UNL A   1      30.835  26.371  25.561  1.00  0.00     0.129 C 
BRANCH  77  78
ATOM     78  C   UNL A   1      29.941  26.565  24.352  1.00  0.00     0.389 C 
ATOM     79  F   UNL A   1      30.318  25.774  23.327  1.00  0.00    -0.171 F 
ATOM     80  F   UNL A   1      28.666  26.241  24.669  1.00  0.00    -0.171 F 
ATOM     81  F   UNL A   1      29.931  27.841  23.923  1.00  0.00    -0.171 F 
ENDBRANCH  77  78
ENDBRANCH  68  77
ENDBRANCH  65  68
ENDBRANCH  63  64
ENDBRANCH   1  63
TORSDOF 14
ENDMDL
MODEL 3
REMARK VINA RESULT:     -10.5      3.120      7.756
REMARK SMILES O=C(NCCCNC(=O)[C@@H](Cc1ccccc1Br)CC(F)(F)F)c1ccc(-c2c3nc(c(-c4c(F)cccc4F)c4ccc([nH]4)c(-c4c(F)cccc4F)c4nc(c(-c5c(F)cccc5F)c5ccc2[nH]5)C=C4)C=C3)cc1
REMARK SMILES IDX 5 1 4 2 3 3 1 4 2 5 24 7 25 8 77 9 26 10 76 11 27 12 28 13
REMARK SMILES IDX 29 14 70 15 30 16 75 17 69 18 71 19 31 20 74 21 68 22 67 23
REMARK SMILES IDX 32 25 58 26 41 27 57 28 42 29 45 30 56 31 72 32 43 33 44 34
REMARK SMILES IDX 55 36 73 37 46 38 33 39 34 40 39 41 35 42 36 43 38 44 40 45
REMARK SMILES IDX 37 46 59 47 60 48 65 49 61 50 62 51 64 52 66 53 63 54 47 55
REMARK SMILES IDX 48 56 53 57 49 58 50 59 52 60 54 61 51 62 6 63 7 64 8 65
REMARK SMILES IDX 9 67 10 68 11 69 12 70 13 71 17 72 14 73 16 74 18 75 15 76
REMARK SMILES IDX 19 77 20 78 21 79 22 80 23 81
REMARK H PARENT 3 6 71 24 45 35 7 66
REMARK Flexibility Score: inf
ROOT
ATOM      1  C   UNL A   1      38.011  19.825  24.966  1.00  0.00     0.042 C 
ENDROOT
BRANCH   1   2
ATOM      2  C   UNL A   1      39.183  20.271  25.827  1.00  0.00     0.118 C 
BRANCH   2   3
ATOM      3  N   UNL A   1      40.158  19.209  25.993  1.00  0.00    -0.352 N 
ATOM      4  O   UNL A   1      42.129  18.169  25.960  1.00  0.00    -0.269 OA
ATOM      5  C   UNL A   1      41.525  19.233  26.109  1.00  0.00     0.251 C 
ATOM      6  H   UNL A   1      39.766  18.307  26.030  1.00  0.00     0.163 HD
BRANCH   5   7
ATOM      7  C   UNL A   1      42.307  20.464  26.406  1.00  0.00     0.039 A 
ATOM      8  C   UNL A   1      42.884  21.262  25.417  1.00  0.00     0.014 A 
ATOM      9  C   UNL A   1      42.315  20.935  27.731  1.00  0.00     0.014 A 
ATOM     10  C   UNL A   1      43.507  22.469  25.744  1.00  0.00     0.010 A 
ATOM     11  C   UNL A   1      42.851  22.191  28.047  1.00  0.00     0.010 A 
ATOM     12  C   UNL A   1      43.437  22.980  27.050  1.00  0.00    -0.014 A 
BRANCH  12  13
ATOM     13  C   UNL A   1      43.806  24.401  27.297  1.00  0.00     0.031 A 
ATOM     14  C   UNL A   1      45.215  24.896  27.149  1.00  0.00     0.074 A 
ATOM     15  C   UNL A   1      42.835  25.252  27.691  1.00  0.00     0.049 A 
ATOM     16  N   UNL A   1      45.683  26.106  27.334  1.00  0.00    -0.248 NA
ATOM     17  C   UNL A   1      46.235  23.914  26.752  1.00  0.00     0.031 C 
ATOM     18  C   UNL A   1      41.435  24.884  27.923  1.00  0.00     0.029 A 
ATOM     19  N   UNL A   1      42.867  26.599  27.958  1.00  0.00    -0.354 N 
ATOM     20  C   UNL A   1      47.048  26.030  27.099  1.00  0.00     0.074 A 
ATOM     21  C   UNL A   1      47.340  24.651  26.767  1.00  0.00     0.031 C 
ATOM     22  C   UNL A   1      40.738  25.979  28.256  1.00  0.00     0.029 A 
ATOM     23  C   UNL A   1      41.646  27.116  28.321  1.00  0.00     0.049 A 
ATOM     24  H   UNL A   1      43.686  27.141  27.896  1.00  0.00     0.167 HD
ATOM     25  C   UNL A   1      47.969  27.022  27.149  1.00  0.00     0.037 A 
ATOM     26  C   UNL A   1      41.293  28.361  28.691  1.00  0.00     0.037 A 
ATOM     27  C   UNL A   1      47.674  28.400  27.451  1.00  0.00     0.049 A 
ATOM     28  C   UNL A   1      42.339  29.434  28.742  1.00  0.00     0.074 A 
ATOM     29  C   UNL A   1      48.531  29.488  27.432  1.00  0.00     0.029 A 
ATOM     30  N   UNL A   1      46.432  28.879  27.836  1.00  0.00    -0.354 N 
ATOM     31  N   UNL A   1      43.612  29.358  28.442  1.00  0.00    -0.248 NA
ATOM     32  C   UNL A   1      41.904  30.763  29.195  1.00  0.00     0.031 C 
ATOM     33  C   UNL A   1      47.817  30.617  27.849  1.00  0.00     0.029 A 
ATOM     34  C   UNL A   1      46.508  30.238  28.094  1.00  0.00     0.049 A 
ATOM     35  H   UNL A   1      45.616  28.333  27.916  1.00  0.00     0.167 HD
ATOM     36  C   UNL A   1      44.131  30.623  28.670  1.00  0.00     0.074 A 
ATOM     37  C   UNL A   1      43.030  31.457  29.107  1.00  0.00     0.031 C 
ATOM     38  C   UNL A   1      45.410  31.052  28.542  1.00  0.00     0.037 A 
BRANCH  25  39
ATOM     39  C   UNL A   1      49.400  26.668  26.875  1.00  0.00     0.057 A 
ATOM     40  C   UNL A   1      50.278  26.301  27.901  1.00  0.00     0.134 A 
ATOM     41  C   UNL A   1      49.877  26.604  25.560  1.00  0.00     0.134 A 
ATOM     42  F   UNL A   1      49.882  26.346  29.182  1.00  0.00    -0.206 F 
ATOM     43  C   UNL A   1      51.582  25.885  27.629  1.00  0.00     0.040 A 
ATOM     44  C   UNL A   1      51.174  26.175  25.274  1.00  0.00     0.040 A 
ATOM     45  F   UNL A   1      49.082  26.936  24.531  1.00  0.00    -0.206 F 
ATOM     46  C   UNL A   1      52.031  25.814  26.311  1.00  0.00     0.006 A 
ENDBRANCH  25  39
BRANCH  26  47
ATOM     47  C   UNL A   1      39.890  28.652  29.072  1.00  0.00     0.057 A 
ATOM     48  C   UNL A   1      38.964  29.118  28.133  1.00  0.00     0.134 A 
ATOM     49  C   UNL A   1      39.444  28.473  30.388  1.00  0.00     0.134 A 
ATOM     50  F   UNL A   1      39.338  29.328  26.863  1.00  0.00    -0.206 F 
ATOM     51  C   UNL A   1      37.646  29.409  28.491  1.00  0.00     0.040 A 
ATOM     52  C   UNL A   1      38.124  28.737  30.754  1.00  0.00     0.040 A 
ATOM     53  F   UNL A   1      40.283  28.024  31.332  1.00  0.00    -0.206 F 
ATOM     54  C   UNL A   1      37.223  29.213  29.804  1.00  0.00     0.006 A 
ENDBRANCH  26  47
BRANCH  38  55
ATOM     55  C   UNL A   1      45.679  32.484  28.886  1.00  0.00     0.057 A 
ATOM     56  C   UNL A   1      45.533  33.501  27.934  1.00  0.00     0.134 A 
ATOM     57  C   UNL A   1      46.067  32.854  30.178  1.00  0.00     0.134 A 
ATOM     58  F   UNL A   1      45.180  33.207  26.674  1.00  0.00    -0.206 F 
ATOM     59  C   UNL A   1      45.782  34.837  28.253  1.00  0.00     0.040 A 
ATOM     60  C   UNL A   1      46.300  34.188  30.514  1.00  0.00     0.040 A 
ATOM     61  F   UNL A   1      46.222  31.927  31.135  1.00  0.00    -0.206 F 
ATOM     62  C   UNL A   1      46.163  35.183  29.548  1.00  0.00     0.006 A 
ENDBRANCH  38  55
ENDBRANCH  12  13
ENDBRANCH   5   7
ENDBRANCH   2   3
ENDBRANCH   1   2
BRANCH   1  63
ATOM     63  C   UNL A   1      36.770  20.693  25.138  1.00  0.00     0.117 C 
BRANCH  63  64
ATOM     64  N   UNL A   1      36.834  21.841  24.250  1.00  0.00    -0.356 N 
ATOM     65  C   UNL A   1      35.877  22.576  23.638  1.00  0.00     0.223 C 
ATOM     66  H   UNL A   1      37.751  22.142  24.056  1.00  0.00     0.163 HD
ATOM     67  O   UNL A   1      36.255  23.349  22.752  1.00  0.00    -0.275 OA
BRANCH  65  68
ATOM     68  C   UNL A   1      34.396  22.514  23.994  1.00  0.00     0.092 C 
BRANCH  68  69
ATOM     69  C   UNL A   1      34.042  23.065  25.396  1.00  0.00     0.050 C 
BRANCH  69  70
ATOM     70  C   UNL A   1      33.383  24.418  25.564  1.00  0.00    -0.033 A 
ATOM     71  C   UNL A   1      34.183  25.565  25.383  1.00  0.00     0.005 A 
ATOM     72  C   UNL A   1      32.051  24.616  25.967  1.00  0.00     0.021 A 
ATOM     73  C   UNL A   1      33.660  26.854  25.533  1.00  0.00     0.000 A 
ATOM     74  C   UNL A   1      31.521  25.910  26.084  1.00  0.00     0.016 A 
ATOM     75  Br  UNL A   1      30.895  23.197  26.472  1.00  0.00    -0.051 Br
ATOM     76  C   UNL A   1      32.322  27.027  25.860  1.00  0.00     0.001 A 
ENDBRANCH  69  70
ENDBRANCH  68  69
BRANCH  68  77
ATOM     77  C   UNL A   1      33.421  22.859  22.863  1.00  0.00     0.129 C 
BRANCH  77  78
ATOM     78  C   UNL A   1      32.153  22.029  22.879  1.00  0.00     0.389 C 
ATOM     79  F   UNL A   1      31.063  22.796  23.083  1.00  0.00    -0.171 F 
ATOM     80  F   UNL A   1      31.997  21.409  21.686  1.00  0.00    -0.171 F 
ATOM     81  F   UNL A   1      32.182  21.069  23.823  1.00  0.00    -0.171 F 
ENDBRANCH  77  78
ENDBRANCH  68  77
ENDBRANCH  65  68
ENDBRANCH  63  64
ENDBRANCH   1  63
TORSDOF 14
ENDMDL
