MODEL 1
REMARK VINA RESULT:     -13.8      0.000      0.000
REMARK SMILES Cc1ccc([C@@H](C)Nc2ccc(N)cc2C(=O)NCCCNC(=O)c2ccc(-c3c4nc(c(-c5c(F)cccc5F)c5ccc([nH]5)c(-c5c(F)cccc5F)c5nc(c(-c6c(F)cccc6F)c6ccc3[nH]6)C=C5)C=C4)cc2)cc1F
REMARK SMILES IDX 19 1 18 2 16 3 17 4 15 6 9 7 10 8 11 9 14 10 12 11 8 12 6 14
REMARK SMILES IDX 7 15 5 16 1 17 2 18 3 19 80 20 4 21 79 22 81 23 13 24 20 27
REMARK SMILES IDX 21 28 22 29 23 30 24 32 25 33 26 34 78 35 27 36 77 37 28 38
REMARK SMILES IDX 29 39 30 40 71 41 31 42 76 43 70 44 72 45 32 46 75 47 69 48
REMARK SMILES IDX 68 49 33 51 59 52 42 53 58 54 43 55 46 56 57 57 73 58 44 59
REMARK SMILES IDX 45 60 56 62 74 63 47 64 34 65 35 66 40 67 36 68 37 69 39 70
REMARK SMILES IDX 41 71 38 72 60 73 61 74 66 75 62 76 63 77 65 78 67 79 64 80
REMARK SMILES IDX 48 81 49 82 54 83 50 84 51 85 53 86 55 87 52 88
REMARK H PARENT 18 5 8 13 13 25 13 26 22 31 72 50 46 61
REMARK Flexibility Score: inf
ROOT
ATOM      1  C   UNL A   1      33.067  29.645  27.212  1.00  0.00     0.118 C 
ENDROOT
BRANCH   1   2
ATOM      2  N   UNL A   1      33.568  28.394  26.645  1.00  0.00    -0.352 N 
ATOM      3  C   UNL A   1      33.084  27.629  25.608  1.00  0.00     0.253 C 
ATOM      4  O   UNL A   1      33.786  26.742  25.126  1.00  0.00    -0.269 OA
ATOM      5  H   UNL A   1      34.383  28.043  27.073  1.00  0.00     0.163 HD
BRANCH   3   6
ATOM      6  C   UNL A   1      31.668  27.754  25.214  1.00  0.00     0.065 A 
ATOM      7  C   UNL A   1      30.747  26.703  25.219  1.00  0.00     0.048 A 
ATOM      8  C   UNL A   1      29.781  26.762  24.199  1.00  0.00     0.028 A 
ATOM      9  C   UNL A   1      29.648  27.879  23.357  1.00  0.00     0.027 A 
ATOM     10  C   UNL A   1      31.427  28.946  24.502  1.00  0.00     0.041 A 
ATOM     11  C   UNL A   1      30.392  29.029  23.584  1.00  0.00     0.032 A 
BRANCH   7  12
ATOM     12  N   UNL A   1      30.699  25.627  26.086  1.00  0.00    -0.378 N 
ATOM     13  H   UNL A   1      30.570  25.872  27.031  1.00  0.00     0.161 HD
BRANCH  12  14
ATOM     14  C   UNL A   1      30.805  24.189  25.844  1.00  0.00     0.106 C 
ATOM     15  C   UNL A   1      30.126  23.302  26.876  1.00  0.00     0.036 C 
BRANCH  14  16
ATOM     16  C   UNL A   1      32.197  23.878  25.342  1.00  0.00    -0.023 A 
ATOM     17  C   UNL A   1      36.652  22.661  23.127  1.00  0.00     0.047 C 
ATOM     18  C   UNL A   1      35.375  23.078  23.781  1.00  0.00    -0.015 A 
ATOM     19  C   UNL A   1      33.907  23.282  22.774  1.00  0.00     0.007 A 
ATOM     20  C   UNL A   1      35.248  23.222  25.580  1.00  0.00     0.126 A 
ATOM     21  C   UNL A   1      32.329  23.748  23.535  1.00  0.00     0.006 A 
ATOM     22  C   UNL A   1      33.681  23.627  26.370  1.00  0.00     0.045 A 
ATOM     23  F   UNL A   1      36.349  23.069  26.328  1.00  0.00    -0.207 F 
ENDBRANCH  14  16
ENDBRANCH  12  14
ENDBRANCH   7  12
BRANCH  11  24
ATOM     24  N   UNL A   1      30.265  30.146  22.776  1.00  0.00    -0.399 N 
ATOM     25  H   UNL A   1      29.473  30.251  22.201  1.00  0.00     0.156 HD
ATOM     26  H   UNL A   1      30.967  30.837  22.778  1.00  0.00     0.156 HD
ENDBRANCH  11  24
ENDBRANCH   3   6
ENDBRANCH   1   2
BRANCH   1  27
ATOM     27  C   UNL A   1      34.131  30.813  27.929  1.00  0.00     0.042 C 
BRANCH  27  28
ATOM     28  C   UNL A   1      34.300  32.997  27.984  1.00  0.00     0.118 C 
BRANCH  28  29
ATOM     29  N   UNL A   1      34.159  34.104  29.181  1.00  0.00    -0.352 N 
ATOM     30  C   UNL A   1      34.603  33.993  30.492  1.00  0.00     0.251 C 
ATOM     31  H   UNL A   1      33.707  34.946  28.945  1.00  0.00     0.163 HD
ATOM     32  O   UNL A   1      34.286  34.768  31.381  1.00  0.00    -0.269 OA
BRANCH  30  33
ATOM     33  C   UNL A   1      35.620  32.967  30.725  1.00  0.00     0.039 A 
ATOM     34  C   UNL A   1      35.388  31.715  31.307  1.00  0.00     0.014 A 
ATOM     35  C   UNL A   1      36.851  33.309  30.178  1.00  0.00     0.014 A 
ATOM     36  C   UNL A   1      36.450  30.817  31.350  1.00  0.00     0.010 A 
ATOM     37  C   UNL A   1      37.690  32.305  29.858  1.00  0.00     0.010 A 
ATOM     38  C   UNL A   1      37.598  31.157  30.635  1.00  0.00    -0.014 A 
BRANCH  38  39
ATOM     39  C   UNL A   1      38.895  30.520  30.712  1.00  0.00     0.031 A 
ATOM     40  C   UNL A   1      39.058  29.256  30.006  1.00  0.00     0.074 A 
ATOM     41  C   UNL A   1      39.839  31.361  31.209  1.00  0.00     0.049 A 
ATOM     42  N   UNL A   1      39.783  28.277  30.403  1.00  0.00    -0.248 NA
ATOM     43  C   UNL A   1      38.299  28.937  28.791  1.00  0.00     0.031 C 
ATOM     44  C   UNL A   1      41.281  31.432  31.085  1.00  0.00     0.029 A 
ATOM     45  N   UNL A   1      39.555  32.468  32.030  1.00  0.00    -0.354 N 
ATOM     46  C   UNL A   1      39.985  27.514  29.272  1.00  0.00     0.074 A 
ATOM     47  C   UNL A   1      38.842  27.767  28.433  1.00  0.00     0.031 C 
ATOM     48  C   UNL A   1      41.757  32.260  32.043  1.00  0.00     0.029 A 
ATOM     49  C   UNL A   1      40.639  32.680  32.879  1.00  0.00     0.049 A 
ATOM     50  H   UNL A   1      38.729  33.003  32.007  1.00  0.00     0.167 HD
ATOM     51  C   UNL A   1      41.250  27.082  28.994  1.00  0.00     0.037 A 
ATOM     52  C   UNL A   1      40.413  32.375  34.194  1.00  0.00     0.037 A 
ATOM     53  C   UNL A   1      42.190  27.690  29.947  1.00  0.00     0.049 A 
ATOM     54  C   UNL A   1      41.006  31.022  34.531  1.00  0.00     0.074 A 
ATOM     55  C   UNL A   1      43.115  28.719  29.883  1.00  0.00     0.029 A 
ATOM     56  N   UNL A   1      41.979  27.473  31.289  1.00  0.00    -0.354 N 
ATOM     57  N   UNL A   1      41.522  30.213  33.644  1.00  0.00    -0.248 NA
ATOM     58  C   UNL A   1      41.064  30.466  35.876  1.00  0.00     0.031 C 
ATOM     59  C   UNL A   1      43.480  29.069  31.226  1.00  0.00     0.029 A 
ATOM     60  C   UNL A   1      42.757  28.269  32.093  1.00  0.00     0.049 A 
ATOM     61  H   UNL A   1      41.336  26.815  31.638  1.00  0.00     0.167 HD
ATOM     62  C   UNL A   1      41.986  29.080  34.240  1.00  0.00     0.074 A 
ATOM     63  C   UNL A   1      41.632  29.268  35.640  1.00  0.00     0.031 C 
ATOM     64  C   UNL A   1      42.613  28.089  33.530  1.00  0.00     0.037 A 
BRANCH  51  65
ATOM     65  C   UNL A   1      41.708  26.337  27.762  1.00  0.00     0.057 A 
ATOM     66  C   UNL A   1      41.988  27.043  26.574  1.00  0.00     0.134 A 
ATOM     67  C   UNL A   1      41.990  24.960  27.692  1.00  0.00     0.134 A 
ATOM     68  F   UNL A   1      41.852  28.374  26.493  1.00  0.00    -0.206 F 
ATOM     69  C   UNL A   1      42.460  26.431  25.406  1.00  0.00     0.040 A 
ATOM     70  C   UNL A   1      42.437  24.328  26.519  1.00  0.00     0.040 A 
ATOM     71  F   UNL A   1      41.916  24.163  28.763  1.00  0.00    -0.206 F 
ATOM     72  C   UNL A   1      42.676  25.065  25.371  1.00  0.00     0.006 A 
ENDBRANCH  51  65
BRANCH  52  73
ATOM     73  C   UNL A   1      39.068  32.914  34.624  1.00  0.00     0.057 A 
ATOM     74  C   UNL A   1      38.883  34.313  34.535  1.00  0.00     0.134 A 
ATOM     75  C   UNL A   1      37.905  32.132  34.583  1.00  0.00     0.134 A 
ATOM     76  F   UNL A   1      39.944  35.135  34.591  1.00  0.00    -0.206 F 
ATOM     77  C   UNL A   1      37.644  34.887  34.223  1.00  0.00     0.040 A 
ATOM     78  C   UNL A   1      36.653  32.704  34.304  1.00  0.00     0.040 A 
ATOM     79  F   UNL A   1      37.977  30.796  34.664  1.00  0.00    -0.206 F 
ATOM     80  C   UNL A   1      36.529  34.073  34.063  1.00  0.00     0.006 A 
ENDBRANCH  52  73
BRANCH  64  81
ATOM     81  C   UNL A   1      43.074  26.786  34.137  1.00  0.00     0.057 A 
ATOM     82  C   UNL A   1      42.187  25.867  34.699  1.00  0.00     0.134 A 
ATOM     83  C   UNL A   1      44.440  26.425  34.230  1.00  0.00     0.134 A 
ATOM     84  F   UNL A   1      40.890  26.162  34.863  1.00  0.00    -0.206 F 
ATOM     85  C   UNL A   1      42.607  24.612  35.154  1.00  0.00     0.040 A 
ATOM     86  C   UNL A   1      44.877  25.204  34.732  1.00  0.00     0.040 A 
ATOM     87  F   UNL A   1      45.442  27.217  33.832  1.00  0.00    -0.206 F 
ATOM     88  C   UNL A   1      43.954  24.270  35.157  1.00  0.00     0.006 A 
ENDBRANCH  64  81
ENDBRANCH  38  39
ENDBRANCH  30  33
ENDBRANCH  28  29
ENDBRANCH  27  28
ENDBRANCH   1  27
TORSDOF 14
ENDMDL
MODEL 2
REMARK VINA RESULT:     -13.8      2.384      3.808
REMARK SMILES Cc1ccc([C@@H](C)Nc2ccc(N)cc2C(=O)NCCCNC(=O)c2ccc(-c3c4nc(c(-c5c(F)cccc5F)c5ccc([nH]5)c(-c5c(F)cccc5F)c5nc(c(-c6c(F)cccc6F)c6ccc3[nH]6)C=C5)C=C4)cc2)cc1F
REMARK SMILES IDX 19 1 18 2 16 3 17 4 15 6 9 7 10 8 11 9 14 10 12 11 8 12 6 14
REMARK SMILES IDX 7 15 5 16 1 17 2 18 3 19 80 20 4 21 79 22 81 23 13 24 20 27
REMARK SMILES IDX 21 28 22 29 23 30 24 32 25 33 26 34 78 35 27 36 77 37 28 38
REMARK SMILES IDX 29 39 30 40 71 41 31 42 76 43 70 44 72 45 32 46 75 47 69 48
REMARK SMILES IDX 68 49 33 51 59 52 42 53 58 54 43 55 46 56 57 57 73 58 44 59
REMARK SMILES IDX 45 60 56 62 74 63 47 64 34 65 35 66 40 67 36 68 37 69 39 70
REMARK SMILES IDX 41 71 38 72 60 73 61 74 66 75 62 76 63 77 65 78 67 79 64 80
REMARK SMILES IDX 48 81 49 82 54 83 50 84 51 85 53 86 55 87 52 88
REMARK H PARENT 18 5 8 13 13 25 13 26 22 31 72 50 46 61
REMARK Flexibility Score: inf
ROOT
ATOM      1  C   UNL A   1      32.887  26.588  25.608  1.00  0.00     0.118 C 
ENDROOT
BRANCH   1   2
ATOM      2  N   UNL A   1      32.740  25.258  26.195  1.00  0.00    -0.352 N 
ATOM      3  C   UNL A   1      33.568  24.161  26.136  1.00  0.00     0.253 C 
ATOM      4  O   UNL A   1      33.383  23.215  26.899  1.00  0.00    -0.269 OA
ATOM      5  H   UNL A   1      31.915  25.126  26.718  1.00  0.00     0.163 HD
BRANCH   3   6
ATOM      6  C   UNL A   1      34.547  24.050  25.037  1.00  0.00     0.065 A 
ATOM      7  C   UNL A   1      34.247  23.592  23.752  1.00  0.00     0.048 A 
ATOM      8  C   UNL A   1      35.282  22.871  23.128  1.00  0.00     0.028 A 
ATOM      9  C   UNL A   1      36.569  22.776  23.683  1.00  0.00     0.027 A 
ATOM     10  C   UNL A   1      35.872  24.115  25.510  1.00  0.00     0.041 A 
ATOM     11  C   UNL A   1      36.905  23.501  24.819  1.00  0.00     0.032 A 
BRANCH   7  12
ATOM     12  N   UNL A   1      33.065  23.749  23.053  1.00  0.00    -0.378 N 
ATOM     13  H   UNL A   1      33.071  24.490  22.404  1.00  0.00     0.161 HD
BRANCH  12  14
ATOM     14  C   UNL A   1      31.806  23.006  23.109  1.00  0.00     0.106 C 
ATOM     15  C   UNL A   1      30.653  23.727  23.790  1.00  0.00     0.036 C 
BRANCH  14  16
ATOM     16  C   UNL A   1      32.106  21.555  23.409  1.00  0.00    -0.023 A 
ATOM     17  C   UNL A   1      32.903  16.518  23.883  1.00  0.00     0.047 C 
ATOM     18  C   UNL A   1      32.736  17.997  23.753  1.00  0.00    -0.015 A 
ATOM     19  C   UNL A   1      32.401  18.697  22.138  1.00  0.00     0.007 A 
ATOM     20  C   UNL A   1      32.705  19.067  25.212  1.00  0.00     0.126 A 
ATOM     21  C   UNL A   1      32.152  20.482  21.945  1.00  0.00     0.006 A 
ATOM     22  C   UNL A   1      32.404  20.835  25.057  1.00  0.00     0.045 A 
ATOM     23  F   UNL A   1      32.957  18.539  26.416  1.00  0.00    -0.207 F 
ENDBRANCH  14  16
ENDBRANCH  12  14
ENDBRANCH   7  12
BRANCH  11  24
ATOM     24  N   UNL A   1      38.172  23.434  25.374  1.00  0.00    -0.399 N 
ATOM     25  H   UNL A   1      38.869  24.067  25.088  1.00  0.00     0.156 HD
ATOM     26  H   UNL A   1      38.375  22.753  26.055  1.00  0.00     0.156 HD
ENDBRANCH  11  24
ENDBRANCH   3   6
ENDBRANCH   1   2
BRANCH   1  27
ATOM     27  C   UNL A   1      32.994  28.014  26.590  1.00  0.00     0.042 C 
BRANCH  27  28
ATOM     28  C   UNL A   1      34.486  29.567  26.993  1.00  0.00     0.118 C 
BRANCH  28  29
ATOM     29  N   UNL A   1      34.408  31.044  27.695  1.00  0.00    -0.352 N 
ATOM     30  C   UNL A   1      35.084  31.479  28.826  1.00  0.00     0.251 C 
ATOM     31  H   UNL A   1      33.811  31.699  27.265  1.00  0.00     0.163 HD
ATOM     32  O   UNL A   1      34.824  32.521  29.411  1.00  0.00    -0.269 OA
BRANCH  30  33
ATOM     33  C   UNL A   1      36.255  30.686  29.201  1.00  0.00     0.039 A 
ATOM     34  C   UNL A   1      36.278  29.693  30.188  1.00  0.00     0.014 A 
ATOM     35  C   UNL A   1      37.343  30.925  28.370  1.00  0.00     0.014 A 
ATOM     36  C   UNL A   1      37.450  28.959  30.336  1.00  0.00     0.010 A 
ATOM     37  C   UNL A   1      38.263  29.949  28.254  1.00  0.00     0.010 A 
ATOM     38  C   UNL A   1      38.435  29.131  29.364  1.00  0.00    -0.014 A 
BRANCH  38  39
ATOM     39  C   UNL A   1      39.807  28.673  29.420  1.00  0.00     0.031 A 
ATOM     40  C   UNL A   1      40.082  27.336  28.911  1.00  0.00     0.074 A 
ATOM     41  C   UNL A   1      40.666  29.691  29.685  1.00  0.00     0.049 A 
ATOM     42  N   UNL A   1      40.956  26.530  29.390  1.00  0.00    -0.248 NA
ATOM     43  C   UNL A   1      39.285  26.728  27.840  1.00  0.00     0.031 C 
ATOM     44  C   UNL A   1      42.074  29.909  29.416  1.00  0.00     0.029 A 
ATOM     45  N   UNL A   1      40.300  30.880  30.342  1.00  0.00    -0.354 N 
ATOM     46  C   UNL A   1      41.173  25.616  28.381  1.00  0.00     0.074 A 
ATOM     47  C   UNL A   1      39.948  25.587  27.623  1.00  0.00     0.031 C 
ATOM     48  C   UNL A   1      42.505  30.937  30.182  1.00  0.00     0.029 A 
ATOM     49  C   UNL A   1      41.406  31.359  31.042  1.00  0.00     0.049 A 
ATOM     50  H   UNL A   1      39.411  31.304  30.313  1.00  0.00     0.167 HD
ATOM     51  C   UNL A   1      42.460  25.294  28.057  1.00  0.00     0.037 A 
ATOM     52  C   UNL A   1      41.319  31.257  32.403  1.00  0.00     0.037 A 
ATOM     53  C   UNL A   1      43.379  26.160  28.809  1.00  0.00     0.049 A 
ATOM     54  C   UNL A   1      42.107  30.061  32.895  1.00  0.00     0.074 A 
ATOM     55  C   UNL A   1      44.154  27.265  28.496  1.00  0.00     0.029 A 
ATOM     56  N   UNL A   1      43.298  26.152  30.183  1.00  0.00    -0.354 N 
ATOM     57  N   UNL A   1      42.658  29.179  32.104  1.00  0.00    -0.248 NA
ATOM     58  C   UNL A   1      42.336  29.752  34.299  1.00  0.00     0.031 C 
ATOM     59  C   UNL A   1      44.568  27.878  29.726  1.00  0.00     0.029 A 
ATOM     60  C   UNL A   1      44.021  27.158  30.773  1.00  0.00     0.049 A 
ATOM     61  H   UNL A   1      42.774  25.491  30.691  1.00  0.00     0.167 HD
ATOM     62  C   UNL A   1      43.310  28.226  32.826  1.00  0.00     0.074 A 
ATOM     63  C   UNL A   1      43.037  28.606  34.205  1.00  0.00     0.031 C 
ATOM     64  C   UNL A   1      44.007  27.209  32.228  1.00  0.00     0.037 A 
BRANCH  51  65
ATOM     65  C   UNL A   1      42.921  24.410  26.922  1.00  0.00     0.057 A 
ATOM     66  C   UNL A   1      42.739  23.014  26.997  1.00  0.00     0.134 A 
ATOM     67  C   UNL A   1      43.453  24.856  25.698  1.00  0.00     0.134 A 
ATOM     68  F   UNL A   1      42.169  22.430  28.060  1.00  0.00    -0.206 F 
ATOM     69  C   UNL A   1      43.097  22.134  25.969  1.00  0.00     0.040 A 
ATOM     70  C   UNL A   1      43.844  23.981  24.669  1.00  0.00     0.040 A 
ATOM     71  F   UNL A   1      43.565  26.155  25.400  1.00  0.00    -0.206 F 
ATOM     72  C   UNL A   1      43.663  22.614  24.802  1.00  0.00     0.006 A 
ENDBRANCH  51  65
BRANCH  52  73
ATOM     73  C   UNL A   1      39.949  31.700  32.867  1.00  0.00     0.057 A 
ATOM     74  C   UNL A   1      39.087  30.696  33.363  1.00  0.00     0.134 A 
ATOM     75  C   UNL A   1      39.702  33.005  33.315  1.00  0.00     0.134 A 
ATOM     76  F   UNL A   1      39.241  29.422  32.964  1.00  0.00    -0.206 F 
ATOM     77  C   UNL A   1      38.169  30.938  34.392  1.00  0.00     0.040 A 
ATOM     78  C   UNL A   1      38.758  33.262  34.323  1.00  0.00     0.040 A 
ATOM     79  F   UNL A   1      40.463  34.027  32.899  1.00  0.00    -0.206 F 
ATOM     80  C   UNL A   1      38.034  32.221  34.906  1.00  0.00     0.006 A 
ENDBRANCH  52  73
BRANCH  64  81
ATOM     81  C   UNL A   1      44.678  26.091  32.988  1.00  0.00     0.057 A 
ATOM     82  C   UNL A   1      43.968  25.210  33.805  1.00  0.00     0.134 A 
ATOM     83  C   UNL A   1      46.080  25.888  32.973  1.00  0.00     0.134 A 
ATOM     84  F   UNL A   1      42.670  25.404  34.074  1.00  0.00    -0.206 F 
ATOM     85  C   UNL A   1      44.578  24.107  34.414  1.00  0.00     0.040 A 
ATOM     86  C   UNL A   1      46.706  24.828  33.620  1.00  0.00     0.040 A 
ATOM     87  F   UNL A   1      46.935  26.686  32.324  1.00  0.00    -0.206 F 
ATOM     88  C   UNL A   1      45.948  23.904  34.309  1.00  0.00     0.006 A 
ENDBRANCH  64  81
ENDBRANCH  38  39
ENDBRANCH  30  33
ENDBRANCH  28  29
ENDBRANCH  27  28
ENDBRANCH   1  27
TORSDOF 14
ENDMDL
MODEL 3
REMARK VINA RESULT:     -13.7      2.256      4.117
REMARK SMILES Cc1ccc([C@@H](C)Nc2ccc(N)cc2C(=O)NCCCNC(=O)c2ccc(-c3c4nc(c(-c5c(F)cccc5F)c5ccc([nH]5)c(-c5c(F)cccc5F)c5nc(c(-c6c(F)cccc6F)c6ccc3[nH]6)C=C5)C=C4)cc2)cc1F
REMARK SMILES IDX 19 1 18 2 16 3 17 4 15 6 9 7 10 8 11 9 14 10 12 11 8 12 6 14
REMARK SMILES IDX 7 15 5 16 1 17 2 18 3 19 80 20 4 21 79 22 81 23 13 24 20 27
REMARK SMILES IDX 21 28 22 29 23 30 24 32 25 33 26 34 78 35 27 36 77 37 28 38
REMARK SMILES IDX 29 39 30 40 71 41 31 42 76 43 70 44 72 45 32 46 75 47 69 48
REMARK SMILES IDX 68 49 33 51 59 52 42 53 58 54 43 55 46 56 57 57 73 58 44 59
REMARK SMILES IDX 45 60 56 62 74 63 47 64 34 65 35 66 40 67 36 68 37 69 39 70
REMARK SMILES IDX 41 71 38 72 60 73 61 74 66 75 62 76 63 77 65 78 67 79 64 80
REMARK SMILES IDX 48 81 49 82 54 83 50 84 51 85 53 86 55 87 52 88
REMARK H PARENT 18 5 8 13 13 25 13 26 22 31 72 50 46 61
REMARK Flexibility Score: inf
ROOT
ATOM      1  C   UNL A   1      32.160  25.893  26.152  1.00  0.00     0.118 C 
ENDROOT
BRANCH   1   2
ATOM      2  N   UNL A   1      31.822  24.692  26.915  1.00  0.00    -0.352 N 
ATOM      3  C   UNL A   1      32.508  23.509  27.064  1.00  0.00     0.253 C 
ATOM      4  O   UNL A   1      32.173  22.717  27.943  1.00  0.00    -0.269 OA
ATOM      5  H   UNL A   1      30.966  24.739  27.401  1.00  0.00     0.163 HD
BRANCH   3   6
ATOM      6  C   UNL A   1      33.510  23.119  26.053  1.00  0.00     0.065 A 
ATOM      7  C   UNL A   1      33.300  22.162  25.058  1.00  0.00     0.048 A 
ATOM      8  C   UNL A   1      34.439  21.409  24.717  1.00  0.00     0.028 A 
ATOM      9  C   UNL A   1      35.717  21.718  25.211  1.00  0.00     0.027 A 
ATOM     10  C   UNL A   1      34.804  23.548  26.408  1.00  0.00     0.041 A 
ATOM     11  C   UNL A   1      35.925  22.865  25.965  1.00  0.00     0.032 A 
BRANCH   7  12
ATOM     12  N   UNL A   1      32.119  21.868  24.403  1.00  0.00    -0.378 N 
ATOM     13  H   UNL A   1      31.515  21.271  24.902  1.00  0.00     0.161 HD
BRANCH  12  14
ATOM     14  C   UNL A   1      31.608  22.290  23.099  1.00  0.00     0.106 C 
ATOM     15  C   UNL A   1      31.994  21.401  21.928  1.00  0.00     0.036 C 
BRANCH  14  16
ATOM     16  C   UNL A   1      31.703  23.797  23.001  1.00  0.00    -0.023 A 
ATOM     17  C   UNL A   1      31.427  28.901  22.684  1.00  0.00     0.047 C 
ATOM     18  C   UNL A   1      31.543  27.418  22.832  1.00  0.00    -0.015 A 
ATOM     19  C   UNL A   1      30.105  26.480  23.341  1.00  0.00     0.007 A 
ATOM     20  C   UNL A   1      33.054  26.545  22.354  1.00  0.00     0.126 A 
ATOM     21  C   UNL A   1      30.193  24.676  23.494  1.00  0.00     0.006 A 
ATOM     22  C   UNL A   1      33.152  24.750  22.440  1.00  0.00     0.045 A 
ATOM     23  F   UNL A   1      34.126  27.252  21.974  1.00  0.00    -0.207 F 
ENDBRANCH  14  16
ENDBRANCH  12  14
ENDBRANCH   7  12
BRANCH  11  24
ATOM     24  N   UNL A   1      37.179  23.197  26.449  1.00  0.00    -0.399 N 
ATOM     25  H   UNL A   1      37.335  24.084  26.847  1.00  0.00     0.156 HD
ATOM     26  H   UNL A   1      37.916  22.546  26.395  1.00  0.00     0.156 HD
ENDBRANCH  11  24
ENDBRANCH   3   6
ENDBRANCH   1   2
BRANCH   1  27
ATOM     27  C   UNL A   1      32.527  27.399  26.932  1.00  0.00     0.042 C 
BRANCH  27  28
ATOM     28  C   UNL A   1      34.194  28.819  26.957  1.00  0.00     0.118 C 
BRANCH  28  29
ATOM     29  N   UNL A   1      34.279  30.450  27.080  1.00  0.00    -0.352 N 
ATOM     30  C   UNL A   1      35.117  31.192  27.899  1.00  0.00     0.251 C 
ATOM     31  H   UNL A   1      33.663  30.962  26.508  1.00  0.00     0.163 HD
ATOM     32  O   UNL A   1      34.986  32.393  28.090  1.00  0.00    -0.269 OA
BRANCH  30  33
ATOM     33  C   UNL A   1      36.289  30.480  28.410  1.00  0.00     0.039 A 
ATOM     34  C   UNL A   1      36.326  29.724  29.586  1.00  0.00     0.014 A 
ATOM     35  C   UNL A   1      37.357  30.517  27.523  1.00  0.00     0.014 A 
ATOM     36  C   UNL A   1      37.494  29.019  29.863  1.00  0.00     0.010 A 
ATOM     37  C   UNL A   1      38.264  29.524  27.599  1.00  0.00     0.010 A 
ATOM     38  C   UNL A   1      38.455  28.962  28.855  1.00  0.00    -0.014 A 
BRANCH  38  39
ATOM     39  C   UNL A   1      39.823  28.505  28.977  1.00  0.00     0.031 A 
ATOM     40  C   UNL A   1      40.098  27.125  28.600  1.00  0.00     0.074 A 
ATOM     41  C   UNL A   1      40.684  29.539  29.162  1.00  0.00     0.049 A 
ATOM     42  N   UNL A   1      40.958  26.363  29.167  1.00  0.00    -0.248 NA
ATOM     43  C   UNL A   1      39.316  26.424  27.576  1.00  0.00     0.031 C 
ATOM     44  C   UNL A   1      42.097  29.724  28.900  1.00  0.00     0.029 A 
ATOM     45  N   UNL A   1      40.314  30.786  29.699  1.00  0.00    -0.354 N 
ATOM     46  C   UNL A   1      41.187  25.357  28.251  1.00  0.00     0.074 A 
ATOM     47  C   UNL A   1      39.975  25.264  27.478  1.00  0.00     0.031 C 
ATOM     48  C   UNL A   1      42.522  30.817  29.573  1.00  0.00     0.029 A 
ATOM     49  C   UNL A   1      41.411  31.322  30.371  1.00  0.00     0.049 A 
ATOM     50  H   UNL A   1      39.429  31.209  29.615  1.00  0.00     0.167 HD
ATOM     51  C   UNL A   1      42.477  25.001  27.982  1.00  0.00     0.037 A 
ATOM     52  C   UNL A   1      41.300  31.348  31.734  1.00  0.00     0.037 A 
ATOM     53  C   UNL A   1      43.389  25.929  28.666  1.00  0.00     0.049 A 
ATOM     54  C   UNL A   1      42.072  30.198  32.349  1.00  0.00     0.074 A 
ATOM     55  C   UNL A   1      44.176  26.996  28.266  1.00  0.00     0.029 A 
ATOM     56  N   UNL A   1      43.284  26.049  30.033  1.00  0.00    -0.354 N 
ATOM     57  N   UNL A   1      42.631  29.244  31.653  1.00  0.00    -0.248 NA
ATOM     58  C   UNL A   1      42.275  30.021  33.780  1.00  0.00     0.031 C 
ATOM     59  C   UNL A   1      44.573  27.719  29.440  1.00  0.00     0.029 A 
ATOM     60  C   UNL A   1      44.003  27.102  30.540  1.00  0.00     0.049 A 
ATOM     61  H   UNL A   1      42.747  25.441  30.591  1.00  0.00     0.167 HD
ATOM     62  C   UNL A   1      43.264  28.359  32.472  1.00  0.00     0.074 A 
ATOM     63  C   UNL A   1      42.970  28.867  33.805  1.00  0.00     0.031 C 
ATOM     64  C   UNL A   1      43.965  27.288  31.983  1.00  0.00     0.037 A 
BRANCH  51  65
ATOM     65  C   UNL A   1      42.952  24.013  26.942  1.00  0.00     0.057 A 
ATOM     66  C   UNL A   1      43.304  24.460  25.652  1.00  0.00     0.134 A 
ATOM     67  C   UNL A   1      43.181  22.641  27.158  1.00  0.00     0.134 A 
ATOM     68  F   UNL A   1      43.225  25.752  25.306  1.00  0.00    -0.206 F 
ATOM     69  C   UNL A   1      43.795  23.615  24.651  1.00  0.00     0.040 A 
ATOM     70  C   UNL A   1      43.646  21.775  26.152  1.00  0.00     0.040 A 
ATOM     71  F   UNL A   1      43.034  22.074  28.360  1.00  0.00    -0.206 F 
ATOM     72  C   UNL A   1      43.957  22.262  24.894  1.00  0.00     0.006 A 
ENDBRANCH  51  65
BRANCH  52  73
ATOM     73  C   UNL A   1      39.926  31.839  32.130  1.00  0.00     0.057 A 
ATOM     74  C   UNL A   1      39.060  30.896  32.732  1.00  0.00     0.134 A 
ATOM     75  C   UNL A   1      39.673  33.186  32.422  1.00  0.00     0.134 A 
ATOM     76  F   UNL A   1      39.219  29.585  32.485  1.00  0.00    -0.206 F 
ATOM     77  C   UNL A   1      38.131  31.254  33.717  1.00  0.00     0.040 A 
ATOM     78  C   UNL A   1      38.719  33.556  33.384  1.00  0.00     0.040 A 
ATOM     79  F   UNL A   1      40.436  34.154  31.897  1.00  0.00    -0.206 F 
ATOM     80  C   UNL A   1      37.990  32.588  34.078  1.00  0.00     0.006 A 
ENDBRANCH  52  73
BRANCH  64  81
ATOM     81  C   UNL A   1      44.616  26.242  32.856  1.00  0.00     0.057 A 
ATOM     82  C   UNL A   1      45.948  25.860  32.698  1.00  0.00     0.134 A 
ATOM     83  C   UNL A   1      43.909  25.534  33.858  1.00  0.00     0.134 A 
ATOM     84  F   UNL A   1      46.680  26.297  31.664  1.00  0.00    -0.206 F 
ATOM     85  C   UNL A   1      46.577  24.976  33.582  1.00  0.00     0.040 A 
ATOM     86  C   UNL A   1      44.508  24.610  34.708  1.00  0.00     0.040 A 
ATOM     87  F   UNL A   1      42.602  25.693  34.094  1.00  0.00    -0.206 F 
ATOM     88  C   UNL A   1      45.861  24.360  34.602  1.00  0.00     0.006 A 
ENDBRANCH  64  81
ENDBRANCH  38  39
ENDBRANCH  30  33
ENDBRANCH  28  29
ENDBRANCH  27  28
ENDBRANCH   1  27
TORSDOF 14
ENDMDL
