MODEL 1
REMARK VINA RESULT:     -12.3      0.000      0.000
REMARK SMILES CC1=Nc2ncnn2[C@H](c2ccc(F)cc2)[C@@H]1C(=O)NCCCNC(=O)c1ccc(-c2c3nc(c(-c4c(F)cccc4F)c4ccc([nH]4)c(-c4c(F)cccc4F)c4nc(c(-c5c(F)cccc5F)c5ccc2[nH]5)C=C4)C=C3)cc1
REMARK SMILES IDX 22 1 21 2 20 3 18 4 19 5 17 7 1 8 2 9 3 10 4 11 9 12 5 13
REMARK SMILES IDX 8 14 6 15 7 16 10 17 11 18 16 19 12 20 15 21 13 22 14 23
REMARK SMILES IDX 23 24 24 25 25 26 26 28 27 29 28 30 80 31 29 32 79 33 30 34
REMARK SMILES IDX 31 35 32 36 73 37 33 38 78 39 72 40 74 41 34 42 77 43 71 44
REMARK SMILES IDX 70 45 35 47 61 48 44 49 60 50 45 51 48 52 59 53 75 54 46 55
REMARK SMILES IDX 47 56 58 58 76 59 49 60 36 61 37 62 42 63 38 64 39 65 41 66
REMARK SMILES IDX 43 67 40 68 62 69 63 70 68 71 64 72 65 73 67 74 69 75 66 76
REMARK SMILES IDX 50 77 51 78 56 79 52 80 53 81 55 82 57 83 54 84
REMARK H PARENT 20 6 24 27 74 46 48 57
REMARK Flexibility Score: inf
ROOT
ATOM      1  C   UNL A   1      33.440  30.504  27.292  1.00  0.00     0.042 C 
ENDROOT
BRANCH   1   2
ATOM      2  C   UNL A   1      34.102  29.133  27.191  1.00  0.00     0.117 C 
BRANCH   2   3
ATOM      3  N   UNL A   1      34.399  28.671  25.840  1.00  0.00    -0.355 N 
ATOM      4  C   UNL A   1      33.931  27.558  25.193  1.00  0.00     0.231 C 
ATOM      5  O   UNL A   1      34.082  27.521  23.971  1.00  0.00    -0.274 OA
ATOM      6  H   UNL A   1      35.019  29.234  25.324  1.00  0.00     0.163 HD
BRANCH   4   7
ATOM      7  C   UNL A   1      33.259  26.424  25.961  1.00  0.00     0.152 C 
ATOM      8  C   UNL A   1      35.274  24.774  25.494  1.00  0.00     0.063 C 
ATOM      9  C   UNL A   1      33.779  25.017  25.618  1.00  0.00     0.034 C 
ATOM     10  N   UNL A   1      33.057  23.937  25.626  1.00  0.00    -0.220 NA
ATOM     11  C   UNL A   1      31.755  24.014  25.967  1.00  0.00     0.248 A 
ATOM     12  C   UNL A   1      31.710  26.500  25.944  1.00  0.00     0.159 C 
ATOM     13  N   UNL A   1      30.926  23.051  26.311  1.00  0.00    -0.198 NA
ATOM     14  N   UNL A   1      31.090  25.199  26.092  1.00  0.00    -0.221 N 
ATOM     15  C   UNL A   1      29.794  23.710  26.693  1.00  0.00     0.248 A 
ATOM     16  N   UNL A   1      29.860  25.041  26.620  1.00  0.00    -0.157 NA
BRANCH  12  17
ATOM     17  C   UNL A   1      30.985  27.322  24.875  1.00  0.00    -0.022 A 
ATOM     18  C   UNL A   1      30.908  28.723  25.062  1.00  0.00     0.009 A 
ATOM     19  C   UNL A   1      30.510  26.788  23.669  1.00  0.00     0.009 A 
ATOM     20  C   UNL A   1      30.527  29.566  24.020  1.00  0.00     0.039 A 
ATOM     21  C   UNL A   1      30.145  27.637  22.621  1.00  0.00     0.039 A 
ATOM     22  C   UNL A   1      30.183  29.016  22.796  1.00  0.00     0.123 A 
ATOM     23  F   UNL A   1      29.895  29.821  21.766  1.00  0.00    -0.207 F 
ENDBRANCH  12  17
ENDBRANCH   4   7
ENDBRANCH   2   3
ENDBRANCH   1   2
BRANCH   1  24
ATOM     24  C   UNL A   1      34.405  31.616  27.680  1.00  0.00     0.118 C 
BRANCH  24  25
ATOM     25  N   UNL A   1      34.359  32.056  29.085  1.00  0.00    -0.352 N 
ATOM     26  C   UNL A   1      35.261  31.705  30.090  1.00  0.00     0.251 C 
ATOM     27  H   UNL A   1      33.620  32.655  29.340  1.00  0.00     0.163 HD
ATOM     28  O   UNL A   1      35.003  31.841  31.283  1.00  0.00    -0.269 OA
BRANCH  26  29
ATOM     29  C   UNL A   1      36.572  31.194  29.655  1.00  0.00     0.039 A 
ATOM     30  C   UNL A   1      37.718  31.981  29.496  1.00  0.00     0.014 A 
ATOM     31  C   UNL A   1      36.642  29.812  29.626  1.00  0.00     0.014 A 
ATOM     32  C   UNL A   1      38.958  31.339  29.435  1.00  0.00     0.010 A 
ATOM     33  C   UNL A   1      37.846  29.241  29.894  1.00  0.00     0.010 A 
ATOM     34  C   UNL A   1      39.012  29.959  29.674  1.00  0.00    -0.014 A 
BRANCH  34  35
ATOM     35  C   UNL A   1      40.246  29.190  29.787  1.00  0.00     0.031 A 
ATOM     36  C   UNL A   1      40.769  29.020  31.169  1.00  0.00     0.074 A 
ATOM     37  C   UNL A   1      40.698  28.445  28.750  1.00  0.00     0.049 A 
ATOM     38  N   UNL A   1      41.848  29.516  31.673  1.00  0.00    -0.248 NA
ATOM     39  C   UNL A   1      39.930  28.307  32.147  1.00  0.00     0.031 C 
ATOM     40  C   UNL A   1      40.096  28.262  27.415  1.00  0.00     0.029 A 
ATOM     41  N   UNL A   1      41.757  27.596  28.702  1.00  0.00    -0.354 N 
ATOM     42  C   UNL A   1      41.940  28.998  32.964  1.00  0.00     0.074 A 
ATOM     43  C   UNL A   1      40.651  28.433  33.264  1.00  0.00     0.031 C 
ATOM     44  C   UNL A   1      40.653  27.200  26.794  1.00  0.00     0.029 A 
ATOM     45  C   UNL A   1      41.789  26.773  27.580  1.00  0.00     0.049 A 
ATOM     46  H   UNL A   1      42.447  27.565  29.405  1.00  0.00     0.167 HD
ATOM     47  C   UNL A   1      43.147  28.840  33.576  1.00  0.00     0.037 A 
ATOM     48  C   UNL A   1      42.711  25.823  27.299  1.00  0.00     0.037 A 
ATOM     49  C   UNL A   1      44.185  29.538  32.860  1.00  0.00     0.049 A 
ATOM     50  C   UNL A   1      43.907  26.153  28.101  1.00  0.00     0.074 A 
ATOM     51  C   UNL A   1      44.472  30.856  32.577  1.00  0.00     0.029 A 
ATOM     52  N   UNL A   1      44.905  28.784  31.969  1.00  0.00    -0.354 N 
ATOM     53  N   UNL A   1      44.621  27.231  27.928  1.00  0.00    -0.248 NA
ATOM     54  C   UNL A   1      44.070  25.492  29.384  1.00  0.00     0.031 C 
ATOM     55  C   UNL A   1      45.024  30.842  31.259  1.00  0.00     0.029 A 
ATOM     56  C   UNL A   1      45.104  29.516  30.829  1.00  0.00     0.049 A 
ATOM     57  H   UNL A   1      45.226  27.866  32.123  1.00  0.00     0.167 HD
ATOM     58  C   UNL A   1      44.993  27.617  29.206  1.00  0.00     0.074 A 
ATOM     59  C   UNL A   1      44.740  26.443  30.041  1.00  0.00     0.031 C 
ATOM     60  C   UNL A   1      45.194  28.933  29.505  1.00  0.00     0.037 A 
BRANCH  47  61
ATOM     61  C   UNL A   1      43.474  27.743  34.561  1.00  0.00     0.057 A 
ATOM     62  C   UNL A   1      43.462  27.907  35.962  1.00  0.00     0.134 A 
ATOM     63  C   UNL A   1      43.521  26.407  34.120  1.00  0.00     0.134 A 
ATOM     64  F   UNL A   1      43.301  29.103  36.540  1.00  0.00    -0.206 F 
ATOM     65  C   UNL A   1      43.505  26.832  36.854  1.00  0.00     0.040 A 
ATOM     66  C   UNL A   1      43.510  25.321  35.005  1.00  0.00     0.040 A 
ATOM     67  F   UNL A   1      43.504  26.116  32.810  1.00  0.00    -0.206 F 
ATOM     68  C   UNL A   1      43.502  25.531  36.378  1.00  0.00     0.006 A 
ENDBRANCH  47  61
BRANCH  48  69
ATOM     69  C   UNL A   1      42.521  24.506  26.653  1.00  0.00     0.057 A 
ATOM     70  C   UNL A   1      41.980  23.419  27.363  1.00  0.00     0.134 A 
ATOM     71  C   UNL A   1      43.156  24.202  25.442  1.00  0.00     0.134 A 
ATOM     72  F   UNL A   1      41.401  23.595  28.559  1.00  0.00    -0.206 F 
ATOM     73  C   UNL A   1      42.106  22.099  26.914  1.00  0.00     0.040 A 
ATOM     74  C   UNL A   1      43.291  22.885  24.983  1.00  0.00     0.040 A 
ATOM     75  F   UNL A   1      43.726  25.172  24.713  1.00  0.00    -0.206 F 
ATOM     76  C   UNL A   1      42.783  21.827  25.730  1.00  0.00     0.006 A 
ENDBRANCH  48  69
BRANCH  60  77
ATOM     77  C   UNL A   1      45.308  29.899  28.353  1.00  0.00     0.057 A 
ATOM     78  C   UNL A   1      46.576  30.168  27.830  1.00  0.00     0.134 A 
ATOM     79  C   UNL A   1      44.245  30.671  27.860  1.00  0.00     0.134 A 
ATOM     80  F   UNL A   1      47.647  29.504  28.288  1.00  0.00    -0.206 F 
ATOM     81  C   UNL A   1      46.781  31.163  26.871  1.00  0.00     0.040 A 
ATOM     82  C   UNL A   1      44.432  31.651  26.879  1.00  0.00     0.040 A 
ATOM     83  F   UNL A   1      43.011  30.545  28.352  1.00  0.00    -0.206 F 
ATOM     84  C   UNL A   1      45.708  31.906  26.388  1.00  0.00     0.006 A 
ENDBRANCH  60  77
ENDBRANCH  34  35
ENDBRANCH  26  29
ENDBRANCH  24  25
ENDBRANCH   1  24
TORSDOF 11
ENDMDL
MODEL 2
REMARK VINA RESULT:     -12.3      2.468      6.691
REMARK SMILES CC1=Nc2ncnn2[C@H](c2ccc(F)cc2)[C@@H]1C(=O)NCCCNC(=O)c1ccc(-c2c3nc(c(-c4c(F)cccc4F)c4ccc([nH]4)c(-c4c(F)cccc4F)c4nc(c(-c5c(F)cccc5F)c5ccc2[nH]5)C=C4)C=C3)cc1
REMARK SMILES IDX 22 1 21 2 20 3 18 4 19 5 17 7 1 8 2 9 3 10 4 11 9 12 5 13
REMARK SMILES IDX 8 14 6 15 7 16 10 17 11 18 16 19 12 20 15 21 13 22 14 23
REMARK SMILES IDX 23 24 24 25 25 26 26 28 27 29 28 30 80 31 29 32 79 33 30 34
REMARK SMILES IDX 31 35 32 36 73 37 33 38 78 39 72 40 74 41 34 42 77 43 71 44
REMARK SMILES IDX 70 45 35 47 61 48 44 49 60 50 45 51 48 52 59 53 75 54 46 55
REMARK SMILES IDX 47 56 58 58 76 59 49 60 36 61 37 62 42 63 38 64 39 65 41 66
REMARK SMILES IDX 43 67 40 68 62 69 63 70 68 71 64 72 65 73 67 74 69 75 66 76
REMARK SMILES IDX 50 77 51 78 56 79 52 80 53 81 55 82 57 83 54 84
REMARK H PARENT 20 6 24 27 74 46 48 57
REMARK Flexibility Score: inf
ROOT
ATOM      1  C   UNL A   1      34.550  28.999  27.183  1.00  0.00     0.042 C 
ENDROOT
BRANCH   1   2
ATOM      2  C   UNL A   1      33.366  29.389  26.302  1.00  0.00     0.117 C 
BRANCH   2   3
ATOM      3  N   UNL A   1      32.135  28.641  26.529  1.00  0.00    -0.355 N 
ATOM      4  C   UNL A   1      31.518  27.737  25.706  1.00  0.00     0.231 C 
ATOM      5  O   UNL A   1      30.657  27.018  26.217  1.00  0.00    -0.274 OA
ATOM      6  H   UNL A   1      31.687  28.809  27.390  1.00  0.00     0.163 HD
BRANCH   4   7
ATOM      7  C   UNL A   1      31.884  27.638  24.229  1.00  0.00     0.152 C 
ATOM      8  C   UNL A   1      29.755  29.027  23.498  1.00  0.00     0.063 C 
ATOM      9  C   UNL A   1      30.715  27.875  23.256  1.00  0.00     0.034 C 
ATOM     10  N   UNL A   1      30.582  27.296  22.101  1.00  0.00    -0.220 NA
ATOM     11  C   UNL A   1      31.525  26.427  21.685  1.00  0.00     0.248 A 
ATOM     12  C   UNL A   1      32.693  26.361  23.878  1.00  0.00     0.159 C 
ATOM     13  N   UNL A   1      31.744  25.953  20.476  1.00  0.00    -0.198 NA
ATOM     14  N   UNL A   1      32.506  25.948  22.503  1.00  0.00    -0.221 N 
ATOM     15  C   UNL A   1      32.903  25.243  20.604  1.00  0.00     0.248 A 
ATOM     16  N   UNL A   1      33.439  25.247  21.826  1.00  0.00    -0.157 NA
BRANCH  12  17
ATOM     17  C   UNL A   1      32.669  25.147  24.812  1.00  0.00    -0.022 A 
ATOM     18  C   UNL A   1      31.653  24.183  24.612  1.00  0.00     0.009 A 
ATOM     19  C   UNL A   1      33.664  24.874  25.761  1.00  0.00     0.009 A 
ATOM     20  C   UNL A   1      31.723  22.929  25.217  1.00  0.00     0.039 A 
ATOM     21  C   UNL A   1      33.741  23.609  26.352  1.00  0.00     0.039 A 
ATOM     22  C   UNL A   1      32.789  22.642  26.054  1.00  0.00     0.123 A 
ATOM     23  F   UNL A   1      32.909  21.414  26.573  1.00  0.00    -0.207 F 
ENDBRANCH  12  17
ENDBRANCH   4   7
ENDBRANCH   2   3
ENDBRANCH   1   2
BRANCH   1  24
ATOM     24  C   UNL A   1      35.383  30.189  27.639  1.00  0.00     0.118 C 
BRANCH  24  25
ATOM     25  N   UNL A   1      35.528  30.362  29.095  1.00  0.00    -0.352 N 
ATOM     26  C   UNL A   1      36.452  29.713  29.915  1.00  0.00     0.251 C 
ATOM     27  H   UNL A   1      34.914  30.996  29.531  1.00  0.00     0.163 HD
ATOM     28  O   UNL A   1      36.324  29.658  31.135  1.00  0.00    -0.269 OA
BRANCH  26  29
ATOM     29  C   UNL A   1      37.627  29.122  29.251  1.00  0.00     0.039 A 
ATOM     30  C   UNL A   1      38.277  29.679  28.145  1.00  0.00     0.014 A 
ATOM     31  C   UNL A   1      38.183  28.068  29.955  1.00  0.00     0.014 A 
ATOM     32  C   UNL A   1      39.566  29.231  27.841  1.00  0.00     0.010 A 
ATOM     33  C   UNL A   1      39.526  27.886  29.851  1.00  0.00     0.010 A 
ATOM     34  C   UNL A   1      40.199  28.353  28.731  1.00  0.00    -0.014 A 
BRANCH  34  35
ATOM     35  C   UNL A   1      41.588  27.923  28.616  1.00  0.00     0.031 A 
ATOM     36  C   UNL A   1      41.809  26.674  27.841  1.00  0.00     0.074 A 
ATOM     37  C   UNL A   1      42.603  28.763  28.932  1.00  0.00     0.049 A 
ATOM     38  N   UNL A   1      42.218  25.532  28.282  1.00  0.00    -0.248 NA
ATOM     39  C   UNL A   1      41.415  26.656  26.423  1.00  0.00     0.031 C 
ATOM     40  C   UNL A   1      42.531  30.159  29.407  1.00  0.00     0.029 A 
ATOM     41  N   UNL A   1      43.941  28.579  28.795  1.00  0.00    -0.354 N 
ATOM     42  C   UNL A   1      42.347  24.714  27.161  1.00  0.00     0.074 A 
ATOM     43  C   UNL A   1      41.657  25.385  26.091  1.00  0.00     0.031 C 
ATOM     44  C   UNL A   1      43.736  30.755  29.288  1.00  0.00     0.029 A 
ATOM     45  C   UNL A   1      44.703  29.734  28.948  1.00  0.00     0.049 A 
ATOM     46  H   UNL A   1      44.341  27.700  28.603  1.00  0.00     0.167 HD
ATOM     47  C   UNL A   1      43.236  23.682  27.139  1.00  0.00     0.037 A 
ATOM     48  C   UNL A   1      46.047  29.839  28.835  1.00  0.00     0.037 A 
ATOM     49  C   UNL A   1      43.736  23.403  28.461  1.00  0.00     0.049 A 
ATOM     50  C   UNL A   1      46.588  28.476  29.022  1.00  0.00     0.074 A 
ATOM     51  C   UNL A   1      43.196  22.947  29.644  1.00  0.00     0.029 A 
ATOM     52  N   UNL A   1      44.931  23.996  28.783  1.00  0.00    -0.354 N 
ATOM     53  N   UNL A   1      46.498  27.808  30.138  1.00  0.00    -0.248 NA
ATOM     54  C   UNL A   1      46.860  27.683  27.836  1.00  0.00     0.031 C 
ATOM     55  C   UNL A   1      43.892  23.657  30.670  1.00  0.00     0.029 A 
ATOM     56  C   UNL A   1      44.860  24.463  30.069  1.00  0.00     0.049 A 
ATOM     57  H   UNL A   1      45.711  24.073  28.187  1.00  0.00     0.167 HD
ATOM     58  C   UNL A   1      46.281  26.496  29.747  1.00  0.00     0.074 A 
ATOM     59  C   UNL A   1      46.646  26.461  28.332  1.00  0.00     0.031 C 
ATOM     60  C   UNL A   1      45.558  25.645  30.533  1.00  0.00     0.037 A 
BRANCH  47  61
ATOM     61  C   UNL A   1      43.963  23.199  25.906  1.00  0.00     0.057 A 
ATOM     62  C   UNL A   1      44.946  23.944  25.224  1.00  0.00     0.134 A 
ATOM     63  C   UNL A   1      43.896  21.838  25.553  1.00  0.00     0.134 A 
ATOM     64  F   UNL A   1      45.215  25.219  25.528  1.00  0.00    -0.206 F 
ATOM     65  C   UNL A   1      45.789  23.387  24.258  1.00  0.00     0.040 A 
ATOM     66  C   UNL A   1      44.772  21.257  24.626  1.00  0.00     0.040 A 
ATOM     67  F   UNL A   1      43.025  21.013  26.155  1.00  0.00    -0.206 F 
ATOM     68  C   UNL A   1      45.724  22.032  23.974  1.00  0.00     0.006 A 
ENDBRANCH  47  61
BRANCH  48  69
ATOM     69  C   UNL A   1      46.850  30.945  28.269  1.00  0.00     0.057 A 
ATOM     70  C   UNL A   1      47.605  31.794  29.097  1.00  0.00     0.134 A 
ATOM     71  C   UNL A   1      46.640  31.385  26.955  1.00  0.00     0.134 A 
ATOM     72  F   UNL A   1      47.816  31.492  30.386  1.00  0.00    -0.206 F 
ATOM     73  C   UNL A   1      48.083  33.033  28.655  1.00  0.00     0.040 A 
ATOM     74  C   UNL A   1      47.111  32.624  26.502  1.00  0.00     0.040 A 
ATOM     75  F   UNL A   1      45.907  30.653  26.104  1.00  0.00    -0.206 F 
ATOM     76  C   UNL A   1      47.818  33.461  27.359  1.00  0.00     0.006 A 
ENDBRANCH  48  69
BRANCH  60  77
ATOM     77  C   UNL A   1      45.281  26.074  31.951  1.00  0.00     0.057 A 
ATOM     78  C   UNL A   1      46.191  25.713  32.948  1.00  0.00     0.134 A 
ATOM     79  C   UNL A   1      44.091  26.685  32.375  1.00  0.00     0.134 A 
ATOM     80  F   UNL A   1      47.329  25.082  32.624  1.00  0.00    -0.206 F 
ATOM     81  C   UNL A   1      45.928  25.936  34.302  1.00  0.00     0.040 A 
ATOM     82  C   UNL A   1      43.827  26.942  33.725  1.00  0.00     0.040 A 
ATOM     83  F   UNL A   1      43.125  26.996  31.507  1.00  0.00    -0.206 F 
ATOM     84  C   UNL A   1      44.746  26.556  34.696  1.00  0.00     0.006 A 
ENDBRANCH  60  77
ENDBRANCH  34  35
ENDBRANCH  26  29
ENDBRANCH  24  25
ENDBRANCH   1  24
TORSDOF 11
ENDMDL
MODEL 3
REMARK VINA RESULT:     -12.3      2.825      7.103
REMARK SMILES CC1=Nc2ncnn2[C@H](c2ccc(F)cc2)[C@@H]1C(=O)NCCCNC(=O)c1ccc(-c2c3nc(c(-c4c(F)cccc4F)c4ccc([nH]4)c(-c4c(F)cccc4F)c4nc(c(-c5c(F)cccc5F)c5ccc2[nH]5)C=C4)C=C3)cc1
REMARK SMILES IDX 22 1 21 2 20 3 18 4 19 5 17 7 1 8 2 9 3 10 4 11 9 12 5 13
REMARK SMILES IDX 8 14 6 15 7 16 10 17 11 18 16 19 12 20 15 21 13 22 14 23
REMARK SMILES IDX 23 24 24 25 25 26 26 28 27 29 28 30 80 31 29 32 79 33 30 34
REMARK SMILES IDX 31 35 32 36 73 37 33 38 78 39 72 40 74 41 34 42 77 43 71 44
REMARK SMILES IDX 70 45 35 47 61 48 44 49 60 50 45 51 48 52 59 53 75 54 46 55
REMARK SMILES IDX 47 56 58 58 76 59 49 60 36 61 37 62 42 63 38 64 39 65 41 66
REMARK SMILES IDX 43 67 40 68 62 69 63 70 68 71 64 72 65 73 67 74 69 75 66 76
REMARK SMILES IDX 50 77 51 78 56 79 52 80 53 81 55 82 57 83 54 84
REMARK H PARENT 20 6 24 27 74 46 48 57
REMARK Flexibility Score: inf
ROOT
ATOM      1  C   UNL A   1      37.856  20.543  25.046  1.00  0.00     0.042 C 
ENDROOT
BRANCH   1   2
ATOM      2  C   UNL A   1      36.957  21.768  25.192  1.00  0.00     0.117 C 
BRANCH   2   3
ATOM      3  N   UNL A   1      36.278  22.203  23.978  1.00  0.00    -0.355 N 
ATOM      4  C   UNL A   1      34.988  22.639  23.827  1.00  0.00     0.231 C 
ATOM      5  O   UNL A   1      34.720  23.226  22.777  1.00  0.00    -0.274 OA
ATOM      6  H   UNL A   1      36.819  22.181  23.156  1.00  0.00     0.163 HD
BRANCH   4   7
ATOM      7  C   UNL A   1      33.943  22.400  24.912  1.00  0.00     0.152 C 
ATOM      8  C   UNL A   1      33.556  19.900  24.135  1.00  0.00     0.063 C 
ATOM      9  C   UNL A   1      32.995  21.217  24.644  1.00  0.00     0.034 C 
ATOM     10  N   UNL A   1      31.751  21.166  25.016  1.00  0.00    -0.220 NA
ATOM     11  C   UNL A   1      31.222  22.200  25.700  1.00  0.00     0.248 A 
ATOM     12  C   UNL A   1      33.180  23.685  25.328  1.00  0.00     0.159 C 
ATOM     13  N   UNL A   1      30.110  22.250  26.403  1.00  0.00    -0.198 NA
ATOM     14  N   UNL A   1      31.854  23.401  25.835  1.00  0.00    -0.221 N 
ATOM     15  C   UNL A   1      30.147  23.480  26.993  1.00  0.00     0.248 A 
ATOM     16  N   UNL A   1      31.226  24.213  26.711  1.00  0.00    -0.157 NA
BRANCH  12  17
ATOM     17  C   UNL A   1      33.152  24.904  24.403  1.00  0.00    -0.022 A 
ATOM     18  C   UNL A   1      32.177  24.931  23.378  1.00  0.00     0.009 A 
ATOM     19  C   UNL A   1      33.946  26.044  24.591  1.00  0.00     0.009 A 
ATOM     20  C   UNL A   1      31.897  26.106  22.683  1.00  0.00     0.039 A 
ATOM     21  C   UNL A   1      33.651  27.226  23.904  1.00  0.00     0.039 A 
ATOM     22  C   UNL A   1      32.613  27.253  22.979  1.00  0.00     0.123 A 
ATOM     23  F   UNL A   1      32.295  28.405  22.376  1.00  0.00    -0.207 F 
ENDBRANCH  12  17
ENDBRANCH   4   7
ENDBRANCH   2   3
ENDBRANCH   1   2
BRANCH   1  24
ATOM     24  C   UNL A   1      39.199  20.691  25.747  1.00  0.00     0.118 C 
BRANCH  24  25
ATOM     25  N   UNL A   1      40.031  19.477  25.822  1.00  0.00    -0.352 N 
ATOM     26  C   UNL A   1      41.416  19.435  25.988  1.00  0.00     0.251 C 
ATOM     27  H   UNL A   1      39.565  18.613  25.747  1.00  0.00     0.163 HD
ATOM     28  O   UNL A   1      42.079  18.434  25.734  1.00  0.00    -0.269 OA
BRANCH  26  29
ATOM     29  C   UNL A   1      42.056  20.647  26.529  1.00  0.00     0.039 A 
ATOM     30  C   UNL A   1      42.570  21.688  25.749  1.00  0.00     0.014 A 
ATOM     31  C   UNL A   1      41.909  20.781  27.899  1.00  0.00     0.014 A 
ATOM     32  C   UNL A   1      42.814  22.918  26.367  1.00  0.00     0.010 A 
ATOM     33  C   UNL A   1      41.838  22.043  28.399  1.00  0.00     0.010 A 
ATOM     34  C   UNL A   1      42.407  23.095  27.696  1.00  0.00    -0.014 A 
BRANCH  34  35
ATOM     35  C   UNL A   1      42.464  24.363  28.413  1.00  0.00     0.031 A 
ATOM     36  C   UNL A   1      41.326  25.288  28.170  1.00  0.00     0.074 A 
ATOM     37  C   UNL A   1      43.328  24.541  29.441  1.00  0.00     0.049 A 
ATOM     38  N   UNL A   1      41.346  26.426  27.561  1.00  0.00    -0.248 NA
ATOM     39  C   UNL A   1      39.974  24.840  28.544  1.00  0.00     0.031 C 
ATOM     40  C   UNL A   1      44.298  23.583  30.007  1.00  0.00     0.029 A 
ATOM     41  N   UNL A   1      43.454  25.601  30.281  1.00  0.00    -0.354 N 
ATOM     42  C   UNL A   1      40.056  26.941  27.670  1.00  0.00     0.074 A 
ATOM     43  C   UNL A   1      39.221  25.851  28.100  1.00  0.00     0.031 C 
ATOM     44  C   UNL A   1      44.725  24.011  31.214  1.00  0.00     0.029 A 
ATOM     45  C   UNL A   1      44.243  25.361  31.403  1.00  0.00     0.049 A 
ATOM     46  H   UNL A   1      43.022  26.470  30.110  1.00  0.00     0.167 HD
ATOM     47  C   UNL A   1      39.830  28.285  27.655  1.00  0.00     0.037 A 
ATOM     48  C   UNL A   1      44.508  26.228  32.407  1.00  0.00     0.037 A 
ATOM     49  C   UNL A   1      41.002  29.001  27.219  1.00  0.00     0.049 A 
ATOM     50  C   UNL A   1      44.248  27.580  31.870  1.00  0.00     0.074 A 
ATOM     51  C   UNL A   1      41.729  29.084  26.050  1.00  0.00     0.029 A 
ATOM     52  N   UNL A   1      41.814  29.479  28.216  1.00  0.00    -0.354 N 
ATOM     53  N   UNL A   1      44.937  28.121  30.904  1.00  0.00    -0.248 NA
ATOM     54  C   UNL A   1      42.945  28.172  32.118  1.00  0.00     0.031 C 
ATOM     55  C   UNL A   1      43.089  29.215  26.467  1.00  0.00     0.029 A 
ATOM     56  C   UNL A   1      43.120  29.268  27.862  1.00  0.00     0.049 A 
ATOM     57  H   UNL A   1      41.508  29.903  29.050  1.00  0.00     0.167 HD
ATOM     58  C   UNL A   1      44.006  28.826  30.158  1.00  0.00     0.074 A 
ATOM     59  C   UNL A   1      42.833  28.930  31.023  1.00  0.00     0.031 C 
ATOM     60  C   UNL A   1      44.178  29.003  28.815  1.00  0.00     0.037 A 
BRANCH  47  61
ATOM     61  C   UNL A   1      38.722  28.979  28.411  1.00  0.00     0.057 A 
ATOM     62  C   UNL A   1      37.604  29.583  27.800  1.00  0.00     0.134 A 
ATOM     63  C   UNL A   1      38.610  28.792  29.802  1.00  0.00     0.134 A 
ATOM     64  F   UNL A   1      37.505  29.724  26.473  1.00  0.00    -0.206 F 
ATOM     65  C   UNL A   1      36.470  29.981  28.513  1.00  0.00     0.040 A 
ATOM     66  C   UNL A   1      37.456  29.138  30.517  1.00  0.00     0.040 A 
ATOM     67  F   UNL A   1      39.592  28.196  30.496  1.00  0.00    -0.206 F 
ATOM     68  C   UNL A   1      36.380  29.735  29.873  1.00  0.00     0.006 A 
ENDBRANCH  47  61
BRANCH  48  69
ATOM     69  C   UNL A   1      44.653  25.959  33.854  1.00  0.00     0.057 A 
ATOM     70  C   UNL A   1      45.916  25.735  34.430  1.00  0.00     0.134 A 
ATOM     71  C   UNL A   1      43.544  25.602  34.632  1.00  0.00     0.134 A 
ATOM     72  F   UNL A   1      47.041  25.991  33.747  1.00  0.00    -0.206 F 
ATOM     73  C   UNL A   1      46.066  25.145  35.690  1.00  0.00     0.040 A 
ATOM     74  C   UNL A   1      43.681  25.007  35.893  1.00  0.00     0.040 A 
ATOM     75  F   UNL A   1      42.301  25.753  34.152  1.00  0.00    -0.206 F 
ATOM     76  C   UNL A   1      44.945  24.759  36.418  1.00  0.00     0.006 A 
ENDBRANCH  48  69
BRANCH  60  77
ATOM     77  C   UNL A   1      45.536  28.689  28.241  1.00  0.00     0.057 A 
ATOM     78  C   UNL A   1      46.484  29.714  28.167  1.00  0.00     0.134 A 
ATOM     79  C   UNL A   1      45.875  27.473  27.629  1.00  0.00     0.134 A 
ATOM     80  F   UNL A   1      46.212  30.920  28.687  1.00  0.00    -0.206 F 
ATOM     81  C   UNL A   1      47.704  29.543  27.509  1.00  0.00     0.040 A 
ATOM     82  C   UNL A   1      47.105  27.278  26.991  1.00  0.00     0.040 A 
ATOM     83  F   UNL A   1      45.007  26.459  27.576  1.00  0.00    -0.206 F 
ATOM     84  C   UNL A   1      48.021  28.322  26.921  1.00  0.00     0.006 A 
ENDBRANCH  60  77
ENDBRANCH  34  35
ENDBRANCH  26  29
ENDBRANCH  24  25
ENDBRANCH   1  24
TORSDOF 11
ENDMDL
