MODEL 1
REMARK VINA RESULT:     -13.2      0.000      0.000
REMARK SMILES Cc1cc(C(=O)NCCCNC(=O)c2ccc(-c3c4nc(c(-c5c(F)cccc5F)c5ccc([nH]5)c(-c5c(F)cccc5F)c5nc(c(-c6c(F)cccc6F)c6ccc3[nH]6)C=C5)C=C4)cc2)ccc1NS(=O)(=O)c1ccc2c(c1)CCC2
REMARK SMILES IDX 8 1 7 2 5 3 6 4 4 6 1 7 2 8 3 9 70 10 69 11 68 12 71 13
REMARK SMILES IDX 72 15 73 16 74 17 75 18 76 19 80 20 77 21 79 22 78 23 81 24
REMARK SMILES IDX 83 25 82 26 9 27 10 28 11 29 12 30 13 32 14 33 15 34 67 35
REMARK SMILES IDX 16 36 66 37 17 38 18 39 19 40 60 41 20 42 65 43 59 44 61 45
REMARK SMILES IDX 21 46 64 47 58 48 57 49 22 51 48 52 31 53 47 54 32 55 35 56
REMARK SMILES IDX 46 57 62 58 33 59 34 60 45 62 63 63 36 64 23 65 24 66 29 67
REMARK SMILES IDX 25 68 26 69 28 70 30 71 27 72 49 73 50 74 55 75 51 76 52 77
REMARK SMILES IDX 54 78 56 79 53 80 37 81 38 82 43 83 39 84 40 85 42 86 44 87
REMARK SMILES IDX 41 88
REMARK H PARENT 7 5 71 14 11 31 61 50 35 61
REMARK Flexibility Score: inf
ROOT
ATOM      1  C   UNL A   1      35.317  21.431  25.971  1.00  0.00     0.118 C 
ENDROOT
BRANCH   1   2
ATOM      2  N   UNL A   1      34.431  20.270  25.986  1.00  0.00    -0.352 N 
ATOM      3  C   UNL A   1      33.178  20.052  25.459  1.00  0.00     0.251 C 
ATOM      4  O   UNL A   1      32.580  19.022  25.766  1.00  0.00    -0.269 OA
ATOM      5  H   UNL A   1      34.800  19.494  26.466  1.00  0.00     0.163 HD
BRANCH   3   6
ATOM      6  C   UNL A   1      32.492  21.056  24.607  1.00  0.00     0.040 A 
ATOM      7  C   UNL A   1      30.737  24.373  25.163  1.00  0.00     0.046 C 
ATOM      8  C   UNL A   1      31.473  23.263  24.463  1.00  0.00    -0.026 A 
ATOM      9  C   UNL A   1      31.928  22.176  25.228  1.00  0.00     0.019 A 
ATOM     10  C   UNL A   1      31.693  23.246  23.077  1.00  0.00     0.052 A 
ATOM     11  C   UNL A   1      31.958  22.023  22.459  1.00  0.00     0.028 A 
ATOM     12  C   UNL A   1      32.356  20.924  23.228  1.00  0.00     0.016 A 
BRANCH  10  13
ATOM     13  N   UNL A   1      31.894  24.498  22.426  1.00  0.00    -0.279 N 
ATOM     14  H   UNL A   1      31.076  24.960  22.129  1.00  0.00     0.180 HD
BRANCH  13  15
ATOM     15  S   UNL A   1      33.326  25.287  22.097  1.00  0.00     0.261 S 
ATOM     16  O   UNL A   1      34.417  24.427  22.523  1.00  0.00    -0.201 OA
ATOM     17  O   UNL A   1      33.209  25.725  20.728  1.00  0.00    -0.201 OA
BRANCH  15  18
ATOM     18  C   UNL A   1      33.438  26.771  23.087  1.00  0.00     0.088 A 
ATOM     19  C   UNL A   1      33.253  28.054  22.553  1.00  0.00     0.022 A 
ATOM     20  C   UNL A   1      33.518  26.586  24.477  1.00  0.00     0.026 A 
ATOM     21  C   UNL A   1      32.907  29.110  23.400  1.00  0.00     0.005 A 
ATOM     22  C   UNL A   1      33.241  27.665  25.299  1.00  0.00    -0.043 A 
ATOM     23  C   UNL A   1      32.857  28.892  24.760  1.00  0.00    -0.045 A 
ATOM     24  C   UNL A   1      33.248  27.741  26.793  1.00  0.00     0.036 C 
ATOM     25  C   UNL A   1      32.410  29.842  25.826  1.00  0.00     0.036 C 
ATOM     26  C   UNL A   1      32.248  28.884  27.017  1.00  0.00     0.010 C 
ENDBRANCH  15  18
ENDBRANCH  13  15
ENDBRANCH  10  13
ENDBRANCH   3   6
ENDBRANCH   1   2
BRANCH   1  27
ATOM     27  C   UNL A   1      36.204  21.467  24.729  1.00  0.00     0.042 C 
BRANCH  27  28
ATOM     28  C   UNL A   1      37.411  22.382  24.871  1.00  0.00     0.118 C 
BRANCH  28  29
ATOM     29  N   UNL A   1      38.590  21.787  25.511  1.00  0.00    -0.352 N 
ATOM     30  C   UNL A   1      39.513  22.422  26.336  1.00  0.00     0.251 C 
ATOM     31  H   UNL A   1      38.746  20.831  25.336  1.00  0.00     0.163 HD
ATOM     32  O   UNL A   1      40.413  21.795  26.882  1.00  0.00    -0.269 OA
BRANCH  30  33
ATOM     33  C   UNL A   1      39.296  23.856  26.642  1.00  0.00     0.039 A 
ATOM     34  C   UNL A   1      39.977  24.788  25.859  1.00  0.00     0.014 A 
ATOM     35  C   UNL A   1      38.781  24.208  27.886  1.00  0.00     0.014 A 
ATOM     36  C   UNL A   1      40.427  25.961  26.457  1.00  0.00     0.010 A 
ATOM     37  C   UNL A   1      39.312  25.319  28.513  1.00  0.00     0.010 A 
ATOM     38  C   UNL A   1      40.210  26.145  27.824  1.00  0.00    -0.014 A 
BRANCH  38  39
ATOM     39  C   UNL A   1      41.003  27.078  28.621  1.00  0.00     0.031 A 
ATOM     40  C   UNL A   1      40.479  28.413  28.960  1.00  0.00     0.074 A 
ATOM     41  C   UNL A   1      42.232  26.734  29.071  1.00  0.00     0.049 A 
ATOM     42  N   UNL A   1      41.224  29.451  29.145  1.00  0.00    -0.248 NA
ATOM     43  C   UNL A   1      39.057  28.685  29.094  1.00  0.00     0.031 C 
ATOM     44  C   UNL A   1      43.063  27.473  30.020  1.00  0.00     0.029 A 
ATOM     45  N   UNL A   1      43.081  25.738  28.573  1.00  0.00    -0.354 N 
ATOM     46  C   UNL A   1      40.435  30.436  29.685  1.00  0.00     0.074 A 
ATOM     47  C   UNL A   1      39.083  29.932  29.573  1.00  0.00     0.031 C 
ATOM     48  C   UNL A   1      44.347  27.139  29.821  1.00  0.00     0.029 A 
ATOM     49  C   UNL A   1      44.397  26.247  28.678  1.00  0.00     0.049 A 
ATOM     50  H   UNL A   1      42.814  24.859  28.220  1.00  0.00     0.167 HD
ATOM     51  C   UNL A   1      41.014  31.515  30.287  1.00  0.00     0.037 A 
ATOM     52  C   UNL A   1      45.175  26.408  27.571  1.00  0.00     0.037 A 
ATOM     53  C   UNL A   1      42.475  31.469  30.221  1.00  0.00     0.049 A 
ATOM     54  C   UNL A   1      45.537  27.847  27.265  1.00  0.00     0.074 A 
ATOM     55  C   UNL A   1      43.475  31.127  31.118  1.00  0.00     0.029 A 
ATOM     56  N   UNL A   1      43.094  31.546  28.985  1.00  0.00    -0.354 N 
ATOM     57  N   UNL A   1      45.225  28.865  28.017  1.00  0.00    -0.248 NA
ATOM     58  C   UNL A   1      46.191  28.257  26.021  1.00  0.00     0.031 C 
ATOM     59  C   UNL A   1      44.704  31.018  30.407  1.00  0.00     0.029 A 
ATOM     60  C   UNL A   1      44.449  31.285  29.076  1.00  0.00     0.049 A 
ATOM     61  H   UNL A   1      42.627  31.760  28.146  1.00  0.00     0.167 HD
ATOM     62  C   UNL A   1      45.543  30.027  27.363  1.00  0.00     0.074 A 
ATOM     63  C   UNL A   1      46.153  29.595  26.120  1.00  0.00     0.031 C 
ATOM     64  C   UNL A   1      45.240  31.264  27.857  1.00  0.00     0.037 A 
BRANCH  51  65
ATOM     65  C   UNL A   1      40.238  32.470  31.163  1.00  0.00     0.057 A 
ATOM     66  C   UNL A   1      39.415  33.467  30.609  1.00  0.00     0.134 A 
ATOM     67  C   UNL A   1      40.301  32.486  32.567  1.00  0.00     0.134 A 
ATOM     68  F   UNL A   1      39.139  33.508  29.300  1.00  0.00    -0.206 F 
ATOM     69  C   UNL A   1      38.831  34.484  31.374  1.00  0.00     0.040 A 
ATOM     70  C   UNL A   1      39.778  33.531  33.342  1.00  0.00     0.040 A 
ATOM     71  F   UNL A   1      40.833  31.465  33.254  1.00  0.00    -0.206 F 
ATOM     72  C   UNL A   1      39.053  34.549  32.741  1.00  0.00     0.006 A 
ENDBRANCH  51  65
BRANCH  52  73
ATOM     73  C   UNL A   1      44.941  25.337  26.569  1.00  0.00     0.057 A 
ATOM     74  C   UNL A   1      45.433  24.049  26.857  1.00  0.00     0.134 A 
ATOM     75  C   UNL A   1      43.935  25.436  25.607  1.00  0.00     0.134 A 
ATOM     76  F   UNL A   1      46.409  23.888  27.764  1.00  0.00    -0.206 F 
ATOM     77  C   UNL A   1      44.839  22.901  26.331  1.00  0.00     0.040 A 
ATOM     78  C   UNL A   1      43.353  24.292  25.054  1.00  0.00     0.040 A 
ATOM     79  F   UNL A   1      43.411  26.627  25.285  1.00  0.00    -0.206 F 
ATOM     80  C   UNL A   1      43.765  23.023  25.457  1.00  0.00     0.006 A 
ENDBRANCH  52  73
BRANCH  64  81
ATOM     81  C   UNL A   1      45.656  32.553  27.198  1.00  0.00     0.057 A 
ATOM     82  C   UNL A   1      46.753  33.308  27.640  1.00  0.00     0.134 A 
ATOM     83  C   UNL A   1      44.890  33.145  26.173  1.00  0.00     0.134 A 
ATOM     84  F   UNL A   1      47.504  32.899  28.674  1.00  0.00    -0.206 F 
ATOM     85  C   UNL A   1      47.107  34.531  27.057  1.00  0.00     0.040 A 
ATOM     86  C   UNL A   1      45.204  34.388  25.616  1.00  0.00     0.040 A 
ATOM     87  F   UNL A   1      43.813  32.538  25.656  1.00  0.00    -0.206 F 
ATOM     88  C   UNL A   1      46.327  35.079  26.045  1.00  0.00     0.006 A 
ENDBRANCH  64  81
ENDBRANCH  38  39
ENDBRANCH  30  33
ENDBRANCH  28  29
ENDBRANCH  27  28
ENDBRANCH   1  27
TORSDOF 13
ENDMDL
MODEL 2
REMARK VINA RESULT:     -13.2      3.307      8.557
REMARK SMILES Cc1cc(C(=O)NCCCNC(=O)c2ccc(-c3c4nc(c(-c5c(F)cccc5F)c5ccc([nH]5)c(-c5c(F)cccc5F)c5nc(c(-c6c(F)cccc6F)c6ccc3[nH]6)C=C5)C=C4)cc2)ccc1NS(=O)(=O)c1ccc2c(c1)CCC2
REMARK SMILES IDX 8 1 7 2 5 3 6 4 4 6 1 7 2 8 3 9 70 10 69 11 68 12 71 13
REMARK SMILES IDX 72 15 73 16 74 17 75 18 76 19 80 20 77 21 79 22 78 23 81 24
REMARK SMILES IDX 83 25 82 26 9 27 10 28 11 29 12 30 13 32 14 33 15 34 67 35
REMARK SMILES IDX 16 36 66 37 17 38 18 39 19 40 60 41 20 42 65 43 59 44 61 45
REMARK SMILES IDX 21 46 64 47 58 48 57 49 22 51 48 52 31 53 47 54 32 55 35 56
REMARK SMILES IDX 46 57 62 58 33 59 34 60 45 62 63 63 36 64 23 65 24 66 29 67
REMARK SMILES IDX 25 68 26 69 28 70 30 71 27 72 49 73 50 74 55 75 51 76 52 77
REMARK SMILES IDX 54 78 56 79 53 80 37 81 38 82 43 83 39 84 40 85 42 86 44 87
REMARK SMILES IDX 41 88
REMARK H PARENT 7 5 71 14 11 31 61 50 35 61
REMARK Flexibility Score: inf
ROOT
ATOM      1  C   UNL A   1      33.890  28.336  26.656  1.00  0.00     0.118 C 
ENDROOT
BRANCH   1   2
ATOM      2  N   UNL A   1      33.936  28.979  25.346  1.00  0.00    -0.352 N 
ATOM      3  C   UNL A   1      33.345  28.672  24.140  1.00  0.00     0.251 C 
ATOM      4  O   UNL A   1      33.689  29.297  23.138  1.00  0.00    -0.269 OA
ATOM      5  H   UNL A   1      34.496  29.788  25.318  1.00  0.00     0.163 HD
BRANCH   3   6
ATOM      6  C   UNL A   1      32.377  27.556  23.995  1.00  0.00     0.040 A 
ATOM      7  C   UNL A   1      32.461  24.023  22.614  1.00  0.00     0.046 C 
ATOM      8  C   UNL A   1      32.022  25.217  23.419  1.00  0.00    -0.026 A 
ATOM      9  C   UNL A   1      32.813  26.377  23.379  1.00  0.00     0.019 A 
ATOM     10  C   UNL A   1      30.841  25.236  24.176  1.00  0.00     0.052 A 
ATOM     11  C   UNL A   1      30.280  26.471  24.506  1.00  0.00     0.028 A 
ATOM     12  C   UNL A   1      31.052  27.635  24.412  1.00  0.00     0.016 A 
BRANCH  10  13
ATOM     13  N   UNL A   1      30.428  24.015  24.785  1.00  0.00    -0.279 N 
ATOM     14  H   UNL A   1      29.715  23.524  24.315  1.00  0.00     0.180 HD
BRANCH  13  15
ATOM     15  S   UNL A   1      30.987  23.303  26.187  1.00  0.00     0.261 S 
ATOM     16  O   UNL A   1      31.137  24.347  27.186  1.00  0.00    -0.201 OA
ATOM     17  O   UNL A   1      30.120  22.173  26.407  1.00  0.00    -0.201 OA
BRANCH  15  18
ATOM     18  C   UNL A   1      32.620  22.632  25.911  1.00  0.00     0.088 A 
ATOM     19  C   UNL A   1      32.836  21.399  25.280  1.00  0.00     0.022 A 
ATOM     20  C   UNL A   1      33.699  23.492  26.172  1.00  0.00     0.026 A 
ATOM     21  C   UNL A   1      34.077  21.131  24.695  1.00  0.00     0.005 A 
ATOM     22  C   UNL A   1      34.937  23.171  25.643  1.00  0.00    -0.043 A 
ATOM     23  C   UNL A   1      35.100  22.043  24.842  1.00  0.00    -0.045 A 
ATOM     24  C   UNL A   1      36.235  23.906  25.763  1.00  0.00     0.036 C 
ATOM     25  C   UNL A   1      36.458  22.008  24.215  1.00  0.00     0.036 C 
ATOM     26  C   UNL A   1      36.935  23.445  24.476  1.00  0.00     0.010 C 
ENDBRANCH  15  18
ENDBRANCH  13  15
ENDBRANCH  10  13
ENDBRANCH   3   6
ENDBRANCH   1   2
BRANCH   1  27
ATOM     27  C   UNL A   1      33.928  29.346  27.800  1.00  0.00     0.042 C 
BRANCH  27  28
ATOM     28  C   UNL A   1      34.611  30.656  27.433  1.00  0.00     0.118 C 
BRANCH  28  29
ATOM     29  N   UNL A   1      35.213  31.394  28.549  1.00  0.00    -0.352 N 
ATOM     30  C   UNL A   1      36.333  31.035  29.291  1.00  0.00     0.251 C 
ATOM     31  H   UNL A   1      34.775  32.239  28.801  1.00  0.00     0.163 HD
ATOM     32  O   UNL A   1      36.793  31.781  30.148  1.00  0.00    -0.269 OA
BRANCH  30  33
ATOM     33  C   UNL A   1      37.035  29.782  28.924  1.00  0.00     0.039 A 
ATOM     34  C   UNL A   1      37.338  28.892  29.955  1.00  0.00     0.014 A 
ATOM     35  C   UNL A   1      37.702  29.718  27.705  1.00  0.00     0.014 A 
ATOM     36  C   UNL A   1      38.522  28.166  29.883  1.00  0.00     0.010 A 
ATOM     37  C   UNL A   1      38.928  29.080  27.674  1.00  0.00     0.010 A 
ATOM     38  C   UNL A   1      39.378  28.380  28.800  1.00  0.00    -0.014 A 
BRANCH  38  39
ATOM     39  C   UNL A   1      40.797  28.035  28.848  1.00  0.00     0.031 A 
ATOM     40  C   UNL A   1      41.285  26.772  28.268  1.00  0.00     0.074 A 
ATOM     41  C   UNL A   1      41.695  28.871  29.420  1.00  0.00     0.049 A 
ATOM     42  N   UNL A   1      42.317  26.131  28.705  1.00  0.00    -0.248 NA
ATOM     43  C   UNL A   1      40.622  26.115  27.152  1.00  0.00     0.031 C 
ATOM     44  C   UNL A   1      43.152  28.759  29.385  1.00  0.00     0.029 A 
ATOM     45  N   UNL A   1      41.449  29.885  30.353  1.00  0.00    -0.354 N 
ATOM     46  C   UNL A   1      42.622  25.159  27.786  1.00  0.00     0.074 A 
ATOM     47  C   UNL A   1      41.499  25.148  26.872  1.00  0.00     0.031 C 
ATOM     48  C   UNL A   1      43.660  29.407  30.444  1.00  0.00     0.029 A 
ATOM     49  C   UNL A   1      42.547  29.878  31.246  1.00  0.00     0.049 A 
ATOM     50  H   UNL A   1      40.668  30.484  30.382  1.00  0.00     0.167 HD
ATOM     51  C   UNL A   1      43.845  24.555  27.816  1.00  0.00     0.037 A 
ATOM     52  C   UNL A   1      42.365  29.647  32.577  1.00  0.00     0.037 A 
ATOM     53  C   UNL A   1      44.676  25.042  28.919  1.00  0.00     0.049 A 
ATOM     54  C   UNL A   1      43.015  28.377  33.085  1.00  0.00     0.074 A 
ATOM     55  C   UNL A   1      45.729  25.939  29.016  1.00  0.00     0.029 A 
ATOM     56  N   UNL A   1      44.275  24.797  30.221  1.00  0.00    -0.354 N 
ATOM     57  N   UNL A   1      43.766  27.590  32.365  1.00  0.00    -0.248 NA
ATOM     58  C   UNL A   1      42.777  27.840  34.426  1.00  0.00     0.031 C 
ATOM     59  C   UNL A   1      45.964  26.213  30.393  1.00  0.00     0.029 A 
ATOM     60  C   UNL A   1      45.049  25.489  31.133  1.00  0.00     0.049 A 
ATOM     61  H   UNL A   1      43.530  24.201  30.467  1.00  0.00     0.167 HD
ATOM     62  C   UNL A   1      44.039  26.449  33.075  1.00  0.00     0.074 A 
ATOM     63  C   UNL A   1      43.405  26.656  34.363  1.00  0.00     0.031 C 
ATOM     64  C   UNL A   1      44.721  25.391  32.545  1.00  0.00     0.037 A 
BRANCH  51  65
ATOM     65  C   UNL A   1      44.366  23.716  26.674  1.00  0.00     0.057 A 
ATOM     66  C   UNL A   1      45.301  24.228  25.757  1.00  0.00     0.134 A 
ATOM     67  C   UNL A   1      43.941  22.405  26.396  1.00  0.00     0.134 A 
ATOM     68  F   UNL A   1      45.907  25.406  25.949  1.00  0.00    -0.206 F 
ATOM     69  C   UNL A   1      45.665  23.554  24.584  1.00  0.00     0.040 A 
ATOM     70  C   UNL A   1      44.244  21.743  25.198  1.00  0.00     0.040 A 
ATOM     71  F   UNL A   1      43.253  21.689  27.296  1.00  0.00    -0.206 F 
ATOM     72  C   UNL A   1      45.097  22.329  24.275  1.00  0.00     0.006 A 
ENDBRANCH  51  65
BRANCH  52  73
ATOM     73  C   UNL A   1      41.093  30.232  33.071  1.00  0.00     0.057 A 
ATOM     74  C   UNL A   1      41.024  31.631  33.213  1.00  0.00     0.134 A 
ATOM     75  C   UNL A   1      39.885  29.538  32.995  1.00  0.00     0.134 A 
ATOM     76  F   UNL A   1      42.151  32.356  33.304  1.00  0.00    -0.206 F 
ATOM     77  C   UNL A   1      39.815  32.322  33.118  1.00  0.00     0.040 A 
ATOM     78  C   UNL A   1      38.666  30.219  32.928  1.00  0.00     0.040 A 
ATOM     79  F   UNL A   1      39.869  28.206  32.852  1.00  0.00    -0.206 F 
ATOM     80  C   UNL A   1      38.633  31.613  32.933  1.00  0.00     0.006 A 
ENDBRANCH  52  73
BRANCH  64  81
ATOM     81  C   UNL A   1      45.107  24.166  33.332  1.00  0.00     0.057 A 
ATOM     82  C   UNL A   1      44.285  23.032  33.417  1.00  0.00     0.134 A 
ATOM     83  C   UNL A   1      46.266  24.132  34.134  1.00  0.00     0.134 A 
ATOM     84  F   UNL A   1      43.107  22.980  32.777  1.00  0.00    -0.206 F 
ATOM     85  C   UNL A   1      44.626  21.914  34.188  1.00  0.00     0.040 A 
ATOM     86  C   UNL A   1      46.592  23.042  34.947  1.00  0.00     0.040 A 
ATOM     87  F   UNL A   1      47.141  25.147  34.154  1.00  0.00    -0.206 F 
ATOM     88  C   UNL A   1      45.780  21.919  34.963  1.00  0.00     0.006 A 
ENDBRANCH  64  81
ENDBRANCH  38  39
ENDBRANCH  30  33
ENDBRANCH  28  29
ENDBRANCH  27  28
ENDBRANCH   1  27
TORSDOF 13
ENDMDL
MODEL 3
REMARK VINA RESULT:     -13.2      2.869      4.363
REMARK SMILES Cc1cc(C(=O)NCCCNC(=O)c2ccc(-c3c4nc(c(-c5c(F)cccc5F)c5ccc([nH]5)c(-c5c(F)cccc5F)c5nc(c(-c6c(F)cccc6F)c6ccc3[nH]6)C=C5)C=C4)cc2)ccc1NS(=O)(=O)c1ccc2c(c1)CCC2
REMARK SMILES IDX 8 1 7 2 5 3 6 4 4 6 1 7 2 8 3 9 70 10 69 11 68 12 71 13
REMARK SMILES IDX 72 15 73 16 74 17 75 18 76 19 80 20 77 21 79 22 78 23 81 24
REMARK SMILES IDX 83 25 82 26 9 27 10 28 11 29 12 30 13 32 14 33 15 34 67 35
REMARK SMILES IDX 16 36 66 37 17 38 18 39 19 40 60 41 20 42 65 43 59 44 61 45
REMARK SMILES IDX 21 46 64 47 58 48 57 49 22 51 48 52 31 53 47 54 32 55 35 56
REMARK SMILES IDX 46 57 62 58 33 59 34 60 45 62 63 63 36 64 23 65 24 66 29 67
REMARK SMILES IDX 25 68 26 69 28 70 30 71 27 72 49 73 50 74 55 75 51 76 52 77
REMARK SMILES IDX 54 78 56 79 53 80 37 81 38 82 43 83 39 84 40 85 42 86 44 87
REMARK SMILES IDX 41 88
REMARK H PARENT 7 5 71 14 11 31 61 50 35 61
REMARK Flexibility Score: inf
ROOT
ATOM      1  C   UNL A   1      37.773  21.642  25.553  1.00  0.00     0.118 C 
ENDROOT
BRANCH   1   2
ATOM      2  N   UNL A   1      37.454  22.339  24.310  1.00  0.00    -0.352 N 
ATOM      3  C   UNL A   1      36.259  22.646  23.698  1.00  0.00     0.251 C 
ATOM      4  O   UNL A   1      36.281  23.101  22.555  1.00  0.00    -0.269 OA
ATOM      5  H   UNL A   1      38.245  22.650  23.813  1.00  0.00     0.163 HD
BRANCH   3   6
ATOM      6  C   UNL A   1      34.948  22.363  24.335  1.00  0.00     0.040 A 
ATOM      7  C   UNL A   1      33.596  22.254  27.878  1.00  0.00     0.046 C 
ATOM      8  C   UNL A   1      33.623  22.368  26.378  1.00  0.00    -0.026 A 
ATOM      9  C   UNL A   1      34.870  22.399  25.732  1.00  0.00     0.019 A 
ATOM     10  C   UNL A   1      32.460  22.406  25.593  1.00  0.00     0.052 A 
ATOM     11  C   UNL A   1      32.554  22.058  24.245  1.00  0.00     0.028 A 
ATOM     12  C   UNL A   1      33.803  22.033  23.615  1.00  0.00     0.016 A 
BRANCH  10  13
ATOM     13  N   UNL A   1      31.313  23.047  26.145  1.00  0.00    -0.279 N 
ATOM     14  H   UNL A   1      30.815  22.526  26.817  1.00  0.00     0.180 HD
BRANCH  13  15
ATOM     15  S   UNL A   1      30.697  24.561  25.809  1.00  0.00     0.261 S 
ATOM     16  O   UNL A   1      30.508  24.655  24.372  1.00  0.00    -0.201 OA
ATOM     17  O   UNL A   1      29.595  24.730  26.723  1.00  0.00    -0.201 OA
BRANCH  15  18
ATOM     18  C   UNL A   1      31.899  25.810  26.241  1.00  0.00     0.088 A 
ATOM     19  C   UNL A   1      33.248  25.724  25.870  1.00  0.00     0.022 A 
ATOM     20  C   UNL A   1      31.392  26.996  26.797  1.00  0.00     0.026 A 
ATOM     21  C   UNL A   1      34.028  26.883  25.827  1.00  0.00     0.005 A 
ATOM     22  C   UNL A   1      32.206  28.115  26.810  1.00  0.00    -0.043 A 
ATOM     23  C   UNL A   1      33.483  28.075  26.253  1.00  0.00    -0.045 A 
ATOM     24  C   UNL A   1      31.918  29.487  27.332  1.00  0.00     0.036 C 
ATOM     25  C   UNL A   1      34.096  29.439  26.191  1.00  0.00     0.036 C 
ATOM     26  C   UNL A   1      32.867  30.321  26.460  1.00  0.00     0.010 C 
ENDBRANCH  15  18
ENDBRANCH  13  15
ENDBRANCH  10  13
ENDBRANCH   3   6
ENDBRANCH   1   2
BRANCH   1  27
ATOM     27  C   UNL A   1      39.266  21.669  25.867  1.00  0.00     0.042 C 
BRANCH  27  28
ATOM     28  C   UNL A   1      39.646  22.689  26.929  1.00  0.00     0.118 C 
BRANCH  28  29
ATOM     29  N   UNL A   1      41.040  23.148  26.904  1.00  0.00    -0.352 N 
ATOM     30  C   UNL A   1      41.497  24.461  26.931  1.00  0.00     0.251 C 
ATOM     31  H   UNL A   1      41.729  22.446  26.862  1.00  0.00     0.163 HD
ATOM     32  O   UNL A   1      42.694  24.716  26.991  1.00  0.00    -0.269 OA
BRANCH  30  33
ATOM     33  C   UNL A   1      40.488  25.544  27.020  1.00  0.00     0.039 A 
ATOM     34  C   UNL A   1      40.773  26.741  26.363  1.00  0.00     0.014 A 
ATOM     35  C   UNL A   1      39.537  25.494  28.034  1.00  0.00     0.014 A 
ATOM     36  C   UNL A   1      40.354  27.935  26.939  1.00  0.00     0.010 A 
ATOM     37  C   UNL A   1      39.207  26.678  28.666  1.00  0.00     0.010 A 
ATOM     38  C   UNL A   1      39.694  27.893  28.169  1.00  0.00    -0.014 A 
BRANCH  38  39
ATOM     39  C   UNL A   1      39.620  29.054  29.053  1.00  0.00     0.031 A 
ATOM     40  C   UNL A   1      38.588  30.087  28.855  1.00  0.00     0.074 A 
ATOM     41  C   UNL A   1      40.491  29.202  30.078  1.00  0.00     0.049 A 
ATOM     42  N   UNL A   1      38.746  31.330  29.167  1.00  0.00    -0.248 NA
ATOM     43  C   UNL A   1      37.293  29.796  28.259  1.00  0.00     0.031 C 
ATOM     44  C   UNL A   1      40.435  30.196  31.148  1.00  0.00     0.029 A 
ATOM     45  N   UNL A   1      41.750  28.606  30.227  1.00  0.00    -0.354 N 
ATOM     46  C   UNL A   1      37.518  31.937  29.084  1.00  0.00     0.074 A 
ATOM     47  C   UNL A   1      36.660  30.956  28.453  1.00  0.00     0.031 C 
ATOM     48  C   UNL A   1      41.672  30.377  31.634  1.00  0.00     0.029 A 
ATOM     49  C   UNL A   1      42.580  29.578  30.834  1.00  0.00     0.049 A 
ATOM     50  H   UNL A   1      42.006  27.694  29.961  1.00  0.00     0.167 HD
ATOM     51  C   UNL A   1      37.321  33.152  29.673  1.00  0.00     0.037 A 
ATOM     52  C   UNL A   1      43.703  30.029  30.207  1.00  0.00     0.037 A 
ATOM     53  C   UNL A   1      38.537  33.666  30.304  1.00  0.00     0.049 A 
ATOM     54  C   UNL A   1      43.668  31.499  29.842  1.00  0.00     0.074 A 
ATOM     55  C   UNL A   1      39.001  33.726  31.609  1.00  0.00     0.029 A 
ATOM     56  N   UNL A   1      39.625  33.979  29.508  1.00  0.00    -0.354 N 
ATOM     57  N   UNL A   1      42.703  32.317  30.158  1.00  0.00    -0.248 NA
ATOM     58  C   UNL A   1      44.677  32.134  28.993  1.00  0.00     0.031 C 
ATOM     59  C   UNL A   1      40.376  34.097  31.584  1.00  0.00     0.029 A 
ATOM     60  C   UNL A   1      40.749  34.254  30.264  1.00  0.00     0.049 A 
ATOM     61  H   UNL A   1      39.601  34.004  28.523  1.00  0.00     0.167 HD
ATOM     62  C   UNL A   1      42.900  33.517  29.523  1.00  0.00     0.074 A 
ATOM     63  C   UNL A   1      44.153  33.356  28.812  1.00  0.00     0.031 C 
ATOM     64  C   UNL A   1      41.999  34.542  29.580  1.00  0.00     0.037 A 
BRANCH  51  65
ATOM     65  C   UNL A   1      35.945  33.735  29.893  1.00  0.00     0.057 A 
ATOM     66  C   UNL A   1      35.170  34.205  28.818  1.00  0.00     0.134 A 
ATOM     67  C   UNL A   1      35.348  33.903  31.155  1.00  0.00     0.134 A 
ATOM     68  F   UNL A   1      35.529  34.001  27.545  1.00  0.00    -0.206 F 
ATOM     69  C   UNL A   1      33.978  34.920  28.995  1.00  0.00     0.040 A 
ATOM     70  C   UNL A   1      34.191  34.670  31.355  1.00  0.00     0.040 A 
ATOM     71  F   UNL A   1      35.835  33.293  32.244  1.00  0.00    -0.206 F 
ATOM     72  C   UNL A   1      33.510  35.199  30.269  1.00  0.00     0.006 A 
ENDBRANCH  51  65
BRANCH  52  73
ATOM     73  C   UNL A   1      44.373  28.954  29.431  1.00  0.00     0.057 A 
ATOM     74  C   UNL A   1      44.161  28.917  28.040  1.00  0.00     0.134 A 
ATOM     75  C   UNL A   1      45.489  28.276  29.926  1.00  0.00     0.134 A 
ATOM     76  F   UNL A   1      43.098  29.539  27.504  1.00  0.00    -0.206 F 
ATOM     77  C   UNL A   1      45.102  28.370  27.167  1.00  0.00     0.040 A 
ATOM     78  C   UNL A   1      46.423  27.701  29.060  1.00  0.00     0.040 A 
ATOM     79  F   UNL A   1      45.762  28.273  31.237  1.00  0.00    -0.206 F 
ATOM     80  C   UNL A   1      46.260  27.796  27.678  1.00  0.00     0.006 A 
ENDBRANCH  52  73
BRANCH  64  81
ATOM     81  C   UNL A   1      42.233  35.896  28.963  1.00  0.00     0.057 A 
ATOM     82  C   UNL A   1      41.683  36.269  27.727  1.00  0.00     0.134 A 
ATOM     83  C   UNL A   1      43.123  36.829  29.532  1.00  0.00     0.134 A 
ATOM     84  F   UNL A   1      40.896  35.429  27.037  1.00  0.00    -0.206 F 
ATOM     85  C   UNL A   1      41.942  37.510  27.134  1.00  0.00     0.040 A 
ATOM     86  C   UNL A   1      43.428  38.051  28.926  1.00  0.00     0.040 A 
ATOM     87  F   UNL A   1      43.724  36.604  30.709  1.00  0.00    -0.206 F 
ATOM     88  C   UNL A   1      42.823  38.404  27.730  1.00  0.00     0.006 A 
ENDBRANCH  64  81
ENDBRANCH  38  39
ENDBRANCH  30  33
ENDBRANCH  28  29
ENDBRANCH  27  28
ENDBRANCH   1  27
TORSDOF 13
ENDMDL
