MODEL 1
REMARK VINA RESULT:     -12.2      0.000      0.000
REMARK SMILES CC[C@@H](C(=O)Nc1ccc(OC(C)=O)cc1C(=O)NCCCNC(=O)c1ccc(-c2c3nc(c(-c4c(F)cccc4F)c4ccc([nH]4)c(-c4c(F)cccc4F)c4nc(c(-c5c(F)cccc5F)c5ccc2[nH]5)C=C4)C=C3)cc1)c1ccccc1
REMARK SMILES IDX 20 1 19 2 17 3 18 4 16 6 7 7 8 8 9 9 15 10 10 11 6 12 4 13
REMARK SMILES IDX 5 14 3 16 2 17 1 18 80 19 81 20 85 21 82 22 84 23 83 24
REMARK SMILES IDX 11 25 12 26 13 27 14 28 21 29 22 30 23 31 24 32 25 34 26 35
REMARK SMILES IDX 27 36 79 37 28 38 78 39 29 40 30 41 31 42 72 43 32 44 77 45
REMARK SMILES IDX 71 46 73 47 33 48 76 49 70 50 69 51 34 53 60 54 43 55 59 56
REMARK SMILES IDX 44 57 47 58 58 59 74 60 45 61 46 62 57 64 75 65 48 66 35 67
REMARK SMILES IDX 36 68 41 69 37 70 38 71 40 72 42 73 39 74 61 75 62 76 67 77
REMARK SMILES IDX 63 78 64 79 66 80 68 81 65 82 49 83 50 84 55 85 51 86 52 87
REMARK SMILES IDX 54 88 56 89 53 90
REMARK H PARENT 19 5 6 15 23 33 73 52 47 63
REMARK Flexibility Score: inf
ROOT
ATOM      1  C   UNL A   1      36.996  21.750  24.956  1.00  0.00     0.118 C 
ENDROOT
BRANCH   1   2
ATOM      2  N   UNL A   1      36.089  21.803  26.084  1.00  0.00    -0.352 N 
ATOM      3  C   UNL A   1      34.785  21.431  26.224  1.00  0.00     0.253 C 
ATOM      4  O   UNL A   1      34.288  21.578  27.345  1.00  0.00    -0.269 OA
ATOM      5  H   UNL A   1      36.488  22.178  26.901  1.00  0.00     0.163 HD
BRANCH   3   6
ATOM      6  C   UNL A   1      33.918  20.912  25.130  1.00  0.00     0.067 A 
ATOM      7  C   UNL A   1      33.271  21.608  24.094  1.00  0.00     0.054 A 
ATOM      8  C   UNL A   1      32.329  20.924  23.295  1.00  0.00     0.031 A 
ATOM      9  C   UNL A   1      32.178  19.542  23.367  1.00  0.00     0.049 A 
ATOM     10  C   UNL A   1      33.739  19.510  25.204  1.00  0.00     0.063 A 
ATOM     11  C   UNL A   1      32.942  18.841  24.283  1.00  0.00     0.131 A 
BRANCH   7  12
ATOM     12  N   UNL A   1      33.386  22.955  23.745  1.00  0.00    -0.325 N 
ATOM     13  C   UNL A   1      33.157  24.160  24.320  1.00  0.00     0.231 C 
ATOM     14  O   UNL A   1      33.341  25.092  23.515  1.00  0.00    -0.274 OA
ATOM     15  H   UNL A   1      33.727  23.057  22.827  1.00  0.00     0.169 HD
BRANCH  13  16
ATOM     16  C   UNL A   1      32.899  24.489  25.814  1.00  0.00     0.108 C 
BRANCH  16  17
ATOM     17  C   UNL A   1      31.782  23.803  26.606  1.00  0.00     0.015 C 
ATOM     18  C   UNL A   1      30.651  23.256  25.754  1.00  0.00     0.005 C 
ENDBRANCH  16  17
BRANCH  16  19
ATOM     19  C   UNL A   1      32.831  26.021  26.005  1.00  0.00    -0.036 A 
ATOM     20  C   UNL A   1      33.973  26.833  26.101  1.00  0.00     0.004 A 
ATOM     21  C   UNL A   1      31.571  26.640  26.092  1.00  0.00     0.004 A 
ATOM     22  C   UNL A   1      33.855  28.221  26.222  1.00  0.00     0.000 A 
ATOM     23  C   UNL A   1      31.455  28.024  26.240  1.00  0.00     0.000 A 
ATOM     24  C   UNL A   1      32.597  28.815  26.288  1.00  0.00     0.000 A 
ENDBRANCH  16  19
ENDBRANCH  13  16
ENDBRANCH   7  12
BRANCH  11  25
ATOM     25  O   UNL A   1      32.846  17.444  24.295  1.00  0.00    -0.427 OA
BRANCH  25  26
ATOM     26  C   UNL A   1      33.937  16.701  23.850  1.00  0.00     0.308 C 
ATOM     27  C   UNL A   1      34.759  16.021  24.913  1.00  0.00     0.139 C 
ATOM     28  O   UNL A   1      34.157  16.546  22.653  1.00  0.00    -0.252 OA
ENDBRANCH  25  26
ENDBRANCH  11  25
ENDBRANCH   3   6
ENDBRANCH   1   2
BRANCH   1  29
ATOM     29  C   UNL A   1      37.879  20.517  24.965  1.00  0.00     0.042 C 
BRANCH  29  30
ATOM     30  C   UNL A   1      39.035  20.645  25.953  1.00  0.00     0.118 C 
BRANCH  30  31
ATOM     31  N   UNL A   1      40.053  19.603  25.828  1.00  0.00    -0.352 N 
ATOM     32  C   UNL A   1      41.412  19.643  26.075  1.00  0.00     0.251 C 
ATOM     33  H   UNL A   1      39.715  18.733  25.518  1.00  0.00     0.163 HD
ATOM     34  O   UNL A   1      42.124  18.681  25.842  1.00  0.00    -0.269 OA
BRANCH  32  35
ATOM     35  C   UNL A   1      42.019  20.893  26.578  1.00  0.00     0.039 A 
ATOM     36  C   UNL A   1      42.438  21.861  25.661  1.00  0.00     0.014 A 
ATOM     37  C   UNL A   1      42.108  21.139  27.945  1.00  0.00     0.014 A 
ATOM     38  C   UNL A   1      42.819  23.123  26.121  1.00  0.00     0.010 A 
ATOM     39  C   UNL A   1      42.344  22.432  28.388  1.00  0.00     0.010 A 
ATOM     40  C   UNL A   1      42.702  23.443  27.484  1.00  0.00    -0.014 A 
BRANCH  40  41
ATOM     41  C   UNL A   1      42.946  24.816  27.998  1.00  0.00     0.031 A 
ATOM     42  C   UNL A   1      44.335  25.224  28.413  1.00  0.00     0.074 A 
ATOM     43  C   UNL A   1      41.910  25.658  28.194  1.00  0.00     0.049 A 
ATOM     44  N   UNL A   1      44.731  26.308  29.031  1.00  0.00    -0.248 NA
ATOM     45  C   UNL A   1      45.416  24.258  28.152  1.00  0.00     0.031 C 
ATOM     46  C   UNL A   1      40.503  25.362  27.913  1.00  0.00     0.029 A 
ATOM     47  N   UNL A   1      41.882  26.937  28.693  1.00  0.00    -0.354 N 
ATOM     48  C   UNL A   1      46.087  26.127  29.273  1.00  0.00     0.074 A 
ATOM     49  C   UNL A   1      46.433  24.809  28.794  1.00  0.00     0.031 C 
ATOM     50  C   UNL A   1      39.757  26.440  28.204  1.00  0.00     0.029 A 
ATOM     51  C   UNL A   1      40.623  27.488  28.731  1.00  0.00     0.049 A 
ATOM     52  H   UNL A   1      42.688  27.415  28.993  1.00  0.00     0.167 HD
ATOM     53  C   UNL A   1      46.974  26.995  29.815  1.00  0.00     0.037 A 
ATOM     54  C   UNL A   1      40.214  28.702  29.146  1.00  0.00     0.037 A 
ATOM     55  C   UNL A   1      46.647  28.337  30.212  1.00  0.00     0.049 A 
ATOM     56  C   UNL A   1      41.232  29.677  29.669  1.00  0.00     0.074 A 
ATOM     57  C   UNL A   1      47.490  29.327  30.680  1.00  0.00     0.029 A 
ATOM     58  N   UNL A   1      45.373  28.881  30.162  1.00  0.00    -0.354 N 
ATOM     59  N   UNL A   1      42.523  29.515  29.832  1.00  0.00    -0.248 NA
ATOM     60  C   UNL A   1      40.739  31.005  30.060  1.00  0.00     0.031 C 
ATOM     61  C   UNL A   1      46.722  30.468  30.935  1.00  0.00     0.029 A 
ATOM     62  C   UNL A   1      45.407  30.195  30.594  1.00  0.00     0.049 A 
ATOM     63  H   UNL A   1      44.565  28.404  29.864  1.00  0.00     0.167 HD
ATOM     64  C   UNL A   1      42.999  30.725  30.317  1.00  0.00     0.074 A 
ATOM     65  C   UNL A   1      41.861  31.617  30.409  1.00  0.00     0.031 C 
ATOM     66  C   UNL A   1      44.264  31.069  30.659  1.00  0.00     0.037 A 
BRANCH  53  67
ATOM     67  C   UNL A   1      48.389  26.523  29.980  1.00  0.00     0.057 A 
ATOM     68  C   UNL A   1      48.801  25.805  31.111  1.00  0.00     0.134 A 
ATOM     69  C   UNL A   1      49.346  26.772  28.988  1.00  0.00     0.134 A 
ATOM     70  F   UNL A   1      47.937  25.546  32.103  1.00  0.00    -0.206 F 
ATOM     71  C   UNL A   1      50.121  25.381  31.266  1.00  0.00     0.040 A 
ATOM     72  C   UNL A   1      50.663  26.328  29.119  1.00  0.00     0.040 A 
ATOM     73  F   UNL A   1      49.018  27.449  27.878  1.00  0.00    -0.206 F 
ATOM     74  C   UNL A   1      51.055  25.636  30.264  1.00  0.00     0.006 A 
ENDBRANCH  53  67
BRANCH  54  75
ATOM     75  C   UNL A   1      38.783  29.084  29.047  1.00  0.00     0.057 A 
ATOM     76  C   UNL A   1      37.942  29.009  30.165  1.00  0.00     0.134 A 
ATOM     77  C   UNL A   1      38.218  29.516  27.843  1.00  0.00     0.134 A 
ATOM     78  F   UNL A   1      38.423  28.584  31.343  1.00  0.00    -0.206 F 
ATOM     79  C   UNL A   1      36.585  29.325  30.082  1.00  0.00     0.040 A 
ATOM     80  C   UNL A   1      36.867  29.857  27.752  1.00  0.00     0.040 A 
ATOM     81  F   UNL A   1      38.971  29.619  26.739  1.00  0.00    -0.206 F 
ATOM     82  C   UNL A   1      36.045  29.754  28.873  1.00  0.00     0.006 A 
ENDBRANCH  54  75
BRANCH  66  83
ATOM     83  C   UNL A   1      44.491  32.474  31.126  1.00  0.00     0.057 A 
ATOM     84  C   UNL A   1      44.772  33.512  30.231  1.00  0.00     0.134 A 
ATOM     85  C   UNL A   1      44.379  32.797  32.485  1.00  0.00     0.134 A 
ATOM     86  F   UNL A   1      44.904  33.262  28.920  1.00  0.00    -0.206 F 
ATOM     87  C   UNL A   1      44.951  34.824  30.672  1.00  0.00     0.040 A 
ATOM     88  C   UNL A   1      44.533  34.108  32.935  1.00  0.00     0.040 A 
ATOM     89  F   UNL A   1      44.103  31.847  33.391  1.00  0.00    -0.206 F 
ATOM     90  C   UNL A   1      44.825  35.125  32.028  1.00  0.00     0.006 A 
ENDBRANCH  66  83
ENDBRANCH  40  41
ENDBRANCH  32  35
ENDBRANCH  30  31
ENDBRANCH  29  30
ENDBRANCH   1  29
TORSDOF 16
ENDMDL
MODEL 2
REMARK VINA RESULT:     -12.1      0.629      6.064
REMARK SMILES CC[C@@H](C(=O)Nc1ccc(OC(C)=O)cc1C(=O)NCCCNC(=O)c1ccc(-c2c3nc(c(-c4c(F)cccc4F)c4ccc([nH]4)c(-c4c(F)cccc4F)c4nc(c(-c5c(F)cccc5F)c5ccc2[nH]5)C=C4)C=C3)cc1)c1ccccc1
REMARK SMILES IDX 20 1 19 2 17 3 18 4 16 6 7 7 8 8 9 9 15 10 10 11 6 12 4 13
REMARK SMILES IDX 5 14 3 16 2 17 1 18 80 19 81 20 85 21 82 22 84 23 83 24
REMARK SMILES IDX 11 25 12 26 13 27 14 28 21 29 22 30 23 31 24 32 25 34 26 35
REMARK SMILES IDX 27 36 79 37 28 38 78 39 29 40 30 41 31 42 72 43 32 44 77 45
REMARK SMILES IDX 71 46 73 47 33 48 76 49 70 50 69 51 34 53 60 54 43 55 59 56
REMARK SMILES IDX 44 57 47 58 58 59 74 60 45 61 46 62 57 64 75 65 48 66 35 67
REMARK SMILES IDX 36 68 41 69 37 70 38 71 40 72 42 73 39 74 61 75 62 76 67 77
REMARK SMILES IDX 63 78 64 79 66 80 68 81 65 82 49 83 50 84 55 85 51 86 52 87
REMARK SMILES IDX 54 88 56 89 53 90
REMARK H PARENT 19 5 6 15 23 33 73 52 47 63
REMARK Flexibility Score: inf
ROOT
ATOM      1  C   UNL A   1      36.916  22.148  25.131  1.00  0.00     0.118 C 
ENDROOT
BRANCH   1   2
ATOM      2  N   UNL A   1      35.996  22.044  26.244  1.00  0.00    -0.352 N 
ATOM      3  C   UNL A   1      34.712  21.593  26.328  1.00  0.00     0.253 C 
ATOM      4  O   UNL A   1      34.197  21.603  27.450  1.00  0.00    -0.269 OA
ATOM      5  H   UNL A   1      36.366  22.358  27.100  1.00  0.00     0.163 HD
BRANCH   3   6
ATOM      6  C   UNL A   1      33.885  21.138  25.176  1.00  0.00     0.067 A 
ATOM      7  C   UNL A   1      33.292  21.891  24.148  1.00  0.00     0.054 A 
ATOM      8  C   UNL A   1      32.375  21.259  23.280  1.00  0.00     0.031 A 
ATOM      9  C   UNL A   1      32.203  19.877  23.281  1.00  0.00     0.049 A 
ATOM     10  C   UNL A   1      33.685  19.737  25.177  1.00  0.00     0.063 A 
ATOM     11  C   UNL A   1      32.919  19.123  24.193  1.00  0.00     0.131 A 
BRANCH   7  12
ATOM     12  N   UNL A   1      33.439  23.250  23.867  1.00  0.00    -0.325 N 
ATOM     13  C   UNL A   1      32.992  24.428  24.366  1.00  0.00     0.231 C 
ATOM     14  O   UNL A   1      33.360  25.389  23.664  1.00  0.00    -0.274 OA
ATOM     15  H   UNL A   1      34.031  23.392  23.093  1.00  0.00     0.169 HD
BRANCH  13  16
ATOM     16  C   UNL A   1      32.287  24.704  25.719  1.00  0.00     0.108 C 
BRANCH  16  17
ATOM     17  C   UNL A   1      30.837  24.282  25.972  1.00  0.00     0.015 C 
ATOM     18  C   UNL A   1      30.682  22.908  26.599  1.00  0.00     0.005 C 
ENDBRANCH  16  17
BRANCH  16  19
ATOM     19  C   UNL A   1      32.496  26.181  26.123  1.00  0.00    -0.036 A 
ATOM     20  C   UNL A   1      31.447  27.019  26.537  1.00  0.00     0.004 A 
ATOM     21  C   UNL A   1      33.793  26.723  26.072  1.00  0.00     0.004 A 
ATOM     22  C   UNL A   1      31.699  28.333  26.941  1.00  0.00     0.000 A 
ATOM     23  C   UNL A   1      34.040  28.044  26.450  1.00  0.00     0.000 A 
ATOM     24  C   UNL A   1      32.994  28.844  26.900  1.00  0.00     0.000 A 
ENDBRANCH  16  19
ENDBRANCH  13  16
ENDBRANCH   7  12
BRANCH  11  25
ATOM     25  O   UNL A   1      32.804  17.729  24.136  1.00  0.00    -0.427 OA
BRANCH  25  26
ATOM     26  C   UNL A   1      33.906  16.990  23.713  1.00  0.00     0.308 C 
ATOM     27  C   UNL A   1      34.701  16.302  24.791  1.00  0.00     0.139 C 
ATOM     28  O   UNL A   1      34.157  16.845  22.521  1.00  0.00    -0.252 OA
ENDBRANCH  25  26
ENDBRANCH  11  25
ENDBRANCH   3   6
ENDBRANCH   1   2
BRANCH   1  29
ATOM     29  C   UNL A   1      37.812  20.933  24.988  1.00  0.00     0.042 C 
BRANCH  29  30
ATOM     30  C   UNL A   1      39.076  21.048  25.836  1.00  0.00     0.118 C 
BRANCH  30  31
ATOM     31  N   UNL A   1      39.977  19.903  25.734  1.00  0.00    -0.352 N 
ATOM     32  C   UNL A   1      41.325  19.793  26.017  1.00  0.00     0.251 C 
ATOM     33  H   UNL A   1      39.556  19.075  25.410  1.00  0.00     0.163 HD
ATOM     34  O   UNL A   1      41.934  18.760  25.798  1.00  0.00    -0.269 OA
BRANCH  32  35
ATOM     35  C   UNL A   1      42.051  20.969  26.542  1.00  0.00     0.039 A 
ATOM     36  C   UNL A   1      42.494  21.948  25.650  1.00  0.00     0.014 A 
ATOM     37  C   UNL A   1      42.228  21.139  27.913  1.00  0.00     0.014 A 
ATOM     38  C   UNL A   1      42.994  23.154  26.145  1.00  0.00     0.010 A 
ATOM     39  C   UNL A   1      42.584  22.387  28.401  1.00  0.00     0.010 A 
ATOM     40  C   UNL A   1      42.972  23.413  27.526  1.00  0.00    -0.014 A 
BRANCH  40  41
ATOM     41  C   UNL A   1      43.345  24.738  28.088  1.00  0.00     0.031 A 
ATOM     42  C   UNL A   1      42.275  25.759  28.373  1.00  0.00     0.074 A 
ATOM     43  C   UNL A   1      44.645  25.065  28.239  1.00  0.00     0.049 A 
ATOM     44  N   UNL A   1      42.398  27.017  28.709  1.00  0.00    -0.248 NA
ATOM     45  C   UNL A   1      40.879  25.322  28.200  1.00  0.00     0.031 C 
ATOM     46  C   UNL A   1      45.786  24.202  27.923  1.00  0.00     0.029 A 
ATOM     47  N   UNL A   1      45.227  26.225  28.688  1.00  0.00    -0.354 N 
ATOM     48  C   UNL A   1      41.106  27.527  28.736  1.00  0.00     0.074 A 
ATOM     49  C   UNL A   1      40.220  26.463  28.323  1.00  0.00     0.031 C 
ATOM     50  C   UNL A   1      46.926  24.846  28.225  1.00  0.00     0.029 A 
ATOM     51  C   UNL A   1      46.601  26.181  28.715  1.00  0.00     0.049 A 
ATOM     52  H   UNL A   1      44.709  27.015  28.964  1.00  0.00     0.167 HD
ATOM     53  C   UNL A   1      40.690  28.761  29.105  1.00  0.00     0.037 A 
ATOM     54  C   UNL A   1      47.497  27.112  29.093  1.00  0.00     0.037 A 
ATOM     55  C   UNL A   1      41.563  29.791  29.598  1.00  0.00     0.049 A 
ATOM     56  C   UNL A   1      47.003  28.447  29.576  1.00  0.00     0.074 A 
ATOM     57  C   UNL A   1      41.231  31.040  30.089  1.00  0.00     0.029 A 
ATOM     58  N   UNL A   1      42.941  29.677  29.682  1.00  0.00    -0.354 N 
ATOM     59  N   UNL A   1      45.773  28.893  29.658  1.00  0.00    -0.248 NA
ATOM     60  C   UNL A   1      48.021  29.408  30.025  1.00  0.00     0.031 C 
ATOM     61  C   UNL A   1      42.414  31.692  30.453  1.00  0.00     0.029 A 
ATOM     62  C   UNL A   1      43.477  30.835  30.216  1.00  0.00     0.049 A 
ATOM     63  H   UNL A   1      43.462  28.889  29.404  1.00  0.00     0.167 HD
ATOM     64  C   UNL A   1      45.867  30.171  30.191  1.00  0.00     0.074 A 
ATOM     65  C   UNL A   1      47.273  30.425  30.427  1.00  0.00     0.031 C 
ATOM     66  C   UNL A   1      44.878  31.058  30.460  1.00  0.00     0.037 A 
BRANCH  53  67
ATOM     67  C   UNL A   1      39.220  29.048  29.016  1.00  0.00     0.057 A 
ATOM     68  C   UNL A   1      38.611  29.418  27.809  1.00  0.00     0.134 A 
ATOM     69  C   UNL A   1      38.399  28.936  30.146  1.00  0.00     0.134 A 
ATOM     70  F   UNL A   1      39.344  29.556  26.694  1.00  0.00    -0.206 F 
ATOM     71  C   UNL A   1      37.246  29.697  27.734  1.00  0.00     0.040 A 
ATOM     72  C   UNL A   1      37.027  29.186  30.077  1.00  0.00     0.040 A 
ATOM     73  F   UNL A   1      38.915  28.583  31.332  1.00  0.00    -0.206 F 
ATOM     74  C   UNL A   1      36.449  29.575  28.870  1.00  0.00     0.006 A 
ENDBRANCH  53  67
BRANCH  54  75
ATOM     75  C   UNL A   1      48.949  26.805  29.073  1.00  0.00     0.057 A 
ATOM     76  C   UNL A   1      49.568  26.195  30.171  1.00  0.00     0.134 A 
ATOM     77  C   UNL A   1      49.754  27.125  27.975  1.00  0.00     0.134 A 
ATOM     78  F   UNL A   1      48.851  25.881  31.261  1.00  0.00    -0.206 F 
ATOM     79  C   UNL A   1      50.939  25.935  30.188  1.00  0.00     0.040 A 
ATOM     80  C   UNL A   1      51.124  26.851  27.969  1.00  0.00     0.040 A 
ATOM     81  F   UNL A   1      49.221  27.703  26.889  1.00  0.00    -0.206 F 
ATOM     82  C   UNL A   1      51.721  26.261  29.083  1.00  0.00     0.006 A 
ENDBRANCH  54  75
BRANCH  66  83
ATOM     83  C   UNL A   1      45.278  32.365  31.072  1.00  0.00     0.057 A 
ATOM     84  C   UNL A   1      45.537  33.496  30.289  1.00  0.00     0.134 A 
ATOM     85  C   UNL A   1      45.359  32.503  32.464  1.00  0.00     0.134 A 
ATOM     86  F   UNL A   1      45.487  33.423  28.951  1.00  0.00    -0.206 F 
ATOM     87  C   UNL A   1      45.878  34.718  30.869  1.00  0.00     0.040 A 
ATOM     88  C   UNL A   1      45.677  33.725  33.056  1.00  0.00     0.040 A 
ATOM     89  F   UNL A   1      45.114  31.457  33.267  1.00  0.00    -0.206 F 
ATOM     90  C   UNL A   1      45.943  34.835  32.257  1.00  0.00     0.006 A 
ENDBRANCH  66  83
ENDBRANCH  40  41
ENDBRANCH  32  35
ENDBRANCH  30  31
ENDBRANCH  29  30
ENDBRANCH   1  29
TORSDOF 16
ENDMDL
MODEL 3
REMARK VINA RESULT:     -12.1      0.699      1.716
REMARK SMILES CC[C@@H](C(=O)Nc1ccc(OC(C)=O)cc1C(=O)NCCCNC(=O)c1ccc(-c2c3nc(c(-c4c(F)cccc4F)c4ccc([nH]4)c(-c4c(F)cccc4F)c4nc(c(-c5c(F)cccc5F)c5ccc2[nH]5)C=C4)C=C3)cc1)c1ccccc1
REMARK SMILES IDX 20 1 19 2 17 3 18 4 16 6 7 7 8 8 9 9 15 10 10 11 6 12 4 13
REMARK SMILES IDX 5 14 3 16 2 17 1 18 80 19 81 20 85 21 82 22 84 23 83 24
REMARK SMILES IDX 11 25 12 26 13 27 14 28 21 29 22 30 23 31 24 32 25 34 26 35
REMARK SMILES IDX 27 36 79 37 28 38 78 39 29 40 30 41 31 42 72 43 32 44 77 45
REMARK SMILES IDX 71 46 73 47 33 48 76 49 70 50 69 51 34 53 60 54 43 55 59 56
REMARK SMILES IDX 44 57 47 58 58 59 74 60 45 61 46 62 57 64 75 65 48 66 35 67
REMARK SMILES IDX 36 68 41 69 37 70 38 71 40 72 42 73 39 74 61 75 62 76 67 77
REMARK SMILES IDX 63 78 64 79 66 80 68 81 65 82 49 83 50 84 55 85 51 86 52 87
REMARK SMILES IDX 54 88 56 89 53 90
REMARK H PARENT 19 5 6 15 23 33 73 52 47 63
REMARK Flexibility Score: inf
ROOT
ATOM      1  C   UNL A   1      37.325  21.445  24.736  1.00  0.00     0.118 C 
ENDROOT
BRANCH   1   2
ATOM      2  N   UNL A   1      36.468  21.784  25.854  1.00  0.00    -0.352 N 
ATOM      3  C   UNL A   1      35.121  21.682  26.036  1.00  0.00     0.253 C 
ATOM      4  O   UNL A   1      34.686  22.033  27.136  1.00  0.00    -0.269 OA
ATOM      5  H   UNL A   1      36.949  22.158  26.626  1.00  0.00     0.163 HD
BRANCH   3   6
ATOM      6  C   UNL A   1      34.148  21.227  25.004  1.00  0.00     0.067 A 
ATOM      7  C   UNL A   1      33.487  21.969  24.009  1.00  0.00     0.054 A 
ATOM      8  C   UNL A   1      32.446  21.355  23.279  1.00  0.00     0.031 A 
ATOM      9  C   UNL A   1      32.200  19.987  23.367  1.00  0.00     0.049 A 
ATOM     10  C   UNL A   1      33.873  19.842  25.096  1.00  0.00     0.063 A 
ATOM     11  C   UNL A   1      32.971  19.233  24.233  1.00  0.00     0.131 A 
BRANCH   7  12
ATOM     12  N   UNL A   1      33.675  23.304  23.648  1.00  0.00    -0.325 N 
ATOM     13  C   UNL A   1      33.308  24.525  24.104  1.00  0.00     0.231 C 
ATOM     14  O   UNL A   1      33.677  25.430  23.332  1.00  0.00    -0.274 OA
ATOM     15  H   UNL A   1      34.228  23.378  22.835  1.00  0.00     0.169 HD
BRANCH  13  16
ATOM     16  C   UNL A   1      32.695  24.903  25.478  1.00  0.00     0.108 C 
BRANCH  16  17
ATOM     17  C   UNL A   1      31.335  24.362  25.927  1.00  0.00     0.015 C 
ATOM     18  C   UNL A   1      31.411  23.240  26.947  1.00  0.00     0.005 C 
ENDBRANCH  16  17
BRANCH  16  19
ATOM     19  C   UNL A   1      32.755  26.435  25.670  1.00  0.00    -0.036 A 
ATOM     20  C   UNL A   1      33.879  27.100  26.186  1.00  0.00     0.004 A 
ATOM     21  C   UNL A   1      31.634  27.209  25.318  1.00  0.00     0.004 A 
ATOM     22  C   UNL A   1      33.900  28.494  26.291  1.00  0.00     0.000 A 
ATOM     23  C   UNL A   1      31.646  28.599  25.448  1.00  0.00     0.000 A 
ATOM     24  C   UNL A   1      32.785  29.243  25.920  1.00  0.00     0.000 A 
ENDBRANCH  16  19
ENDBRANCH  13  16
ENDBRANCH   7  12
BRANCH  11  25
ATOM     25  O   UNL A   1      32.774  17.847  24.258  1.00  0.00    -0.427 OA
BRANCH  25  26
ATOM     26  C   UNL A   1      33.768  17.027  23.727  1.00  0.00     0.308 C 
ATOM     27  C   UNL A   1      34.596  16.255  24.719  1.00  0.00     0.139 C 
ATOM     28  O   UNL A   1      33.896  16.884  22.515  1.00  0.00    -0.252 OA
ENDBRANCH  25  26
ENDBRANCH  11  25
ENDBRANCH   3   6
ENDBRANCH   1   2
BRANCH   1  29
ATOM     29  C   UNL A   1      38.109  20.167  24.958  1.00  0.00     0.042 C 
BRANCH  29  30
ATOM     30  C   UNL A   1      39.279  20.369  25.918  1.00  0.00     0.118 C 
BRANCH  30  31
ATOM     31  N   UNL A   1      40.288  19.314  25.870  1.00  0.00    -0.352 N 
ATOM     32  C   UNL A   1      41.644  19.357  26.131  1.00  0.00     0.251 C 
ATOM     33  H   UNL A   1      39.946  18.428  25.610  1.00  0.00     0.163 HD
ATOM     34  O   UNL A   1      42.350  18.376  25.966  1.00  0.00    -0.269 OA
BRANCH  32  35
ATOM     35  C   UNL A   1      42.258  20.630  26.562  1.00  0.00     0.039 A 
ATOM     36  C   UNL A   1      42.750  21.509  25.595  1.00  0.00     0.014 A 
ATOM     37  C   UNL A   1      42.279  20.987  27.908  1.00  0.00     0.014 A 
ATOM     38  C   UNL A   1      43.140  22.796  25.970  1.00  0.00     0.010 A 
ATOM     39  C   UNL A   1      42.526  22.306  28.256  1.00  0.00     0.010 A 
ATOM     40  C   UNL A   1      42.959  23.231  27.294  1.00  0.00    -0.014 A 
BRANCH  40  41
ATOM     41  C   UNL A   1      43.212  24.636  27.706  1.00  0.00     0.031 A 
ATOM     42  C   UNL A   1      44.626  25.110  27.922  1.00  0.00     0.074 A 
ATOM     43  C   UNL A   1      42.177  25.453  27.993  1.00  0.00     0.049 A 
ATOM     44  N   UNL A   1      45.054  26.237  28.432  1.00  0.00    -0.248 NA
ATOM     45  C   UNL A   1      45.702  24.167  27.571  1.00  0.00     0.031 C 
ATOM     46  C   UNL A   1      40.758  25.097  27.908  1.00  0.00     0.029 A 
ATOM     47  N   UNL A   1      42.162  26.755  28.430  1.00  0.00    -0.354 N 
ATOM     48  C   UNL A   1      46.435  26.113  28.508  1.00  0.00     0.074 A 
ATOM     49  C   UNL A   1      46.770  24.783  28.052  1.00  0.00     0.031 C 
ATOM     50  C   UNL A   1      40.014  26.164  28.240  1.00  0.00     0.029 A 
ATOM     51  C   UNL A   1      40.897  27.266  28.602  1.00  0.00     0.049 A 
ATOM     52  H   UNL A   1      42.981  27.274  28.602  1.00  0.00     0.167 HD
ATOM     53  C   UNL A   1      47.349  27.036  28.890  1.00  0.00     0.037 A 
ATOM     54  C   UNL A   1      40.497  28.486  29.008  1.00  0.00     0.037 A 
ATOM     55  C   UNL A   1      47.022  28.386  29.261  1.00  0.00     0.049 A 
ATOM     56  C   UNL A   1      41.534  29.519  29.349  1.00  0.00     0.074 A 
ATOM     57  C   UNL A   1      47.878  29.426  29.571  1.00  0.00     0.029 A 
ATOM     58  N   UNL A   1      45.732  28.885  29.349  1.00  0.00    -0.354 N 
ATOM     59  N   UNL A   1      42.840  29.408  29.354  1.00  0.00    -0.248 NA
ATOM     60  C   UNL A   1      41.043  30.849  29.736  1.00  0.00     0.031 C 
ATOM     61  C   UNL A   1      47.105  30.553  29.867  1.00  0.00     0.029 A 
ATOM     62  C   UNL A   1      45.769  30.220  29.710  1.00  0.00     0.049 A 
ATOM     63  H   UNL A   1      44.912  28.367  29.179  1.00  0.00     0.167 HD
ATOM     64  C   UNL A   1      43.327  30.657  29.717  1.00  0.00     0.074 A 
ATOM     65  C   UNL A   1      42.175  31.515  29.910  1.00  0.00     0.031 C 
ATOM     66  C   UNL A   1      44.611  31.059  29.878  1.00  0.00     0.037 A 
BRANCH  53  67
ATOM     67  C   UNL A   1      48.790  26.619  28.896  1.00  0.00     0.057 A 
ATOM     68  C   UNL A   1      49.595  26.729  27.753  1.00  0.00     0.134 A 
ATOM     69  C   UNL A   1      49.387  26.121  30.061  1.00  0.00     0.134 A 
ATOM     70  F   UNL A   1      49.081  27.185  26.602  1.00  0.00    -0.206 F 
ATOM     71  C   UNL A   1      50.931  26.326  27.760  1.00  0.00     0.040 A 
ATOM     72  C   UNL A   1      50.730  25.741  30.087  1.00  0.00     0.040 A 
ATOM     73  F   UNL A   1      48.675  25.994  31.190  1.00  0.00    -0.206 F 
ATOM     74  C   UNL A   1      51.504  25.837  28.932  1.00  0.00     0.006 A 
ENDBRANCH  53  67
BRANCH  54  75
ATOM     75  C   UNL A   1      39.052  28.816  29.074  1.00  0.00     0.057 A 
ATOM     76  C   UNL A   1      38.388  29.353  27.964  1.00  0.00     0.134 A 
ATOM     77  C   UNL A   1      38.304  28.621  30.240  1.00  0.00     0.134 A 
ATOM     78  F   UNL A   1      39.057  29.580  26.823  1.00  0.00    -0.206 F 
ATOM     79  C   UNL A   1      37.039  29.708  28.019  1.00  0.00     0.040 A 
ATOM     80  C   UNL A   1      36.948  28.950  30.302  1.00  0.00     0.040 A 
ATOM     81  F   UNL A   1      38.878  28.101  31.334  1.00  0.00    -0.206 F 
ATOM     82  C   UNL A   1      36.315  29.503  29.190  1.00  0.00     0.006 A 
ENDBRANCH  54  75
BRANCH  66  83
ATOM     83  C   UNL A   1      44.839  32.493  30.245  1.00  0.00     0.057 A 
ATOM     84  C   UNL A   1      44.953  32.902  31.579  1.00  0.00     0.134 A 
ATOM     85  C   UNL A   1      44.991  33.466  29.249  1.00  0.00     0.134 A 
ATOM     86  F   UNL A   1      44.805  32.018  32.576  1.00  0.00    -0.206 F 
ATOM     87  C   UNL A   1      45.197  34.235  31.911  1.00  0.00     0.040 A 
ATOM     88  C   UNL A   1      45.257  34.797  29.568  1.00  0.00     0.040 A 
ATOM     89  F   UNL A   1      44.899  33.134  27.952  1.00  0.00    -0.206 F 
ATOM     90  C   UNL A   1      45.356  35.185  30.903  1.00  0.00     0.006 A 
ENDBRANCH  66  83
ENDBRANCH  40  41
ENDBRANCH  32  35
ENDBRANCH  30  31
ENDBRANCH  29  30
ENDBRANCH   1  29
TORSDOF 16
ENDMDL
