MODEL 1
REMARK VINA RESULT:     -10.0      0.000      0.000
REMARK SMILES CN(CC(=O)NCCCNC(=O)c1ccc(-c2c3nc(c(-c4c(F)cccc4F)c4ccc([nH]4)c(-c4c(F)cccc4F)c4nc(c(-c5c(F)cccc5F)c5ccc2[nH]5)C=C4)C=C3)cc1)c1nc2cc(N)ccc2[nH]1
REMARK SMILES IDX 7 1 6 2 4 3 5 4 3 6 2 7 1 8 67 9 68 10 76 11 69 12 75 13
REMARK SMILES IDX 70 15 74 16 71 17 73 18 72 19 8 22 9 23 10 24 11 25 12 27
REMARK SMILES IDX 13 28 14 29 66 30 15 31 65 32 16 33 17 34 18 35 59 36 19 37
REMARK SMILES IDX 64 38 58 39 60 40 20 41 63 42 57 43 56 44 21 46 47 47 30 48
REMARK SMILES IDX 46 49 31 50 34 51 45 52 61 53 32 54 33 55 44 57 62 58 35 59
REMARK SMILES IDX 22 60 23 61 28 62 24 63 25 64 27 65 29 66 26 67 48 68 49 69
REMARK SMILES IDX 54 70 50 71 51 72 53 73 55 74 52 75 36 76 37 77 42 78 38 79
REMARK SMILES IDX 39 80 41 81 43 82 40 83
REMARK H PARENT 6 5 76 14 72 20 72 21 10 26 60 45 34 56
REMARK Flexibility Score: inf
ROOT
ATOM      1  C   UNL A   1      33.711  36.347  32.021  1.00  0.00     0.117 C 
ENDROOT
BRANCH   1   2
ATOM      2  N   UNL A   1      33.375  34.982  32.357  1.00  0.00    -0.354 N 
ATOM      3  C   UNL A   1      34.189  34.005  32.867  1.00  0.00     0.239 C 
ATOM      4  O   UNL A   1      33.654  32.971  33.277  1.00  0.00    -0.273 OA
ATOM      5  H   UNL A   1      32.440  34.720  32.197  1.00  0.00     0.163 HD
BRANCH   3   6
ATOM      6  C   UNL A   1      35.692  34.270  33.038  1.00  0.00     0.219 C 
BRANCH   6   7
ATOM      7  N   UNL A   1      36.310  33.598  34.200  1.00  0.00    -0.336 N 
ATOM      8  C   UNL A   1      35.901  34.003  35.529  1.00  0.00     0.147 C 
BRANCH   7   9
ATOM      9  C   UNL A   1      36.982  32.444  33.960  1.00  0.00     0.204 A 
ATOM     10  N   UNL A   1      38.217  32.166  34.302  1.00  0.00    -0.213 NA
ATOM     11  N   UNL A   1      36.439  31.398  33.251  1.00  0.00    -0.324 N 
ATOM     12  C   UNL A   1      38.500  30.939  33.766  1.00  0.00     0.093 A 
ATOM     13  C   UNL A   1      37.405  30.440  33.075  1.00  0.00     0.067 A 
ATOM     14  H   UNL A   1      35.512  31.346  32.924  1.00  0.00     0.170 HD
ATOM     15  C   UNL A   1      39.684  30.191  33.819  1.00  0.00     0.056 A 
ATOM     16  C   UNL A   1      37.427  29.223  32.395  1.00  0.00     0.030 A 
ATOM     17  C   UNL A   1      39.759  28.976  33.125  1.00  0.00     0.034 A 
ATOM     18  C   UNL A   1      38.630  28.502  32.445  1.00  0.00     0.028 A 
BRANCH  17  19
ATOM     19  N   UNL A   1      40.905  28.197  33.212  1.00  0.00    -0.399 N 
ATOM     20  H   UNL A   1      41.124  27.562  32.493  1.00  0.00     0.156 HD
ATOM     21  H   UNL A   1      41.499  28.282  33.993  1.00  0.00     0.156 HD
ENDBRANCH  17  19
ENDBRANCH   7   9
ENDBRANCH   6   7
ENDBRANCH   3   6
ENDBRANCH   1   2
BRANCH   1  22
ATOM     22  C   UNL A   1      32.886  36.914  30.872  1.00  0.00     0.042 C 
BRANCH  22  23
ATOM     23  C   UNL A   1      33.456  36.648  29.481  1.00  0.00     0.118 C 
BRANCH  23  24
ATOM     24  N   UNL A   1      32.725  35.619  28.756  1.00  0.00    -0.352 N 
ATOM     25  C   UNL A   1      33.089  34.366  28.335  1.00  0.00     0.251 C 
ATOM     26  H   UNL A   1      31.801  35.868  28.525  1.00  0.00     0.163 HD
ATOM     27  O   UNL A   1      32.332  33.752  27.586  1.00  0.00    -0.269 OA
BRANCH  25  28
ATOM     28  C   UNL A   1      34.368  33.739  28.744  1.00  0.00     0.039 A 
ATOM     29  C   UNL A   1      35.540  34.148  28.097  1.00  0.00     0.014 A 
ATOM     30  C   UNL A   1      34.428  32.706  29.683  1.00  0.00     0.014 A 
ATOM     31  C   UNL A   1      36.766  33.559  28.419  1.00  0.00     0.010 A 
ATOM     32  C   UNL A   1      35.661  32.169  30.058  1.00  0.00     0.010 A 
ATOM     33  C   UNL A   1      36.842  32.580  29.422  1.00  0.00    -0.014 A 
BRANCH  33  34
ATOM     34  C   UNL A   1      38.144  31.970  29.796  1.00  0.00     0.031 A 
ATOM     35  C   UNL A   1      39.097  32.701  30.704  1.00  0.00     0.074 A 
ATOM     36  C   UNL A   1      38.488  30.770  29.290  1.00  0.00     0.049 A 
ATOM     37  N   UNL A   1      40.287  32.340  31.116  1.00  0.00    -0.248 NA
ATOM     38  C   UNL A   1      38.665  34.017  31.198  1.00  0.00     0.031 C 
ATOM     39  C   UNL A   1      37.674  29.975  28.368  1.00  0.00     0.029 A 
ATOM     40  N   UNL A   1      39.615  30.010  29.478  1.00  0.00    -0.354 N 
ATOM     41  C   UNL A   1      40.749  33.388  31.902  1.00  0.00     0.074 A 
ATOM     42  C   UNL A   1      39.732  34.417  31.872  1.00  0.00     0.031 C 
ATOM     43  C   UNL A   1      38.316  28.830  28.092  1.00  0.00     0.029 A 
ATOM     44  C   UNL A   1      39.598  28.821  28.790  1.00  0.00     0.049 A 
ATOM     45  H   UNL A   1      40.364  30.289  30.053  1.00  0.00     0.167 HD
ATOM     46  C   UNL A   1      41.904  33.477  32.605  1.00  0.00     0.037 A 
ATOM     47  C   UNL A   1      40.513  27.835  28.727  1.00  0.00     0.037 A 
ATOM     48  C   UNL A   1      42.904  32.443  32.659  1.00  0.00     0.049 A 
ATOM     49  C   UNL A   1      41.787  27.958  29.515  1.00  0.00     0.074 A 
ATOM     50  C   UNL A   1      44.081  32.417  33.389  1.00  0.00     0.029 A 
ATOM     51  N   UNL A   1      42.846  31.251  31.954  1.00  0.00    -0.354 N 
ATOM     52  N   UNL A   1      42.180  28.928  30.304  1.00  0.00    -0.248 NA
ATOM     53  C   UNL A   1      42.741  26.845  29.408  1.00  0.00     0.031 C 
ATOM     54  C   UNL A   1      44.751  31.225  33.098  1.00  0.00     0.029 A 
ATOM     55  C   UNL A   1      43.974  30.491  32.217  1.00  0.00     0.049 A 
ATOM     56  H   UNL A   1      42.112  30.985  31.354  1.00  0.00     0.167 HD
ATOM     57  C   UNL A   1      43.414  28.532  30.805  1.00  0.00     0.074 A 
ATOM     58  C   UNL A   1      43.696  27.228  30.244  1.00  0.00     0.031 C 
ATOM     59  C   UNL A   1      44.240  29.193  31.654  1.00  0.00     0.037 A 
BRANCH  46  60
ATOM     60  C   UNL A   1      42.144  34.738  33.382  1.00  0.00     0.057 A 
ATOM     61  C   UNL A   1      42.899  35.795  32.855  1.00  0.00     0.134 A 
ATOM     62  C   UNL A   1      41.587  34.914  34.655  1.00  0.00     0.134 A 
ATOM     63  F   UNL A   1      43.468  35.686  31.645  1.00  0.00    -0.206 F 
ATOM     64  C   UNL A   1      43.113  36.970  33.578  1.00  0.00     0.040 A 
ATOM     65  C   UNL A   1      41.773  36.094  35.377  1.00  0.00     0.040 A 
ATOM     66  F   UNL A   1      40.848  33.945  35.215  1.00  0.00    -0.206 F 
ATOM     67  C   UNL A   1      42.543  37.124  34.840  1.00  0.00     0.006 A 
ENDBRANCH  46  60
BRANCH  47  68
ATOM     68  C   UNL A   1      40.247  26.628  27.906  1.00  0.00     0.057 A 
ATOM     69  C   UNL A   1      40.787  26.499  26.621  1.00  0.00     0.134 A 
ATOM     70  C   UNL A   1      39.444  25.583  28.376  1.00  0.00     0.134 A 
ATOM     71  F   UNL A   1      41.548  27.477  26.108  1.00  0.00    -0.206 F 
ATOM     72  C   UNL A   1      40.524  25.384  25.825  1.00  0.00     0.040 A 
ATOM     73  C   UNL A   1      39.190  24.452  27.601  1.00  0.00     0.040 A 
ATOM     74  F   UNL A   1      38.903  25.645  29.602  1.00  0.00    -0.206 F 
ATOM     75  C   UNL A   1      39.725  24.353  26.317  1.00  0.00     0.006 A 
ENDBRANCH  47  68
BRANCH  59  76
ATOM     76  C   UNL A   1      45.511  28.502  32.045  1.00  0.00     0.057 A 
ATOM     77  C   UNL A   1      45.571  27.635  33.143  1.00  0.00     0.134 A 
ATOM     78  C   UNL A   1      46.681  28.683  31.297  1.00  0.00     0.134 A 
ATOM     79  F   UNL A   1      44.488  27.430  33.908  1.00  0.00    -0.206 F 
ATOM     80  C   UNL A   1      46.757  26.988  33.497  1.00  0.00     0.040 A 
ATOM     81  C   UNL A   1      47.866  28.023  31.627  1.00  0.00     0.040 A 
ATOM     82  F   UNL A   1      46.689  29.495  30.230  1.00  0.00    -0.206 F 
ATOM     83  C   UNL A   1      47.907  27.178  32.734  1.00  0.00     0.006 A 
ENDBRANCH  59  76
ENDBRANCH  33  34
ENDBRANCH  25  28
ENDBRANCH  23  24
ENDBRANCH  22  23
ENDBRANCH   1  22
TORSDOF 13
ENDMDL
MODEL 2
REMARK VINA RESULT:      -8.8      3.983      8.405
REMARK SMILES CN(CC(=O)NCCCNC(=O)c1ccc(-c2c3nc(c(-c4c(F)cccc4F)c4ccc([nH]4)c(-c4c(F)cccc4F)c4nc(c(-c5c(F)cccc5F)c5ccc2[nH]5)C=C4)C=C3)cc1)c1nc2cc(N)ccc2[nH]1
REMARK SMILES IDX 7 1 6 2 4 3 5 4 3 6 2 7 1 8 67 9 68 10 76 11 69 12 75 13
REMARK SMILES IDX 70 15 74 16 71 17 73 18 72 19 8 22 9 23 10 24 11 25 12 27
REMARK SMILES IDX 13 28 14 29 66 30 15 31 65 32 16 33 17 34 18 35 59 36 19 37
REMARK SMILES IDX 64 38 58 39 60 40 20 41 63 42 57 43 56 44 21 46 47 47 30 48
REMARK SMILES IDX 46 49 31 50 34 51 45 52 61 53 32 54 33 55 44 57 62 58 35 59
REMARK SMILES IDX 22 60 23 61 28 62 24 63 25 64 27 65 29 66 26 67 48 68 49 69
REMARK SMILES IDX 54 70 50 71 51 72 53 73 55 74 52 75 36 76 37 77 42 78 38 79
REMARK SMILES IDX 39 80 41 81 43 82 40 83
REMARK H PARENT 6 5 76 14 72 20 72 21 10 26 60 45 34 56
REMARK Flexibility Score: inf
ROOT
ATOM      1  C   UNL A   1      34.467  34.407  28.163  1.00  0.00     0.117 C 
ENDROOT
BRANCH   1   2
ATOM      2  N   UNL A   1      34.147  35.815  28.227  1.00  0.00    -0.354 N 
ATOM      3  C   UNL A   1      33.332  36.463  29.116  1.00  0.00     0.239 C 
ATOM      4  O   UNL A   1      33.360  37.698  29.125  1.00  0.00    -0.273 OA
ATOM      5  H   UNL A   1      34.571  36.382  27.543  1.00  0.00     0.163 HD
BRANCH   3   6
ATOM      6  C   UNL A   1      32.527  35.659  30.147  1.00  0.00     0.219 C 
BRANCH   6   7
ATOM      7  N   UNL A   1      33.010  35.777  31.539  1.00  0.00    -0.336 N 
ATOM      8  C   UNL A   1      32.168  36.447  32.507  1.00  0.00     0.147 C 
BRANCH   7   9
ATOM      9  C   UNL A   1      34.056  34.989  31.897  1.00  0.00     0.204 A 
ATOM     10  N   UNL A   1      34.026  33.698  32.124  1.00  0.00    -0.213 NA
ATOM     11  N   UNL A   1      35.319  35.482  32.124  1.00  0.00    -0.324 N 
ATOM     12  C   UNL A   1      35.279  33.352  32.553  1.00  0.00     0.093 A 
ATOM     13  C   UNL A   1      36.111  34.462  32.588  1.00  0.00     0.067 A 
ATOM     14  H   UNL A   1      35.607  36.412  31.978  1.00  0.00     0.170 HD
ATOM     15  C   UNL A   1      35.777  32.102  32.946  1.00  0.00     0.056 A 
ATOM     16  C   UNL A   1      37.434  34.407  33.024  1.00  0.00     0.030 A 
ATOM     17  C   UNL A   1      37.093  32.007  33.419  1.00  0.00     0.034 A 
ATOM     18  C   UNL A   1      37.904  33.149  33.432  1.00  0.00     0.028 A 
BRANCH  17  19
ATOM     19  N   UNL A   1      37.619  30.768  33.761  1.00  0.00    -0.399 N 
ATOM     20  H   UNL A   1      37.020  30.040  34.042  1.00  0.00     0.156 HD
ATOM     21  H   UNL A   1      38.591  30.618  33.719  1.00  0.00     0.156 HD
ENDBRANCH  17  19
ENDBRANCH   7   9
ENDBRANCH   6   7
ENDBRANCH   3   6
ENDBRANCH   1   2
BRANCH   1  22
ATOM     22  C   UNL A   1      35.817  34.059  28.779  1.00  0.00     0.042 C 
BRANCH  22  23
ATOM     23  C   UNL A   1      36.323  32.654  28.462  1.00  0.00     0.118 C 
BRANCH  23  24
ATOM     24  N   UNL A   1      35.788  31.642  29.362  1.00  0.00    -0.352 N 
ATOM     25  C   UNL A   1      36.287  30.436  29.778  1.00  0.00     0.251 C 
ATOM     26  H   UNL A   1      34.907  31.866  29.741  1.00  0.00     0.163 HD
ATOM     27  O   UNL A   1      35.555  29.683  30.419  1.00  0.00    -0.269 OA
BRANCH  25  28
ATOM     28  C   UNL A   1      37.672  30.007  29.470  1.00  0.00     0.039 A 
ATOM     29  C   UNL A   1      38.010  29.784  28.130  1.00  0.00     0.014 A 
ATOM     30  C   UNL A   1      38.613  29.742  30.468  1.00  0.00     0.014 A 
ATOM     31  C   UNL A   1      39.292  29.342  27.790  1.00  0.00     0.010 A 
ATOM     32  C   UNL A   1      39.914  29.371  30.125  1.00  0.00     0.010 A 
ATOM     33  C   UNL A   1      40.265  29.155  28.784  1.00  0.00    -0.014 A 
BRANCH  33  34
ATOM     34  C   UNL A   1      41.640  28.717  28.431  1.00  0.00     0.031 A 
ATOM     35  C   UNL A   1      41.915  27.281  28.071  1.00  0.00     0.074 A 
ATOM     36  C   UNL A   1      42.652  29.605  28.467  1.00  0.00     0.049 A 
ATOM     37  N   UNL A   1      43.054  26.709  27.764  1.00  0.00    -0.248 NA
ATOM     38  C   UNL A   1      40.766  26.364  28.077  1.00  0.00     0.031 C 
ATOM     39  C   UNL A   1      42.529  31.015  28.837  1.00  0.00     0.029 A 
ATOM     40  N   UNL A   1      43.988  29.450  28.190  1.00  0.00    -0.354 N 
ATOM     41  C   UNL A   1      42.759  25.368  27.556  1.00  0.00     0.074 A 
ATOM     42  C   UNL A   1      41.346  25.201  27.816  1.00  0.00     0.031 C 
ATOM     43  C   UNL A   1      43.732  31.602  28.740  1.00  0.00     0.029 A 
ATOM     44  C   UNL A   1      44.717  30.606  28.332  1.00  0.00     0.049 A 
ATOM     45  H   UNL A   1      44.386  28.592  27.916  1.00  0.00     0.167 HD
ATOM     46  C   UNL A   1      43.584  24.369  27.160  1.00  0.00     0.037 A 
ATOM     47  C   UNL A   1      46.032  30.836  28.155  1.00  0.00     0.037 A 
ATOM     48  C   UNL A   1      44.985  24.538  26.873  1.00  0.00     0.049 A 
ATOM     49  C   UNL A   1      46.926  29.712  27.717  1.00  0.00     0.074 A 
ATOM     50  C   UNL A   1      45.891  23.598  26.411  1.00  0.00     0.029 A 
ATOM     51  N   UNL A   1      45.683  25.726  27.021  1.00  0.00    -0.354 N 
ATOM     52  N   UNL A   1      46.621  28.463  27.462  1.00  0.00    -0.248 NA
ATOM     53  C   UNL A   1      48.350  30.031  27.535  1.00  0.00     0.031 C 
ATOM     54  C   UNL A   1      47.145  24.209  26.314  1.00  0.00     0.029 A 
ATOM     55  C   UNL A   1      47.013  25.539  26.678  1.00  0.00     0.049 A 
ATOM     56  H   UNL A   1      45.293  26.577  27.327  1.00  0.00     0.167 HD
ATOM     57  C   UNL A   1      47.805  27.855  27.069  1.00  0.00     0.074 A 
ATOM     58  C   UNL A   1      48.832  28.874  27.103  1.00  0.00     0.031 C 
ATOM     59  C   UNL A   1      48.023  26.564  26.713  1.00  0.00     0.037 A 
BRANCH  46  60
ATOM     60  C   UNL A   1      42.988  23.001  27.006  1.00  0.00     0.057 A 
ATOM     61  C   UNL A   1      42.707  22.458  25.745  1.00  0.00     0.134 A 
ATOM     62  C   UNL A   1      42.724  22.202  28.126  1.00  0.00     0.134 A 
ATOM     63  F   UNL A   1      42.927  23.174  24.632  1.00  0.00    -0.206 F 
ATOM     64  C   UNL A   1      42.161  21.181  25.605  1.00  0.00     0.040 A 
ATOM     65  C   UNL A   1      42.202  20.914  27.998  1.00  0.00     0.040 A 
ATOM     66  F   UNL A   1      42.977  22.658  29.362  1.00  0.00    -0.206 F 
ATOM     67  C   UNL A   1      41.913  20.403  26.734  1.00  0.00     0.006 A 
ENDBRANCH  46  60
BRANCH  47  68
ATOM     68  C   UNL A   1      46.580  32.199  28.365  1.00  0.00     0.057 A 
ATOM     69  C   UNL A   1      46.598  33.136  27.325  1.00  0.00     0.134 A 
ATOM     70  C   UNL A   1      47.107  32.594  29.600  1.00  0.00     0.134 A 
ATOM     71  F   UNL A   1      46.126  32.807  26.114  1.00  0.00    -0.206 F 
ATOM     72  C   UNL A   1      47.136  34.411  27.499  1.00  0.00     0.040 A 
ATOM     73  C   UNL A   1      47.628  33.874  29.795  1.00  0.00     0.040 A 
ATOM     74  F   UNL A   1      47.113  31.744  30.638  1.00  0.00    -0.206 F 
ATOM     75  C   UNL A   1      47.650  34.785  28.740  1.00  0.00     0.006 A 
ENDBRANCH  47  68
BRANCH  59  76
ATOM     76  C   UNL A   1      49.418  26.193  26.306  1.00  0.00     0.057 A 
ATOM     77  C   UNL A   1      49.910  26.472  25.026  1.00  0.00     0.134 A 
ATOM     78  C   UNL A   1      50.286  25.579  27.217  1.00  0.00     0.134 A 
ATOM     79  F   UNL A   1      49.123  27.046  24.104  1.00  0.00    -0.206 F 
ATOM     80  C   UNL A   1      51.213  26.131  24.656  1.00  0.00     0.040 A 
ATOM     81  C   UNL A   1      51.598  25.255  26.867  1.00  0.00     0.040 A 
ATOM     82  F   UNL A   1      49.878  25.292  28.462  1.00  0.00    -0.206 F 
ATOM     83  C   UNL A   1      52.062  25.526  25.581  1.00  0.00     0.006 A 
ENDBRANCH  59  76
ENDBRANCH  33  34
ENDBRANCH  25  28
ENDBRANCH  23  24
ENDBRANCH  22  23
ENDBRANCH   1  22
TORSDOF 13
ENDMDL
MODEL 3
REMARK VINA RESULT:      -8.8      5.929     11.302
REMARK SMILES CN(CC(=O)NCCCNC(=O)c1ccc(-c2c3nc(c(-c4c(F)cccc4F)c4ccc([nH]4)c(-c4c(F)cccc4F)c4nc(c(-c5c(F)cccc5F)c5ccc2[nH]5)C=C4)C=C3)cc1)c1nc2cc(N)ccc2[nH]1
REMARK SMILES IDX 7 1 6 2 4 3 5 4 3 6 2 7 1 8 67 9 68 10 76 11 69 12 75 13
REMARK SMILES IDX 70 15 74 16 71 17 73 18 72 19 8 22 9 23 10 24 11 25 12 27
REMARK SMILES IDX 13 28 14 29 66 30 15 31 65 32 16 33 17 34 18 35 59 36 19 37
REMARK SMILES IDX 64 38 58 39 60 40 20 41 63 42 57 43 56 44 21 46 47 47 30 48
REMARK SMILES IDX 46 49 31 50 34 51 45 52 61 53 32 54 33 55 44 57 62 58 35 59
REMARK SMILES IDX 22 60 23 61 28 62 24 63 25 64 27 65 29 66 26 67 48 68 49 69
REMARK SMILES IDX 54 70 50 71 51 72 53 73 55 74 52 75 36 76 37 77 42 78 38 79
REMARK SMILES IDX 39 80 41 81 43 82 40 83
REMARK H PARENT 6 5 76 14 72 20 72 21 10 26 60 45 34 56
REMARK Flexibility Score: inf
ROOT
ATOM      1  C   UNL A   1      37.820  21.596  25.120  1.00  0.00     0.117 C 
ENDROOT
BRANCH   1   2
ATOM      2  N   UNL A   1      37.070  22.068  23.978  1.00  0.00    -0.354 N 
ATOM      3  C   UNL A   1      35.765  22.480  23.927  1.00  0.00     0.239 C 
ATOM      4  O   UNL A   1      35.381  23.042  22.897  1.00  0.00    -0.273 OA
ATOM      5  H   UNL A   1      37.562  22.097  23.125  1.00  0.00     0.163 HD
BRANCH   3   6
ATOM      6  C   UNL A   1      34.873  22.359  25.172  1.00  0.00     0.219 C 
BRANCH   6   7
ATOM      7  N   UNL A   1      33.551  21.744  24.929  1.00  0.00    -0.336 N 
ATOM      8  C   UNL A   1      32.485  22.579  24.416  1.00  0.00     0.147 C 
BRANCH   7   9
ATOM      9  C   UNL A   1      33.498  20.388  24.901  1.00  0.00     0.204 A 
ATOM     10  N   UNL A   1      32.448  19.637  25.132  1.00  0.00    -0.213 NA
ATOM     11  N   UNL A   1      34.602  19.603  24.666  1.00  0.00    -0.324 N 
ATOM     12  C   UNL A   1      32.886  18.340  25.095  1.00  0.00     0.093 A 
ATOM     13  C   UNL A   1      34.246  18.287  24.828  1.00  0.00     0.067 A 
ATOM     14  H   UNL A   1      35.498  19.929  24.422  1.00  0.00     0.170 HD
ATOM     15  C   UNL A   1      32.173  17.150  25.295  1.00  0.00     0.056 A 
ATOM     16  C   UNL A   1      34.963  17.093  24.772  1.00  0.00     0.030 A 
ATOM     17  C   UNL A   1      32.860  15.929  25.276  1.00  0.00     0.034 A 
ATOM     18  C   UNL A   1      34.232  15.916  24.995  1.00  0.00     0.028 A 
BRANCH  17  19
ATOM     19  N   UNL A   1      32.160  14.738  25.418  1.00  0.00    -0.399 N 
ATOM     20  H   UNL A   1      32.382  14.122  26.153  1.00  0.00     0.156 HD
ATOM     21  H   UNL A   1      31.442  14.511  24.784  1.00  0.00     0.156 HD
ENDBRANCH  17  19
ENDBRANCH   7   9
ENDBRANCH   6   7
ENDBRANCH   3   6
ENDBRANCH   1   2
BRANCH   1  22
ATOM     22  C   UNL A   1      38.434  20.215  24.918  1.00  0.00     0.042 C 
BRANCH  22  23
ATOM     23  C   UNL A   1      39.106  19.626  26.155  1.00  0.00     0.118 C 
BRANCH  23  24
ATOM     24  N   UNL A   1      40.401  19.027  25.867  1.00  0.00    -0.352 N 
ATOM     25  C   UNL A   1      41.670  19.546  25.882  1.00  0.00     0.251 C 
ATOM     26  H   UNL A   1      40.358  18.076  25.615  1.00  0.00     0.163 HD
ATOM     27  O   UNL A   1      42.591  18.868  25.430  1.00  0.00    -0.269 OA
BRANCH  25  28
ATOM     28  C   UNL A   1      41.961  20.899  26.413  1.00  0.00     0.039 A 
ATOM     29  C   UNL A   1      41.870  21.099  27.796  1.00  0.00     0.014 A 
ATOM     30  C   UNL A   1      42.238  21.986  25.580  1.00  0.00     0.014 A 
ATOM     31  C   UNL A   1      42.097  22.365  28.342  1.00  0.00     0.010 A 
ATOM     32  C   UNL A   1      42.537  23.233  26.130  1.00  0.00     0.010 A 
ATOM     33  C   UNL A   1      42.458  23.440  27.515  1.00  0.00    -0.014 A 
BRANCH  33  34
ATOM     34  C   UNL A   1      42.734  24.783  28.088  1.00  0.00     0.031 A 
ATOM     35  C   UNL A   1      44.126  25.157  28.521  1.00  0.00     0.074 A 
ATOM     36  C   UNL A   1      41.723  25.658  28.253  1.00  0.00     0.049 A 
ATOM     37  N   UNL A   1      44.551  26.270  29.068  1.00  0.00    -0.248 NA
ATOM     38  C   UNL A   1      45.174  24.143  28.334  1.00  0.00     0.031 C 
ATOM     39  C   UNL A   1      40.322  25.407  27.912  1.00  0.00     0.029 A 
ATOM     40  N   UNL A   1      41.719  26.937  28.751  1.00  0.00    -0.354 N 
ATOM     41  C   UNL A   1      45.908  26.082  29.301  1.00  0.00     0.074 A 
ATOM     42  C   UNL A   1      46.225  24.735  28.881  1.00  0.00     0.031 C 
ATOM     43  C   UNL A   1      39.599  26.504  28.188  1.00  0.00     0.029 A 
ATOM     44  C   UNL A   1      40.477  27.524  28.752  1.00  0.00     0.049 A 
ATOM     45  H   UNL A   1      42.530  27.391  29.077  1.00  0.00     0.167 HD
ATOM     46  C   UNL A   1      46.813  26.960  29.799  1.00  0.00     0.037 A 
ATOM     47  C   UNL A   1      40.089  28.746  29.162  1.00  0.00     0.037 A 
ATOM     48  C   UNL A   1      46.504  28.311  30.191  1.00  0.00     0.049 A 
ATOM     49  C   UNL A   1      41.111  29.700  29.711  1.00  0.00     0.074 A 
ATOM     50  C   UNL A   1      47.364  29.293  30.652  1.00  0.00     0.029 A 
ATOM     51  N   UNL A   1      45.236  28.869  30.168  1.00  0.00    -0.354 N 
ATOM     52  N   UNL A   1      42.401  29.530  29.867  1.00  0.00    -0.248 NA
ATOM     53  C   UNL A   1      40.624  31.021  30.135  1.00  0.00     0.031 C 
ATOM     54  C   UNL A   1      46.610  30.434  30.942  1.00  0.00     0.029 A 
ATOM     55  C   UNL A   1      45.287  30.176  30.625  1.00  0.00     0.049 A 
ATOM     56  H   UNL A   1      44.419  28.405  29.873  1.00  0.00     0.167 HD
ATOM     57  C   UNL A   1      42.882  30.726  30.384  1.00  0.00     0.074 A 
ATOM     58  C   UNL A   1      41.749  31.619  30.500  1.00  0.00     0.031 C 
ATOM     59  C   UNL A   1      44.151  31.054  30.732  1.00  0.00     0.037 A 
BRANCH  46  60
ATOM     60  C   UNL A   1      48.229  26.486  29.939  1.00  0.00     0.057 A 
ATOM     61  C   UNL A   1      49.176  26.684  28.924  1.00  0.00     0.134 A 
ATOM     62  C   UNL A   1      48.662  25.856  31.112  1.00  0.00     0.134 A 
ATOM     63  F   UNL A   1      48.823  27.272  27.771  1.00  0.00    -0.206 F 
ATOM     64  C   UNL A   1      50.495  26.249  29.062  1.00  0.00     0.040 A 
ATOM     65  C   UNL A   1      49.985  25.440  31.271  1.00  0.00     0.040 A 
ATOM     66  F   UNL A   1      47.810  25.642  32.125  1.00  0.00    -0.206 F 
ATOM     67  C   UNL A   1      50.904  25.631  30.242  1.00  0.00     0.006 A 
ENDBRANCH  46  60
BRANCH  47  68
ATOM     68  C   UNL A   1      38.666  29.150  29.045  1.00  0.00     0.057 A 
ATOM     69  C   UNL A   1      37.807  29.089  30.149  1.00  0.00     0.134 A 
ATOM     70  C   UNL A   1      38.127  29.595  27.832  1.00  0.00     0.134 A 
ATOM     71  F   UNL A   1      38.262  28.651  31.332  1.00  0.00    -0.206 F 
ATOM     72  C   UNL A   1      36.460  29.438  30.049  1.00  0.00     0.040 A 
ATOM     73  C   UNL A   1      36.788  29.968  27.722  1.00  0.00     0.040 A 
ATOM     74  F   UNL A   1      38.900  29.681  26.740  1.00  0.00    -0.206 F 
ATOM     75  C   UNL A   1      35.947  29.884  28.832  1.00  0.00     0.006 A 
ENDBRANCH  47  68
BRANCH  59  76
ATOM     76  C   UNL A   1      44.381  32.444  31.246  1.00  0.00     0.057 A 
ATOM     77  C   UNL A   1      44.659  33.511  30.383  1.00  0.00     0.134 A 
ATOM     78  C   UNL A   1      44.292  32.722  32.615  1.00  0.00     0.134 A 
ATOM     79  F   UNL A   1      44.771  33.307  29.062  1.00  0.00    -0.206 F 
ATOM     80  C   UNL A   1      44.864  34.805  30.868  1.00  0.00     0.040 A 
ATOM     81  C   UNL A   1      44.471  34.015  33.109  1.00  0.00     0.040 A 
ATOM     82  F   UNL A   1      44.021  31.745  33.493  1.00  0.00    -0.206 F 
ATOM     83  C   UNL A   1      44.764  35.060  32.234  1.00  0.00     0.006 A 
ENDBRANCH  59  76
ENDBRANCH  33  34
ENDBRANCH  25  28
ENDBRANCH  23  24
ENDBRANCH  22  23
ENDBRANCH   1  22
TORSDOF 13
ENDMDL
