MODEL 1
REMARK VINA RESULT:     -11.8      0.000      0.000
REMARK SMILES O=C(NCCCNC(=O)C1(Cc2cccc(Cl)c2)CCCC1)c1ccc(-c2c3nc(c(-c4c(F)cccc4F)c4ccc([nH]4)c(-c4c(F)cccc4F)c4nc(c(-c5c(F)cccc5F)c5ccc2[nH]5)C=C4)C=C3)cc1
REMARK SMILES IDX 5 1 4 2 3 3 1 4 2 5 23 7 24 8 76 9 25 10 75 11 26 12 27 13
REMARK SMILES IDX 28 14 69 15 29 16 74 17 68 18 70 19 30 20 73 21 67 22 66 23
REMARK SMILES IDX 31 25 57 26 40 27 56 28 41 29 44 30 55 31 71 32 42 33 43 34
REMARK SMILES IDX 54 36 72 37 45 38 32 39 33 40 38 41 34 42 35 43 37 44 39 45
REMARK SMILES IDX 36 46 58 47 59 48 64 49 60 50 61 51 63 52 65 53 62 54 46 55
REMARK SMILES IDX 47 56 52 57 48 58 49 59 51 60 53 61 50 62 6 63 7 64 8 65
REMARK SMILES IDX 9 67 10 68 19 69 22 70 20 71 21 72 11 73 12 74 13 75 18 76
REMARK SMILES IDX 14 77 16 78 15 79 17 80
REMARK H PARENT 3 6 70 24 44 35 7 66
REMARK Flexibility Score: inf
ROOT
ATOM      1  C   UNL A   1      37.384  19.591  24.974  1.00  0.00     0.042 C 
ENDROOT
BRANCH   1   2
ATOM      2  C   UNL A   1      38.619  20.258  25.559  1.00  0.00     0.118 C 
BRANCH   2   3
ATOM      3  N   UNL A   1      39.746  19.344  25.686  1.00  0.00    -0.352 N 
ATOM      4  O   UNL A   1      41.886  18.685  25.887  1.00  0.00    -0.269 OA
ATOM      5  C   UNL A   1      41.050  19.574  26.048  1.00  0.00     0.251 C 
ATOM      6  H   UNL A   1      39.537  18.404  25.478  1.00  0.00     0.163 HD
BRANCH   5   7
ATOM      7  C   UNL A   1      41.466  20.878  26.606  1.00  0.00     0.039 A 
ATOM      8  C   UNL A   1      41.426  21.118  27.979  1.00  0.00     0.014 A 
ATOM      9  C   UNL A   1      41.940  21.873  25.744  1.00  0.00     0.014 A 
ATOM     10  C   UNL A   1      41.672  22.394  28.468  1.00  0.00     0.010 A 
ATOM     11  C   UNL A   1      42.307  23.124  26.253  1.00  0.00     0.010 A 
ATOM     12  C   UNL A   1      42.137  23.409  27.617  1.00  0.00    -0.014 A 
BRANCH  12  13
ATOM     13  C   UNL A   1      42.494  24.728  28.198  1.00  0.00     0.031 A 
ATOM     14  C   UNL A   1      43.918  25.078  28.530  1.00  0.00     0.074 A 
ATOM     15  C   UNL A   1      41.514  25.636  28.386  1.00  0.00     0.049 A 
ATOM     16  N   UNL A   1      44.403  26.205  28.993  1.00  0.00    -0.248 NA
ATOM     17  C   UNL A   1      44.929  24.032  28.327  1.00  0.00     0.031 C 
ATOM     18  C   UNL A   1      40.092  25.409  28.113  1.00  0.00     0.029 A 
ATOM     19  N   UNL A   1      41.564  26.936  28.820  1.00  0.00    -0.354 N 
ATOM     20  C   UNL A   1      45.766  25.995  29.157  1.00  0.00     0.074 A 
ATOM     21  C   UNL A   1      46.028  24.625  28.773  1.00  0.00     0.031 C 
ATOM     22  C   UNL A   1      39.416  26.548  28.320  1.00  0.00     0.029 A 
ATOM     23  C   UNL A   1      40.340  27.562  28.812  1.00  0.00     0.049 A 
ATOM     24  H   UNL A   1      42.394  27.378  29.110  1.00  0.00     0.167 HD
ATOM     25  C   UNL A   1      46.712  26.868  29.583  1.00  0.00     0.037 A 
ATOM     26  C   UNL A   1      39.994  28.811  29.172  1.00  0.00     0.037 A 
ATOM     27  C   UNL A   1      46.444  28.236  29.952  1.00  0.00     0.049 A 
ATOM     28  C   UNL A   1      41.059  29.744  29.671  1.00  0.00     0.074 A 
ATOM     29  C   UNL A   1      47.341  29.213  30.352  1.00  0.00     0.029 A 
ATOM     30  N   UNL A   1      45.185  28.820  29.975  1.00  0.00    -0.354 N 
ATOM     31  N   UNL A   1      42.349  29.545  29.777  1.00  0.00    -0.248 NA
ATOM     32  C   UNL A   1      40.614  31.075  30.104  1.00  0.00     0.031 C 
ATOM     33  C   UNL A   1      46.618  30.366  30.675  1.00  0.00     0.029 A 
ATOM     34  C   UNL A   1      45.278  30.131  30.415  1.00  0.00     0.049 A 
ATOM     35  H   UNL A   1      44.349  28.368  29.717  1.00  0.00     0.167 HD
ATOM     36  C   UNL A   1      42.877  30.733  30.262  1.00  0.00     0.074 A 
ATOM     37  C   UNL A   1      41.766  31.652  30.412  1.00  0.00     0.031 C 
ATOM     38  C   UNL A   1      44.165  31.036  30.557  1.00  0.00     0.037 A 
BRANCH  25  39
ATOM     39  C   UNL A   1      48.123  26.363  29.701  1.00  0.00     0.057 A 
ATOM     40  C   UNL A   1      48.612  25.776  30.875  1.00  0.00     0.134 A 
ATOM     41  C   UNL A   1      48.997  26.436  28.607  1.00  0.00     0.134 A 
ATOM     42  F   UNL A   1      47.834  25.682  31.964  1.00  0.00    -0.206 F 
ATOM     43  C   UNL A   1      49.925  25.308  30.968  1.00  0.00     0.040 A 
ATOM     44  C   UNL A   1      50.302  25.945  28.678  1.00  0.00     0.040 A 
ATOM     45  F   UNL A   1      48.594  26.977  27.448  1.00  0.00    -0.206 F 
ATOM     46  C   UNL A   1      50.772  25.386  29.864  1.00  0.00     0.006 A 
ENDBRANCH  25  39
BRANCH  26  47
ATOM     47  C   UNL A   1      38.580  29.248  29.069  1.00  0.00     0.057 A 
ATOM     48  C   UNL A   1      38.045  29.688  27.853  1.00  0.00     0.134 A 
ATOM     49  C   UNL A   1      37.728  29.235  30.180  1.00  0.00     0.134 A 
ATOM     50  F   UNL A   1      38.816  29.738  26.756  1.00  0.00    -0.206 F 
ATOM     51  C   UNL A   1      36.722  30.116  27.749  1.00  0.00     0.040 A 
ATOM     52  C   UNL A   1      36.393  29.631  30.084  1.00  0.00     0.040 A 
ATOM     53  F   UNL A   1      38.175  28.814  31.373  1.00  0.00    -0.206 F 
ATOM     54  C   UNL A   1      35.890  30.082  28.866  1.00  0.00     0.006 A 
ENDBRANCH  26  47
BRANCH  38  55
ATOM     55  C   UNL A   1      44.444  32.434  31.029  1.00  0.00     0.057 A 
ATOM     56  C   UNL A   1      44.452  32.773  32.389  1.00  0.00     0.134 A 
ATOM     57  C   UNL A   1      44.719  33.453  30.109  1.00  0.00     0.134 A 
ATOM     58  F   UNL A   1      44.181  31.848  33.323  1.00  0.00    -0.206 F 
ATOM     59  C   UNL A   1      44.692  34.082  32.813  1.00  0.00     0.040 A 
ATOM     60  C   UNL A   1      44.991  34.758  30.522  1.00  0.00     0.040 A 
ATOM     61  F   UNL A   1      44.734  33.196  28.792  1.00  0.00    -0.206 F 
ATOM     62  C   UNL A   1      44.968  35.077  31.878  1.00  0.00     0.006 A 
ENDBRANCH  38  55
ENDBRANCH  12  13
ENDBRANCH   5   7
ENDBRANCH   2   3
ENDBRANCH   1   2
BRANCH   1  63
ATOM     63  C   UNL A   1      36.213  20.539  24.757  1.00  0.00     0.117 C 
BRANCH  63  64
ATOM     64  N   UNL A   1      35.615  20.996  25.997  1.00  0.00    -0.356 N 
ATOM     65  C   UNL A   1      34.356  21.379  26.336  1.00  0.00     0.226 C 
ATOM     66  H   UNL A   1      36.252  21.038  26.747  1.00  0.00     0.163 HD
ATOM     67  O   UNL A   1      34.206  21.726  27.511  1.00  0.00    -0.274 OA
BRANCH  65  68
ATOM     68  C   UNL A   1      33.194  21.417  25.329  1.00  0.00     0.053 C 
ATOM     69  C   UNL A   1      32.319  22.667  25.572  1.00  0.00     0.017 C 
ATOM     70  C   UNL A   1      33.730  21.740  23.910  1.00  0.00     0.017 C 
ATOM     71  C   UNL A   1      31.672  23.001  24.235  1.00  0.00     0.001 C 
ATOM     72  C   UNL A   1      32.586  22.422  23.166  1.00  0.00     0.001 C 
BRANCH  68  73
ATOM     73  C   UNL A   1      32.345  20.117  25.327  1.00  0.00     0.052 C 
BRANCH  73  74
ATOM     74  C   UNL A   1      32.875  18.914  24.563  1.00  0.00    -0.045 A 
ATOM     75  C   UNL A   1      32.548  18.665  23.222  1.00  0.00     0.004 A 
ATOM     76  C   UNL A   1      33.770  18.036  25.197  1.00  0.00     0.024 A 
ATOM     77  C   UNL A   1      33.061  17.552  22.549  1.00  0.00     0.002 A 
ATOM     78  C   UNL A   1      34.290  16.932  24.517  1.00  0.00     0.041 A 
ATOM     79  C   UNL A   1      33.933  16.681  23.197  1.00  0.00     0.020 A 
ATOM     80  Cl  UNL A   1      35.387  15.874  25.319  1.00  0.00    -0.084 Cl
ENDBRANCH  73  74
ENDBRANCH  68  73
ENDBRANCH  65  68
ENDBRANCH  63  64
ENDBRANCH   1  63
TORSDOF 12
ENDMDL
MODEL 2
REMARK VINA RESULT:     -11.7      1.862      3.248
REMARK SMILES O=C(NCCCNC(=O)C1(Cc2cccc(Cl)c2)CCCC1)c1ccc(-c2c3nc(c(-c4c(F)cccc4F)c4ccc([nH]4)c(-c4c(F)cccc4F)c4nc(c(-c5c(F)cccc5F)c5ccc2[nH]5)C=C4)C=C3)cc1
REMARK SMILES IDX 5 1 4 2 3 3 1 4 2 5 23 7 24 8 76 9 25 10 75 11 26 12 27 13
REMARK SMILES IDX 28 14 69 15 29 16 74 17 68 18 70 19 30 20 73 21 67 22 66 23
REMARK SMILES IDX 31 25 57 26 40 27 56 28 41 29 44 30 55 31 71 32 42 33 43 34
REMARK SMILES IDX 54 36 72 37 45 38 32 39 33 40 38 41 34 42 35 43 37 44 39 45
REMARK SMILES IDX 36 46 58 47 59 48 64 49 60 50 61 51 63 52 65 53 62 54 46 55
REMARK SMILES IDX 47 56 52 57 48 58 49 59 51 60 53 61 50 62 6 63 7 64 8 65
REMARK SMILES IDX 9 67 10 68 19 69 22 70 20 71 21 72 11 73 12 74 13 75 18 76
REMARK SMILES IDX 14 77 16 78 15 79 17 80
REMARK H PARENT 3 6 70 24 44 35 7 66
REMARK Flexibility Score: inf
ROOT
ATOM      1  C   UNL A   1      38.547  20.351  25.007  1.00  0.00     0.042 C 
ENDROOT
BRANCH   1   2
ATOM      2  C   UNL A   1      39.223  19.649  26.175  1.00  0.00     0.118 C 
BRANCH   2   3
ATOM      3  N   UNL A   1      40.521  19.092  25.821  1.00  0.00    -0.352 N 
ATOM      4  O   UNL A   1      42.704  19.067  25.280  1.00  0.00    -0.269 OA
ATOM      5  C   UNL A   1      41.771  19.663  25.816  1.00  0.00     0.251 C 
ATOM      6  H   UNL A   1      40.501  18.149  25.540  1.00  0.00     0.163 HD
BRANCH   5   7
ATOM      7  C   UNL A   1      42.002  20.991  26.423  1.00  0.00     0.039 A 
ATOM      8  C   UNL A   1      42.235  22.113  25.630  1.00  0.00     0.014 A 
ATOM      9  C   UNL A   1      41.948  21.128  27.815  1.00  0.00     0.014 A 
ATOM     10  C   UNL A   1      42.601  23.316  26.219  1.00  0.00     0.010 A 
ATOM     11  C   UNL A   1      42.197  22.371  28.406  1.00  0.00     0.010 A 
ATOM     12  C   UNL A   1      42.566  23.469  27.614  1.00  0.00    -0.014 A 
BRANCH  12  13
ATOM     13  C   UNL A   1      42.858  24.803  28.199  1.00  0.00     0.031 A 
ATOM     14  C   UNL A   1      44.263  25.217  28.538  1.00  0.00     0.074 A 
ATOM     15  C   UNL A   1      41.837  25.664  28.384  1.00  0.00     0.049 A 
ATOM     16  N   UNL A   1      44.694  26.364  29.005  1.00  0.00    -0.248 NA
ATOM     17  C   UNL A   1      45.323  24.219  28.338  1.00  0.00     0.031 C 
ATOM     18  C   UNL A   1      40.428  25.372  28.104  1.00  0.00     0.029 A 
ATOM     19  N   UNL A   1      41.825  26.963  28.820  1.00  0.00    -0.354 N 
ATOM     20  C   UNL A   1      46.064  26.217  29.174  1.00  0.00     0.074 A 
ATOM     21  C   UNL A   1      46.391  24.861  28.790  1.00  0.00     0.031 C 
ATOM     22  C   UNL A   1      39.699  26.478  28.310  1.00  0.00     0.029 A 
ATOM     23  C   UNL A   1      40.574  27.533  28.807  1.00  0.00     0.049 A 
ATOM     24  H   UNL A   1      42.633  27.443  29.114  1.00  0.00     0.167 HD
ATOM     25  C   UNL A   1      46.967  27.132  29.606  1.00  0.00     0.037 A 
ATOM     26  C   UNL A   1      40.169  28.764  29.168  1.00  0.00     0.037 A 
ATOM     27  C   UNL A   1      46.635  28.486  29.976  1.00  0.00     0.049 A 
ATOM     28  C   UNL A   1      41.187  29.744  29.673  1.00  0.00     0.074 A 
ATOM     29  C   UNL A   1      47.484  29.502  30.382  1.00  0.00     0.029 A 
ATOM     30  N   UNL A   1      45.351  29.011  29.995  1.00  0.00    -0.354 N 
ATOM     31  N   UNL A   1      42.485  29.605  29.785  1.00  0.00    -0.248 NA
ATOM     32  C   UNL A   1      40.679  31.052  30.107  1.00  0.00     0.031 C 
ATOM     33  C   UNL A   1      46.707  30.620  30.704  1.00  0.00     0.029 A 
ATOM     34  C   UNL A   1      45.381  30.324  30.437  1.00  0.00     0.049 A 
ATOM     35  H   UNL A   1      44.537  28.521  29.732  1.00  0.00     0.167 HD
ATOM     36  C   UNL A   1      42.955  30.815  30.274  1.00  0.00     0.074 A 
ATOM     37  C   UNL A   1      41.802  31.682  30.421  1.00  0.00     0.031 C 
ATOM     38  C   UNL A   1      44.226  31.176  30.576  1.00  0.00     0.037 A 
BRANCH  25  39
ATOM     39  C   UNL A   1      48.399  26.692  29.730  1.00  0.00     0.057 A 
ATOM     40  C   UNL A   1      49.341  26.914  28.717  1.00  0.00     0.134 A 
ATOM     41  C   UNL A   1      48.850  26.064  30.900  1.00  0.00     0.134 A 
ATOM     42  F   UNL A   1      48.977  27.502  27.567  1.00  0.00    -0.206 F 
ATOM     43  C   UNL A   1      50.669  26.503  28.849  1.00  0.00     0.040 A 
ATOM     44  C   UNL A   1      50.182  25.674  31.056  1.00  0.00     0.040 A 
ATOM     45  F   UNL A   1      48.006  25.827  31.915  1.00  0.00    -0.206 F 
ATOM     46  C   UNL A   1      51.095  25.887  30.025  1.00  0.00     0.006 A 
ENDBRANCH  25  39
BRANCH  26  47
ATOM     47  C   UNL A   1      38.736  29.136  29.059  1.00  0.00     0.057 A 
ATOM     48  C   UNL A   1      38.192  29.573  27.846  1.00  0.00     0.134 A 
ATOM     49  C   UNL A   1      37.876  29.061  30.162  1.00  0.00     0.134 A 
ATOM     50  F   UNL A   1      38.969  29.681  26.759  1.00  0.00    -0.206 F 
ATOM     51  C   UNL A   1      36.851  29.940  27.737  1.00  0.00     0.040 A 
ATOM     52  C   UNL A   1      36.525  29.395  30.059  1.00  0.00     0.040 A 
ATOM     53  F   UNL A   1      38.332  28.639  31.350  1.00  0.00    -0.206 F 
ATOM     54  C   UNL A   1      36.012  29.845  28.845  1.00  0.00     0.006 A 
ENDBRANCH  26  47
BRANCH  38  55
ATOM     55  C   UNL A   1      44.438  32.585  31.051  1.00  0.00     0.057 A 
ATOM     56  C   UNL A   1      44.669  33.644  30.164  1.00  0.00     0.134 A 
ATOM     57  C   UNL A   1      44.400  32.886  32.419  1.00  0.00     0.134 A 
ATOM     58  F   UNL A   1      44.733  33.423  28.842  1.00  0.00    -0.206 F 
ATOM     59  C   UNL A   1      44.885  34.946  30.621  1.00  0.00     0.040 A 
ATOM     60  C   UNL A   1      44.584  34.187  32.887  1.00  0.00     0.040 A 
ATOM     61  F   UNL A   1      44.177  31.920  33.324  1.00  0.00    -0.206 F 
ATOM     62  C   UNL A   1      44.837  35.221  31.987  1.00  0.00     0.006 A 
ENDBRANCH  38  55
ENDBRANCH  12  13
ENDBRANCH   5   7
ENDBRANCH   2   3
ENDBRANCH   1   2
BRANCH   1  63
ATOM     63  C   UNL A   1      37.915  21.687  25.371  1.00  0.00     0.117 C 
BRANCH  63  64
ATOM     64  N   UNL A   1      37.345  22.375  24.228  1.00  0.00    -0.356 N 
ATOM     65  C   UNL A   1      36.067  22.612  23.828  1.00  0.00     0.226 C 
ATOM     66  H   UNL A   1      38.021  22.746  23.616  1.00  0.00     0.163 HD
ATOM     67  O   UNL A   1      35.951  23.237  22.769  1.00  0.00    -0.274 OA
BRANCH  65  68
ATOM     68  C   UNL A   1      34.840  22.113  24.609  1.00  0.00     0.053 C 
ATOM     69  C   UNL A   1      33.576  22.197  23.725  1.00  0.00     0.017 C 
ATOM     70  C   UNL A   1      34.924  20.578  24.807  1.00  0.00     0.017 C 
ATOM     71  C   UNL A   1      32.620  21.133  24.246  1.00  0.00     0.001 C 
ATOM     72  C   UNL A   1      33.485  20.083  24.925  1.00  0.00     0.001 C 
BRANCH  68  73
ATOM     73  C   UNL A   1      34.641  22.845  25.964  1.00  0.00     0.052 C 
BRANCH  73  74
ATOM     74  C   UNL A   1      33.701  24.039  26.003  1.00  0.00    -0.045 A 
ATOM     75  C   UNL A   1      32.396  23.960  26.511  1.00  0.00     0.004 A 
ATOM     76  C   UNL A   1      34.162  25.292  25.561  1.00  0.00     0.024 A 
ATOM     77  C   UNL A   1      31.562  25.082  26.537  1.00  0.00     0.002 A 
ATOM     78  C   UNL A   1      33.330  26.413  25.601  1.00  0.00     0.041 A 
ATOM     79  C   UNL A   1      32.028  26.313  26.079  1.00  0.00     0.020 A 
ATOM     80  Cl  UNL A   1      33.922  27.935  25.055  1.00  0.00    -0.084 Cl
ENDBRANCH  73  74
ENDBRANCH  68  73
ENDBRANCH  65  68
ENDBRANCH  63  64
ENDBRANCH   1  63
TORSDOF 12
ENDMDL
MODEL 3
REMARK VINA RESULT:     -11.7      0.338      6.379
REMARK SMILES O=C(NCCCNC(=O)C1(Cc2cccc(Cl)c2)CCCC1)c1ccc(-c2c3nc(c(-c4c(F)cccc4F)c4ccc([nH]4)c(-c4c(F)cccc4F)c4nc(c(-c5c(F)cccc5F)c5ccc2[nH]5)C=C4)C=C3)cc1
REMARK SMILES IDX 5 1 4 2 3 3 1 4 2 5 23 7 24 8 76 9 25 10 75 11 26 12 27 13
REMARK SMILES IDX 28 14 69 15 29 16 74 17 68 18 70 19 30 20 73 21 67 22 66 23
REMARK SMILES IDX 31 25 57 26 40 27 56 28 41 29 44 30 55 31 71 32 42 33 43 34
REMARK SMILES IDX 54 36 72 37 45 38 32 39 33 40 38 41 34 42 35 43 37 44 39 45
REMARK SMILES IDX 36 46 58 47 59 48 64 49 60 50 61 51 63 52 65 53 62 54 46 55
REMARK SMILES IDX 47 56 52 57 48 58 49 59 51 60 53 61 50 62 6 63 7 64 8 65
REMARK SMILES IDX 9 67 10 68 19 69 22 70 20 71 21 72 11 73 12 74 13 75 18 76
REMARK SMILES IDX 14 77 16 78 15 79 17 80
REMARK H PARENT 3 6 70 24 44 35 7 66
REMARK Flexibility Score: inf
ROOT
ATOM      1  C   UNL A   1      37.401  19.564  24.993  1.00  0.00     0.042 C 
ENDROOT
BRANCH   1   2
ATOM      2  C   UNL A   1      38.637  20.237  25.569  1.00  0.00     0.118 C 
BRANCH   2   3
ATOM      3  N   UNL A   1      39.758  19.320  25.722  1.00  0.00    -0.352 N 
ATOM      4  O   UNL A   1      41.894  18.653  25.940  1.00  0.00    -0.269 OA
ATOM      5  C   UNL A   1      41.064  19.551  26.075  1.00  0.00     0.251 C 
ATOM      6  H   UNL A   1      39.543  18.376  25.543  1.00  0.00     0.163 HD
BRANCH   5   7
ATOM      7  C   UNL A   1      41.489  20.869  26.593  1.00  0.00     0.039 A 
ATOM      8  C   UNL A   1      41.438  21.157  27.956  1.00  0.00     0.014 A 
ATOM      9  C   UNL A   1      41.985  21.828  25.703  1.00  0.00     0.014 A 
ATOM     10  C   UNL A   1      41.694  22.445  28.404  1.00  0.00     0.010 A 
ATOM     11  C   UNL A   1      42.361  23.092  26.174  1.00  0.00     0.010 A 
ATOM     12  C   UNL A   1      42.180  23.425  27.525  1.00  0.00    -0.014 A 
BRANCH  12  13
ATOM     13  C   UNL A   1      42.546  24.759  28.065  1.00  0.00     0.031 A 
ATOM     14  C   UNL A   1      41.505  25.814  28.315  1.00  0.00     0.074 A 
ATOM     15  C   UNL A   1      43.837  24.999  28.372  1.00  0.00     0.049 A 
ATOM     16  N   UNL A   1      41.651  27.010  28.832  1.00  0.00    -0.248 NA
ATOM     17  C   UNL A   1      40.122  25.496  27.931  1.00  0.00     0.031 C 
ATOM     18  C   UNL A   1      44.941  24.058  28.163  1.00  0.00     0.029 A 
ATOM     19  N   UNL A   1      44.437  26.088  28.950  1.00  0.00    -0.354 N 
ATOM     20  C   UNL A   1      40.390  27.591  28.814  1.00  0.00     0.074 A 
ATOM     21  C   UNL A   1      39.494  26.630  28.207  1.00  0.00     0.031 C 
ATOM     22  C   UNL A   1      46.068  24.582  28.666  1.00  0.00     0.029 A 
ATOM     23  C   UNL A   1      45.784  25.922  29.164  1.00  0.00     0.049 A 
ATOM     24  H   UNL A   1      43.950  26.910  29.188  1.00  0.00     0.167 HD
ATOM     25  C   UNL A   1      40.013  28.813  29.266  1.00  0.00     0.037 A 
ATOM     26  C   UNL A   1      46.696  26.758  29.690  1.00  0.00     0.037 A 
ATOM     27  C   UNL A   1      40.909  29.761  29.881  1.00  0.00     0.049 A 
ATOM     28  C   UNL A   1      46.255  28.116  30.153  1.00  0.00     0.074 A 
ATOM     29  C   UNL A   1      40.616  31.005  30.414  1.00  0.00     0.029 A 
ATOM     30  N   UNL A   1      42.275  29.574  30.037  1.00  0.00    -0.354 N 
ATOM     31  N   UNL A   1      45.051  28.633  30.170  1.00  0.00    -0.248 NA
ATOM     32  C   UNL A   1      47.304  29.007  30.665  1.00  0.00     0.031 C 
ATOM     33  C   UNL A   1      41.813  31.594  30.836  1.00  0.00     0.029 A 
ATOM     34  C   UNL A   1      42.843  30.693  30.627  1.00  0.00     0.049 A 
ATOM     35  H   UNL A   1      42.770  28.765  29.769  1.00  0.00     0.167 HD
ATOM     36  C   UNL A   1      45.191  29.900  30.720  1.00  0.00     0.074 A 
ATOM     37  C   UNL A   1      46.596  30.063  31.039  1.00  0.00     0.031 C 
ATOM     38  C   UNL A   1      44.242  30.842  30.941  1.00  0.00     0.037 A 
BRANCH  25  39
ATOM     39  C   UNL A   1      38.573  29.208  29.089  1.00  0.00     0.057 A 
ATOM     40  C   UNL A   1      37.653  29.176  30.144  1.00  0.00     0.134 A 
ATOM     41  C   UNL A   1      38.109  29.659  27.845  1.00  0.00     0.134 A 
ATOM     42  F   UNL A   1      38.025  28.746  31.359  1.00  0.00    -0.206 F 
ATOM     43  C   UNL A   1      36.319  29.551  29.964  1.00  0.00     0.040 A 
ATOM     44  C   UNL A   1      36.786  30.063  27.659  1.00  0.00     0.040 A 
ATOM     45  F   UNL A   1      38.938  29.725  26.791  1.00  0.00    -0.206 F 
ATOM     46  C   UNL A   1      35.884  30.002  28.719  1.00  0.00     0.006 A 
ENDBRANCH  25  39
BRANCH  26  47
ATOM     47  C   UNL A   1      48.113  26.331  29.811  1.00  0.00     0.057 A 
ATOM     48  C   UNL A   1      49.021  26.536  28.766  1.00  0.00     0.134 A 
ATOM     49  C   UNL A   1      48.594  25.713  30.971  1.00  0.00     0.134 A 
ATOM     50  F   UNL A   1      48.617  27.109  27.623  1.00  0.00    -0.206 F 
ATOM     51  C   UNL A   1      50.350  26.125  28.862  1.00  0.00     0.040 A 
ATOM     52  C   UNL A   1      49.929  25.325  31.093  1.00  0.00     0.040 A 
ATOM     53  F   UNL A   1      47.778  25.498  32.013  1.00  0.00    -0.206 F 
ATOM     54  C   UNL A   1      50.809  25.523  30.032  1.00  0.00     0.006 A 
ENDBRANCH  26  47
BRANCH  38  55
ATOM     55  C   UNL A   1      44.689  32.116  31.598  1.00  0.00     0.057 A 
ATOM     56  C   UNL A   1      45.099  33.232  30.858  1.00  0.00     0.134 A 
ATOM     57  C   UNL A   1      44.700  32.229  32.995  1.00  0.00     0.134 A 
ATOM     58  F   UNL A   1      45.128  33.186  29.517  1.00  0.00    -0.206 F 
ATOM     59  C   UNL A   1      45.532  34.404  31.482  1.00  0.00     0.040 A 
ATOM     60  C   UNL A   1      45.100  33.404  33.630  1.00  0.00     0.040 A 
ATOM     61  F   UNL A   1      44.313  31.200  33.765  1.00  0.00    -0.206 F 
ATOM     62  C   UNL A   1      45.528  34.493  32.873  1.00  0.00     0.006 A 
ENDBRANCH  38  55
ENDBRANCH  12  13
ENDBRANCH   5   7
ENDBRANCH   2   3
ENDBRANCH   1   2
BRANCH   1  63
ATOM     63  C   UNL A   1      36.228  20.509  24.773  1.00  0.00     0.117 C 
BRANCH  63  64
ATOM     64  N   UNL A   1      35.658  21.005  26.012  1.00  0.00    -0.356 N 
ATOM     65  C   UNL A   1      34.412  21.420  26.362  1.00  0.00     0.226 C 
ATOM     66  H   UNL A   1      36.307  21.050  26.751  1.00  0.00     0.163 HD
ATOM     67  O   UNL A   1      34.287  21.795  27.532  1.00  0.00    -0.274 OA
BRANCH  65  68
ATOM     68  C   UNL A   1      33.236  21.459  25.372  1.00  0.00     0.053 C 
ATOM     69  C   UNL A   1      32.372  22.715  25.621  1.00  0.00     0.017 C 
ATOM     70  C   UNL A   1      33.752  21.771  23.944  1.00  0.00     0.017 C 
ATOM     71  C   UNL A   1      31.707  23.046  24.292  1.00  0.00     0.001 C 
ATOM     72  C   UNL A   1      32.601  22.455  23.213  1.00  0.00     0.001 C 
BRANCH  68  73
ATOM     73  C   UNL A   1      32.379  20.163  25.391  1.00  0.00     0.052 C 
BRANCH  73  74
ATOM     74  C   UNL A   1      32.876  18.963  24.601  1.00  0.00    -0.045 A 
ATOM     75  C   UNL A   1      32.529  18.743  23.260  1.00  0.00     0.004 A 
ATOM     76  C   UNL A   1      33.760  18.056  25.211  1.00  0.00     0.024 A 
ATOM     77  C   UNL A   1      33.012  17.630  22.563  1.00  0.00     0.002 A 
ATOM     78  C   UNL A   1      34.249  16.953  24.508  1.00  0.00     0.041 A 
ATOM     79  C   UNL A   1      33.872  16.731  23.188  1.00  0.00     0.020 A 
ATOM     80  Cl  UNL A   1      35.332  15.860  25.280  1.00  0.00    -0.084 Cl
ENDBRANCH  73  74
ENDBRANCH  68  73
ENDBRANCH  65  68
ENDBRANCH  63  64
ENDBRANCH   1  63
TORSDOF 12
ENDMDL
