MODEL 1
REMARK VINA RESULT:     -10.3      0.000      0.000
REMARK SMILES O=C(COc1ccc(C(=O)NCCCNC(=O)c2ccc(-c3c4nc(c(-c5c(F)cccc5F)c5ccc([nH]5)c(-c5c(F)cccc5F)c5nc(c(-c6c(F)cccc6F)c6ccc3[nH]6)C=C5)C=C4)cc2)nc1)Nc1ccccc1F
REMARK SMILES IDX 12 1 11 2 9 3 10 4 8 6 5 7 6 8 73 9 7 10 72 11 4 12 3 13
REMARK SMILES IDX 2 14 1 15 74 16 75 18 76 19 80 20 77 21 79 22 81 23 78 24
REMARK SMILES IDX 13 25 14 26 15 27 16 28 17 30 18 31 19 32 71 33 20 34 70 35
REMARK SMILES IDX 21 36 22 37 23 38 64 39 24 40 69 41 63 42 65 43 25 44 68 45
REMARK SMILES IDX 62 46 61 47 26 49 52 50 35 51 51 52 36 53 39 54 50 55 66 56
REMARK SMILES IDX 37 57 38 58 49 60 67 61 40 62 27 63 28 64 33 65 29 66 30 67
REMARK SMILES IDX 32 68 34 69 31 70 53 71 54 72 59 73 55 74 56 75 58 76 60 77
REMARK SMILES IDX 57 78 41 79 42 80 47 81 43 82 44 83 46 84 48 85 45 86
REMARK H PARENT 11 5 74 17 15 29 65 48 39 59
REMARK Flexibility Score: inf
ROOT
ATOM      1  C   UNL A   1      42.317  19.962  27.264  1.00  0.00     0.118 C 
ENDROOT
BRANCH   1   2
ATOM      2  N   UNL A   1      42.864  19.004  26.319  1.00  0.00    -0.351 N 
ATOM      3  C   UNL A   1      43.848  19.121  25.356  1.00  0.00     0.269 C 
ATOM      4  O   UNL A   1      44.190  18.087  24.782  1.00  0.00    -0.268 OA
ATOM      5  H   UNL A   1      42.461  18.107  26.374  1.00  0.00     0.163 HD
BRANCH   3   6
ATOM      6  C   UNL A   1      44.489  20.433  24.997  1.00  0.00     0.128 A 
ATOM      7  C   UNL A   1      45.537  22.909  24.401  1.00  0.00     0.138 A 
ATOM      8  C   UNL A   1      46.389  21.876  24.757  1.00  0.00     0.050 A 
ATOM      9  C   UNL A   1      44.173  22.661  24.417  1.00  0.00     0.158 A 
ATOM     10  C   UNL A   1      45.862  20.627  25.067  1.00  0.00     0.038 A 
ATOM     11  N   UNL A   1      43.635  21.447  24.691  1.00  0.00    -0.247 NA
BRANCH   7  12
ATOM     12  O   UNL A   1      46.034  24.158  24.157  1.00  0.00    -0.482 OA
BRANCH  12  13
ATOM     13  C   UNL A   1      46.694  24.696  25.310  1.00  0.00     0.329 C 
BRANCH  13  14
ATOM     14  C   UNL A   1      45.813  25.609  26.175  1.00  0.00     0.262 C 
ATOM     15  O   UNL A   1      45.408  25.236  27.269  1.00  0.00    -0.271 OA
ATOM     16  N   UNL A   1      45.510  26.804  25.536  1.00  0.00    -0.321 N 
ATOM     17  H   UNL A   1      45.955  26.973  24.673  1.00  0.00     0.170 HD
BRANCH  16  18
ATOM     18  C   UNL A   1      44.628  27.803  26.003  1.00  0.00     0.077 A 
ATOM     19  C   UNL A   1      45.152  28.725  26.922  1.00  0.00     0.029 A 
ATOM     20  C   UNL A   1      43.295  27.950  25.601  1.00  0.00     0.146 A 
ATOM     21  C   UNL A   1      44.382  29.803  27.370  1.00  0.00     0.002 A 
ATOM     22  C   UNL A   1      42.523  29.018  26.058  1.00  0.00     0.041 A 
ATOM     23  F   UNL A   1      42.686  27.035  24.838  1.00  0.00    -0.205 F 
ATOM     24  C   UNL A   1      43.069  29.956  26.931  1.00  0.00     0.003 A 
ENDBRANCH  16  18
ENDBRANCH  13  14
ENDBRANCH  12  13
ENDBRANCH   7  12
ENDBRANCH   3   6
ENDBRANCH   1   2
BRANCH   1  25
ATOM     25  C   UNL A   1      40.899  20.392  26.884  1.00  0.00     0.042 C 
BRANCH  25  26
ATOM     26  C   UNL A   1      40.800  21.818  26.350  1.00  0.00     0.118 C 
BRANCH  26  27
ATOM     27  N   UNL A   1      39.483  22.111  25.809  1.00  0.00    -0.352 N 
ATOM     28  C   UNL A   1      38.627  23.153  26.067  1.00  0.00     0.251 C 
ATOM     29  H   UNL A   1      39.151  21.457  25.153  1.00  0.00     0.163 HD
ATOM     30  O   UNL A   1      37.471  23.092  25.658  1.00  0.00    -0.269 OA
BRANCH  28  31
ATOM     31  C   UNL A   1      39.067  24.342  26.834  1.00  0.00     0.039 A 
ATOM     32  C   UNL A   1      39.805  25.328  26.170  1.00  0.00     0.014 A 
ATOM     33  C   UNL A   1      38.827  24.463  28.205  1.00  0.00     0.014 A 
ATOM     34  C   UNL A   1      40.259  26.452  26.866  1.00  0.00     0.010 A 
ATOM     35  C   UNL A   1      39.222  25.615  28.885  1.00  0.00     0.010 A 
ATOM     36  C   UNL A   1      39.949  26.617  28.225  1.00  0.00    -0.014 A 
BRANCH  36  37
ATOM     37  C   UNL A   1      40.387  27.825  28.971  1.00  0.00     0.031 A 
ATOM     38  C   UNL A   1      41.772  27.897  29.555  1.00  0.00     0.074 A 
ATOM     39  C   UNL A   1      39.517  28.834  29.175  1.00  0.00     0.049 A 
ATOM     40  N   UNL A   1      42.305  28.826  30.306  1.00  0.00    -0.248 NA
ATOM     41  C   UNL A   1      42.666  26.762  29.278  1.00  0.00     0.031 C 
ATOM     42  C   UNL A   1      38.136  28.870  28.693  1.00  0.00     0.029 A 
ATOM     43  N   UNL A   1      39.665  30.018  29.853  1.00  0.00    -0.354 N 
ATOM     44  C   UNL A   1      43.587  28.382  30.605  1.00  0.00     0.074 A 
ATOM     45  C   UNL A   1      43.738  27.080  29.991  1.00  0.00     0.031 C 
ATOM     46  C   UNL A   1      37.567  30.025  29.076  1.00  0.00     0.029 A 
ATOM     47  C   UNL A   1      38.530  30.793  29.859  1.00  0.00     0.049 A 
ATOM     48  H   UNL A   1      40.503  30.288  30.292  1.00  0.00     0.167 HD
ATOM     49  C   UNL A   1      44.559  29.008  31.311  1.00  0.00     0.037 A 
ATOM     50  C   UNL A   1      38.289  31.984  30.439  1.00  0.00     0.037 A 
ATOM     51  C   UNL A   1      44.420  30.317  31.896  1.00  0.00     0.049 A 
ATOM     52  C   UNL A   1      39.384  32.660  31.216  1.00  0.00     0.074 A 
ATOM     53  C   UNL A   1      45.367  31.060  32.581  1.00  0.00     0.029 A 
ATOM     54  N   UNL A   1      43.262  31.078  31.864  1.00  0.00    -0.354 N 
ATOM     55  N   UNL A   1      40.609  32.250  31.445  1.00  0.00    -0.248 NA
ATOM     56  C   UNL A   1      39.066  33.964  31.813  1.00  0.00     0.031 C 
ATOM     57  C   UNL A   1      44.770  32.257  32.992  1.00  0.00     0.029 A 
ATOM     58  C   UNL A   1      43.464  32.276  32.529  1.00  0.00     0.049 A 
ATOM     59  H   UNL A   1      42.420  30.807  31.430  1.00  0.00     0.167 HD
ATOM     60  C   UNL A   1      41.213  33.255  32.189  1.00  0.00     0.074 A 
ATOM     61  C   UNL A   1      40.225  34.300  32.361  1.00  0.00     0.031 C 
ATOM     62  C   UNL A   1      42.472  33.307  32.685  1.00  0.00     0.037 A 
BRANCH  49  63
ATOM     63  C   UNL A   1      45.865  28.289  31.485  1.00  0.00     0.057 A 
ATOM     64  C   UNL A   1      46.050  27.331  32.490  1.00  0.00     0.134 A 
ATOM     65  C   UNL A   1      46.934  28.526  30.612  1.00  0.00     0.134 A 
ATOM     66  F   UNL A   1      45.067  27.066  33.365  1.00  0.00    -0.206 F 
ATOM     67  C   UNL A   1      47.260  26.651  32.637  1.00  0.00     0.040 A 
ATOM     68  C   UNL A   1      48.142  27.834  30.734  1.00  0.00     0.040 A 
ATOM     69  F   UNL A   1      46.821  29.424  29.623  1.00  0.00    -0.206 F 
ATOM     70  C   UNL A   1      48.308  26.898  31.752  1.00  0.00     0.006 A 
ENDBRANCH  49  63
BRANCH  50  71
ATOM     71  C   UNL A   1      36.959  32.627  30.293  1.00  0.00     0.057 A 
ATOM     72  C   UNL A   1      35.926  32.354  31.198  1.00  0.00     0.134 A 
ATOM     73  C   UNL A   1      36.685  33.515  29.248  1.00  0.00     0.134 A 
ATOM     74  F   UNL A   1      36.124  31.497  32.210  1.00  0.00    -0.206 F 
ATOM     75  C   UNL A   1      34.661  32.927  31.056  1.00  0.00     0.040 A 
ATOM     76  C   UNL A   1      35.432  34.113  29.107  1.00  0.00     0.040 A 
ATOM     77  F   UNL A   1      37.636  33.823  28.353  1.00  0.00    -0.206 F 
ATOM     78  C   UNL A   1      34.413  33.813  30.010  1.00  0.00     0.006 A 
ENDBRANCH  50  71
BRANCH  62  79
ATOM     79  C   UNL A   1      42.861  34.546  33.435  1.00  0.00     0.057 A 
ATOM     80  C   UNL A   1      43.339  35.686  32.777  1.00  0.00     0.134 A 
ATOM     81  C   UNL A   1      42.724  34.610  34.827  1.00  0.00     0.134 A 
ATOM     82  F   UNL A   1      43.506  35.682  31.445  1.00  0.00    -0.206 F 
ATOM     83  C   UNL A   1      43.685  36.841  33.480  1.00  0.00     0.040 A 
ATOM     84  C   UNL A   1      43.045  35.766  35.539  1.00  0.00     0.040 A 
ATOM     85  F   UNL A   1      42.267  33.554  35.516  1.00  0.00    -0.206 F 
ATOM     86  C   UNL A   1      43.532  36.885  34.865  1.00  0.00     0.006 A 
ENDBRANCH  62  79
ENDBRANCH  36  37
ENDBRANCH  28  31
ENDBRANCH  26  27
ENDBRANCH  25  26
ENDBRANCH   1  25
TORSDOF 14
ENDMDL
MODEL 2
REMARK VINA RESULT:     -10.2      4.145      9.865
REMARK SMILES O=C(COc1ccc(C(=O)NCCCNC(=O)c2ccc(-c3c4nc(c(-c5c(F)cccc5F)c5ccc([nH]5)c(-c5c(F)cccc5F)c5nc(c(-c6c(F)cccc6F)c6ccc3[nH]6)C=C5)C=C4)cc2)nc1)Nc1ccccc1F
REMARK SMILES IDX 12 1 11 2 9 3 10 4 8 6 5 7 6 8 73 9 7 10 72 11 4 12 3 13
REMARK SMILES IDX 2 14 1 15 74 16 75 18 76 19 80 20 77 21 79 22 81 23 78 24
REMARK SMILES IDX 13 25 14 26 15 27 16 28 17 30 18 31 19 32 71 33 20 34 70 35
REMARK SMILES IDX 21 36 22 37 23 38 64 39 24 40 69 41 63 42 65 43 25 44 68 45
REMARK SMILES IDX 62 46 61 47 26 49 52 50 35 51 51 52 36 53 39 54 50 55 66 56
REMARK SMILES IDX 37 57 38 58 49 60 67 61 40 62 27 63 28 64 33 65 29 66 30 67
REMARK SMILES IDX 32 68 34 69 31 70 53 71 54 72 59 73 55 74 56 75 58 76 60 77
REMARK SMILES IDX 57 78 41 79 42 80 47 81 43 82 44 83 46 84 48 85 45 86
REMARK H PARENT 11 5 74 17 15 29 65 48 39 59
REMARK Flexibility Score: inf
ROOT
ATOM      1  C   UNL A   1      31.698  27.854  25.889  1.00  0.00     0.118 C 
ENDROOT
BRANCH   1   2
ATOM      2  N   UNL A   1      31.031  28.164  24.636  1.00  0.00    -0.351 N 
ATOM      3  C   UNL A   1      30.809  27.407  23.502  1.00  0.00     0.269 C 
ATOM      4  O   UNL A   1      30.094  27.906  22.631  1.00  0.00    -0.268 OA
ATOM      5  H   UNL A   1      30.673  29.079  24.585  1.00  0.00     0.163 HD
BRANCH   3   6
ATOM      6  C   UNL A   1      31.397  26.038  23.302  1.00  0.00     0.128 A 
ATOM      7  C   UNL A   1      32.329  23.478  22.900  1.00  0.00     0.138 A 
ATOM      8  C   UNL A   1      33.141  24.557  22.585  1.00  0.00     0.050 A 
ATOM      9  C   UNL A   1      31.047  23.741  23.356  1.00  0.00     0.158 A 
ATOM     10  C   UNL A   1      32.669  25.851  22.779  1.00  0.00     0.038 A 
ATOM     11  N   UNL A   1      30.572  24.992  23.577  1.00  0.00    -0.247 NA
BRANCH   7  12
ATOM     12  O   UNL A   1      32.754  22.203  22.654  1.00  0.00    -0.482 OA
BRANCH  12  13
ATOM     13  C   UNL A   1      32.629  21.374  23.817  1.00  0.00     0.329 C 
BRANCH  13  14
ATOM     14  C   UNL A   1      33.747  21.563  24.852  1.00  0.00     0.262 C 
ATOM     15  O   UNL A   1      33.510  21.482  26.051  1.00  0.00    -0.271 OA
ATOM     16  N   UNL A   1      34.960  21.888  24.261  1.00  0.00    -0.321 N 
ATOM     17  H   UNL A   1      34.995  21.867  23.276  1.00  0.00     0.170 HD
BRANCH  16  18
ATOM     18  C   UNL A   1      36.150  22.245  24.933  1.00  0.00     0.077 A 
ATOM     19  C   UNL A   1      37.142  21.256  25.022  1.00  0.00     0.029 A 
ATOM     20  C   UNL A   1      36.415  23.503  25.486  1.00  0.00     0.146 A 
ATOM     21  C   UNL A   1      38.388  21.543  25.587  1.00  0.00     0.002 A 
ATOM     22  C   UNL A   1      37.654  23.786  26.061  1.00  0.00     0.041 A 
ATOM     23  F   UNL A   1      35.472  24.450  25.562  1.00  0.00    -0.205 F 
ATOM     24  C   UNL A   1      38.648  22.812  26.100  1.00  0.00     0.003 A 
ENDBRANCH  16  18
ENDBRANCH  13  14
ENDBRANCH  12  13
ENDBRANCH   7  12
ENDBRANCH   3   6
ENDBRANCH   1   2
BRANCH   1  25
ATOM     25  C   UNL A   1      33.181  28.227  25.854  1.00  0.00     0.042 C 
BRANCH  25  26
ATOM     26  C   UNL A   1      33.797  28.472  27.228  1.00  0.00     0.118 C 
BRANCH  26  27
ATOM     27  N   UNL A   1      33.727  29.871  27.618  1.00  0.00    -0.352 N 
ATOM     28  C   UNL A   1      34.635  30.655  28.286  1.00  0.00     0.251 C 
ATOM     29  H   UNL A   1      32.894  30.330  27.362  1.00  0.00     0.163 HD
ATOM     30  O   UNL A   1      34.283  31.756  28.701  1.00  0.00    -0.269 OA
BRANCH  28  31
ATOM     31  C   UNL A   1      36.023  30.196  28.524  1.00  0.00     0.039 A 
ATOM     32  C   UNL A   1      36.933  30.248  27.462  1.00  0.00     0.014 A 
ATOM     33  C   UNL A   1      36.419  29.652  29.748  1.00  0.00     0.014 A 
ATOM     34  C   UNL A   1      38.246  29.801  27.641  1.00  0.00     0.010 A 
ATOM     35  C   UNL A   1      37.745  29.267  29.946  1.00  0.00     0.010 A 
ATOM     36  C   UNL A   1      38.670  29.330  28.893  1.00  0.00    -0.014 A 
BRANCH  36  37
ATOM     37  C   UNL A   1      40.071  28.890  29.114  1.00  0.00     0.031 A 
ATOM     38  C   UNL A   1      41.073  29.828  29.731  1.00  0.00     0.074 A 
ATOM     39  C   UNL A   1      40.458  27.666  28.705  1.00  0.00     0.049 A 
ATOM     40  N   UNL A   1      42.356  29.657  29.925  1.00  0.00    -0.248 NA
ATOM     41  C   UNL A   1      40.571  31.142  30.163  1.00  0.00     0.031 C 
ATOM     42  C   UNL A   1      39.593  26.677  28.061  1.00  0.00     0.029 A 
ATOM     43  N   UNL A   1      41.684  27.051  28.759  1.00  0.00    -0.354 N 
ATOM     44  C   UNL A   1      42.816  30.842  30.484  1.00  0.00     0.074 A 
ATOM     45  C   UNL A   1      41.685  31.742  30.559  1.00  0.00     0.031 C 
ATOM     46  C   UNL A   1      40.310  25.573  27.795  1.00  0.00     0.029 A 
ATOM     47  C   UNL A   1      41.691  25.789  28.215  1.00  0.00     0.049 A 
ATOM     48  H   UNL A   1      42.482  27.473  29.151  1.00  0.00     0.167 HD
ATOM     49  C   UNL A   1      44.064  31.149  30.915  1.00  0.00     0.037 A 
ATOM     50  C   UNL A   1      42.698  24.909  28.064  1.00  0.00     0.037 A 
ATOM     51  C   UNL A   1      45.183  30.244  30.869  1.00  0.00     0.049 A 
ATOM     52  C   UNL A   1      44.074  25.273  28.550  1.00  0.00     0.074 A 
ATOM     53  C   UNL A   1      46.472  30.442  31.333  1.00  0.00     0.029 A 
ATOM     54  N   UNL A   1      45.144  28.968  30.329  1.00  0.00    -0.354 N 
ATOM     55  N   UNL A   1      44.480  26.378  29.126  1.00  0.00    -0.248 NA
ATOM     56  C   UNL A   1      45.128  24.266  28.371  1.00  0.00     0.031 C 
ATOM     57  C   UNL A   1      47.222  29.297  31.043  1.00  0.00     0.029 A 
ATOM     58  C   UNL A   1      46.390  28.371  30.434  1.00  0.00     0.049 A 
ATOM     59  H   UNL A   1      44.348  28.547  29.930  1.00  0.00     0.167 HD
ATOM     60  C   UNL A   1      45.829  26.191  29.398  1.00  0.00     0.074 A 
ATOM     61  C   UNL A   1      46.168  24.860  28.938  1.00  0.00     0.031 C 
ATOM     62  C   UNL A   1      46.708  27.044  29.976  1.00  0.00     0.037 A 
BRANCH  49  63
ATOM     63  C   UNL A   1      44.285  32.521  31.481  1.00  0.00     0.057 A 
ATOM     64  C   UNL A   1      44.667  33.599  30.672  1.00  0.00     0.134 A 
ATOM     65  C   UNL A   1      44.073  32.777  32.842  1.00  0.00     0.134 A 
ATOM     66  F   UNL A   1      44.896  33.418  29.362  1.00  0.00    -0.206 F 
ATOM     67  C   UNL A   1      44.854  34.877  31.200  1.00  0.00     0.040 A 
ATOM     68  C   UNL A   1      44.234  34.057  33.377  1.00  0.00     0.040 A 
ATOM     69  F   UNL A   1      43.700  31.791  33.670  1.00  0.00    -0.206 F 
ATOM     70  C   UNL A   1      44.631  35.110  32.555  1.00  0.00     0.006 A 
ENDBRANCH  49  63
BRANCH  50  71
ATOM     71  C   UNL A   1      42.444  23.588  27.437  1.00  0.00     0.057 A 
ATOM     72  C   UNL A   1      42.106  22.475  28.217  1.00  0.00     0.134 A 
ATOM     73  C   UNL A   1      42.542  23.402  26.054  1.00  0.00     0.134 A 
ATOM     74  F   UNL A   1      42.013  22.588  29.550  1.00  0.00    -0.206 F 
ATOM     75  C   UNL A   1      41.893  21.220  27.645  1.00  0.00     0.040 A 
ATOM     76  C   UNL A   1      42.311  22.157  25.467  1.00  0.00     0.040 A 
ATOM     77  F   UNL A   1      42.856  24.430  25.252  1.00  0.00    -0.206 F 
ATOM     78  C   UNL A   1      41.992  21.060  26.265  1.00  0.00     0.006 A 
ENDBRANCH  50  71
BRANCH  62  79
ATOM     79  C   UNL A   1      48.111  26.553  30.172  1.00  0.00     0.057 A 
ATOM     80  C   UNL A   1      48.498  25.870  31.330  1.00  0.00     0.134 A 
ATOM     81  C   UNL A   1      49.077  26.736  29.173  1.00  0.00     0.134 A 
ATOM     82  F   UNL A   1      47.623  25.675  32.329  1.00  0.00    -0.206 F 
ATOM     83  C   UNL A   1      49.803  25.402  31.499  1.00  0.00     0.040 A 
ATOM     84  C   UNL A   1      50.377  26.254  29.320  1.00  0.00     0.040 A 
ATOM     85  F   UNL A   1      48.767  27.378  28.037  1.00  0.00    -0.206 F 
ATOM     86  C   UNL A   1      50.745  25.588  30.488  1.00  0.00     0.006 A 
ENDBRANCH  62  79
ENDBRANCH  36  37
ENDBRANCH  28  31
ENDBRANCH  26  27
ENDBRANCH  25  26
ENDBRANCH   1  25
TORSDOF 14
ENDMDL
MODEL 3
REMARK VINA RESULT:     -10.2      4.012     11.018
REMARK SMILES O=C(COc1ccc(C(=O)NCCCNC(=O)c2ccc(-c3c4nc(c(-c5c(F)cccc5F)c5ccc([nH]5)c(-c5c(F)cccc5F)c5nc(c(-c6c(F)cccc6F)c6ccc3[nH]6)C=C5)C=C4)cc2)nc1)Nc1ccccc1F
REMARK SMILES IDX 12 1 11 2 9 3 10 4 8 6 5 7 6 8 73 9 7 10 72 11 4 12 3 13
REMARK SMILES IDX 2 14 1 15 74 16 75 18 76 19 80 20 77 21 79 22 81 23 78 24
REMARK SMILES IDX 13 25 14 26 15 27 16 28 17 30 18 31 19 32 71 33 20 34 70 35
REMARK SMILES IDX 21 36 22 37 23 38 64 39 24 40 69 41 63 42 65 43 25 44 68 45
REMARK SMILES IDX 62 46 61 47 26 49 52 50 35 51 51 52 36 53 39 54 50 55 66 56
REMARK SMILES IDX 37 57 38 58 49 60 67 61 40 62 27 63 28 64 33 65 29 66 30 67
REMARK SMILES IDX 32 68 34 69 31 70 53 71 54 72 59 73 55 74 56 75 58 76 60 77
REMARK SMILES IDX 57 78 41 79 42 80 47 81 43 82 44 83 46 84 48 85 45 86
REMARK H PARENT 11 5 74 17 15 29 65 48 39 59
REMARK Flexibility Score: inf
ROOT
ATOM      1  C   UNL A   1      33.071  34.297  29.228  1.00  0.00     0.118 C 
ENDROOT
BRANCH   1   2
ATOM      2  N   UNL A   1      32.727  35.580  29.817  1.00  0.00    -0.351 N 
ATOM      3  C   UNL A   1      33.056  36.153  31.030  1.00  0.00     0.269 C 
ATOM      4  O   UNL A   1      32.715  37.323  31.204  1.00  0.00    -0.268 OA
ATOM      5  H   UNL A   1      32.155  36.145  29.248  1.00  0.00     0.163 HD
BRANCH   3   6
ATOM      6  C   UNL A   1      33.792  35.412  32.112  1.00  0.00     0.128 A 
ATOM      7  C   UNL A   1      35.114  33.920  34.013  1.00  0.00     0.138 A 
ATOM      8  C   UNL A   1      35.535  35.213  33.746  1.00  0.00     0.050 A 
ATOM      9  C   UNL A   1      34.068  33.410  33.260  1.00  0.00     0.158 A 
ATOM     10  C   UNL A   1      34.875  35.966  32.781  1.00  0.00     0.038 A 
ATOM     11  N   UNL A   1      33.392  34.130  32.331  1.00  0.00    -0.247 NA
BRANCH   7  12
ATOM     12  O   UNL A   1      35.793  33.146  34.911  1.00  0.00    -0.482 OA
BRANCH  12  13
ATOM     13  C   UNL A   1      37.207  33.201  34.688  1.00  0.00     0.329 C 
BRANCH  13  14
ATOM     14  C   UNL A   1      37.917  31.843  34.795  1.00  0.00     0.262 C 
ATOM     15  O   UNL A   1      37.722  31.108  35.756  1.00  0.00    -0.271 OA
ATOM     16  N   UNL A   1      38.804  31.631  33.747  1.00  0.00    -0.321 N 
ATOM     17  H   UNL A   1      38.809  32.301  33.026  1.00  0.00     0.170 HD
BRANCH  16  18
ATOM     18  C   UNL A   1      39.697  30.546  33.615  1.00  0.00     0.077 A 
ATOM     19  C   UNL A   1      39.174  29.364  33.068  1.00  0.00     0.029 A 
ATOM     20  C   UNL A   1      41.053  30.573  33.962  1.00  0.00     0.146 A 
ATOM     21  C   UNL A   1      40.002  28.266  32.813  1.00  0.00     0.002 A 
ATOM     22  C   UNL A   1      41.878  29.474  33.719  1.00  0.00     0.041 A 
ATOM     23  F   UNL A   1      41.591  31.612  34.612  1.00  0.00    -0.205 F 
ATOM     24  C   UNL A   1      41.358  28.324  33.130  1.00  0.00     0.003 A 
ENDBRANCH  16  18
ENDBRANCH  13  14
ENDBRANCH  12  13
ENDBRANCH   7  12
ENDBRANCH   3   6
ENDBRANCH   1   2
BRANCH   1  25
ATOM     25  C   UNL A   1      34.570  34.185  28.942  1.00  0.00     0.042 C 
BRANCH  25  26
ATOM     26  C   UNL A   1      35.180  32.839  29.325  1.00  0.00     0.118 C 
BRANCH  26  27
ATOM     27  N   UNL A   1      34.448  31.723  28.750  1.00  0.00    -0.352 N 
ATOM     28  C   UNL A   1      34.898  30.517  28.271  1.00  0.00     0.251 C 
ATOM     29  H   UNL A   1      33.474  31.851  28.694  1.00  0.00     0.163 HD
ATOM     30  O   UNL A   1      34.130  29.803  27.631  1.00  0.00    -0.269 OA
BRANCH  28  31
ATOM     31  C   UNL A   1      36.290  30.065  28.502  1.00  0.00     0.039 A 
ATOM     32  C   UNL A   1      37.209  30.172  27.453  1.00  0.00     0.014 A 
ATOM     33  C   UNL A   1      36.681  29.475  29.707  1.00  0.00     0.014 A 
ATOM     34  C   UNL A   1      38.525  29.733  27.625  1.00  0.00     0.010 A 
ATOM     35  C   UNL A   1      38.010  29.098  29.901  1.00  0.00     0.010 A 
ATOM     36  C   UNL A   1      38.943  29.215  28.860  1.00  0.00    -0.014 A 
BRANCH  36  37
ATOM     37  C   UNL A   1      40.348  28.783  29.076  1.00  0.00     0.031 A 
ATOM     38  C   UNL A   1      41.345  29.724  29.697  1.00  0.00     0.074 A 
ATOM     39  C   UNL A   1      40.742  27.564  28.658  1.00  0.00     0.049 A 
ATOM     40  N   UNL A   1      42.629  29.559  29.888  1.00  0.00    -0.248 NA
ATOM     41  C   UNL A   1      40.835  31.031  30.138  1.00  0.00     0.031 C 
ATOM     42  C   UNL A   1      39.882  26.574  28.009  1.00  0.00     0.029 A 
ATOM     43  N   UNL A   1      41.972  26.957  28.706  1.00  0.00    -0.354 N 
ATOM     44  C   UNL A   1      43.083  30.744  30.453  1.00  0.00     0.074 A 
ATOM     45  C   UNL A   1      41.946  31.636  30.536  1.00  0.00     0.031 C 
ATOM     46  C   UNL A   1      40.606  25.476  27.734  1.00  0.00     0.029 A 
ATOM     47  C   UNL A   1      41.986  25.699  28.154  1.00  0.00     0.049 A 
ATOM     48  H   UNL A   1      42.768  27.381  29.099  1.00  0.00     0.167 HD
ATOM     49  C   UNL A   1      44.329  31.056  30.884  1.00  0.00     0.037 A 
ATOM     50  C   UNL A   1      42.999  24.826  27.995  1.00  0.00     0.037 A 
ATOM     51  C   UNL A   1      45.454  30.158  30.830  1.00  0.00     0.049 A 
ATOM     52  C   UNL A   1      44.372  25.195  28.481  1.00  0.00     0.074 A 
ATOM     53  C   UNL A   1      46.742  30.362  31.294  1.00  0.00     0.029 A 
ATOM     54  N   UNL A   1      45.422  28.886  30.282  1.00  0.00    -0.354 N 
ATOM     55  N   UNL A   1      44.773  26.300  29.063  1.00  0.00    -0.248 NA
ATOM     56  C   UNL A   1      45.433  24.197  28.293  1.00  0.00     0.031 C 
ATOM     57  C   UNL A   1      47.500  29.224  30.994  1.00  0.00     0.029 A 
ATOM     58  C   UNL A   1      46.672  28.297  30.381  1.00  0.00     0.049 A 
ATOM     59  H   UNL A   1      44.628  28.462  29.882  1.00  0.00     0.167 HD
ATOM     60  C   UNL A   1      46.123  26.120  29.332  1.00  0.00     0.074 A 
ATOM     61  C   UNL A   1      46.470  24.794  28.863  1.00  0.00     0.031 C 
ATOM     62  C   UNL A   1      46.998  26.974  29.914  1.00  0.00     0.037 A 
BRANCH  49  63
ATOM     63  C   UNL A   1      44.542  32.426  31.459  1.00  0.00     0.057 A 
ATOM     64  C   UNL A   1      44.568  32.650  32.841  1.00  0.00     0.134 A 
ATOM     65  C   UNL A   1      44.765  33.527  30.621  1.00  0.00     0.134 A 
ATOM     66  F   UNL A   1      44.350  31.639  33.697  1.00  0.00    -0.206 F 
ATOM     67  C   UNL A   1      44.784  33.922  33.371  1.00  0.00     0.040 A 
ATOM     68  C   UNL A   1      45.007  34.801  31.141  1.00  0.00     0.040 A 
ATOM     69  F   UNL A   1      44.762  33.381  29.289  1.00  0.00    -0.206 F 
ATOM     70  C   UNL A   1      45.011  35.001  32.519  1.00  0.00     0.006 A 
ENDBRANCH  49  63
BRANCH  50  71
ATOM     71  C   UNL A   1      42.752  23.508  27.360  1.00  0.00     0.057 A 
ATOM     72  C   UNL A   1      42.350  22.405  28.125  1.00  0.00     0.134 A 
ATOM     73  C   UNL A   1      42.920  23.313  25.985  1.00  0.00     0.134 A 
ATOM     74  F   UNL A   1      42.189  22.526  29.450  1.00  0.00    -0.206 F 
ATOM     75  C   UNL A   1      42.143  21.152  27.546  1.00  0.00     0.040 A 
ATOM     76  C   UNL A   1      42.696  22.071  25.391  1.00  0.00     0.040 A 
ATOM     77  F   UNL A   1      43.297  24.332  25.197  1.00  0.00    -0.206 F 
ATOM     78  C   UNL A   1      42.313  20.984  26.174  1.00  0.00     0.006 A 
ENDBRANCH  50  71
BRANCH  62  79
ATOM     79  C   UNL A   1      48.405  26.491  30.104  1.00  0.00     0.057 A 
ATOM     80  C   UNL A   1      49.402  26.737  29.153  1.00  0.00     0.134 A 
ATOM     81  C   UNL A   1      48.772  25.802  31.266  1.00  0.00     0.134 A 
ATOM     82  F   UNL A   1      49.111  27.380  28.012  1.00  0.00    -0.206 F 
ATOM     83  C   UNL A   1      50.713  26.297  29.343  1.00  0.00     0.040 A 
ATOM     84  C   UNL A   1      50.084  25.377  31.479  1.00  0.00     0.040 A 
ATOM     85  F   UNL A   1      47.863  25.539  32.218  1.00  0.00    -0.206 F 
ATOM     86  C   UNL A   1      51.058  25.620  30.512  1.00  0.00     0.006 A 
ENDBRANCH  62  79
ENDBRANCH  36  37
ENDBRANCH  28  31
ENDBRANCH  26  27
ENDBRANCH  25  26
ENDBRANCH   1  25
TORSDOF 14
ENDMDL
