MODEL 1
REMARK VINA RESULT:     -11.9      0.000      0.000
REMARK SMILES O=C(NCCCNC(=O)c1cncc(C(=O)c2ccsc2)c1)c1ccc(-c2c3nc(c(-c4c(F)cccc4F)c4ccc([nH]4)c(-c4c(F)cccc4F)c4nc(c(-c5c(F)cccc5F)c5ccc2[nH]5)C=C4)C=C3)cc1
REMARK SMILES IDX 5 1 4 2 3 3 1 4 2 5 23 7 24 8 76 9 25 10 75 11 26 12 27 13
REMARK SMILES IDX 28 14 69 15 29 16 74 17 68 18 70 19 30 20 73 21 67 22 66 23
REMARK SMILES IDX 31 25 57 26 40 27 56 28 41 29 44 30 55 31 71 32 42 33 43 34
REMARK SMILES IDX 54 36 72 37 45 38 32 39 33 40 38 41 34 42 35 43 37 44 39 45
REMARK SMILES IDX 36 46 58 47 59 48 64 49 60 50 61 51 63 52 65 53 62 54 46 55
REMARK SMILES IDX 47 56 52 57 48 58 49 59 51 60 53 61 50 62 6 63 7 64 8 65
REMARK SMILES IDX 9 67 10 68 11 69 22 70 12 71 14 72 13 73 15 74 16 75 17 76
REMARK SMILES IDX 18 77 21 78 19 79 20 80
REMARK H PARENT 3 6 70 24 44 35 7 66
REMARK Flexibility Score: inf
ROOT
ATOM      1  C   UNL A   1      31.422  31.883  26.552  1.00  0.00     0.042 C 
ENDROOT
BRANCH   1   2
ATOM      2  C   UNL A   1      32.732  32.521  26.978  1.00  0.00     0.118 C 
BRANCH   2   3
ATOM      3  N   UNL A   1      32.551  33.881  27.466  1.00  0.00    -0.352 N 
ATOM      4  O   UNL A   1      32.708  35.608  28.899  1.00  0.00    -0.269 OA
ATOM      5  C   UNL A   1      33.148  34.527  28.519  1.00  0.00     0.251 C 
ATOM      6  H   UNL A   1      31.900  34.420  26.962  1.00  0.00     0.163 HD
BRANCH   5   7
ATOM      7  C   UNL A   1      34.315  33.925  29.200  1.00  0.00     0.039 A 
ATOM      8  C   UNL A   1      34.140  32.942  30.176  1.00  0.00     0.014 A 
ATOM      9  C   UNL A   1      35.605  34.311  28.820  1.00  0.00     0.014 A 
ATOM     10  C   UNL A   1      35.237  32.445  30.865  1.00  0.00     0.010 A 
ATOM     11  C   UNL A   1      36.714  33.735  29.443  1.00  0.00     0.010 A 
ATOM     12  C   UNL A   1      36.537  32.806  30.479  1.00  0.00    -0.014 A 
BRANCH  12  13
ATOM     13  C   UNL A   1      37.685  32.093  31.089  1.00  0.00     0.031 A 
ATOM     14  C   UNL A   1      38.432  31.025  30.346  1.00  0.00     0.074 A 
ATOM     15  C   UNL A   1      38.054  32.447  32.336  1.00  0.00     0.049 A 
ATOM     16  N   UNL A   1      39.459  30.320  30.745  1.00  0.00    -0.248 NA
ATOM     17  C   UNL A   1      37.966  30.698  28.990  1.00  0.00     0.031 C 
ATOM     18  C   UNL A   1      37.379  33.458  33.157  1.00  0.00     0.029 A 
ATOM     19  N   UNL A   1      39.084  32.013  33.127  1.00  0.00    -0.354 N 
ATOM     20  C   UNL A   1      39.753  29.452  29.701  1.00  0.00     0.074 A 
ATOM     21  C   UNL A   1      38.786  29.709  28.655  1.00  0.00     0.031 C 
ATOM     22  C   UNL A   1      38.036  33.594  34.318  1.00  0.00     0.029 A 
ATOM     23  C   UNL A   1      39.134  32.637  34.350  1.00  0.00     0.049 A 
ATOM     24  H   UNL A   1      39.726  31.322  32.847  1.00  0.00     0.167 HD
ATOM     25  C   UNL A   1      40.742  28.530  29.630  1.00  0.00     0.037 A 
ATOM     26  C   UNL A   1      39.956  32.442  35.396  1.00  0.00     0.037 A 
ATOM     27  C   UNL A   1      41.715  28.303  30.669  1.00  0.00     0.049 A 
ATOM     28  C   UNL A   1      41.028  31.401  35.289  1.00  0.00     0.074 A 
ATOM     29  C   UNL A   1      42.800  27.444  30.658  1.00  0.00     0.029 A 
ATOM     30  N   UNL A   1      41.715  28.931  31.905  1.00  0.00    -0.354 N 
ATOM     31  N   UNL A   1      41.328  30.629  34.273  1.00  0.00    -0.248 NA
ATOM     32  C   UNL A   1      41.869  31.194  36.475  1.00  0.00     0.031 C 
ATOM     33  C   UNL A   1      43.429  27.517  31.905  1.00  0.00     0.029 A 
ATOM     34  C   UNL A   1      42.760  28.451  32.678  1.00  0.00     0.049 A 
ATOM     35  H   UNL A   1      41.068  29.616  32.191  1.00  0.00     0.167 HD
ATOM     36  C   UNL A   1      42.392  29.847  34.695  1.00  0.00     0.074 A 
ATOM     37  C   UNL A   1      42.706  30.259  36.049  1.00  0.00     0.031 C 
ATOM     38  C   UNL A   1      43.046  28.867  34.026  1.00  0.00     0.037 A 
BRANCH  25  39
ATOM     39  C   UNL A   1      40.829  27.681  28.398  1.00  0.00     0.057 A 
ATOM     40  C   UNL A   1      40.109  26.487  28.271  1.00  0.00     0.134 A 
ATOM     41  C   UNL A   1      41.568  28.113  27.289  1.00  0.00     0.134 A 
ATOM     42  F   UNL A   1      39.389  26.015  29.300  1.00  0.00    -0.206 F 
ATOM     43  C   UNL A   1      40.123  25.750  27.085  1.00  0.00     0.040 A 
ATOM     44  C   UNL A   1      41.575  27.395  26.092  1.00  0.00     0.040 A 
ATOM     45  F   UNL A   1      42.274  29.252  27.344  1.00  0.00    -0.206 F 
ATOM     46  C   UNL A   1      40.850  26.210  25.988  1.00  0.00     0.006 A 
ENDBRANCH  25  39
BRANCH  26  47
ATOM     47  C   UNL A   1      39.766  33.223  36.643  1.00  0.00     0.057 A 
ATOM     48  C   UNL A   1      38.873  32.804  37.634  1.00  0.00     0.134 A 
ATOM     49  C   UNL A   1      40.477  34.409  36.871  1.00  0.00     0.134 A 
ATOM     50  F   UNL A   1      38.153  31.686  37.465  1.00  0.00    -0.206 F 
ATOM     51  C   UNL A   1      38.679  33.545  38.801  1.00  0.00     0.040 A 
ATOM     52  C   UNL A   1      40.314  35.145  38.044  1.00  0.00     0.040 A 
ATOM     53  F   UNL A   1      41.355  34.857  35.962  1.00  0.00    -0.206 F 
ATOM     54  C   UNL A   1      39.405  34.717  39.010  1.00  0.00     0.006 A 
ENDBRANCH  26  47
BRANCH  38  55
ATOM     55  C   UNL A   1      44.158  28.180  34.757  1.00  0.00     0.057 A 
ATOM     56  C   UNL A   1      43.940  26.998  35.475  1.00  0.00     0.134 A 
ATOM     57  C   UNL A   1      45.460  28.693  34.729  1.00  0.00     0.134 A 
ATOM     58  F   UNL A   1      42.709  26.467  35.553  1.00  0.00    -0.206 F 
ATOM     59  C   UNL A   1      44.975  26.361  36.159  1.00  0.00     0.040 A 
ATOM     60  C   UNL A   1      46.507  28.053  35.390  1.00  0.00     0.040 A 
ATOM     61  F   UNL A   1      45.733  29.820  34.054  1.00  0.00    -0.206 F 
ATOM     62  C   UNL A   1      46.265  26.887  36.113  1.00  0.00     0.006 A 
ENDBRANCH  38  55
ENDBRANCH  12  13
ENDBRANCH   5   7
ENDBRANCH   2   3
ENDBRANCH   1   2
BRANCH   1  63
ATOM     63  C   UNL A   1      31.525  30.381  26.349  1.00  0.00     0.118 C 
BRANCH  63  64
ATOM     64  N   UNL A   1      32.563  30.022  25.387  1.00  0.00    -0.352 N 
ATOM     65  C   UNL A   1      32.568  29.049  24.417  1.00  0.00     0.252 C 
ATOM     66  H   UNL A   1      33.385  30.560  25.442  1.00  0.00     0.163 HD
ATOM     67  O   UNL A   1      33.611  28.744  23.847  1.00  0.00    -0.269 OA
BRANCH  65  68
ATOM     68  C   UNL A   1      31.317  28.367  24.060  1.00  0.00     0.058 A 
ATOM     69  C   UNL A   1      31.146  27.025  24.350  1.00  0.00     0.124 A 
ATOM     70  C   UNL A   1      30.269  29.063  23.457  1.00  0.00     0.029 A 
ATOM     71  N   UNL A   1      29.975  26.374  24.148  1.00  0.00    -0.263 NA
ATOM     72  C   UNL A   1      29.030  28.446  23.299  1.00  0.00     0.042 A 
ATOM     73  C   UNL A   1      28.939  27.103  23.655  1.00  0.00     0.123 A 
BRANCH  72  74
ATOM     74  C   UNL A   1      27.796  29.190  22.929  1.00  0.00     0.195 C 
ATOM     75  O   UNL A   1      26.704  28.736  23.252  1.00  0.00    -0.289 OA
BRANCH  74  76
ATOM     76  C   UNL A   1      27.920  30.513  22.314  1.00  0.00     0.033 A 
ATOM     77  C   UNL A   1      28.028  31.782  22.979  1.00  0.00     0.024 A 
ATOM     78  C   UNL A   1      27.963  30.679  20.941  1.00  0.00     0.077 A 
ATOM     79  C   UNL A   1      28.072  32.840  22.098  1.00  0.00     0.065 A 
ATOM     80  S   UNL A   1      28.030  32.321  20.471  1.00  0.00    -0.152 S 
ENDBRANCH  74  76
ENDBRANCH  72  74
ENDBRANCH  65  68
ENDBRANCH  63  64
ENDBRANCH   1  63
TORSDOF 12
ENDMDL
MODEL 2
REMARK VINA RESULT:     -11.8      0.368      6.306
REMARK SMILES O=C(NCCCNC(=O)c1cncc(C(=O)c2ccsc2)c1)c1ccc(-c2c3nc(c(-c4c(F)cccc4F)c4ccc([nH]4)c(-c4c(F)cccc4F)c4nc(c(-c5c(F)cccc5F)c5ccc2[nH]5)C=C4)C=C3)cc1
REMARK SMILES IDX 5 1 4 2 3 3 1 4 2 5 23 7 24 8 76 9 25 10 75 11 26 12 27 13
REMARK SMILES IDX 28 14 69 15 29 16 74 17 68 18 70 19 30 20 73 21 67 22 66 23
REMARK SMILES IDX 31 25 57 26 40 27 56 28 41 29 44 30 55 31 71 32 42 33 43 34
REMARK SMILES IDX 54 36 72 37 45 38 32 39 33 40 38 41 34 42 35 43 37 44 39 45
REMARK SMILES IDX 36 46 58 47 59 48 64 49 60 50 61 51 63 52 65 53 62 54 46 55
REMARK SMILES IDX 47 56 52 57 48 58 49 59 51 60 53 61 50 62 6 63 7 64 8 65
REMARK SMILES IDX 9 67 10 68 11 69 22 70 12 71 14 72 13 73 15 74 16 75 17 76
REMARK SMILES IDX 18 77 21 78 19 79 20 80
REMARK H PARENT 3 6 70 24 44 35 7 66
REMARK Flexibility Score: inf
ROOT
ATOM      1  C   UNL A   1      31.414  31.781  26.545  1.00  0.00     0.042 C 
ENDROOT
BRANCH   1   2
ATOM      2  C   UNL A   1      32.724  32.469  26.882  1.00  0.00     0.118 C 
BRANCH   2   3
ATOM      3  N   UNL A   1      32.525  33.822  27.381  1.00  0.00    -0.352 N 
ATOM      4  O   UNL A   1      32.663  35.542  28.825  1.00  0.00    -0.269 OA
ATOM      5  C   UNL A   1      33.118  34.470  28.436  1.00  0.00     0.251 C 
ATOM      6  H   UNL A   1      31.864  34.356  26.884  1.00  0.00     0.163 HD
BRANCH   5   7
ATOM      7  C   UNL A   1      34.297  33.882  29.106  1.00  0.00     0.039 A 
ATOM      8  C   UNL A   1      34.143  32.875  30.062  1.00  0.00     0.014 A 
ATOM      9  C   UNL A   1      35.578  34.305  28.736  1.00  0.00     0.014 A 
ATOM     10  C   UNL A   1      35.251  32.390  30.743  1.00  0.00     0.010 A 
ATOM     11  C   UNL A   1      36.700  33.741  29.349  1.00  0.00     0.010 A 
ATOM     12  C   UNL A   1      36.543  32.788  30.366  1.00  0.00    -0.014 A 
BRANCH  12  13
ATOM     13  C   UNL A   1      37.706  32.089  30.963  1.00  0.00     0.031 A 
ATOM     14  C   UNL A   1      38.201  32.423  32.339  1.00  0.00     0.074 A 
ATOM     15  C   UNL A   1      38.301  31.124  30.235  1.00  0.00     0.049 A 
ATOM     16  N   UNL A   1      39.201  31.893  32.998  1.00  0.00    -0.248 NA
ATOM     17  C   UNL A   1      37.498  33.489  33.068  1.00  0.00     0.031 C 
ATOM     18  C   UNL A   1      37.913  30.736  28.874  1.00  0.00     0.029 A 
ATOM     19  N   UNL A   1      39.343  30.286  30.532  1.00  0.00    -0.354 N 
ATOM     20  C   UNL A   1      39.261  32.571  34.207  1.00  0.00     0.074 A 
ATOM     21  C   UNL A   1      38.205  33.562  34.189  1.00  0.00     0.031 C 
ATOM     22  C   UNL A   1      38.679  29.714  28.471  1.00  0.00     0.029 A 
ATOM     23  C   UNL A   1      39.653  29.417  29.513  1.00  0.00     0.049 A 
ATOM     24  H   UNL A   1      39.824  30.305  31.390  1.00  0.00     0.167 HD
ATOM     25  C   UNL A   1      40.120  32.377  35.236  1.00  0.00     0.037 A 
ATOM     26  C   UNL A   1      40.630  28.500  29.416  1.00  0.00     0.037 A 
ATOM     27  C   UNL A   1      41.150  31.369  35.253  1.00  0.00     0.049 A 
ATOM     28  C   UNL A   1      41.574  28.324  30.567  1.00  0.00     0.074 A 
ATOM     29  C   UNL A   1      42.021  31.045  36.280  1.00  0.00     0.029 A 
ATOM     30  N   UNL A   1      41.453  30.529  34.193  1.00  0.00    -0.354 N 
ATOM     31  N   UNL A   1      41.581  28.933  31.727  1.00  0.00    -0.248 NA
ATOM     32  C   UNL A   1      42.652  27.343  30.393  1.00  0.00     0.031 C 
ATOM     33  C   UNL A   1      42.881  30.042  35.824  1.00  0.00     0.029 A 
ATOM     34  C   UNL A   1      42.522  29.713  34.528  1.00  0.00     0.049 A 
ATOM     35  H   UNL A   1      40.980  30.515  33.329  1.00  0.00     0.167 HD
ATOM     36  C   UNL A   1      42.660  28.410  32.422  1.00  0.00     0.074 A 
ATOM     37  C   UNL A   1      43.266  27.410  31.565  1.00  0.00     0.031 C 
ATOM     38  C   UNL A   1      43.116  28.734  33.656  1.00  0.00     0.037 A 
BRANCH  25  39
ATOM     39  C   UNL A   1      40.004  33.272  36.433  1.00  0.00     0.057 A 
ATOM     40  C   UNL A   1      39.145  32.976  37.497  1.00  0.00     0.134 A 
ATOM     41  C   UNL A   1      40.833  34.394  36.562  1.00  0.00     0.134 A 
ATOM     42  F   UNL A   1      38.320  31.920  37.432  1.00  0.00    -0.206 F 
ATOM     43  C   UNL A   1      39.112  33.766  38.649  1.00  0.00     0.040 A 
ATOM     44  C   UNL A   1      40.822  35.181  37.714  1.00  0.00     0.040 A 
ATOM     45  F   UNL A   1      41.684  34.728  35.580  1.00  0.00    -0.206 F 
ATOM     46  C   UNL A   1      39.960  34.867  38.763  1.00  0.00     0.006 A 
ENDBRANCH  25  39
BRANCH  26  47
ATOM     47  C   UNL A   1      40.785  27.711  28.169  1.00  0.00     0.057 A 
ATOM     48  C   UNL A   1      40.184  26.457  28.022  1.00  0.00     0.134 A 
ATOM     49  C   UNL A   1      41.541  28.197  27.094  1.00  0.00     0.134 A 
ATOM     50  F   UNL A   1      39.463  25.933  29.023  1.00  0.00    -0.206 F 
ATOM     51  C   UNL A   1      40.343  25.705  26.857  1.00  0.00     0.040 A 
ATOM     52  C   UNL A   1      41.684  27.469  25.913  1.00  0.00     0.040 A 
ATOM     53  F   UNL A   1      42.134  29.398  27.170  1.00  0.00    -0.206 F 
ATOM     54  C   UNL A   1      41.090  26.214  25.796  1.00  0.00     0.006 A 
ENDBRANCH  26  47
BRANCH  38  55
ATOM     55  C   UNL A   1      44.328  27.998  34.140  1.00  0.00     0.057 A 
ATOM     56  C   UNL A   1      44.220  26.765  34.793  1.00  0.00     0.134 A 
ATOM     57  C   UNL A   1      45.611  28.517  33.936  1.00  0.00     0.134 A 
ATOM     58  F   UNL A   1      43.015  26.225  35.033  1.00  0.00    -0.206 F 
ATOM     59  C   UNL A   1      45.348  26.082  35.247  1.00  0.00     0.040 A 
ATOM     60  C   UNL A   1      46.748  27.833  34.364  1.00  0.00     0.040 A 
ATOM     61  F   UNL A   1      45.779  29.693  33.311  1.00  0.00    -0.206 F 
ATOM     62  C   UNL A   1      46.618  26.614  35.028  1.00  0.00     0.006 A 
ENDBRANCH  38  55
ENDBRANCH  12  13
ENDBRANCH   5   7
ENDBRANCH   2   3
ENDBRANCH   1   2
BRANCH   1  63
ATOM     63  C   UNL A   1      31.558  30.282  26.348  1.00  0.00     0.118 C 
BRANCH  63  64
ATOM     64  N   UNL A   1      32.580  29.949  25.359  1.00  0.00    -0.352 N 
ATOM     65  C   UNL A   1      32.570  29.001  24.365  1.00  0.00     0.252 C 
ATOM     66  H   UNL A   1      33.402  30.486  25.414  1.00  0.00     0.163 HD
ATOM     67  O   UNL A   1      33.603  28.712  23.769  1.00  0.00    -0.269 OA
BRANCH  65  68
ATOM     68  C   UNL A   1      31.313  28.326  24.011  1.00  0.00     0.058 A 
ATOM     69  C   UNL A   1      31.143  26.981  24.284  1.00  0.00     0.124 A 
ATOM     70  C   UNL A   1      30.260  29.033  23.430  1.00  0.00     0.029 A 
ATOM     71  N   UNL A   1      29.968  26.335  24.086  1.00  0.00    -0.263 NA
ATOM     72  C   UNL A   1      29.018  28.421  23.277  1.00  0.00     0.042 A 
ATOM     73  C   UNL A   1      28.927  27.074  23.614  1.00  0.00     0.123 A 
BRANCH  72  74
ATOM     74  C   UNL A   1      27.782  29.173  22.931  1.00  0.00     0.195 C 
ATOM     75  O   UNL A   1      26.693  28.721  23.267  1.00  0.00    -0.289 OA
BRANCH  74  76
ATOM     76  C   UNL A   1      27.902  30.500  22.323  1.00  0.00     0.033 A 
ATOM     77  C   UNL A   1      27.977  31.767  22.996  1.00  0.00     0.024 A 
ATOM     78  C   UNL A   1      27.975  30.671  20.952  1.00  0.00     0.077 A 
ATOM     79  C   UNL A   1      28.027  32.830  22.119  1.00  0.00     0.065 A 
ATOM     80  S   UNL A   1      28.030  32.316  20.490  1.00  0.00    -0.152 S 
ENDBRANCH  74  76
ENDBRANCH  72  74
ENDBRANCH  65  68
ENDBRANCH  63  64
ENDBRANCH   1  63
TORSDOF 12
ENDMDL
MODEL 3
REMARK VINA RESULT:     -11.6      4.108      5.683
REMARK SMILES O=C(NCCCNC(=O)c1cncc(C(=O)c2ccsc2)c1)c1ccc(-c2c3nc(c(-c4c(F)cccc4F)c4ccc([nH]4)c(-c4c(F)cccc4F)c4nc(c(-c5c(F)cccc5F)c5ccc2[nH]5)C=C4)C=C3)cc1
REMARK SMILES IDX 5 1 4 2 3 3 1 4 2 5 23 7 24 8 76 9 25 10 75 11 26 12 27 13
REMARK SMILES IDX 28 14 69 15 29 16 74 17 68 18 70 19 30 20 73 21 67 22 66 23
REMARK SMILES IDX 31 25 57 26 40 27 56 28 41 29 44 30 55 31 71 32 42 33 43 34
REMARK SMILES IDX 54 36 72 37 45 38 32 39 33 40 38 41 34 42 35 43 37 44 39 45
REMARK SMILES IDX 36 46 58 47 59 48 64 49 60 50 61 51 63 52 65 53 62 54 46 55
REMARK SMILES IDX 47 56 52 57 48 58 49 59 51 60 53 61 50 62 6 63 7 64 8 65
REMARK SMILES IDX 9 67 10 68 11 69 22 70 12 71 14 72 13 73 15 74 16 75 17 76
REMARK SMILES IDX 18 77 21 78 19 79 20 80
REMARK H PARENT 3 6 70 24 44 35 7 66
REMARK Flexibility Score: inf
ROOT
ATOM      1  C   UNL A   1      32.917  28.595  26.398  1.00  0.00     0.042 C 
ENDROOT
BRANCH   1   2
ATOM      2  C   UNL A   1      34.138  28.815  27.272  1.00  0.00     0.118 C 
BRANCH   2   3
ATOM      3  N   UNL A   1      34.120  30.114  27.930  1.00  0.00    -0.352 N 
ATOM      4  O   UNL A   1      34.798  31.740  29.330  1.00  0.00    -0.269 OA
ATOM      5  C   UNL A   1      35.082  30.734  28.687  1.00  0.00     0.251 C 
ATOM      6  H   UNL A   1      33.288  30.628  27.813  1.00  0.00     0.163 HD
BRANCH   5   7
ATOM      7  C   UNL A   1      36.458  30.192  28.735  1.00  0.00     0.039 A 
ATOM      8  C   UNL A   1      37.306  30.307  27.631  1.00  0.00     0.014 A 
ATOM      9  C   UNL A   1      36.924  29.610  29.918  1.00  0.00     0.014 A 
ATOM     10  C   UNL A   1      38.564  29.723  27.660  1.00  0.00     0.010 A 
ATOM     11  C   UNL A   1      38.229  29.112  29.980  1.00  0.00     0.010 A 
ATOM     12  C   UNL A   1      39.053  29.155  28.847  1.00  0.00    -0.014 A 
BRANCH  12  13
ATOM     13  C   UNL A   1      40.475  28.738  28.904  1.00  0.00     0.031 A 
ATOM     14  C   UNL A   1      40.915  27.381  28.440  1.00  0.00     0.074 A 
ATOM     15  C   UNL A   1      41.373  29.628  29.372  1.00  0.00     0.049 A 
ATOM     16  N   UNL A   1      42.123  26.877  28.422  1.00  0.00    -0.248 NA
ATOM     17  C   UNL A   1      39.875  26.469  27.944  1.00  0.00     0.031 C 
ATOM     18  C   UNL A   1      41.046  30.968  29.871  1.00  0.00     0.029 A 
ATOM     19  N   UNL A   1      42.734  29.552  29.495  1.00  0.00    -0.354 N 
ATOM     20  C   UNL A   1      41.988  25.585  27.932  1.00  0.00     0.074 A 
ATOM     21  C   UNL A   1      40.579  25.375  27.678  1.00  0.00     0.031 C 
ATOM     22  C   UNL A   1      42.178  31.601  30.209  1.00  0.00     0.029 A 
ATOM     23  C   UNL A   1      43.300  30.692  30.014  1.00  0.00     0.049 A 
ATOM     24  H   UNL A   1      43.257  28.759  29.238  1.00  0.00     0.167 HD
ATOM     25  C   UNL A   1      42.958  24.665  27.715  1.00  0.00     0.037 A 
ATOM     26  C   UNL A   1      44.578  30.968  30.326  1.00  0.00     0.037 A 
ATOM     27  C   UNL A   1      44.361  24.896  27.947  1.00  0.00     0.049 A 
ATOM     28  C   UNL A   1      45.623  29.920  30.089  1.00  0.00     0.074 A 
ATOM     29  C   UNL A   1      45.427  24.051  27.687  1.00  0.00     0.029 A 
ATOM     30  N   UNL A   1      44.893  26.050  28.503  1.00  0.00    -0.354 N 
ATOM     31  N   UNL A   1      45.486  28.724  29.571  1.00  0.00    -0.248 NA
ATOM     32  C   UNL A   1      46.995  30.253  30.489  1.00  0.00     0.031 C 
ATOM     33  C   UNL A   1      46.598  24.675  28.128  1.00  0.00     0.029 A 
ATOM     34  C   UNL A   1      46.267  25.924  28.626  1.00  0.00     0.049 A 
ATOM     35  H   UNL A   1      44.371  26.841  28.770  1.00  0.00     0.167 HD
ATOM     36  C   UNL A   1      46.753  28.161  29.581  1.00  0.00     0.074 A 
ATOM     37  C   UNL A   1      47.651  29.159  30.128  1.00  0.00     0.031 C 
ATOM     38  C   UNL A   1      47.139  26.925  29.183  1.00  0.00     0.037 A 
BRANCH  25  39
ATOM     39  C   UNL A   1      42.550  23.314  27.211  1.00  0.00     0.057 A 
ATOM     40  C   UNL A   1      42.564  22.997  25.848  1.00  0.00     0.134 A 
ATOM     41  C   UNL A   1      42.230  22.288  28.111  1.00  0.00     0.134 A 
ATOM     42  F   UNL A   1      42.855  23.936  24.936  1.00  0.00    -0.206 F 
ATOM     43  C   UNL A   1      42.273  21.709  25.396  1.00  0.00     0.040 A 
ATOM     44  C   UNL A   1      41.953  20.993  27.673  1.00  0.00     0.040 A 
ATOM     45  F   UNL A   1      42.204  22.525  29.431  1.00  0.00    -0.206 F 
ATOM     46  C   UNL A   1      41.975  20.700  26.311  1.00  0.00     0.006 A 
ENDBRANCH  25  39
BRANCH  26  47
ATOM     47  C   UNL A   1      44.928  32.277  30.931  1.00  0.00     0.057 A 
ATOM     48  C   UNL A   1      45.282  33.373  30.138  1.00  0.00     0.134 A 
ATOM     49  C   UNL A   1      44.916  32.459  32.320  1.00  0.00     0.134 A 
ATOM     50  F   UNL A   1      45.327  33.254  28.804  1.00  0.00    -0.206 F 
ATOM     51  C   UNL A   1      45.629  34.600  30.705  1.00  0.00     0.040 A 
ATOM     52  C   UNL A   1      45.232  33.687  32.899  1.00  0.00     0.040 A 
ATOM     53  F   UNL A   1      44.575  31.447  33.133  1.00  0.00    -0.206 F 
ATOM     54  C   UNL A   1      45.598  34.761  32.090  1.00  0.00     0.006 A 
ENDBRANCH  26  47
BRANCH  38  55
ATOM     55  C   UNL A   1      48.593  26.594  29.331  1.00  0.00     0.057 A 
ATOM     56  C   UNL A   1      49.075  25.913  30.455  1.00  0.00     0.134 A 
ATOM     57  C   UNL A   1      49.513  26.942  28.336  1.00  0.00     0.134 A 
ATOM     58  F   UNL A   1      48.244  25.568  31.451  1.00  0.00    -0.206 F 
ATOM     59  C   UNL A   1      50.429  25.608  30.594  1.00  0.00     0.040 A 
ATOM     60  C   UNL A   1      50.865  26.623  28.453  1.00  0.00     0.040 A 
ATOM     61  F   UNL A   1      49.110  27.591  27.233  1.00  0.00    -0.206 F 
ATOM     62  C   UNL A   1      51.328  25.960  29.588  1.00  0.00     0.006 A 
ENDBRANCH  38  55
ENDBRANCH  12  13
ENDBRANCH   5   7
ENDBRANCH   2   3
ENDBRANCH   1   2
BRANCH   1  63
ATOM     63  C   UNL A   1      32.710  29.696  25.371  1.00  0.00     0.118 C 
BRANCH  63  64
ATOM     64  N   UNL A   1      33.276  29.353  24.069  1.00  0.00    -0.352 N 
ATOM     65  C   UNL A   1      32.817  28.486  23.108  1.00  0.00     0.252 C 
ATOM     66  H   UNL A   1      34.117  29.814  23.847  1.00  0.00     0.163 HD
ATOM     67  O   UNL A   1      33.538  28.157  22.171  1.00  0.00    -0.269 OA
BRANCH  65  68
ATOM     68  C   UNL A   1      31.453  27.947  23.201  1.00  0.00     0.058 A 
ATOM     69  C   UNL A   1      31.240  26.669  23.683  1.00  0.00     0.124 A 
ATOM     70  C   UNL A   1      30.351  28.723  22.842  1.00  0.00     0.029 A 
ATOM     71  N   UNL A   1      30.001  26.162  23.898  1.00  0.00    -0.263 NA
ATOM     72  C   UNL A   1      29.064  28.263  23.114  1.00  0.00     0.042 A 
ATOM     73  C   UNL A   1      28.945  26.979  23.636  1.00  0.00     0.123 A 
BRANCH  72  74
ATOM     74  C   UNL A   1      27.858  29.131  23.023  1.00  0.00     0.195 C 
ATOM     75  O   UNL A   1      26.782  28.702  23.422  1.00  0.00    -0.289 OA
BRANCH  74  76
ATOM     76  C   UNL A   1      28.013  30.521  22.591  1.00  0.00     0.033 A 
ATOM     77  C   UNL A   1      28.020  31.026  21.246  1.00  0.00     0.024 A 
ATOM     78  C   UNL A   1      28.163  31.555  23.499  1.00  0.00     0.077 A 
ATOM     79  C   UNL A   1      28.245  32.384  21.191  1.00  0.00     0.065 A 
ATOM     80  S   UNL A   1      28.405  33.071  22.747  1.00  0.00    -0.152 S 
ENDBRANCH  74  76
ENDBRANCH  72  74
ENDBRANCH  65  68
ENDBRANCH  63  64
ENDBRANCH   1  63
TORSDOF 12
ENDMDL
