MODEL 1
REMARK VINA RESULT:     -11.1      0.000      0.000
REMARK SMILES O=C1NC[C@@H](CSc2ccnc(C(=O)NCCCNC(=O)c3ccc(-c4c5nc(c(-c6c(F)cccc6F)c6ccc([nH]6)c(-c6c(F)cccc6F)c6nc(c(-c7c(F)cccc7F)c7ccc4[nH]7)C=C6)C=C5)cc3)c2)O1
REMARK SMILES IDX 16 1 15 2 13 3 14 4 12 6 8 7 9 8 76 9 10 10 11 11 7 12 6 13
REMARK SMILES IDX 5 14 1 15 2 16 3 17 77 18 4 19 17 21 18 22 19 23 20 24 21 26
REMARK SMILES IDX 22 27 23 28 75 29 24 30 74 31 25 32 26 33 27 34 68 35 28 36
REMARK SMILES IDX 73 37 67 38 69 39 29 40 72 41 66 42 65 43 30 45 56 46 39 47
REMARK SMILES IDX 55 48 40 49 43 50 54 51 70 52 41 53 42 54 53 56 71 57 44 58
REMARK SMILES IDX 31 59 32 60 37 61 33 62 34 63 36 64 38 65 35 66 57 67 58 68
REMARK SMILES IDX 63 69 59 70 60 71 62 72 64 73 61 74 45 75 46 76 51 77 47 78
REMARK SMILES IDX 48 79 50 80 52 81 49 82
REMARK H PARENT 15 5 3 20 19 25 69 44 43 55
REMARK Flexibility Score: inf
ROOT
ATOM      1  C   UNL A   1      33.749  30.269  27.016  1.00  0.00     0.118 C 
ENDROOT
BRANCH   1   2
ATOM      2  N   UNL A   1      32.848  29.340  27.675  1.00  0.00    -0.351 N 
ATOM      3  C   UNL A   1      31.998  28.374  27.187  1.00  0.00     0.269 C 
ATOM      4  O   UNL A   1      31.277  27.800  28.002  1.00  0.00    -0.268 OA
ATOM      5  H   UNL A   1      32.845  29.416  28.657  1.00  0.00     0.163 HD
BRANCH   3   6
ATOM      6  C   UNL A   1      31.997  27.959  25.746  1.00  0.00     0.129 A 
ATOM      7  C   UNL A   1      31.335  28.204  23.468  1.00  0.00     0.011 A 
ATOM      8  C   UNL A   1      32.471  27.492  23.099  1.00  0.00     0.035 A 
ATOM      9  C   UNL A   1      31.069  28.409  24.818  1.00  0.00     0.049 A 
ATOM     10  C   UNL A   1      33.260  26.950  24.093  1.00  0.00     0.113 A 
ATOM     11  N   UNL A   1      33.051  27.174  25.401  1.00  0.00    -0.251 NA
BRANCH   7  12
ATOM     12  S   UNL A   1      30.356  29.021  22.226  1.00  0.00    -0.122 SA
BRANCH  12  13
ATOM     13  C   UNL A   1      28.807  29.399  23.130  1.00  0.00     0.122 C 
BRANCH  13  14
ATOM     14  C   UNL A   1      27.840  30.402  22.484  1.00  0.00     0.208 C 
ATOM     15  O   UNL A   1      28.542  33.764  22.832  1.00  0.00    -0.225 OA
ATOM     16  C   UNL A   1      28.314  32.627  22.455  1.00  0.00     0.407 C 
ATOM     17  N   UNL A   1      28.553  32.163  21.196  1.00  0.00    -0.318 N 
ATOM     18  O   UNL A   1      27.782  31.635  23.225  1.00  0.00    -0.443 OA
ATOM     19  C   UNL A   1      28.166  30.804  21.060  1.00  0.00     0.165 C 
ATOM     20  H   UNL A   1      28.945  32.703  20.473  1.00  0.00     0.167 HD
ENDBRANCH  13  14
ENDBRANCH  12  13
ENDBRANCH   7  12
ENDBRANCH   3   6
ENDBRANCH   1   2
BRANCH   1  21
ATOM     21  C   UNL A   1      32.947  31.402  26.379  1.00  0.00     0.042 C 
BRANCH  21  22
ATOM     22  C   UNL A   1      31.922  32.000  27.338  1.00  0.00     0.118 C 
BRANCH  22  23
ATOM     23  N   UNL A   1      32.059  33.446  27.430  1.00  0.00    -0.352 N 
ATOM     24  C   UNL A   1      32.965  34.202  28.127  1.00  0.00     0.251 C 
ATOM     25  H   UNL A   1      31.399  33.960  26.911  1.00  0.00     0.163 HD
ATOM     26  O   UNL A   1      32.743  35.394  28.312  1.00  0.00    -0.269 OA
BRANCH  24  27
ATOM     27  C   UNL A   1      34.203  33.590  28.651  1.00  0.00     0.039 A 
ATOM     28  C   UNL A   1      35.402  33.812  27.969  1.00  0.00     0.014 A 
ATOM     29  C   UNL A   1      34.179  32.759  29.775  1.00  0.00     0.014 A 
ATOM     30  C   UNL A   1      36.579  33.230  28.437  1.00  0.00     0.010 A 
ATOM     31  C   UNL A   1      35.366  32.257  30.294  1.00  0.00     0.010 A 
ATOM     32  C   UNL A   1      36.575  32.470  29.618  1.00  0.00    -0.014 A 
BRANCH  32  33
ATOM     33  C   UNL A   1      37.829  31.886  30.149  1.00  0.00     0.031 A 
ATOM     34  C   UNL A   1      38.522  32.509  31.327  1.00  0.00     0.074 A 
ATOM     35  C   UNL A   1      38.361  30.810  29.539  1.00  0.00     0.049 A 
ATOM     36  N   UNL A   1      39.618  32.132  31.938  1.00  0.00    -0.248 NA
ATOM     37  C   UNL A   1      37.922  33.734  31.877  1.00  0.00     0.031 C 
ATOM     38  C   UNL A   1      37.805  30.148  28.357  1.00  0.00     0.029 A 
ATOM     39  N   UNL A   1      39.480  30.076  29.837  1.00  0.00    -0.354 N 
ATOM     40  C   UNL A   1      39.836  33.074  32.936  1.00  0.00     0.074 A 
ATOM     41  C   UNL A   1      38.805  34.079  32.801  1.00  0.00     0.031 C 
ATOM     42  C   UNL A   1      38.553  29.075  28.063  1.00  0.00     0.029 A 
ATOM     43  C   UNL A   1      39.662  28.997  29.008  1.00  0.00     0.049 A 
ATOM     44  H   UNL A   1      40.092  30.301  30.573  1.00  0.00     0.167 HD
ATOM     45  C   UNL A   1      40.790  33.083  33.900  1.00  0.00     0.037 A 
ATOM     46  C   UNL A   1      40.613  28.045  29.017  1.00  0.00     0.037 A 
ATOM     47  C   UNL A   1      41.815  32.078  34.024  1.00  0.00     0.049 A 
ATOM     48  C   UNL A   1      41.678  28.091  30.076  1.00  0.00     0.074 A 
ATOM     49  C   UNL A   1      42.807  31.968  34.982  1.00  0.00     0.029 A 
ATOM     50  N   UNL A   1      41.982  31.011  33.152  1.00  0.00    -0.354 N 
ATOM     51  N   UNL A   1      41.834  28.946  31.058  1.00  0.00    -0.248 NA
ATOM     52  C   UNL A   1      42.693  27.031  30.030  1.00  0.00     0.031 C 
ATOM     53  C   UNL A   1      43.609  30.867  34.656  1.00  0.00     0.029 A 
ATOM     54  C   UNL A   1      43.079  30.253  33.533  1.00  0.00     0.049 A 
ATOM     55  H   UNL A   1      41.406  30.820  32.377  1.00  0.00     0.167 HD
ATOM     56  C   UNL A   1      42.949  28.513  31.766  1.00  0.00     0.074 A 
ATOM     57  C   UNL A   1      43.412  27.307  31.109  1.00  0.00     0.031 C 
ATOM     58  C   UNL A   1      43.534  29.061  32.860  1.00  0.00     0.037 A 
BRANCH  45  59
ATOM     59  C   UNL A   1      40.762  34.225  34.878  1.00  0.00     0.057 A 
ATOM     60  C   UNL A   1      40.078  34.140  36.101  1.00  0.00     0.134 A 
ATOM     61  C   UNL A   1      41.413  35.432  34.593  1.00  0.00     0.134 A 
ATOM     62  F   UNL A   1      39.422  33.018  36.436  1.00  0.00    -0.206 F 
ATOM     63  C   UNL A   1      40.000  35.225  36.976  1.00  0.00     0.040 A 
ATOM     64  C   UNL A   1      41.373  36.513  35.477  1.00  0.00     0.040 A 
ATOM     65  F   UNL A   1      42.095  35.587  33.447  1.00  0.00    -0.206 F 
ATOM     66  C   UNL A   1      40.653  36.415  36.666  1.00  0.00     0.006 A 
ENDBRANCH  45  59
BRANCH  46  67
ATOM     67  C   UNL A   1      40.563  26.940  28.028  1.00  0.00     0.057 A 
ATOM     68  C   UNL A   1      41.291  27.014  26.834  1.00  0.00     0.134 A 
ATOM     69  C   UNL A   1      39.808  25.784  28.252  1.00  0.00     0.134 A 
ATOM     70  F   UNL A   1      42.024  28.103  26.556  1.00  0.00    -0.206 F 
ATOM     71  C   UNL A   1      41.257  25.986  25.891  1.00  0.00     0.040 A 
ATOM     72  C   UNL A   1      39.784  24.736  27.330  1.00  0.00     0.040 A 
ATOM     73  F   UNL A   1      39.098  25.647  29.381  1.00  0.00    -0.206 F 
ATOM     74  C   UNL A   1      40.507  24.839  26.141  1.00  0.00     0.006 A 
ENDBRANCH  46  67
BRANCH  58  75
ATOM     75  C   UNL A   1      44.723  28.337  33.426  1.00  0.00     0.057 A 
ATOM     76  C   UNL A   1      44.590  27.318  34.380  1.00  0.00     0.134 A 
ATOM     77  C   UNL A   1      46.021  28.665  33.011  1.00  0.00     0.134 A 
ATOM     78  F   UNL A   1      43.377  26.964  34.832  1.00  0.00    -0.206 F 
ATOM     79  C   UNL A   1      45.705  26.682  34.929  1.00  0.00     0.040 A 
ATOM     80  C   UNL A   1      47.140  28.010  33.527  1.00  0.00     0.040 A 
ATOM     81  F   UNL A   1      46.221  29.622  32.093  1.00  0.00    -0.206 F 
ATOM     82  C   UNL A   1      46.984  27.025  34.498  1.00  0.00     0.006 A 
ENDBRANCH  58  75
ENDBRANCH  32  33
ENDBRANCH  24  27
ENDBRANCH  22  23
ENDBRANCH  21  22
ENDBRANCH   1  21
TORSDOF 13
ENDMDL
MODEL 2
REMARK VINA RESULT:     -11.0      4.632      9.304
REMARK SMILES O=C1NC[C@@H](CSc2ccnc(C(=O)NCCCNC(=O)c3ccc(-c4c5nc(c(-c6c(F)cccc6F)c6ccc([nH]6)c(-c6c(F)cccc6F)c6nc(c(-c7c(F)cccc7F)c7ccc4[nH]7)C=C6)C=C5)cc3)c2)O1
REMARK SMILES IDX 16 1 15 2 13 3 14 4 12 6 8 7 9 8 76 9 10 10 11 11 7 12 6 13
REMARK SMILES IDX 5 14 1 15 2 16 3 17 77 18 4 19 17 21 18 22 19 23 20 24 21 26
REMARK SMILES IDX 22 27 23 28 75 29 24 30 74 31 25 32 26 33 27 34 68 35 28 36
REMARK SMILES IDX 73 37 67 38 69 39 29 40 72 41 66 42 65 43 30 45 56 46 39 47
REMARK SMILES IDX 55 48 40 49 43 50 54 51 70 52 41 53 42 54 53 56 71 57 44 58
REMARK SMILES IDX 31 59 32 60 37 61 33 62 34 63 36 64 38 65 35 66 57 67 58 68
REMARK SMILES IDX 63 69 59 70 60 71 62 72 64 73 61 74 45 75 46 76 51 77 47 78
REMARK SMILES IDX 48 79 50 80 52 81 49 82
REMARK H PARENT 15 5 3 20 19 25 69 44 43 55
REMARK Flexibility Score: inf
ROOT
ATOM      1  C   UNL A   1      37.282  20.676  24.625  1.00  0.00     0.118 C 
ENDROOT
BRANCH   1   2
ATOM      2  N   UNL A   1      37.798  21.894  25.224  1.00  0.00    -0.351 N 
ATOM      3  C   UNL A   1      37.173  22.996  25.762  1.00  0.00     0.269 C 
ATOM      4  O   UNL A   1      37.892  23.931  26.113  1.00  0.00    -0.268 OA
ATOM      5  H   UNL A   1      38.781  21.941  25.249  1.00  0.00     0.163 HD
BRANCH   3   6
ATOM      6  C   UNL A   1      35.693  23.041  26.005  1.00  0.00     0.129 A 
ATOM      7  C   UNL A   1      33.494  23.846  25.559  1.00  0.00     0.011 A 
ATOM      8  C   UNL A   1      32.991  22.676  26.117  1.00  0.00     0.035 A 
ATOM      9  C   UNL A   1      34.869  24.054  25.537  1.00  0.00     0.049 A 
ATOM     10  C   UNL A   1      33.876  21.790  26.697  1.00  0.00     0.113 A 
ATOM     11  N   UNL A   1      35.210  21.945  26.646  1.00  0.00    -0.251 NA
BRANCH   7  12
ATOM     12  S   UNL A   1      32.405  24.958  24.695  1.00  0.00    -0.122 SA
BRANCH  12  13
ATOM     13  C   UNL A   1      33.576  26.136  23.921  1.00  0.00     0.122 C 
BRANCH  13  14
ATOM     14  C   UNL A   1      33.093  26.897  22.678  1.00  0.00     0.208 C 
ATOM     15  O   UNL A   1      33.002  25.186  19.681  1.00  0.00    -0.225 OA
ATOM     16  C   UNL A   1      32.779  25.820  20.699  1.00  0.00     0.407 C 
ATOM     17  N   UNL A   1      31.540  26.040  21.221  1.00  0.00    -0.318 N 
ATOM     18  O   UNL A   1      33.727  26.412  21.480  1.00  0.00    -0.443 OA
ATOM     19  C   UNL A   1      31.605  26.826  22.401  1.00  0.00     0.165 C 
ATOM     20  H   UNL A   1      30.705  25.696  20.829  1.00  0.00     0.167 HD
ENDBRANCH  13  14
ENDBRANCH  12  13
ENDBRANCH   7  12
ENDBRANCH   3   6
ENDBRANCH   1   2
BRANCH   1  21
ATOM     21  C   UNL A   1      38.259  19.527  24.870  1.00  0.00     0.042 C 
BRANCH  21  22
ATOM     22  C   UNL A   1      39.164  19.780  26.072  1.00  0.00     0.118 C 
BRANCH  22  23
ATOM     23  N   UNL A   1      40.434  19.081  25.937  1.00  0.00    -0.352 N 
ATOM     24  C   UNL A   1      41.714  19.569  25.957  1.00  0.00     0.251 C 
ATOM     25  H   UNL A   1      40.362  18.107  25.813  1.00  0.00     0.163 HD
ATOM     26  O   UNL A   1      42.634  18.872  25.541  1.00  0.00    -0.269 OA
BRANCH  24  27
ATOM     27  C   UNL A   1      41.990  20.922  26.480  1.00  0.00     0.039 A 
ATOM     28  C   UNL A   1      41.912  21.139  27.858  1.00  0.00     0.014 A 
ATOM     29  C   UNL A   1      42.272  21.986  25.617  1.00  0.00     0.014 A 
ATOM     30  C   UNL A   1      42.152  22.414  28.370  1.00  0.00     0.010 A 
ATOM     31  C   UNL A   1      42.603  23.232  26.135  1.00  0.00     0.010 A 
ATOM     32  C   UNL A   1      42.526  23.464  27.515  1.00  0.00    -0.014 A 
BRANCH  32  33
ATOM     33  C   UNL A   1      42.829  24.810  28.055  1.00  0.00     0.031 A 
ATOM     34  C   UNL A   1      44.247  25.215  28.344  1.00  0.00     0.074 A 
ATOM     35  C   UNL A   1      41.814  25.655  28.317  1.00  0.00     0.049 A 
ATOM     36  N   UNL A   1      44.705  26.352  28.805  1.00  0.00    -0.248 NA
ATOM     37  C   UNL A   1      45.286  24.201  28.113  1.00  0.00     0.031 C 
ATOM     38  C   UNL A   1      40.394  25.355  28.124  1.00  0.00     0.029 A 
ATOM     39  N   UNL A   1      41.822  26.942  28.791  1.00  0.00    -0.354 N 
ATOM     40  C   UNL A   1      46.080  26.186  28.920  1.00  0.00     0.074 A 
ATOM     41  C   UNL A   1      46.371  24.817  28.555  1.00  0.00     0.031 C 
ATOM     42  C   UNL A   1      39.671  26.444  28.423  1.00  0.00     0.029 A 
ATOM     43  C   UNL A   1      40.571  27.503  28.868  1.00  0.00     0.049 A 
ATOM     44  H   UNL A   1      42.644  27.416  29.050  1.00  0.00     0.167 HD
ATOM     45  C   UNL A   1      47.019  27.099  29.267  1.00  0.00     0.037 A 
ATOM     46  C   UNL A   1      40.196  28.738  29.245  1.00  0.00     0.037 A 
ATOM     47  C   UNL A   1      46.719  28.461  29.631  1.00  0.00     0.049 A 
ATOM     48  C   UNL A   1      41.251  29.727  29.654  1.00  0.00     0.074 A 
ATOM     49  C   UNL A   1      47.593  29.481  29.964  1.00  0.00     0.029 A 
ATOM     50  N   UNL A   1      45.438  28.988  29.721  1.00  0.00    -0.354 N 
ATOM     51  N   UNL A   1      42.553  29.580  29.692  1.00  0.00    -0.248 NA
ATOM     52  C   UNL A   1      40.780  31.055  30.064  1.00  0.00     0.031 C 
ATOM     53  C   UNL A   1      46.837  30.608  30.309  1.00  0.00     0.029 A 
ATOM     54  C   UNL A   1      45.495  30.312  30.130  1.00  0.00     0.049 A 
ATOM     55  H   UNL A   1      44.609  28.494  29.521  1.00  0.00     0.167 HD
ATOM     56  C   UNL A   1      43.062  30.806  30.102  1.00  0.00     0.074 A 
ATOM     57  C   UNL A   1      41.925  31.687  30.279  1.00  0.00     0.031 C 
ATOM     58  C   UNL A   1      44.352  31.171  30.312  1.00  0.00     0.037 A 
BRANCH  45  59
ATOM     59  C   UNL A   1      48.451  26.639  29.274  1.00  0.00     0.057 A 
ATOM     60  C   UNL A   1      49.048  26.084  30.417  1.00  0.00     0.134 A 
ATOM     61  C   UNL A   1      49.251  26.762  28.131  1.00  0.00     0.134 A 
ATOM     62  F   UNL A   1      48.346  25.947  31.552  1.00  0.00    -0.206 F 
ATOM     63  C   UNL A   1      50.395  25.719  30.438  1.00  0.00     0.040 A 
ATOM     64  C   UNL A   1      50.591  26.366  28.128  1.00  0.00     0.040 A 
ATOM     65  F   UNL A   1      48.748  27.274  26.997  1.00  0.00    -0.206 F 
ATOM     66  C   UNL A   1      51.170  25.856  29.288  1.00  0.00     0.006 A 
ENDBRANCH  45  59
BRANCH  46  67
ATOM     67  C   UNL A   1      38.763  29.123  29.196  1.00  0.00     0.057 A 
ATOM     68  C   UNL A   1      37.960  29.045  30.341  1.00  0.00     0.134 A 
ATOM     69  C   UNL A   1      38.165  29.590  28.020  1.00  0.00     0.134 A 
ATOM     70  F   UNL A   1      38.473  28.593  31.495  1.00  0.00    -0.206 F 
ATOM     71  C   UNL A   1      36.611  29.403  30.314  1.00  0.00     0.040 A 
ATOM     72  C   UNL A   1      36.824  29.975  27.985  1.00  0.00     0.040 A 
ATOM     73  F   UNL A   1      38.883  29.699  26.893  1.00  0.00    -0.206 F 
ATOM     74  C   UNL A   1      36.041  29.876  29.135  1.00  0.00     0.006 A 
ENDBRANCH  46  67
BRANCH  58  75
ATOM     75  C   UNL A   1      44.594  32.595  30.728  1.00  0.00     0.057 A 
ATOM     76  C   UNL A   1      44.790  33.621  29.792  1.00  0.00     0.134 A 
ATOM     77  C   UNL A   1      44.632  32.944  32.084  1.00  0.00     0.134 A 
ATOM     78  F   UNL A   1      44.779  33.353  28.477  1.00  0.00    -0.206 F 
ATOM     79  C   UNL A   1      45.055  34.932  30.192  1.00  0.00     0.040 A 
ATOM     80  C   UNL A   1      44.861  34.258  32.494  1.00  0.00     0.040 A 
ATOM     81  F   UNL A   1      44.442  32.016  33.033  1.00  0.00    -0.206 F 
ATOM     82  C   UNL A   1      45.086  35.254  31.547  1.00  0.00     0.006 A 
ENDBRANCH  58  75
ENDBRANCH  32  33
ENDBRANCH  24  27
ENDBRANCH  22  23
ENDBRANCH  21  22
ENDBRANCH   1  21
TORSDOF 13
ENDMDL
MODEL 3
REMARK VINA RESULT:     -10.9      1.674      3.266
REMARK SMILES O=C1NC[C@@H](CSc2ccnc(C(=O)NCCCNC(=O)c3ccc(-c4c5nc(c(-c6c(F)cccc6F)c6ccc([nH]6)c(-c6c(F)cccc6F)c6nc(c(-c7c(F)cccc7F)c7ccc4[nH]7)C=C6)C=C5)cc3)c2)O1
REMARK SMILES IDX 16 1 15 2 13 3 14 4 12 6 8 7 9 8 76 9 10 10 11 11 7 12 6 13
REMARK SMILES IDX 5 14 1 15 2 16 3 17 77 18 4 19 17 21 18 22 19 23 20 24 21 26
REMARK SMILES IDX 22 27 23 28 75 29 24 30 74 31 25 32 26 33 27 34 68 35 28 36
REMARK SMILES IDX 73 37 67 38 69 39 29 40 72 41 66 42 65 43 30 45 56 46 39 47
REMARK SMILES IDX 55 48 40 49 43 50 54 51 70 52 41 53 42 54 53 56 71 57 44 58
REMARK SMILES IDX 31 59 32 60 37 61 33 62 34 63 36 64 38 65 35 66 57 67 58 68
REMARK SMILES IDX 63 69 59 70 60 71 62 72 64 73 61 74 45 75 46 76 51 77 47 78
REMARK SMILES IDX 48 79 50 80 52 81 49 82
REMARK H PARENT 15 5 3 20 19 25 69 44 43 55
REMARK Flexibility Score: inf
ROOT
ATOM      1  C   UNL A   1      30.812  31.324  25.395  1.00  0.00     0.118 C 
ENDROOT
BRANCH   1   2
ATOM      2  N   UNL A   1      29.913  32.032  24.502  1.00  0.00    -0.351 N 
ATOM      3  C   UNL A   1      29.066  31.598  23.507  1.00  0.00     0.269 C 
ATOM      4  O   UNL A   1      28.491  32.461  22.845  1.00  0.00    -0.268 OA
ATOM      5  H   UNL A   1      29.908  33.009  24.632  1.00  0.00     0.163 HD
BRANCH   3   6
ATOM      6  C   UNL A   1      28.772  30.145  23.282  1.00  0.00     0.129 A 
ATOM      7  C   UNL A   1      29.342  27.830  23.344  1.00  0.00     0.011 A 
ATOM      8  C   UNL A   1      27.984  27.533  23.365  1.00  0.00     0.035 A 
ATOM      9  C   UNL A   1      29.747  29.158  23.261  1.00  0.00     0.049 A 
ATOM     10  C   UNL A   1      27.082  28.568  23.230  1.00  0.00     0.113 A 
ATOM     11  N   UNL A   1      27.446  29.861  23.196  1.00  0.00    -0.251 NA
BRANCH   7  12
ATOM     12  S   UNL A   1      30.538  26.544  23.636  1.00  0.00    -0.122 SA
BRANCH  12  13
ATOM     13  C   UNL A   1      31.501  27.212  25.045  1.00  0.00     0.122 C 
BRANCH  13  14
ATOM     14  C   UNL A   1      33.009  27.411  24.837  1.00  0.00     0.208 C 
ATOM     15  O   UNL A   1      34.106  28.181  21.656  1.00  0.00    -0.225 OA
ATOM     16  C   UNL A   1      33.827  28.137  22.843  1.00  0.00     0.407 C 
ATOM     17  N   UNL A   1      33.883  29.199  23.694  1.00  0.00    -0.318 N 
ATOM     18  O   UNL A   1      33.417  27.022  23.512  1.00  0.00    -0.443 OA
ATOM     19  C   UNL A   1      33.516  28.828  25.014  1.00  0.00     0.165 C 
ATOM     20  H   UNL A   1      34.144  30.110  23.426  1.00  0.00     0.167 HD
ENDBRANCH  13  14
ENDBRANCH  12  13
ENDBRANCH   7  12
ENDBRANCH   3   6
ENDBRANCH   1   2
BRANCH   1  21
ATOM     21  C   UNL A   1      30.972  32.110  26.695  1.00  0.00     0.042 C 
BRANCH  21  22
ATOM     22  C   UNL A   1      32.391  32.641  26.882  1.00  0.00     0.118 C 
BRANCH  22  23
ATOM     23  N   UNL A   1      32.386  34.001  27.399  1.00  0.00    -0.352 N 
ATOM     24  C   UNL A   1      33.082  34.549  28.444  1.00  0.00     0.251 C 
ATOM     25  H   UNL A   1      31.790  34.624  26.924  1.00  0.00     0.163 HD
ATOM     26  O   UNL A   1      32.730  35.630  28.906  1.00  0.00    -0.269 OA
BRANCH  24  27
ATOM     27  C   UNL A   1      34.253  33.849  29.011  1.00  0.00     0.039 A 
ATOM     28  C   UNL A   1      35.531  34.308  28.688  1.00  0.00     0.014 A 
ATOM     29  C   UNL A   1      34.096  32.714  29.813  1.00  0.00     0.014 A 
ATOM     30  C   UNL A   1      36.650  33.650  29.199  1.00  0.00     0.010 A 
ATOM     31  C   UNL A   1      35.207  32.118  30.397  1.00  0.00     0.010 A 
ATOM     32  C   UNL A   1      36.495  32.567  30.079  1.00  0.00    -0.014 A 
BRANCH  32  33
ATOM     33  C   UNL A   1      37.678  31.891  30.664  1.00  0.00     0.031 A 
ATOM     34  C   UNL A   1      38.140  32.229  32.053  1.00  0.00     0.074 A 
ATOM     35  C   UNL A   1      38.354  30.995  29.923  1.00  0.00     0.049 A 
ATOM     36  N   UNL A   1      39.142  31.734  32.736  1.00  0.00    -0.248 NA
ATOM     37  C   UNL A   1      37.398  33.283  32.761  1.00  0.00     0.031 C 
ATOM     38  C   UNL A   1      38.029  30.621  28.544  1.00  0.00     0.029 A 
ATOM     39  N   UNL A   1      39.448  30.225  30.227  1.00  0.00    -0.354 N 
ATOM     40  C   UNL A   1      39.150  32.418  33.945  1.00  0.00     0.074 A 
ATOM     41  C   UNL A   1      38.103  33.414  33.873  1.00  0.00     0.031 C 
ATOM     42  C   UNL A   1      38.870  29.656  28.142  1.00  0.00     0.029 A 
ATOM     43  C   UNL A   1      39.816  29.374  29.215  1.00  0.00     0.049 A 
ATOM     44  H   UNL A   1      39.923  30.280  31.087  1.00  0.00     0.167 HD
ATOM     45  C   UNL A   1      39.935  32.214  35.031  1.00  0.00     0.037 A 
ATOM     46  C   UNL A   1      40.801  28.459  29.166  1.00  0.00     0.037 A 
ATOM     47  C   UNL A   1      40.977  31.220  35.092  1.00  0.00     0.049 A 
ATOM     48  C   UNL A   1      41.679  28.269  30.370  1.00  0.00     0.074 A 
ATOM     49  C   UNL A   1      41.809  30.902  36.151  1.00  0.00     0.029 A 
ATOM     50  N   UNL A   1      41.337  30.390  34.039  1.00  0.00    -0.354 N 
ATOM     51  N   UNL A   1      41.633  28.872  31.533  1.00  0.00    -0.248 NA
ATOM     52  C   UNL A   1      42.742  27.263  30.253  1.00  0.00     0.031 C 
ATOM     53  C   UNL A   1      42.707  29.919  35.721  1.00  0.00     0.029 A 
ATOM     54  C   UNL A   1      42.396  29.578  34.414  1.00  0.00     0.049 A 
ATOM     55  H   UNL A   1      40.903  30.379  33.156  1.00  0.00     0.167 HD
ATOM     56  C   UNL A   1      42.640  28.299  32.299  1.00  0.00     0.074 A 
ATOM     57  C   UNL A   1      43.265  27.287  31.471  1.00  0.00     0.031 C 
ATOM     58  C   UNL A   1      43.014  28.583  33.573  1.00  0.00     0.037 A 
BRANCH  45  59
ATOM     59  C   UNL A   1      39.692  33.095  36.226  1.00  0.00     0.057 A 
ATOM     60  C   UNL A   1      38.759  32.759  37.219  1.00  0.00     0.134 A 
ATOM     61  C   UNL A   1      40.387  34.300  36.383  1.00  0.00     0.134 A 
ATOM     62  F   UNL A   1      38.048  31.625  37.128  1.00  0.00    -0.206 F 
ATOM     63  C   UNL A   1      38.489  33.611  38.292  1.00  0.00     0.040 A 
ATOM     64  C   UNL A   1      40.153  35.144  37.471  1.00  0.00     0.040 A 
ATOM     65  F   UNL A   1      41.302  34.684  35.479  1.00  0.00    -0.206 F 
ATOM     66  C   UNL A   1      39.192  34.806  38.422  1.00  0.00     0.006 A 
ENDBRANCH  45  59
BRANCH  46  67
ATOM     67  C   UNL A   1      40.967  27.616  27.955  1.00  0.00     0.057 A 
ATOM     68  C   UNL A   1      40.319  26.379  27.849  1.00  0.00     0.134 A 
ATOM     69  C   UNL A   1      41.757  28.025  26.875  1.00  0.00     0.134 A 
ATOM     70  F   UNL A   1      39.559  25.926  28.857  1.00  0.00    -0.206 F 
ATOM     71  C   UNL A   1      40.464  25.572  26.719  1.00  0.00     0.040 A 
ATOM     72  C   UNL A   1      41.891  27.241  25.729  1.00  0.00     0.040 A 
ATOM     73  F   UNL A   1      42.394  29.204  26.911  1.00  0.00    -0.206 F 
ATOM     74  C   UNL A   1      41.247  26.006  25.652  1.00  0.00     0.006 A 
ENDBRANCH  46  67
BRANCH  58  75
ATOM     75  C   UNL A   1      44.133  27.762  34.149  1.00  0.00     0.057 A 
ATOM     76  C   UNL A   1      45.472  28.172  34.077  1.00  0.00     0.134 A 
ATOM     77  C   UNL A   1      43.867  26.542  34.784  1.00  0.00     0.134 A 
ATOM     78  F   UNL A   1      45.799  29.324  33.470  1.00  0.00    -0.206 F 
ATOM     79  C   UNL A   1      46.506  27.380  34.579  1.00  0.00     0.040 A 
ATOM     80  C   UNL A   1      44.889  25.759  35.320  1.00  0.00     0.040 A 
ATOM     81  F   UNL A   1      42.608  26.093  34.897  1.00  0.00    -0.206 F 
ATOM     82  C   UNL A   1      46.215  26.171  35.207  1.00  0.00     0.006 A 
ENDBRANCH  58  75
ENDBRANCH  32  33
ENDBRANCH  24  27
ENDBRANCH  22  23
ENDBRANCH  21  22
ENDBRANCH   1  21
TORSDOF 13
ENDMDL
