MODEL 1
REMARK VINA RESULT:     -11.8      0.000      0.000
REMARK SMILES CC1(C)CCC[C@H]1NC(=O)N[C@@H]1COC[C@@]1(C)C(=O)NCCCNC(=O)c1ccc(-c2c3nc(c(-c4c(F)cccc4F)c4ccc([nH]4)c(-c4c(F)cccc4F)c4nc(c(-c5c(F)cccc5F)c5ccc2[nH]5)C=C4)C=C3)cc1
REMARK SMILES IDX 22 1 21 2 20 3 18 4 19 5 16 7 12 8 13 9 14 10 15 11 17 12
REMARK SMILES IDX 11 13 8 14 9 15 10 17 7 19 1 20 2 21 3 22 4 23 5 24 6 25
REMARK SMILES IDX 23 26 24 27 25 28 26 30 27 31 28 32 80 33 29 34 79 35 30 36
REMARK SMILES IDX 31 37 32 38 73 39 33 40 78 41 72 42 74 43 34 44 77 45 71 46
REMARK SMILES IDX 70 47 35 49 61 50 44 51 60 52 45 53 48 54 59 55 75 56 46 57
REMARK SMILES IDX 47 58 58 60 76 61 49 62 36 63 37 64 42 65 38 66 39 67 41 68
REMARK SMILES IDX 43 69 40 70 62 71 63 72 68 73 64 74 65 75 67 76 69 77 66 78
REMARK SMILES IDX 50 79 51 80 56 81 52 82 53 83 55 84 57 85 54 86
REMARK H PARENT 20 6 8 16 11 18 24 29 74 48 48 59
REMARK Flexibility Score: inf
ROOT
ATOM      1  C   UNL A   1      37.433  19.475  24.907  1.00  0.00     0.042 C 
ENDROOT
BRANCH   1   2
ATOM      2  C   UNL A   1      36.113  20.243  24.942  1.00  0.00     0.117 C 
BRANCH   2   3
ATOM      3  N   UNL A   1      36.081  21.455  25.745  1.00  0.00    -0.355 N 
ATOM      4  C   UNL A   1      35.169  22.462  25.854  1.00  0.00     0.230 C 
ATOM      5  O   UNL A   1      35.297  23.194  26.841  1.00  0.00    -0.274 OA
ATOM      6  H   UNL A   1      36.871  21.570  26.320  1.00  0.00     0.163 HD
BRANCH   4   7
ATOM      7  C   UNL A   1      34.118  22.761  24.774  1.00  0.00     0.092 C 
ATOM      8  C   UNL A   1      33.399  24.120  24.893  1.00  0.00     0.127 C 
ATOM      9  C   UNL A   1      33.426  24.760  23.506  1.00  0.00     0.186 C 
ATOM     10  O   UNL A   1      33.988  23.790  22.620  1.00  0.00    -0.378 OA
ATOM     11  C   UNL A   1      34.847  22.967  23.425  1.00  0.00     0.179 C 
ATOM     12  C   UNL A   1      33.246  21.526  24.647  1.00  0.00     0.026 C 
BRANCH   8  13
ATOM     13  N   UNL A   1      32.104  24.233  25.575  1.00  0.00    -0.332 N 
ATOM     14  N   UNL A   1      31.429  26.435  26.191  1.00  0.00    -0.335 N 
ATOM     15  C   UNL A   1      31.260  25.123  26.083  1.00  0.00     0.315 C 
ATOM     16  H   UNL A   1      30.581  26.890  26.400  1.00  0.00     0.165 HD
ATOM     17  O   UNL A   1      30.181  24.669  26.482  1.00  0.00    -0.249 OA
ATOM     18  H   UNL A   1      31.729  23.332  25.698  1.00  0.00     0.165 HD
BRANCH  14  19
ATOM     19  C   UNL A   1      32.531  27.388  26.081  1.00  0.00     0.089 C 
ATOM     20  C   UNL A   1      31.502  27.959  23.718  1.00  0.00     0.013 C 
ATOM     21  C   UNL A   1      32.329  28.430  24.927  1.00  0.00    -0.015 C 
ATOM     22  C   UNL A   1      33.693  28.944  24.410  1.00  0.00     0.013 C 
ATOM     23  C   UNL A   1      31.583  29.572  25.634  1.00  0.00     0.008 C 
ATOM     24  C   UNL A   1      32.266  29.677  26.984  1.00  0.00     0.003 C 
ATOM     25  C   UNL A   1      32.586  28.236  27.375  1.00  0.00     0.025 C 
ENDBRANCH  14  19
ENDBRANCH   8  13
ENDBRANCH   4   7
ENDBRANCH   2   3
ENDBRANCH   1   2
BRANCH   1  26
ATOM     26  C   UNL A   1      38.655  20.217  25.438  1.00  0.00     0.118 C 
BRANCH  26  27
ATOM     27  N   UNL A   1      39.789  19.337  25.655  1.00  0.00    -0.352 N 
ATOM     28  C   UNL A   1      41.090  19.580  26.008  1.00  0.00     0.251 C 
ATOM     29  H   UNL A   1      39.583  18.383  25.523  1.00  0.00     0.163 HD
ATOM     30  O   UNL A   1      41.898  18.662  25.884  1.00  0.00    -0.269 OA
BRANCH  28  31
ATOM     31  C   UNL A   1      41.565  20.886  26.538  1.00  0.00     0.039 A 
ATOM     32  C   UNL A   1      41.356  21.145  27.900  1.00  0.00     0.014 A 
ATOM     33  C   UNL A   1      42.076  21.903  25.727  1.00  0.00     0.014 A 
ATOM     34  C   UNL A   1      41.660  22.397  28.441  1.00  0.00     0.010 A 
ATOM     35  C   UNL A   1      42.446  23.135  26.283  1.00  0.00     0.010 A 
ATOM     36  C   UNL A   1      42.217  23.405  27.640  1.00  0.00    -0.014 A 
BRANCH  36  37
ATOM     37  C   UNL A   1      42.531  24.737  28.223  1.00  0.00     0.031 A 
ATOM     38  C   UNL A   1      43.928  25.082  28.668  1.00  0.00     0.074 A 
ATOM     39  C   UNL A   1      41.549  25.649  28.367  1.00  0.00     0.049 A 
ATOM     40  N   UNL A   1      44.390  26.209  29.152  1.00  0.00    -0.248 NA
ATOM     41  C   UNL A   1      44.934  24.013  28.582  1.00  0.00     0.031 C 
ATOM     42  C   UNL A   1      40.141  25.427  28.040  1.00  0.00     0.029 A 
ATOM     43  N   UNL A   1      41.587  26.942  28.824  1.00  0.00    -0.354 N 
ATOM     44  C   UNL A   1      45.730  25.982  29.438  1.00  0.00     0.074 A 
ATOM     45  C   UNL A   1      45.996  24.596  29.118  1.00  0.00     0.031 C 
ATOM     46  C   UNL A   1      39.452  26.552  28.288  1.00  0.00     0.029 A 
ATOM     47  C   UNL A   1      40.366  27.567  28.804  1.00  0.00     0.049 A 
ATOM     48  H   UNL A   1      42.411  27.379  29.139  1.00  0.00     0.167 HD
ATOM     49  C   UNL A   1      46.660  26.851  29.907  1.00  0.00     0.037 A 
ATOM     50  C   UNL A   1      40.017  28.820  29.150  1.00  0.00     0.037 A 
ATOM     51  C   UNL A   1      46.407  28.238  30.201  1.00  0.00     0.049 A 
ATOM     52  C   UNL A   1      41.072  29.784  29.613  1.00  0.00     0.074 A 
ATOM     53  C   UNL A   1      47.302  29.215  30.601  1.00  0.00     0.029 A 
ATOM     54  N   UNL A   1      45.161  28.843  30.134  1.00  0.00    -0.354 N 
ATOM     55  N   UNL A   1      42.355  29.579  29.792  1.00  0.00    -0.248 NA
ATOM     56  C   UNL A   1      40.635  31.156  29.903  1.00  0.00     0.031 C 
ATOM     57  C   UNL A   1      46.592  30.403  30.812  1.00  0.00     0.029 A 
ATOM     58  C   UNL A   1      45.260  30.175  30.508  1.00  0.00     0.049 A 
ATOM     59  H   UNL A   1      44.328  28.394  29.864  1.00  0.00     0.167 HD
ATOM     60  C   UNL A   1      42.879  30.795  30.209  1.00  0.00     0.074 A 
ATOM     61  C   UNL A   1      41.780  31.739  30.229  1.00  0.00     0.031 C 
ATOM     62  C   UNL A   1      44.156  31.101  30.546  1.00  0.00     0.037 A 
BRANCH  49  63
ATOM     63  C   UNL A   1      48.046  26.315  30.131  1.00  0.00     0.057 A 
ATOM     64  C   UNL A   1      48.444  25.785  31.366  1.00  0.00     0.134 A 
ATOM     65  C   UNL A   1      48.989  26.319  29.097  1.00  0.00     0.134 A 
ATOM     66  F   UNL A   1      47.592  25.760  32.401  1.00  0.00    -0.206 F 
ATOM     67  C   UNL A   1      49.742  25.311  31.574  1.00  0.00     0.040 A 
ATOM     68  C   UNL A   1      50.282  25.824  29.284  1.00  0.00     0.040 A 
ATOM     69  F   UNL A   1      48.674  26.804  27.886  1.00  0.00    -0.206 F 
ATOM     70  C   UNL A   1      50.663  25.326  30.529  1.00  0.00     0.006 A 
ENDBRANCH  49  63
BRANCH  50  71
ATOM     71  C   UNL A   1      38.601  29.239  29.031  1.00  0.00     0.057 A 
ATOM     72  C   UNL A   1      38.064  29.636  27.801  1.00  0.00     0.134 A 
ATOM     73  C   UNL A   1      37.741  29.216  30.136  1.00  0.00     0.134 A 
ATOM     74  F   UNL A   1      38.844  29.694  26.712  1.00  0.00    -0.206 F 
ATOM     75  C   UNL A   1      36.723  29.999  27.674  1.00  0.00     0.040 A 
ATOM     76  C   UNL A   1      36.394  29.557  30.018  1.00  0.00     0.040 A 
ATOM     77  F   UNL A   1      38.197  28.837  31.339  1.00  0.00    -0.206 F 
ATOM     78  C   UNL A   1      35.882  29.952  28.784  1.00  0.00     0.006 A 
ENDBRANCH  50  71
BRANCH  62  79
ATOM     79  C   UNL A   1      44.425  32.513  30.972  1.00  0.00     0.057 A 
ATOM     80  C   UNL A   1      44.759  33.509  30.045  1.00  0.00     0.134 A 
ATOM     81  C   UNL A   1      44.345  32.885  32.319  1.00  0.00     0.134 A 
ATOM     82  F   UNL A   1      44.866  33.215  28.740  1.00  0.00    -0.206 F 
ATOM     83  C   UNL A   1      45.032  34.818  30.447  1.00  0.00     0.040 A 
ATOM     84  C   UNL A   1      44.593  34.195  32.731  1.00  0.00     0.040 A 
ATOM     85  F   UNL A   1      44.024  31.981  33.258  1.00  0.00    -0.206 F 
ATOM     86  C   UNL A   1      44.945  35.165  31.793  1.00  0.00     0.006 A 
ENDBRANCH  62  79
ENDBRANCH  36  37
ENDBRANCH  28  31
ENDBRANCH  26  27
ENDBRANCH   1  26
TORSDOF 12
ENDMDL
MODEL 2
REMARK VINA RESULT:     -11.8      2.773      7.803
REMARK SMILES CC1(C)CCC[C@H]1NC(=O)N[C@@H]1COC[C@@]1(C)C(=O)NCCCNC(=O)c1ccc(-c2c3nc(c(-c4c(F)cccc4F)c4ccc([nH]4)c(-c4c(F)cccc4F)c4nc(c(-c5c(F)cccc5F)c5ccc2[nH]5)C=C4)C=C3)cc1
REMARK SMILES IDX 22 1 21 2 20 3 18 4 19 5 16 7 12 8 13 9 14 10 15 11 17 12
REMARK SMILES IDX 11 13 8 14 9 15 10 17 7 19 1 20 2 21 3 22 4 23 5 24 6 25
REMARK SMILES IDX 23 26 24 27 25 28 26 30 27 31 28 32 80 33 29 34 79 35 30 36
REMARK SMILES IDX 31 37 32 38 73 39 33 40 78 41 72 42 74 43 34 44 77 45 71 46
REMARK SMILES IDX 70 47 35 49 61 50 44 51 60 52 45 53 48 54 59 55 75 56 46 57
REMARK SMILES IDX 47 58 58 60 76 61 49 62 36 63 37 64 42 65 38 66 39 67 41 68
REMARK SMILES IDX 43 69 40 70 62 71 63 72 68 73 64 74 65 75 67 76 69 77 66 78
REMARK SMILES IDX 50 79 51 80 56 81 52 82 53 83 55 84 57 85 54 86
REMARK H PARENT 20 6 8 16 11 18 24 29 74 48 48 59
REMARK Flexibility Score: inf
ROOT
ATOM      1  C   UNL A   1      32.889  28.243  27.402  1.00  0.00     0.042 C 
ENDROOT
BRANCH   1   2
ATOM      2  C   UNL A   1      31.854  28.343  26.282  1.00  0.00     0.117 C 
BRANCH   2   3
ATOM      3  N   UNL A   1      32.327  28.821  24.993  1.00  0.00    -0.355 N 
ATOM      4  C   UNL A   1      32.547  28.193  23.803  1.00  0.00     0.230 C 
ATOM      5  O   UNL A   1      32.665  28.934  22.822  1.00  0.00    -0.274 OA
ATOM      6  H   UNL A   1      32.528  29.785  24.978  1.00  0.00     0.163 HD
BRANCH   4   7
ATOM      7  C   UNL A   1      32.758  26.676  23.684  1.00  0.00     0.092 C 
ATOM      8  C   UNL A   1      31.520  25.801  23.963  1.00  0.00     0.127 C 
ATOM      9  C   UNL A   1      31.430  24.783  22.828  1.00  0.00     0.186 C 
ATOM     10  O   UNL A   1      32.601  24.958  22.029  1.00  0.00    -0.378 OA
ATOM     11  C   UNL A   1      32.994  26.331  22.194  1.00  0.00     0.179 C 
ATOM     12  C   UNL A   1      34.028  26.342  24.445  1.00  0.00     0.026 C 
BRANCH   8  13
ATOM     13  N   UNL A   1      31.283  25.230  25.294  1.00  0.00    -0.332 N 
ATOM     14  N   UNL A   1      32.654  23.376  25.902  1.00  0.00    -0.335 N 
ATOM     15  C   UNL A   1      31.720  24.292  26.126  1.00  0.00     0.315 C 
ATOM     16  H   UNL A   1      32.942  22.945  26.739  1.00  0.00     0.165 HD
ATOM     17  O   UNL A   1      31.205  24.293  27.251  1.00  0.00    -0.249 OA
ATOM     18  H   UNL A   1      30.538  25.711  25.720  1.00  0.00     0.165 HD
BRANCH  14  19
ATOM     19  C   UNL A   1      33.371  22.836  24.750  1.00  0.00     0.089 C 
ATOM     20  C   UNL A   1      35.550  23.409  26.126  1.00  0.00     0.013 C 
ATOM     21  C   UNL A   1      34.880  22.533  25.054  1.00  0.00    -0.015 C 
ATOM     22  C   UNL A   1      35.724  22.617  23.760  1.00  0.00     0.013 C 
ATOM     23  C   UNL A   1      34.837  21.078  25.547  1.00  0.00     0.008 C 
ATOM     24  C   UNL A   1      33.836  20.407  24.626  1.00  0.00     0.003 C 
ATOM     25  C   UNL A   1      32.759  21.463  24.382  1.00  0.00     0.025 C 
ENDBRANCH  14  19
ENDBRANCH   8  13
ENDBRANCH   4   7
ENDBRANCH   2   3
ENDBRANCH   1   2
BRANCH   1  26
ATOM     26  C   UNL A   1      34.215  28.953  27.155  1.00  0.00     0.118 C 
BRANCH  26  27
ATOM     27  N   UNL A   1      34.455  30.027  28.100  1.00  0.00    -0.352 N 
ATOM     28  C   UNL A   1      35.553  30.373  28.844  1.00  0.00     0.251 C 
ATOM     29  H   UNL A   1      33.681  30.622  28.232  1.00  0.00     0.163 HD
ATOM     30  O   UNL A   1      35.397  31.193  29.748  1.00  0.00    -0.269 OA
BRANCH  28  31
ATOM     31  C   UNL A   1      36.912  29.819  28.606  1.00  0.00     0.039 A 
ATOM     32  C   UNL A   1      37.613  29.327  29.715  1.00  0.00     0.014 A 
ATOM     33  C   UNL A   1      37.563  29.889  27.371  1.00  0.00     0.014 A 
ATOM     34  C   UNL A   1      38.941  28.907  29.589  1.00  0.00     0.010 A 
ATOM     35  C   UNL A   1      38.870  29.403  27.229  1.00  0.00     0.010 A 
ATOM     36  C   UNL A   1      39.582  28.932  28.342  1.00  0.00    -0.014 A 
BRANCH  36  37
ATOM     37  C   UNL A   1      40.997  28.490  28.219  1.00  0.00     0.031 A 
ATOM     38  C   UNL A   1      41.340  27.056  27.913  1.00  0.00     0.074 A 
ATOM     39  C   UNL A   1      41.991  29.383  28.393  1.00  0.00     0.049 A 
ATOM     40  N   UNL A   1      42.515  26.507  27.723  1.00  0.00    -0.248 NA
ATOM     41  C   UNL A   1      40.218  26.109  27.835  1.00  0.00     0.031 C 
ATOM     42  C   UNL A   1      41.805  30.788  28.758  1.00  0.00     0.029 A 
ATOM     43  N   UNL A   1      43.352  29.241  28.288  1.00  0.00    -0.354 N 
ATOM     44  C   UNL A   1      42.275  25.154  27.516  1.00  0.00     0.074 A 
ATOM     45  C   UNL A   1      40.848  24.957  27.651  1.00  0.00     0.031 C 
ATOM     46  C   UNL A   1      43.006  31.384  28.827  1.00  0.00     0.029 A 
ATOM     47  C   UNL A   1      44.044  30.402  28.525  1.00  0.00     0.049 A 
ATOM     48  H   UNL A   1      43.789  28.388  28.066  1.00  0.00     0.167 HD
ATOM     49  C   UNL A   1      43.159  24.168  27.223  1.00  0.00     0.037 A 
ATOM     50  C   UNL A   1      45.366  30.656  28.494  1.00  0.00     0.037 A 
ATOM     51  C   UNL A   1      44.577  24.363  27.062  1.00  0.00     0.049 A 
ATOM     52  C   UNL A   1      46.323  29.563  28.111  1.00  0.00     0.074 A 
ATOM     53  C   UNL A   1      45.540  23.443  26.684  1.00  0.00     0.029 A 
ATOM     54  N   UNL A   1      45.237  25.564  27.276  1.00  0.00    -0.354 N 
ATOM     55  N   UNL A   1      46.072  28.308  27.830  1.00  0.00    -0.248 NA
ATOM     56  C   UNL A   1      47.743  29.928  28.024  1.00  0.00     0.031 C 
ATOM     57  C   UNL A   1      46.788  24.077  26.706  1.00  0.00     0.029 A 
ATOM     58  C   UNL A   1      46.597  25.403  27.062  1.00  0.00     0.049 A 
ATOM     59  H   UNL A   1      44.804  26.406  27.543  1.00  0.00     0.167 HD
ATOM     60  C   UNL A   1      47.298  27.733  27.526  1.00  0.00     0.074 A 
ATOM     61  C   UNL A   1      48.289  28.786  27.632  1.00  0.00     0.031 C 
ATOM     62  C   UNL A   1      47.578  26.450  27.191  1.00  0.00     0.037 A 
BRANCH  49  63
ATOM     63  C   UNL A   1      42.607  22.780  27.060  1.00  0.00     0.057 A 
ATOM     64  C   UNL A   1      42.216  22.004  28.159  1.00  0.00     0.134 A 
ATOM     65  C   UNL A   1      42.453  22.217  25.787  1.00  0.00     0.134 A 
ATOM     66  F   UNL A   1      42.347  22.479  29.407  1.00  0.00    -0.206 F 
ATOM     67  C   UNL A   1      41.727  20.705  28.001  1.00  0.00     0.040 A 
ATOM     68  C   UNL A   1      41.940  20.930  25.613  1.00  0.00     0.040 A 
ATOM     69  F   UNL A   1      42.798  22.907  24.689  1.00  0.00    -0.206 F 
ATOM     70  C   UNL A   1      41.584  20.167  26.724  1.00  0.00     0.006 A 
ENDBRANCH  49  63
BRANCH  50  71
ATOM     71  C   UNL A   1      45.851  32.022  28.801  1.00  0.00     0.057 A 
ATOM     72  C   UNL A   1      45.942  32.999  27.803  1.00  0.00     0.134 A 
ATOM     73  C   UNL A   1      46.196  32.394  30.106  1.00  0.00     0.134 A 
ATOM     74  F   UNL A   1      45.641  32.695  26.532  1.00  0.00    -0.206 F 
ATOM     75  C   UNL A   1      46.365  34.297  28.091  1.00  0.00     0.040 A 
ATOM     76  C   UNL A   1      46.601  33.694  30.410  1.00  0.00     0.040 A 
ATOM     77  F   UNL A   1      46.121  31.502  31.105  1.00  0.00    -0.206 F 
ATOM     78  C   UNL A   1      46.688  34.649  29.400  1.00  0.00     0.006 A 
ENDBRANCH  50  71
BRANCH  62  79
ATOM     79  C   UNL A   1      49.016  26.117  26.924  1.00  0.00     0.057 A 
ATOM     80  C   UNL A   1      49.863  25.650  27.937  1.00  0.00     0.134 A 
ATOM     81  C   UNL A   1      49.560  26.259  25.641  1.00  0.00     0.134 A 
ATOM     82  F   UNL A   1      49.407  25.507  29.192  1.00  0.00    -0.206 F 
ATOM     83  C   UNL A   1      51.207  25.364  27.691  1.00  0.00     0.040 A 
ATOM     84  C   UNL A   1      50.896  25.953  25.377  1.00  0.00     0.040 A 
ATOM     85  F   UNL A   1      48.802  26.695  24.624  1.00  0.00    -0.206 F 
ATOM     86  C   UNL A   1      51.725  25.511  26.406  1.00  0.00     0.006 A 
ENDBRANCH  62  79
ENDBRANCH  36  37
ENDBRANCH  28  31
ENDBRANCH  26  27
ENDBRANCH   1  26
TORSDOF 12
ENDMDL
MODEL 3
REMARK VINA RESULT:     -11.8      0.117      1.604
REMARK SMILES CC1(C)CCC[C@H]1NC(=O)N[C@@H]1COC[C@@]1(C)C(=O)NCCCNC(=O)c1ccc(-c2c3nc(c(-c4c(F)cccc4F)c4ccc([nH]4)c(-c4c(F)cccc4F)c4nc(c(-c5c(F)cccc5F)c5ccc2[nH]5)C=C4)C=C3)cc1
REMARK SMILES IDX 22 1 21 2 20 3 18 4 19 5 16 7 12 8 13 9 14 10 15 11 17 12
REMARK SMILES IDX 11 13 8 14 9 15 10 17 7 19 1 20 2 21 3 22 4 23 5 24 6 25
REMARK SMILES IDX 23 26 24 27 25 28 26 30 27 31 28 32 80 33 29 34 79 35 30 36
REMARK SMILES IDX 31 37 32 38 73 39 33 40 78 41 72 42 74 43 34 44 77 45 71 46
REMARK SMILES IDX 70 47 35 49 61 50 44 51 60 52 45 53 48 54 59 55 75 56 46 57
REMARK SMILES IDX 47 58 58 60 76 61 49 62 36 63 37 64 42 65 38 66 39 67 41 68
REMARK SMILES IDX 43 69 40 70 62 71 63 72 68 73 64 74 65 75 67 76 69 77 66 78
REMARK SMILES IDX 50 79 51 80 56 81 52 82 53 83 55 84 57 85 54 86
REMARK H PARENT 20 6 8 16 11 18 24 29 74 48 48 59
REMARK Flexibility Score: inf
ROOT
ATOM      1  C   UNL A   1      37.397  19.416  24.938  1.00  0.00     0.042 C 
ENDROOT
BRANCH   1   2
ATOM      2  C   UNL A   1      36.083  20.196  24.909  1.00  0.00     0.117 C 
BRANCH   2   3
ATOM      3  N   UNL A   1      35.943  21.281  25.867  1.00  0.00    -0.355 N 
ATOM      4  C   UNL A   1      35.003  22.256  26.023  1.00  0.00     0.230 C 
ATOM      5  O   UNL A   1      35.015  22.840  27.111  1.00  0.00    -0.274 OA
ATOM      6  H   UNL A   1      36.669  21.319  26.531  1.00  0.00     0.163 HD
BRANCH   4   7
ATOM      7  C   UNL A   1      34.061  22.698  24.893  1.00  0.00     0.092 C 
ATOM      8  C   UNL A   1      33.410  24.085  25.065  1.00  0.00     0.127 C 
ATOM      9  C   UNL A   1      33.583  24.824  23.740  1.00  0.00     0.186 C 
ATOM     10  O   UNL A   1      34.161  23.891  22.825  1.00  0.00    -0.378 OA
ATOM     11  C   UNL A   1      34.906  22.959  23.625  1.00  0.00     0.179 C 
ATOM     12  C   UNL A   1      33.135  21.531  24.603  1.00  0.00     0.026 C 
BRANCH   8  13
ATOM     13  N   UNL A   1      32.072  24.225  25.653  1.00  0.00    -0.332 N 
ATOM     14  N   UNL A   1      31.382  26.445  26.178  1.00  0.00    -0.335 N 
ATOM     15  C   UNL A   1      31.206  25.133  26.085  1.00  0.00     0.315 C 
ATOM     16  H   UNL A   1      30.527  26.913  26.320  1.00  0.00     0.165 HD
ATOM     17  O   UNL A   1      30.097  24.699  26.416  1.00  0.00    -0.249 OA
ATOM     18  H   UNL A   1      31.679  23.331  25.768  1.00  0.00     0.165 HD
BRANCH  14  19
ATOM     19  C   UNL A   1      32.500  27.384  26.127  1.00  0.00     0.089 C 
ATOM     20  C   UNL A   1      31.609  27.961  23.710  1.00  0.00     0.013 C 
ATOM     21  C   UNL A   1      32.374  28.425  24.961  1.00  0.00    -0.015 C 
ATOM     22  C   UNL A   1      33.771  28.921  24.519  1.00  0.00     0.013 C 
ATOM     23  C   UNL A   1      31.604  29.579  25.624  1.00  0.00     0.008 C 
ATOM     24  C   UNL A   1      32.214  29.680  27.008  1.00  0.00     0.003 C 
ATOM     25  C   UNL A   1      32.494  28.236  27.420  1.00  0.00     0.025 C 
ENDBRANCH  14  19
ENDBRANCH   8  13
ENDBRANCH   4   7
ENDBRANCH   2   3
ENDBRANCH   1   2
BRANCH   1  26
ATOM     26  C   UNL A   1      38.608  20.162  25.488  1.00  0.00     0.118 C 
BRANCH  26  27
ATOM     27  N   UNL A   1      39.754  19.295  25.681  1.00  0.00    -0.352 N 
ATOM     28  C   UNL A   1      41.060  19.552  26.010  1.00  0.00     0.251 C 
ATOM     29  H   UNL A   1      39.556  18.339  25.552  1.00  0.00     0.163 HD
ATOM     30  O   UNL A   1      41.875  18.642  25.870  1.00  0.00    -0.269 OA
BRANCH  28  31
ATOM     31  C   UNL A   1      41.530  20.861  26.533  1.00  0.00     0.039 A 
ATOM     32  C   UNL A   1      41.398  21.093  27.910  1.00  0.00     0.014 A 
ATOM     33  C   UNL A   1      41.964  21.905  25.711  1.00  0.00     0.014 A 
ATOM     34  C   UNL A   1      41.700  22.345  28.453  1.00  0.00     0.010 A 
ATOM     35  C   UNL A   1      42.333  23.138  26.265  1.00  0.00     0.010 A 
ATOM     36  C   UNL A   1      42.180  23.380  27.638  1.00  0.00    -0.014 A 
BRANCH  36  37
ATOM     37  C   UNL A   1      42.492  24.711  28.225  1.00  0.00     0.031 A 
ATOM     38  C   UNL A   1      43.891  25.059  28.661  1.00  0.00     0.074 A 
ATOM     39  C   UNL A   1      41.508  25.618  28.378  1.00  0.00     0.049 A 
ATOM     40  N   UNL A   1      44.352  26.187  29.146  1.00  0.00    -0.248 NA
ATOM     41  C   UNL A   1      44.900  23.995  28.564  1.00  0.00     0.031 C 
ATOM     42  C   UNL A   1      40.098  25.392  28.060  1.00  0.00     0.029 A 
ATOM     43  N   UNL A   1      41.544  26.910  28.841  1.00  0.00    -0.354 N 
ATOM     44  C   UNL A   1      45.695  25.964  29.422  1.00  0.00     0.074 A 
ATOM     45  C   UNL A   1      45.964  24.580  29.095  1.00  0.00     0.031 C 
ATOM     46  C   UNL A   1      39.407  26.513  28.317  1.00  0.00     0.029 A 
ATOM     47  C   UNL A   1      40.320  27.530  28.831  1.00  0.00     0.049 A 
ATOM     48  H   UNL A   1      42.369  27.349  29.151  1.00  0.00     0.167 HD
ATOM     49  C   UNL A   1      46.624  26.834  29.888  1.00  0.00     0.037 A 
ATOM     50  C   UNL A   1      39.969  28.781  29.185  1.00  0.00     0.037 A 
ATOM     51  C   UNL A   1      46.368  28.219  30.190  1.00  0.00     0.049 A 
ATOM     52  C   UNL A   1      41.023  29.746  29.644  1.00  0.00     0.074 A 
ATOM     53  C   UNL A   1      47.262  29.198  30.588  1.00  0.00     0.029 A 
ATOM     54  N   UNL A   1      45.119  28.820  30.134  1.00  0.00    -0.354 N 
ATOM     55  N   UNL A   1      42.308  29.546  29.814  1.00  0.00    -0.248 NA
ATOM     56  C   UNL A   1      40.582  31.115  29.942  1.00  0.00     0.031 C 
ATOM     57  C   UNL A   1      46.548  30.383  30.808  1.00  0.00     0.029 A 
ATOM     58  C   UNL A   1      45.215  30.150  30.512  1.00  0.00     0.049 A 
ATOM     59  H   UNL A   1      44.286  28.369  29.867  1.00  0.00     0.167 HD
ATOM     60  C   UNL A   1      42.830  30.762  30.232  1.00  0.00     0.074 A 
ATOM     61  C   UNL A   1      41.727  31.701  30.263  1.00  0.00     0.031 C 
ATOM     62  C   UNL A   1      44.108  31.072  30.562  1.00  0.00     0.037 A 
BRANCH  49  63
ATOM     63  C   UNL A   1      48.014  26.303  30.101  1.00  0.00     0.057 A 
ATOM     64  C   UNL A   1      48.969  26.294  29.076  1.00  0.00     0.134 A 
ATOM     65  C   UNL A   1      48.405  25.806  31.351  1.00  0.00     0.134 A 
ATOM     66  F   UNL A   1      48.656  26.747  27.852  1.00  0.00    -0.206 F 
ATOM     67  C   UNL A   1      50.251  25.777  29.275  1.00  0.00     0.040 A 
ATOM     68  C   UNL A   1      49.692  25.311  31.570  1.00  0.00     0.040 A 
ATOM     69  F   UNL A   1      47.545  25.793  32.380  1.00  0.00    -0.206 F 
ATOM     70  C   UNL A   1      50.616  25.287  30.527  1.00  0.00     0.006 A 
ENDBRANCH  49  63
BRANCH  50  71
ATOM     71  C   UNL A   1      38.550  29.194  29.077  1.00  0.00     0.057 A 
ATOM     72  C   UNL A   1      37.702  29.169  30.189  1.00  0.00     0.134 A 
ATOM     73  C   UNL A   1      38.020  29.661  27.867  1.00  0.00     0.134 A 
ATOM     74  F   UNL A   1      38.150  28.715  31.369  1.00  0.00    -0.206 F 
ATOM     75  C   UNL A   1      36.374  29.589  30.104  1.00  0.00     0.040 A 
ATOM     76  C   UNL A   1      36.700  30.102  27.773  1.00  0.00     0.040 A 
ATOM     77  F   UNL A   1      38.787  29.715  26.769  1.00  0.00    -0.206 F 
ATOM     78  C   UNL A   1      35.872  30.065  28.894  1.00  0.00     0.006 A 
ENDBRANCH  50  71
BRANCH  62  79
ATOM     79  C   UNL A   1      44.374  32.483  30.991  1.00  0.00     0.057 A 
ATOM     80  C   UNL A   1      44.315  32.865  32.338  1.00  0.00     0.134 A 
ATOM     81  C   UNL A   1      44.699  33.471  30.053  1.00  0.00     0.134 A 
ATOM     82  F   UNL A   1      43.996  31.970  33.285  1.00  0.00    -0.206 F 
ATOM     83  C   UNL A   1      44.540  34.185  32.733  1.00  0.00     0.040 A 
ATOM     84  C   UNL A   1      44.949  34.789  30.438  1.00  0.00     0.040 A 
ATOM     85  F   UNL A   1      44.778  33.171  28.748  1.00  0.00    -0.206 F 
ATOM     86  C   UNL A   1      44.863  35.151  31.781  1.00  0.00     0.006 A 
ENDBRANCH  62  79
ENDBRANCH  36  37
ENDBRANCH  28  31
ENDBRANCH  26  27
ENDBRANCH   1  26
TORSDOF 12
ENDMDL
