MODEL 1
REMARK VINA RESULT:     -11.0      0.000      0.000
REMARK SMILES Cc1nc(SCc2ccccc2)[nH]c(=O)c1CCC(=O)NCCCNC(=O)c1ccc(-c2c3nc(c(-c4c(F)cccc4F)c4ccc([nH]4)c(-c4c(F)cccc4F)c4nc(c(-c5c(F)cccc5F)c5ccc2[nH]5)C=C4)C=C3)cc1
REMARK SMILES IDX 19 1 20 2 21 3 18 5 17 6 16 7 1 8 2 9 3 10 4 11 14 12 13 13
REMARK SMILES IDX 15 14 5 16 6 17 7 18 8 19 12 20 9 21 11 22 10 23 22 24 23 25
REMARK SMILES IDX 24 26 25 27 26 28 27 30 28 31 29 32 81 33 30 34 80 35 31 36
REMARK SMILES IDX 32 37 33 38 74 39 34 40 79 41 73 42 75 43 35 44 78 45 72 46
REMARK SMILES IDX 71 47 36 49 62 50 45 51 61 52 46 53 49 54 60 55 76 56 47 57
REMARK SMILES IDX 48 58 59 60 77 61 50 62 37 63 38 64 43 65 39 66 40 67 42 68
REMARK SMILES IDX 44 69 41 70 63 71 64 72 69 73 65 74 66 75 68 76 70 77 67 78
REMARK SMILES IDX 51 79 52 80 57 81 53 82 54 83 56 84 58 85 55 86
REMARK H PARENT 21 4 13 15 25 29 75 48 49 59
REMARK Flexibility Score: inf
ROOT
ATOM      1  C   UNL A   1      31.361  28.726  22.759  1.00  0.00     0.220 C 
ATOM      2  O   UNL A   1      30.369  28.963  22.066  1.00  0.00    -0.275 OA
ATOM      3  N   UNL A   1      31.544  29.462  23.889  1.00  0.00    -0.356 N 
ATOM      4  H   UNL A   1      30.798  30.068  24.098  1.00  0.00     0.163 HD
ENDROOT
BRANCH   1   5
ATOM      5  C   UNL A   1      32.309  27.607  22.378  1.00  0.00     0.105 C 
BRANCH   5   6
ATOM      6  C   UNL A   1      31.583  26.373  21.811  1.00  0.00     0.053 C 
BRANCH   6   7
ATOM      7  C   UNL A   1      31.668  25.214  22.771  1.00  0.00     0.039 A 
ATOM      8  C   UNL A   1      29.707  25.843  24.198  1.00  0.00     0.067 C 
ATOM      9  C   UNL A   1      30.904  24.990  23.859  1.00  0.00     0.049 A 
ATOM     10  N   UNL A   1      31.250  24.096  24.855  1.00  0.00    -0.229 NA
ATOM     11  C   UNL A   1      32.388  23.505  24.741  1.00  0.00     0.168 A 
ATOM     12  C   UNL A   1      32.753  24.238  22.526  1.00  0.00     0.254 A 
ATOM     13  N   UNL A   1      33.130  23.517  23.612  1.00  0.00    -0.301 N 
ATOM     14  O   UNL A   1      33.308  24.131  21.441  1.00  0.00    -0.269 OA
ATOM     15  H   UNL A   1      33.962  22.992  23.576  1.00  0.00     0.172 HD
BRANCH  11  16
ATOM     16  S   UNL A   1      33.196  22.655  26.016  1.00  0.00    -0.083 SA
BRANCH  16  17
ATOM     17  C   UNL A   1      34.701  23.618  26.259  1.00  0.00     0.113 C 
BRANCH  17  18
ATOM     18  C   UNL A   1      36.039  23.017  25.865  1.00  0.00    -0.038 A 
ATOM     19  C   UNL A   1      36.066  21.739  25.278  1.00  0.00     0.004 A 
ATOM     20  C   UNL A   1      37.270  23.590  26.214  1.00  0.00     0.004 A 
ATOM     21  C   UNL A   1      37.271  21.051  25.095  1.00  0.00     0.000 A 
ATOM     22  C   UNL A   1      38.474  22.901  26.043  1.00  0.00     0.000 A 
ATOM     23  C   UNL A   1      38.474  21.625  25.495  1.00  0.00     0.000 A 
ENDBRANCH  17  18
ENDBRANCH  16  17
ENDBRANCH  11  16
ENDBRANCH   6   7
ENDBRANCH   5   6
ENDBRANCH   1   5
BRANCH   3  24
ATOM     24  C   UNL A   1      32.641  29.516  24.849  1.00  0.00     0.117 C 
BRANCH  24  25
ATOM     25  C   UNL A   1      32.656  28.261  25.739  1.00  0.00     0.042 C 
BRANCH  25  26
ATOM     26  C   UNL A   1      33.591  28.361  26.938  1.00  0.00     0.118 C 
BRANCH  26  27
ATOM     27  N   UNL A   1      33.638  29.702  27.493  1.00  0.00    -0.352 N 
ATOM     28  C   UNL A   1      34.558  30.460  28.167  1.00  0.00     0.251 C 
ATOM     29  H   UNL A   1      32.794  30.189  27.349  1.00  0.00     0.163 HD
ATOM     30  O   UNL A   1      34.156  31.573  28.524  1.00  0.00    -0.269 OA
BRANCH  28  31
ATOM     31  C   UNL A   1      35.967  30.079  28.509  1.00  0.00     0.039 A 
ATOM     32  C   UNL A   1      36.915  30.217  27.474  1.00  0.00     0.014 A 
ATOM     33  C   UNL A   1      36.417  29.550  29.719  1.00  0.00     0.014 A 
ATOM     34  C   UNL A   1      38.249  29.813  27.631  1.00  0.00     0.010 A 
ATOM     35  C   UNL A   1      37.767  29.188  29.895  1.00  0.00     0.010 A 
ATOM     36  C   UNL A   1      38.696  29.294  28.850  1.00  0.00    -0.014 A 
BRANCH  36  37
ATOM     37  C   UNL A   1      40.110  28.850  29.035  1.00  0.00     0.031 A 
ATOM     38  C   UNL A   1      41.139  29.779  29.634  1.00  0.00     0.074 A 
ATOM     39  C   UNL A   1      40.494  27.621  28.634  1.00  0.00     0.049 A 
ATOM     40  N   UNL A   1      42.428  29.602  29.791  1.00  0.00    -0.248 NA
ATOM     41  C   UNL A   1      40.657  31.090  30.093  1.00  0.00     0.031 C 
ATOM     42  C   UNL A   1      39.623  26.623  28.012  1.00  0.00     0.029 A 
ATOM     43  N   UNL A   1      41.722  27.006  28.680  1.00  0.00    -0.354 N 
ATOM     44  C   UNL A   1      42.914  30.788  30.331  1.00  0.00     0.074 A 
ATOM     45  C   UNL A   1      41.786  31.688  30.443  1.00  0.00     0.031 C 
ATOM     46  C   UNL A   1      40.336  25.516  27.753  1.00  0.00     0.029 A 
ATOM     47  C   UNL A   1      41.723  25.735  28.155  1.00  0.00     0.049 A 
ATOM     48  H   UNL A   1      42.525  27.434  29.054  1.00  0.00     0.167 HD
ATOM     49  C   UNL A   1      44.178  31.098  30.715  1.00  0.00     0.037 A 
ATOM     50  C   UNL A   1      42.726  24.848  28.002  1.00  0.00     0.037 A 
ATOM     51  C   UNL A   1      45.296  30.191  30.657  1.00  0.00     0.049 A 
ATOM     52  C   UNL A   1      44.114  25.204  28.458  1.00  0.00     0.074 A 
ATOM     53  C   UNL A   1      46.597  30.395  31.089  1.00  0.00     0.029 A 
ATOM     54  N   UNL A   1      45.245  28.905  30.140  1.00  0.00    -0.354 N 
ATOM     55  N   UNL A   1      44.545  26.314  29.007  1.00  0.00    -0.248 NA
ATOM     56  C   UNL A   1      45.154  24.180  28.276  1.00  0.00     0.031 C 
ATOM     57  C   UNL A   1      47.340  29.244  30.806  1.00  0.00     0.029 A 
ATOM     58  C   UNL A   1      46.494  28.309  30.232  1.00  0.00     0.049 A 
ATOM     59  H   UNL A   1      44.441  28.479  29.765  1.00  0.00     0.167 HD
ATOM     60  C   UNL A   1      45.897  26.115  29.254  1.00  0.00     0.074 A 
ATOM     61  C   UNL A   1      46.213  24.773  28.812  1.00  0.00     0.031 C 
ATOM     62  C   UNL A   1      46.797  26.971  29.796  1.00  0.00     0.037 A 
BRANCH  49  63
ATOM     63  C   UNL A   1      44.424  32.484  31.242  1.00  0.00     0.057 A 
ATOM     64  C   UNL A   1      44.753  33.550  30.396  1.00  0.00     0.134 A 
ATOM     65  C   UNL A   1      44.293  32.763  32.609  1.00  0.00     0.134 A 
ATOM     66  F   UNL A   1      44.901  33.350  29.078  1.00  0.00    -0.206 F 
ATOM     67  C   UNL A   1      44.974  34.836  30.892  1.00  0.00     0.040 A 
ATOM     68  C   UNL A   1      44.485  34.050  33.114  1.00  0.00     0.040 A 
ATOM     69  F   UNL A   1      43.967  31.792  33.476  1.00  0.00    -0.206 F 
ATOM     70  C   UNL A   1      44.835  35.090  32.255  1.00  0.00     0.006 A 
ENDBRANCH  49  63
BRANCH  50  71
ATOM     71  C   UNL A   1      42.450  23.516  27.406  1.00  0.00     0.057 A 
ATOM     72  C   UNL A   1      42.113  22.423  28.213  1.00  0.00     0.134 A 
ATOM     73  C   UNL A   1      42.525  23.302  26.026  1.00  0.00     0.134 A 
ATOM     74  F   UNL A   1      42.049  22.562  29.546  1.00  0.00    -0.206 F 
ATOM     75  C   UNL A   1      41.873  21.160  27.669  1.00  0.00     0.040 A 
ATOM     76  C   UNL A   1      42.265  22.050  25.467  1.00  0.00     0.040 A 
ATOM     77  F   UNL A   1      42.841  24.310  25.200  1.00  0.00    -0.206 F 
ATOM     78  C   UNL A   1      41.944  20.972  26.290  1.00  0.00     0.006 A 
ENDBRANCH  50  71
BRANCH  62  79
ATOM     79  C   UNL A   1      48.201  26.472  29.970  1.00  0.00     0.057 A 
ATOM     80  C   UNL A   1      49.169  26.629  28.970  1.00  0.00     0.134 A 
ATOM     81  C   UNL A   1      48.598  25.856  31.163  1.00  0.00     0.134 A 
ATOM     82  F   UNL A   1      48.850  27.200  27.798  1.00  0.00    -0.206 F 
ATOM     83  C   UNL A   1      50.476  26.171  29.142  1.00  0.00     0.040 A 
ATOM     84  C   UNL A   1      49.908  25.414  31.356  1.00  0.00     0.040 A 
ATOM     85  F   UNL A   1      47.721  25.680  32.163  1.00  0.00    -0.206 F 
ATOM     86  C   UNL A   1      50.850  25.566  30.341  1.00  0.00     0.006 A 
ENDBRANCH  62  79
ENDBRANCH  36  37
ENDBRANCH  28  31
ENDBRANCH  26  27
ENDBRANCH  25  26
ENDBRANCH  24  25
ENDBRANCH   3  24
TORSDOF 15
ENDMDL
MODEL 2
REMARK VINA RESULT:     -10.9      2.588      6.915
REMARK SMILES Cc1nc(SCc2ccccc2)[nH]c(=O)c1CCC(=O)NCCCNC(=O)c1ccc(-c2c3nc(c(-c4c(F)cccc4F)c4ccc([nH]4)c(-c4c(F)cccc4F)c4nc(c(-c5c(F)cccc5F)c5ccc2[nH]5)C=C4)C=C3)cc1
REMARK SMILES IDX 19 1 20 2 21 3 18 5 17 6 16 7 1 8 2 9 3 10 4 11 14 12 13 13
REMARK SMILES IDX 15 14 5 16 6 17 7 18 8 19 12 20 9 21 11 22 10 23 22 24 23 25
REMARK SMILES IDX 24 26 25 27 26 28 27 30 28 31 29 32 81 33 30 34 80 35 31 36
REMARK SMILES IDX 32 37 33 38 74 39 34 40 79 41 73 42 75 43 35 44 78 45 72 46
REMARK SMILES IDX 71 47 36 49 62 50 45 51 61 52 46 53 49 54 60 55 76 56 47 57
REMARK SMILES IDX 48 58 59 60 77 61 50 62 37 63 38 64 43 65 39 66 40 67 42 68
REMARK SMILES IDX 44 69 41 70 63 71 64 72 69 73 65 74 66 75 68 76 70 77 67 78
REMARK SMILES IDX 51 79 52 80 57 81 53 82 54 83 56 84 58 85 55 86
REMARK H PARENT 21 4 13 15 25 29 75 48 49 59
REMARK Flexibility Score: inf
ROOT
ATOM      1  C   UNL A   1      31.805  28.356  27.228  1.00  0.00     0.220 C 
ATOM      2  O   UNL A   1      31.016  27.805  27.999  1.00  0.00    -0.275 OA
ATOM      3  N   UNL A   1      32.979  28.819  27.738  1.00  0.00    -0.356 N 
ATOM      4  H   UNL A   1      33.128  28.583  28.681  1.00  0.00     0.163 HD
ENDROOT
BRANCH   1   5
ATOM      5  C   UNL A   1      31.486  28.456  25.750  1.00  0.00     0.105 C 
BRANCH   5   6
ATOM      6  C   UNL A   1      31.051  27.111  25.140  1.00  0.00     0.053 C 
BRANCH   6   7
ATOM      7  C   UNL A   1      32.204  26.141  25.102  1.00  0.00     0.039 A 
ATOM      8  C   UNL A   1      33.652  27.438  23.521  1.00  0.00     0.067 C 
ATOM      9  C   UNL A   1      33.325  26.226  24.356  1.00  0.00     0.049 A 
ATOM     10  N   UNL A   1      34.169  25.154  24.136  1.00  0.00    -0.229 NA
ATOM     11  C   UNL A   1      33.815  24.019  24.631  1.00  0.00     0.168 A 
ATOM     12  C   UNL A   1      32.068  24.926  25.936  1.00  0.00     0.254 A 
ATOM     13  N   UNL A   1      32.825  23.872  25.539  1.00  0.00    -0.301 N 
ATOM     14  O   UNL A   1      31.287  24.858  26.874  1.00  0.00    -0.269 OA
ATOM     15  H   UNL A   1      32.650  22.981  25.921  1.00  0.00     0.172 HD
BRANCH  11  16
ATOM     16  S   UNL A   1      34.488  22.488  24.181  1.00  0.00    -0.083 SA
BRANCH  16  17
ATOM     17  C   UNL A   1      33.399  21.306  24.999  1.00  0.00     0.113 C 
BRANCH  17  18
ATOM     18  C   UNL A   1      33.388  19.861  24.533  1.00  0.00    -0.038 A 
ATOM     19  C   UNL A   1      34.506  19.050  24.797  1.00  0.00     0.004 A 
ATOM     20  C   UNL A   1      32.395  19.334  23.694  1.00  0.00     0.004 A 
ATOM     21  C   UNL A   1      34.641  17.787  24.208  1.00  0.00     0.000 A 
ATOM     22  C   UNL A   1      32.532  18.078  23.096  1.00  0.00     0.000 A 
ATOM     23  C   UNL A   1      33.662  17.309  23.342  1.00  0.00     0.000 A 
ENDBRANCH  17  18
ENDBRANCH  16  17
ENDBRANCH  11  16
ENDBRANCH   6   7
ENDBRANCH   5   6
ENDBRANCH   1   5
BRANCH   3  24
ATOM     24  C   UNL A   1      34.057  29.600  27.142  1.00  0.00     0.117 C 
BRANCH  24  25
ATOM     25  C   UNL A   1      33.905  31.095  27.477  1.00  0.00     0.042 C 
BRANCH  25  26
ATOM     26  C   UNL A   1      35.101  31.692  28.207  1.00  0.00     0.118 C 
BRANCH  26  27
ATOM     27  N   UNL A   1      35.260  31.151  29.545  1.00  0.00    -0.352 N 
ATOM     28  C   UNL A   1      36.196  30.397  30.202  1.00  0.00     0.251 C 
ATOM     29  H   UNL A   1      34.502  31.386  30.129  1.00  0.00     0.163 HD
ATOM     30  O   UNL A   1      35.904  30.097  31.364  1.00  0.00    -0.269 OA
BRANCH  28  31
ATOM     31  C   UNL A   1      37.506  29.911  29.659  1.00  0.00     0.039 A 
ATOM     32  C   UNL A   1      38.458  29.497  30.613  1.00  0.00     0.014 A 
ATOM     33  C   UNL A   1      37.895  29.886  28.319  1.00  0.00     0.014 A 
ATOM     34  C   UNL A   1      39.754  29.104  30.246  1.00  0.00     0.010 A 
ATOM     35  C   UNL A   1      39.179  29.445  27.944  1.00  0.00     0.010 A 
ATOM     36  C   UNL A   1      40.133  29.069  28.901  1.00  0.00    -0.014 A 
BRANCH  36  37
ATOM     37  C   UNL A   1      41.510  28.663  28.490  1.00  0.00     0.031 A 
ATOM     38  C   UNL A   1      41.805  27.238  28.084  1.00  0.00     0.074 A 
ATOM     39  C   UNL A   1      42.518  29.558  28.513  1.00  0.00     0.049 A 
ATOM     40  N   UNL A   1      42.953  26.680  27.783  1.00  0.00    -0.248 NA
ATOM     41  C   UNL A   1      40.662  26.315  28.036  1.00  0.00     0.031 C 
ATOM     42  C   UNL A   1      42.394  30.961  28.910  1.00  0.00     0.029 A 
ATOM     43  N   UNL A   1      43.850  29.417  28.205  1.00  0.00    -0.354 N 
ATOM     44  C   UNL A   1      42.675  25.338  27.547  1.00  0.00     0.074 A 
ATOM     45  C   UNL A   1      41.256  25.160  27.772  1.00  0.00     0.031 C 
ATOM     46  C   UNL A   1      43.593  31.556  28.803  1.00  0.00     0.029 A 
ATOM     47  C   UNL A   1      44.579  30.571  28.366  1.00  0.00     0.049 A 
ATOM     48  H   UNL A   1      44.245  28.570  27.898  1.00  0.00     0.167 HD
ATOM     49  C   UNL A   1      43.515  24.346  27.160  1.00  0.00     0.037 A 
ATOM     50  C   UNL A   1      45.893  30.812  28.192  1.00  0.00     0.037 A 
ATOM     51  C   UNL A   1      44.918  24.525  26.882  1.00  0.00     0.049 A 
ATOM     52  C   UNL A   1      46.802  29.703  27.740  1.00  0.00     0.074 A 
ATOM     53  C   UNL A   1      45.832  23.592  26.418  1.00  0.00     0.029 A 
ATOM     54  N   UNL A   1      45.608  25.717  27.035  1.00  0.00    -0.354 N 
ATOM     55  N   UNL A   1      46.513  28.452  27.479  1.00  0.00    -0.248 NA
ATOM     56  C   UNL A   1      48.221  30.043  27.555  1.00  0.00     0.031 C 
ATOM     57  C   UNL A   1      47.082  24.213  26.320  1.00  0.00     0.029 A 
ATOM     58  C   UNL A   1      46.939  25.541  26.686  1.00  0.00     0.049 A 
ATOM     59  H   UNL A   1      45.213  26.563  27.344  1.00  0.00     0.167 HD
ATOM     60  C   UNL A   1      47.705  27.861  27.080  1.00  0.00     0.074 A 
ATOM     61  C   UNL A   1      48.719  28.894  27.116  1.00  0.00     0.031 C 
ATOM     62  C   UNL A   1      47.939  26.576  26.719  1.00  0.00     0.037 A 
BRANCH  49  63
ATOM     63  C   UNL A   1      42.939  22.966  27.009  1.00  0.00     0.057 A 
ATOM     64  C   UNL A   1      42.704  22.396  25.751  1.00  0.00     0.134 A 
ATOM     65  C   UNL A   1      42.652  22.183  28.135  1.00  0.00     0.134 A 
ATOM     66  F   UNL A   1      42.951  23.094  24.633  1.00  0.00    -0.206 F 
ATOM     67  C   UNL A   1      42.175  21.111  25.619  1.00  0.00     0.040 A 
ATOM     68  C   UNL A   1      42.148  20.887  28.015  1.00  0.00     0.040 A 
ATOM     69  F   UNL A   1      42.865  22.661  29.370  1.00  0.00    -0.206 F 
ATOM     70  C   UNL A   1      41.900  20.350  26.754  1.00  0.00     0.006 A 
ENDBRANCH  49  63
BRANCH  50  71
ATOM     71  C   UNL A   1      46.433  32.176  28.427  1.00  0.00     0.057 A 
ATOM     72  C   UNL A   1      46.456  33.126  27.400  1.00  0.00     0.134 A 
ATOM     73  C   UNL A   1      46.943  32.557  29.673  1.00  0.00     0.134 A 
ATOM     74  F   UNL A   1      46.003  32.811  26.177  1.00  0.00    -0.206 F 
ATOM     75  C   UNL A   1      46.980  34.405  27.599  1.00  0.00     0.040 A 
ATOM     76  C   UNL A   1      47.448  33.840  29.892  1.00  0.00     0.040 A 
ATOM     77  F   UNL A   1      46.945  31.693  30.697  1.00  0.00    -0.206 F 
ATOM     78  C   UNL A   1      47.474  34.766  28.852  1.00  0.00     0.006 A 
ENDBRANCH  50  71
BRANCH  62  79
ATOM     79  C   UNL A   1      49.337  26.222  26.306  1.00  0.00     0.057 A 
ATOM     80  C   UNL A   1      49.795  26.430  24.999  1.00  0.00     0.134 A 
ATOM     81  C   UNL A   1      50.246  25.696  27.234  1.00  0.00     0.134 A 
ATOM     82  F   UNL A   1      48.970  26.917  24.059  1.00  0.00    -0.206 F 
ATOM     83  C   UNL A   1      51.100  26.107  24.624  1.00  0.00     0.040 A 
ATOM     84  C   UNL A   1      51.559  25.391  26.876  1.00  0.00     0.040 A 
ATOM     85  F   UNL A   1      49.873  25.479  28.504  1.00  0.00    -0.206 F 
ATOM     86  C   UNL A   1      51.988  25.591  25.566  1.00  0.00     0.006 A 
ENDBRANCH  62  79
ENDBRANCH  36  37
ENDBRANCH  28  31
ENDBRANCH  26  27
ENDBRANCH  25  26
ENDBRANCH  24  25
ENDBRANCH   3  24
TORSDOF 15
ENDMDL
MODEL 3
REMARK VINA RESULT:     -10.9      4.485      9.110
REMARK SMILES Cc1nc(SCc2ccccc2)[nH]c(=O)c1CCC(=O)NCCCNC(=O)c1ccc(-c2c3nc(c(-c4c(F)cccc4F)c4ccc([nH]4)c(-c4c(F)cccc4F)c4nc(c(-c5c(F)cccc5F)c5ccc2[nH]5)C=C4)C=C3)cc1
REMARK SMILES IDX 19 1 20 2 21 3 18 5 17 6 16 7 1 8 2 9 3 10 4 11 14 12 13 13
REMARK SMILES IDX 15 14 5 16 6 17 7 18 8 19 12 20 9 21 11 22 10 23 22 24 23 25
REMARK SMILES IDX 24 26 25 27 26 28 27 30 28 31 29 32 81 33 30 34 80 35 31 36
REMARK SMILES IDX 32 37 33 38 74 39 34 40 79 41 73 42 75 43 35 44 78 45 72 46
REMARK SMILES IDX 71 47 36 49 62 50 45 51 61 52 46 53 49 54 60 55 76 56 47 57
REMARK SMILES IDX 48 58 59 60 77 61 50 62 37 63 38 64 43 65 39 66 40 67 42 68
REMARK SMILES IDX 44 69 41 70 63 71 64 72 69 73 65 74 66 75 68 76 70 77 67 78
REMARK SMILES IDX 51 79 52 80 57 81 53 82 54 83 56 84 58 85 55 86
REMARK H PARENT 21 4 13 15 25 29 75 48 49 59
REMARK Flexibility Score: inf
ROOT
ATOM      1  C   UNL A   1      34.375  22.007  26.856  1.00  0.00     0.220 C 
ATOM      2  O   UNL A   1      34.153  21.618  28.005  1.00  0.00    -0.275 OA
ATOM      3  N   UNL A   1      35.285  23.004  26.681  1.00  0.00    -0.356 N 
ATOM      4  H   UNL A   1      35.758  23.264  27.503  1.00  0.00     0.163 HD
ENDROOT
BRANCH   1   5
ATOM      5  C   UNL A   1      33.687  21.344  25.680  1.00  0.00     0.105 C 
BRANCH   5   6
ATOM      6  C   UNL A   1      32.173  21.625  25.636  1.00  0.00     0.053 C 
BRANCH   6   7
ATOM      7  C   UNL A   1      31.902  23.014  25.116  1.00  0.00     0.039 A 
ATOM      8  C   UNL A   1      32.074  22.473  22.676  1.00  0.00     0.067 C 
ATOM      9  C   UNL A   1      31.915  23.427  23.832  1.00  0.00     0.049 A 
ATOM     10  N   UNL A   1      31.978  24.759  23.468  1.00  0.00    -0.229 NA
ATOM     11  C   UNL A   1      32.087  25.622  24.418  1.00  0.00     0.168 A 
ATOM     12  C   UNL A   1      31.648  24.058  26.133  1.00  0.00     0.254 A 
ATOM     13  N   UNL A   1      31.895  25.328  25.723  1.00  0.00    -0.301 N 
ATOM     14  O   UNL A   1      31.303  23.792  27.276  1.00  0.00    -0.269 OA
ATOM     15  H   UNL A   1      31.933  26.051  26.391  1.00  0.00     0.172 HD
BRANCH  11  16
ATOM     16  S   UNL A   1      32.557  27.275  24.208  1.00  0.00    -0.083 SA
BRANCH  16  17
ATOM     17  C   UNL A   1      31.906  28.077  25.686  1.00  0.00     0.113 C 
BRANCH  17  18
ATOM     18  C   UNL A   1      32.829  28.934  26.533  1.00  0.00    -0.038 A 
ATOM     19  C   UNL A   1      32.438  30.247  26.854  1.00  0.00     0.004 A 
ATOM     20  C   UNL A   1      34.136  28.554  26.868  1.00  0.00     0.004 A 
ATOM     21  C   UNL A   1      33.334  31.148  27.441  1.00  0.00     0.000 A 
ATOM     22  C   UNL A   1      35.037  29.454  27.446  1.00  0.00     0.000 A 
ATOM     23  C   UNL A   1      34.640  30.756  27.720  1.00  0.00     0.000 A 
ENDBRANCH  17  18
ENDBRANCH  16  17
ENDBRANCH  11  16
ENDBRANCH   6   7
ENDBRANCH   5   6
ENDBRANCH   1   5
BRANCH   3  24
ATOM     24  C   UNL A   1      35.688  23.756  25.499  1.00  0.00     0.117 C 
BRANCH  24  25
ATOM     25  C   UNL A   1      37.187  23.563  25.209  1.00  0.00     0.042 C 
BRANCH  25  26
ATOM     26  C   UNL A   1      38.095  23.902  26.386  1.00  0.00     0.118 C 
BRANCH  26  27
ATOM     27  N   UNL A   1      39.488  24.021  25.995  1.00  0.00    -0.352 N 
ATOM     28  C   UNL A   1      40.559  24.787  26.373  1.00  0.00     0.251 C 
ATOM     29  H   UNL A   1      39.723  23.391  25.274  1.00  0.00     0.163 HD
ATOM     30  O   UNL A   1      41.590  24.603  25.717  1.00  0.00    -0.269 OA
BRANCH  28  31
ATOM     31  C   UNL A   1      40.598  25.803  27.474  1.00  0.00     0.039 A 
ATOM     32  C   UNL A   1      39.691  25.603  28.535  1.00  0.00     0.014 A 
ATOM     33  C   UNL A   1      41.392  26.949  27.523  1.00  0.00     0.014 A 
ATOM     34  C   UNL A   1      39.561  26.526  29.584  1.00  0.00     0.010 A 
ATOM     35  C   UNL A   1      41.299  27.852  28.600  1.00  0.00     0.010 A 
ATOM     36  C   UNL A   1      40.369  27.665  29.633  1.00  0.00    -0.014 A 
BRANCH  36  37
ATOM     37  C   UNL A   1      40.240  28.664  30.736  1.00  0.00     0.031 A 
ATOM     38  C   UNL A   1      39.212  29.767  30.662  1.00  0.00     0.074 A 
ATOM     39  C   UNL A   1      41.070  28.615  31.798  1.00  0.00     0.049 A 
ATOM     40  N   UNL A   1      39.012  30.774  31.477  1.00  0.00    -0.248 NA
ATOM     41  C   UNL A   1      38.306  29.749  29.504  1.00  0.00     0.031 C 
ATOM     42  C   UNL A   1      42.131  27.627  31.998  1.00  0.00     0.029 A 
ATOM     43  N   UNL A   1      41.157  29.422  32.907  1.00  0.00    -0.354 N 
ATOM     44  C   UNL A   1      37.986  31.526  30.912  1.00  0.00     0.074 A 
ATOM     45  C   UNL A   1      37.629  30.876  29.669  1.00  0.00     0.031 C 
ATOM     46  C   UNL A   1      42.749  27.874  33.164  1.00  0.00     0.029 A 
ATOM     47  C   UNL A   1      42.154  29.057  33.780  1.00  0.00     0.049 A 
ATOM     48  H   UNL A   1      40.561  30.189  33.062  1.00  0.00     0.167 HD
ATOM     49  C   UNL A   1      37.383  32.643  31.389  1.00  0.00     0.037 A 
ATOM     50  C   UNL A   1      42.555  29.614  34.939  1.00  0.00     0.037 A 
ATOM     51  C   UNL A   1      37.695  33.266  32.651  1.00  0.00     0.049 A 
ATOM     52  C   UNL A   1      41.855  30.838  35.461  1.00  0.00     0.074 A 
ATOM     53  C   UNL A   1      37.087  34.359  33.247  1.00  0.00     0.029 A 
ATOM     54  N   UNL A   1      38.696  32.847  33.513  1.00  0.00    -0.354 N 
ATOM     55  N   UNL A   1      40.859  31.508  34.935  1.00  0.00    -0.248 NA
ATOM     56  C   UNL A   1      42.335  31.381  36.741  1.00  0.00     0.031 C 
ATOM     57  C   UNL A   1      37.742  34.621  34.456  1.00  0.00     0.029 A 
ATOM     58  C   UNL A   1      38.731  33.667  34.631  1.00  0.00     0.049 A 
ATOM     59  H   UNL A   1      39.293  32.080  33.356  1.00  0.00     0.167 HD
ATOM     60  C   UNL A   1      40.579  32.536  35.827  1.00  0.00     0.074 A 
ATOM     61  C   UNL A   1      41.499  32.392  36.936  1.00  0.00     0.031 C 
ATOM     62  C   UNL A   1      39.645  33.513  35.732  1.00  0.00     0.037 A 
BRANCH  49  63
ATOM     63  C   UNL A   1      36.311  33.269  30.543  1.00  0.00     0.057 A 
ATOM     64  C   UNL A   1      36.614  34.018  29.399  1.00  0.00     0.134 A 
ATOM     65  C   UNL A   1      34.957  33.090  30.854  1.00  0.00     0.134 A 
ATOM     66  F   UNL A   1      37.891  34.235  29.048  1.00  0.00    -0.206 F 
ATOM     67  C   UNL A   1      35.613  34.592  28.613  1.00  0.00     0.040 A 
ATOM     68  C   UNL A   1      33.945  33.635  30.061  1.00  0.00     0.040 A 
ATOM     69  F   UNL A   1      34.593  32.372  31.928  1.00  0.00    -0.206 F 
ATOM     70  C   UNL A   1      34.273  34.396  28.941  1.00  0.00     0.006 A 
ENDBRANCH  49  63
BRANCH  50  71
ATOM     71  C   UNL A   1      43.671  29.003  35.707  1.00  0.00     0.057 A 
ATOM     72  C   UNL A   1      44.987  29.445  35.536  1.00  0.00     0.134 A 
ATOM     73  C   UNL A   1      43.450  27.963  36.616  1.00  0.00     0.134 A 
ATOM     74  F   UNL A   1      45.263  30.423  34.660  1.00  0.00    -0.206 F 
ATOM     75  C   UNL A   1      46.049  28.866  36.234  1.00  0.00     0.040 A 
ATOM     76  C   UNL A   1      44.499  27.391  37.338  1.00  0.00     0.040 A 
ATOM     77  F   UNL A   1      42.210  27.497  36.826  1.00  0.00    -0.206 F 
ATOM     78  C   UNL A   1      45.804  27.838  37.143  1.00  0.00     0.006 A 
ENDBRANCH  50  71
BRANCH  62  79
ATOM     79  C   UNL A   1      39.551  34.485  36.871  1.00  0.00     0.057 A 
ATOM     80  C   UNL A   1      38.840  34.185  38.040  1.00  0.00     0.134 A 
ATOM     81  C   UNL A   1      40.204  35.723  36.811  1.00  0.00     0.134 A 
ATOM     82  F   UNL A   1      38.181  33.022  38.155  1.00  0.00    -0.206 F 
ATOM     83  C   UNL A   1      38.764  35.091  39.099  1.00  0.00     0.040 A 
ATOM     84  C   UNL A   1      40.154  36.627  37.873  1.00  0.00     0.040 A 
ATOM     85  F   UNL A   1      40.907  36.070  35.722  1.00  0.00    -0.206 F 
ATOM     86  C   UNL A   1      39.428  36.314  39.019  1.00  0.00     0.006 A 
ENDBRANCH  62  79
ENDBRANCH  36  37
ENDBRANCH  28  31
ENDBRANCH  26  27
ENDBRANCH  25  26
ENDBRANCH  24  25
ENDBRANCH   3  24
TORSDOF 15
ENDMDL
