MODEL 1
REMARK VINA RESULT:     -11.4      0.000      0.000
REMARK SMILES CC[C@H](C)c1ccccc1Oc1cccc(F)c1C(=O)NCCCNC(=O)c1ccc(-c2c3nc(c(-c4c(F)cccc4F)c4ccc([nH]4)c(-c4c(F)cccc4F)c4nc(c(-c5c(F)cccc5F)c5ccc2[nH]5)C=C4)C=C3)cc1
REMARK SMILES IDX 22 1 21 2 19 3 20 4 18 6 12 7 13 8 14 9 16 10 15 11 17 12
REMARK SMILES IDX 11 13 10 14 5 15 6 16 7 17 9 18 8 19 3 20 4 21 2 22 1 23
REMARK SMILES IDX 23 24 24 25 25 26 26 27 27 29 28 30 29 31 81 32 30 33 80 34
REMARK SMILES IDX 31 35 32 36 33 37 74 38 34 39 79 40 73 41 75 42 35 43 78 44
REMARK SMILES IDX 72 45 71 46 36 48 62 49 45 50 61 51 46 52 49 53 60 54 76 55
REMARK SMILES IDX 47 56 48 57 59 59 77 60 50 61 37 62 38 63 43 64 39 65 40 66
REMARK SMILES IDX 42 67 44 68 41 69 63 70 64 71 69 72 65 73 66 74 68 75 70 76
REMARK SMILES IDX 67 77 51 78 52 79 57 80 53 81 54 82 56 83 58 84 55 85
REMARK H PARENT 21 5 25 28 75 47 49 58
REMARK Flexibility Score: inf
ROOT
ATOM      1  C   UNL A   1      32.555  29.326  25.074  1.00  0.00     0.118 C 
ENDROOT
BRANCH   1   2
ATOM      2  N   UNL A   1      31.382  28.542  25.321  1.00  0.00    -0.352 N 
ATOM      3  C   UNL A   1      31.257  27.191  25.098  1.00  0.00     0.258 C 
ATOM      4  O   UNL A   1      30.445  26.581  25.794  1.00  0.00    -0.269 OA
ATOM      5  H   UNL A   1      30.597  29.012  25.683  1.00  0.00     0.163 HD
BRANCH   3   6
ATOM      6  C   UNL A   1      31.959  26.475  23.993  1.00  0.00     0.118 A 
ATOM      7  C   UNL A   1      33.122  25.685  24.012  1.00  0.00     0.143 A 
ATOM      8  C   UNL A   1      33.632  25.187  22.787  1.00  0.00     0.048 A 
ATOM      9  C   UNL A   1      32.966  25.356  21.578  1.00  0.00     0.007 A 
ATOM     10  C   UNL A   1      31.297  26.619  22.752  1.00  0.00     0.139 A 
ATOM     11  C   UNL A   1      31.777  26.059  21.569  1.00  0.00     0.040 A 
ATOM     12  F   UNL A   1      30.171  27.345  22.649  1.00  0.00    -0.206 F 
BRANCH   7  13
ATOM     13  O   UNL A   1      33.991  25.334  25.013  1.00  0.00    -0.456 OA
BRANCH  13  14
ATOM     14  C   UNL A   1      34.037  24.174  25.744  1.00  0.00     0.130 A 
ATOM     15  C   UNL A   1      35.064  23.224  25.869  1.00  0.00    -0.002 A 
ATOM     16  C   UNL A   1      34.764  22.084  26.653  1.00  0.00     0.008 A 
ATOM     17  C   UNL A   1      33.540  21.912  27.313  1.00  0.00     0.001 A 
ATOM     18  C   UNL A   1      32.842  24.035  26.496  1.00  0.00     0.047 A 
ATOM     19  C   UNL A   1      32.579  22.904  27.255  1.00  0.00     0.004 A 
BRANCH  15  20
ATOM     20  C   UNL A   1      36.425  23.361  25.187  1.00  0.00     0.019 C 
ATOM     21  C   UNL A   1      37.491  23.992  26.109  1.00  0.00     0.013 C 
BRANCH  20  22
ATOM     22  C   UNL A   1      37.028  22.095  24.531  1.00  0.00     0.005 C 
ATOM     23  C   UNL A   1      38.154  21.503  25.374  1.00  0.00     0.004 C 
ENDBRANCH  20  22
ENDBRANCH  15  20
ENDBRANCH  13  14
ENDBRANCH   7  13
ENDBRANCH   3   6
ENDBRANCH   1   2
BRANCH   1  24
ATOM     24  C   UNL A   1      33.818  28.923  25.778  1.00  0.00     0.042 C 
BRANCH  24  25
ATOM     25  C   UNL A   1      33.699  28.849  27.286  1.00  0.00     0.118 C 
BRANCH  25  26
ATOM     26  N   UNL A   1      33.815  30.136  27.981  1.00  0.00    -0.352 N 
ATOM     27  C   UNL A   1      34.889  30.732  28.601  1.00  0.00     0.251 C 
ATOM     28  H   UNL A   1      32.983  30.663  28.009  1.00  0.00     0.163 HD
ATOM     29  O   UNL A   1      34.745  31.797  29.197  1.00  0.00    -0.269 OA
BRANCH  27  30
ATOM     30  C   UNL A   1      36.206  30.061  28.601  1.00  0.00     0.039 A 
ATOM     31  C   UNL A   1      37.029  30.156  27.474  1.00  0.00     0.014 A 
ATOM     32  C   UNL A   1      36.661  29.404  29.740  1.00  0.00     0.014 A 
ATOM     33  C   UNL A   1      38.344  29.693  27.542  1.00  0.00     0.010 A 
ATOM     34  C   UNL A   1      38.006  29.100  29.861  1.00  0.00     0.010 A 
ATOM     35  C   UNL A   1      38.861  29.218  28.759  1.00  0.00    -0.014 A 
BRANCH  35  36
ATOM     36  C   UNL A   1      40.274  28.794  28.905  1.00  0.00     0.031 A 
ATOM     37  C   UNL A   1      41.286  29.772  29.444  1.00  0.00     0.074 A 
ATOM     38  C   UNL A   1      40.663  27.579  28.472  1.00  0.00     0.049 A 
ATOM     39  N   UNL A   1      42.585  29.651  29.544  1.00  0.00    -0.248 NA
ATOM     40  C   UNL A   1      40.776  31.085  29.877  1.00  0.00     0.031 C 
ATOM     41  C   UNL A   1      39.793  26.575  27.853  1.00  0.00     0.029 A 
ATOM     42  N   UNL A   1      41.899  26.984  28.480  1.00  0.00    -0.354 N 
ATOM     43  C   UNL A   1      43.040  30.879  30.009  1.00  0.00     0.074 A 
ATOM     44  C   UNL A   1      41.896  31.755  30.095  1.00  0.00     0.031 C 
ATOM     45  C   UNL A   1      40.513  25.473  27.584  1.00  0.00     0.029 A 
ATOM     46  C   UNL A   1      41.899  25.705  27.974  1.00  0.00     0.049 A 
ATOM     47  H   UNL A   1      42.710  27.429  28.816  1.00  0.00     0.167 HD
ATOM     48  C   UNL A   1      44.293  31.234  30.374  1.00  0.00     0.037 A 
ATOM     49  C   UNL A   1      42.906  24.822  27.848  1.00  0.00     0.037 A 
ATOM     50  C   UNL A   1      45.414  30.336  30.351  1.00  0.00     0.049 A 
ATOM     51  C   UNL A   1      44.280  25.218  28.318  1.00  0.00     0.074 A 
ATOM     52  C   UNL A   1      46.710  30.560  30.776  1.00  0.00     0.029 A 
ATOM     53  N   UNL A   1      45.360  29.029  29.890  1.00  0.00    -0.354 N 
ATOM     54  N   UNL A   1      44.683  26.358  28.824  1.00  0.00    -0.248 NA
ATOM     55  C   UNL A   1      45.334  24.201  28.208  1.00  0.00     0.031 C 
ATOM     56  C   UNL A   1      47.450  29.396  30.543  1.00  0.00     0.029 A 
ATOM     57  C   UNL A   1      46.603  28.436  30.011  1.00  0.00     0.049 A 
ATOM     58  H   UNL A   1      44.556  28.590  29.528  1.00  0.00     0.167 HD
ATOM     59  C   UNL A   1      46.028  26.189  29.119  1.00  0.00     0.074 A 
ATOM     60  C   UNL A   1      46.368  24.830  28.749  1.00  0.00     0.031 C 
ATOM     61  C   UNL A   1      46.908  27.076  29.645  1.00  0.00     0.037 A 
BRANCH  48  62
ATOM     62  C   UNL A   1      44.500  32.643  30.851  1.00  0.00     0.057 A 
ATOM     63  C   UNL A   1      44.854  33.678  29.974  1.00  0.00     0.134 A 
ATOM     64  C   UNL A   1      44.341  32.972  32.203  1.00  0.00     0.134 A 
ATOM     65  F   UNL A   1      45.040  33.428  28.668  1.00  0.00    -0.206 F 
ATOM     66  C   UNL A   1      45.080  34.978  30.428  1.00  0.00     0.040 A 
ATOM     67  C   UNL A   1      44.534  34.276  32.664  1.00  0.00     0.040 A 
ATOM     68  F   UNL A   1      44.001  32.033  33.097  1.00  0.00    -0.206 F 
ATOM     69  C   UNL A   1      44.913  35.281  31.777  1.00  0.00     0.006 A 
ENDBRANCH  48  62
BRANCH  49  70
ATOM     70  C   UNL A   1      42.646  23.464  27.307  1.00  0.00     0.057 A 
ATOM     71  C   UNL A   1      42.785  23.196  25.941  1.00  0.00     0.134 A 
ATOM     72  C   UNL A   1      42.257  22.405  28.135  1.00  0.00     0.134 A 
ATOM     73  F   UNL A   1      43.141  24.173  25.094  1.00  0.00    -0.206 F 
ATOM     74  C   UNL A   1      42.525  21.930  25.412  1.00  0.00     0.040 A 
ATOM     75  C   UNL A   1      42.016  21.127  27.624  1.00  0.00     0.040 A 
ATOM     76  F   UNL A   1      42.117  22.592  29.455  1.00  0.00    -0.206 F 
ATOM     77  C   UNL A   1      42.143  20.890  26.256  1.00  0.00     0.006 A 
ENDBRANCH  49  70
BRANCH  61  78
ATOM     78  C   UNL A   1      48.305  26.591  29.883  1.00  0.00     0.057 A 
ATOM     79  C   UNL A   1      49.321  26.774  28.937  1.00  0.00     0.134 A 
ATOM     80  C   UNL A   1      48.646  25.968  31.090  1.00  0.00     0.134 A 
ATOM     81  F   UNL A   1      49.054  27.354  27.757  1.00  0.00    -0.206 F 
ATOM     82  C   UNL A   1      50.623  26.332  29.173  1.00  0.00     0.040 A 
ATOM     83  C   UNL A   1      49.950  25.546  31.350  1.00  0.00     0.040 A 
ATOM     84  F   UNL A   1      47.720  25.773  32.042  1.00  0.00    -0.206 F 
ATOM     85  C   UNL A   1      50.941  25.722  30.386  1.00  0.00     0.006 A 
ENDBRANCH  61  78
ENDBRANCH  35  36
ENDBRANCH  27  30
ENDBRANCH  25  26
ENDBRANCH  24  25
ENDBRANCH   1  24
TORSDOF 14
ENDMDL
MODEL 2
REMARK VINA RESULT:     -11.2      2.619      7.648
REMARK SMILES CC[C@H](C)c1ccccc1Oc1cccc(F)c1C(=O)NCCCNC(=O)c1ccc(-c2c3nc(c(-c4c(F)cccc4F)c4ccc([nH]4)c(-c4c(F)cccc4F)c4nc(c(-c5c(F)cccc5F)c5ccc2[nH]5)C=C4)C=C3)cc1
REMARK SMILES IDX 22 1 21 2 19 3 20 4 18 6 12 7 13 8 14 9 16 10 15 11 17 12
REMARK SMILES IDX 11 13 10 14 5 15 6 16 7 17 9 18 8 19 3 20 4 21 2 22 1 23
REMARK SMILES IDX 23 24 24 25 25 26 26 27 27 29 28 30 29 31 81 32 30 33 80 34
REMARK SMILES IDX 31 35 32 36 33 37 74 38 34 39 79 40 73 41 75 42 35 43 78 44
REMARK SMILES IDX 72 45 71 46 36 48 62 49 45 50 61 51 46 52 49 53 60 54 76 55
REMARK SMILES IDX 47 56 48 57 59 59 77 60 50 61 37 62 38 63 43 64 39 65 40 66
REMARK SMILES IDX 42 67 44 68 41 69 63 70 64 71 69 72 65 73 66 74 68 75 70 76
REMARK SMILES IDX 67 77 51 78 52 79 57 80 53 81 54 82 56 83 58 84 55 85
REMARK H PARENT 21 5 25 28 75 47 49 58
REMARK Flexibility Score: inf
ROOT
ATOM      1  C   UNL A   1      37.037  21.453  24.797  1.00  0.00     0.118 C 
ENDROOT
BRANCH   1   2
ATOM      2  N   UNL A   1      36.200  21.827  25.898  1.00  0.00    -0.352 N 
ATOM      3  C   UNL A   1      34.860  21.543  26.021  1.00  0.00     0.258 C 
ATOM      4  O   UNL A   1      34.408  21.457  27.163  1.00  0.00    -0.269 OA
ATOM      5  H   UNL A   1      36.622  22.331  26.630  1.00  0.00     0.163 HD
BRANCH   3   6
ATOM      6  C   UNL A   1      33.930  21.458  24.857  1.00  0.00     0.118 A 
ATOM      7  C   UNL A   1      33.517  22.445  23.946  1.00  0.00     0.143 A 
ATOM      8  C   UNL A   1      32.542  22.114  22.971  1.00  0.00     0.048 A 
ATOM      9  C   UNL A   1      32.060  20.820  22.809  1.00  0.00     0.007 A 
ATOM     10  C   UNL A   1      33.433  20.148  24.660  1.00  0.00     0.139 A 
ATOM     11  C   UNL A   1      32.530  19.827  23.647  1.00  0.00     0.040 A 
ATOM     12  F   UNL A   1      33.790  19.143  25.475  1.00  0.00    -0.206 F 
BRANCH   7  13
ATOM     13  O   UNL A   1      33.797  23.782  23.834  1.00  0.00    -0.456 OA
BRANCH  13  14
ATOM     14  C   UNL A   1      32.972  24.802  23.431  1.00  0.00     0.130 A 
ATOM     15  C   UNL A   1      31.966  25.485  24.136  1.00  0.00    -0.002 A 
ATOM     16  C   UNL A   1      31.237  26.449  23.400  1.00  0.00     0.008 A 
ATOM     17  C   UNL A   1      31.512  26.757  22.061  1.00  0.00     0.001 A 
ATOM     18  C   UNL A   1      33.305  25.192  22.108  1.00  0.00     0.047 A 
ATOM     19  C   UNL A   1      32.568  26.142  21.415  1.00  0.00     0.004 A 
BRANCH  15  20
ATOM     20  C   UNL A   1      31.629  25.207  25.600  1.00  0.00     0.019 C 
ATOM     21  C   UNL A   1      31.101  26.457  26.336  1.00  0.00     0.013 C 
BRANCH  20  22
ATOM     22  C   UNL A   1      30.682  24.020  25.903  1.00  0.00     0.005 C 
ATOM     23  C   UNL A   1      31.282  23.066  26.932  1.00  0.00     0.004 C 
ENDBRANCH  20  22
ENDBRANCH  15  20
ENDBRANCH  13  14
ENDBRANCH   7  13
ENDBRANCH   3   6
ENDBRANCH   1   2
BRANCH   1  24
ATOM     24  C   UNL A   1      37.903  20.238  24.968  1.00  0.00     0.042 C 
BRANCH  24  25
ATOM     25  C   UNL A   1      39.029  20.408  25.967  1.00  0.00     0.118 C 
BRANCH  25  26
ATOM     26  N   UNL A   1      40.127  19.443  25.833  1.00  0.00    -0.352 N 
ATOM     27  C   UNL A   1      41.477  19.577  26.062  1.00  0.00     0.251 C 
ATOM     28  H   UNL A   1      39.851  18.548  25.528  1.00  0.00     0.163 HD
ATOM     29  O   UNL A   1      42.240  18.648  25.811  1.00  0.00    -0.269 OA
BRANCH  27  30
ATOM     30  C   UNL A   1      42.017  20.861  26.557  1.00  0.00     0.039 A 
ATOM     31  C   UNL A   1      42.395  21.849  25.643  1.00  0.00     0.014 A 
ATOM     32  C   UNL A   1      42.080  21.118  27.924  1.00  0.00     0.014 A 
ATOM     33  C   UNL A   1      42.720  23.125  26.106  1.00  0.00     0.010 A 
ATOM     34  C   UNL A   1      42.237  22.420  28.367  1.00  0.00     0.010 A 
ATOM     35  C   UNL A   1      42.582  23.436  27.469  1.00  0.00    -0.014 A 
BRANCH  35  36
ATOM     36  C   UNL A   1      42.832  24.799  27.998  1.00  0.00     0.031 A 
ATOM     37  C   UNL A   1      44.232  25.191  28.395  1.00  0.00     0.074 A 
ATOM     38  C   UNL A   1      41.802  25.641  28.208  1.00  0.00     0.049 A 
ATOM     39  N   UNL A   1      44.651  26.281  28.986  1.00  0.00    -0.248 NA
ATOM     40  C   UNL A   1      45.295  24.202  28.147  1.00  0.00     0.031 C 
ATOM     41  C   UNL A   1      40.391  25.345  27.943  1.00  0.00     0.029 A 
ATOM     42  N   UNL A   1      41.783  26.920  28.703  1.00  0.00    -0.354 N 
ATOM     43  C   UNL A   1      46.008  26.085  29.211  1.00  0.00     0.074 A 
ATOM     44  C   UNL A   1      46.327  24.747  28.771  1.00  0.00     0.031 C 
ATOM     45  C   UNL A   1      39.651  26.428  28.235  1.00  0.00     0.029 A 
ATOM     46  C   UNL A   1      40.527  27.478  28.742  1.00  0.00     0.049 A 
ATOM     47  H   UNL A   1      42.592  27.394  29.002  1.00  0.00     0.167 HD
ATOM     48  C   UNL A   1      46.920  26.956  29.701  1.00  0.00     0.037 A 
ATOM     49  C   UNL A   1      40.134  28.702  29.138  1.00  0.00     0.037 A 
ATOM     50  C   UNL A   1      46.609  28.308  30.071  1.00  0.00     0.049 A 
ATOM     51  C   UNL A   1      41.173  29.676  29.621  1.00  0.00     0.074 A 
ATOM     52  C   UNL A   1      47.465  29.306  30.501  1.00  0.00     0.029 A 
ATOM     53  N   UNL A   1      45.335  28.856  30.039  1.00  0.00    -0.354 N 
ATOM     54  N   UNL A   1      42.466  29.503  29.762  1.00  0.00    -0.248 NA
ATOM     55  C   UNL A   1      40.702  31.017  29.992  1.00  0.00     0.031 C 
ATOM     56  C   UNL A   1      46.703  30.450  30.757  1.00  0.00     0.029 A 
ATOM     57  C   UNL A   1      45.379  30.176  30.448  1.00  0.00     0.049 A 
ATOM     58  H   UNL A   1      44.520  28.375  29.766  1.00  0.00     0.167 HD
ATOM     59  C   UNL A   1      42.966  30.718  30.208  1.00  0.00     0.074 A 
ATOM     60  C   UNL A   1      41.839  31.624  30.301  1.00  0.00     0.031 C 
ATOM     61  C   UNL A   1      44.241  31.057  30.519  1.00  0.00     0.037 A 
BRANCH  48  62
ATOM     62  C   UNL A   1      48.335  26.472  29.833  1.00  0.00     0.057 A 
ATOM     63  C   UNL A   1      48.781  25.787  30.972  1.00  0.00     0.134 A 
ATOM     64  C   UNL A   1      49.266  26.693  28.810  1.00  0.00     0.134 A 
ATOM     65  F   UNL A   1      47.945  25.558  31.998  1.00  0.00    -0.206 F 
ATOM     66  C   UNL A   1      50.106  25.371  31.105  1.00  0.00     0.040 A 
ATOM     67  C   UNL A   1      50.587  26.254  28.919  1.00  0.00     0.040 A 
ATOM     68  F   UNL A   1      48.908  27.340  27.691  1.00  0.00    -0.206 F 
ATOM     69  C   UNL A   1      51.013  25.599  30.072  1.00  0.00     0.006 A 
ENDBRANCH  48  62
BRANCH  49  70
ATOM     70  C   UNL A   1      38.705  29.096  29.042  1.00  0.00     0.057 A 
ATOM     71  C   UNL A   1      37.860  29.011  30.154  1.00  0.00     0.134 A 
ATOM     72  C   UNL A   1      38.151  29.566  27.845  1.00  0.00     0.134 A 
ATOM     73  F   UNL A   1      38.329  28.554  31.324  1.00  0.00    -0.206 F 
ATOM     74  C   UNL A   1      36.509  29.358  30.076  1.00  0.00     0.040 A 
ATOM     75  C   UNL A   1      36.807  29.939  27.759  1.00  0.00     0.040 A 
ATOM     76  F   UNL A   1      38.909  29.683  26.746  1.00  0.00    -0.206 F 
ATOM     77  C   UNL A   1      35.981  29.827  28.876  1.00  0.00     0.006 A 
ENDBRANCH  49  70
BRANCH  61  78
ATOM     78  C   UNL A   1      44.485  32.471  30.950  1.00  0.00     0.057 A 
ATOM     79  C   UNL A   1      44.754  33.488  30.025  1.00  0.00     0.134 A 
ATOM     80  C   UNL A   1      44.413  32.825  32.302  1.00  0.00     0.134 A 
ATOM     81  F   UNL A   1      44.847  33.209  28.716  1.00  0.00    -0.206 F 
ATOM     82  C   UNL A   1      44.966  34.804  30.434  1.00  0.00     0.040 A 
ATOM     83  C   UNL A   1      44.597  34.142  32.722  1.00  0.00     0.040 A 
ATOM     84  F   UNL A   1      44.150  31.898  33.237  1.00  0.00    -0.206 F 
ATOM     85  C   UNL A   1      44.881  35.136  31.785  1.00  0.00     0.006 A 
ENDBRANCH  61  78
ENDBRANCH  35  36
ENDBRANCH  27  30
ENDBRANCH  25  26
ENDBRANCH  24  25
ENDBRANCH   1  24
TORSDOF 14
ENDMDL
MODEL 3
REMARK VINA RESULT:     -11.1      3.539      4.540
REMARK SMILES CC[C@H](C)c1ccccc1Oc1cccc(F)c1C(=O)NCCCNC(=O)c1ccc(-c2c3nc(c(-c4c(F)cccc4F)c4ccc([nH]4)c(-c4c(F)cccc4F)c4nc(c(-c5c(F)cccc5F)c5ccc2[nH]5)C=C4)C=C3)cc1
REMARK SMILES IDX 22 1 21 2 19 3 20 4 18 6 12 7 13 8 14 9 16 10 15 11 17 12
REMARK SMILES IDX 11 13 10 14 5 15 6 16 7 17 9 18 8 19 3 20 4 21 2 22 1 23
REMARK SMILES IDX 23 24 24 25 25 26 26 27 27 29 28 30 29 31 81 32 30 33 80 34
REMARK SMILES IDX 31 35 32 36 33 37 74 38 34 39 79 40 73 41 75 42 35 43 78 44
REMARK SMILES IDX 72 45 71 46 36 48 62 49 45 50 61 51 46 52 49 53 60 54 76 55
REMARK SMILES IDX 47 56 48 57 59 59 77 60 50 61 37 62 38 63 43 64 39 65 40 66
REMARK SMILES IDX 42 67 44 68 41 69 63 70 64 71 69 72 65 73 66 74 68 75 70 76
REMARK SMILES IDX 67 77 51 78 52 79 57 80 53 81 54 82 56 83 58 84 55 85
REMARK H PARENT 21 5 25 28 75 47 49 58
REMARK Flexibility Score: inf
ROOT
ATOM      1  C   UNL A   1      32.043  27.629  26.950  1.00  0.00     0.118 C 
ENDROOT
BRANCH   1   2
ATOM      2  N   UNL A   1      30.942  26.717  26.863  1.00  0.00    -0.352 N 
ATOM      3  C   UNL A   1      30.910  25.566  26.111  1.00  0.00     0.258 C 
ATOM      4  O   UNL A   1      30.173  24.660  26.502  1.00  0.00    -0.269 OA
ATOM      5  H   UNL A   1      30.139  26.932  27.389  1.00  0.00     0.163 HD
BRANCH   3   6
ATOM      6  C   UNL A   1      31.620  25.420  24.806  1.00  0.00     0.118 A 
ATOM      7  C   UNL A   1      32.769  24.682  24.470  1.00  0.00     0.143 A 
ATOM      8  C   UNL A   1      33.293  24.790  23.158  1.00  0.00     0.048 A 
ATOM      9  C   UNL A   1      32.653  25.510  22.156  1.00  0.00     0.007 A 
ATOM     10  C   UNL A   1      30.984  26.134  23.764  1.00  0.00     0.139 A 
ATOM     11  C   UNL A   1      31.476  26.167  22.460  1.00  0.00     0.040 A 
ATOM     12  F   UNL A   1      29.873  26.852  23.996  1.00  0.00    -0.206 F 
BRANCH   7  13
ATOM     13  O   UNL A   1      33.613  23.891  25.206  1.00  0.00    -0.456 OA
BRANCH  13  14
ATOM     14  C   UNL A   1      33.834  22.541  25.101  1.00  0.00     0.130 A 
ATOM     15  C   UNL A   1      35.025  21.836  24.852  1.00  0.00    -0.002 A 
ATOM     16  C   UNL A   1      34.901  20.432  24.728  1.00  0.00     0.008 A 
ATOM     17  C   UNL A   1      33.684  19.755  24.887  1.00  0.00     0.001 A 
ATOM     18  C   UNL A   1      32.630  21.837  25.357  1.00  0.00     0.047 A 
ATOM     19  C   UNL A   1      32.543  20.458  25.227  1.00  0.00     0.004 A 
BRANCH  15  20
ATOM     20  C   UNL A   1      36.384  22.514  24.684  1.00  0.00     0.019 C 
ATOM     21  C   UNL A   1      36.653  22.954  23.229  1.00  0.00     0.013 C 
BRANCH  20  22
ATOM     22  C   UNL A   1      36.714  23.698  25.626  1.00  0.00     0.005 C 
ATOM     23  C   UNL A   1      38.154  23.637  26.126  1.00  0.00     0.004 C 
ENDBRANCH  20  22
ENDBRANCH  15  20
ENDBRANCH  13  14
ENDBRANCH   7  13
ENDBRANCH   3   6
ENDBRANCH   1   2
BRANCH   1  24
ATOM     24  C   UNL A   1      31.724  29.079  27.175  1.00  0.00     0.042 C 
BRANCH  24  25
ATOM     25  C   UNL A   1      32.490  30.034  26.285  1.00  0.00     0.118 C 
BRANCH  25  26
ATOM     26  N   UNL A   1      32.414  31.446  26.678  1.00  0.00    -0.352 N 
ATOM     27  C   UNL A   1      33.294  32.235  27.382  1.00  0.00     0.251 C 
ATOM     28  H   UNL A   1      31.593  31.907  26.389  1.00  0.00     0.163 HD
ATOM     29  O   UNL A   1      32.993  33.390  27.670  1.00  0.00    -0.269 OA
BRANCH  27  30
ATOM     30  C   UNL A   1      34.581  31.673  27.843  1.00  0.00     0.039 A 
ATOM     31  C   UNL A   1      35.681  32.519  28.016  1.00  0.00     0.014 A 
ATOM     32  C   UNL A   1      34.682  30.325  28.177  1.00  0.00     0.014 A 
ATOM     33  C   UNL A   1      36.834  32.029  28.634  1.00  0.00     0.010 A 
ATOM     34  C   UNL A   1      35.754  29.888  28.936  1.00  0.00     0.010 A 
ATOM     35  C   UNL A   1      36.854  30.725  29.155  1.00  0.00    -0.014 A 
BRANCH  35  36
ATOM     36  C   UNL A   1      38.022  30.187  29.893  1.00  0.00     0.031 A 
ATOM     37  C   UNL A   1      38.239  30.593  31.328  1.00  0.00     0.074 A 
ATOM     38  C   UNL A   1      38.927  29.418  29.257  1.00  0.00     0.049 A 
ATOM     39  N   UNL A   1      39.250  30.337  32.118  1.00  0.00    -0.248 NA
ATOM     40  C   UNL A   1      37.208  31.451  31.939  1.00  0.00     0.031 C 
ATOM     41  C   UNL A   1      38.872  29.025  27.847  1.00  0.00     0.029 A 
ATOM     42  N   UNL A   1      40.080  28.834  29.717  1.00  0.00    -0.354 N 
ATOM     43  C   UNL A   1      38.991  31.033  33.293  1.00  0.00     0.074 A 
ATOM     44  C   UNL A   1      37.775  31.785  33.087  1.00  0.00     0.031 C 
ATOM     45  C   UNL A   1      39.918  28.229  27.569  1.00  0.00     0.029 A 
ATOM     46  C   UNL A   1      40.735  28.086  28.768  1.00  0.00     0.049 A 
ATOM     47  H   UNL A   1      40.408  28.940  30.639  1.00  0.00     0.167 HD
ATOM     48  C   UNL A   1      39.680  31.015  34.457  1.00  0.00     0.037 A 
ATOM     49  C   UNL A   1      41.866  27.362  28.863  1.00  0.00     0.037 A 
ATOM     50  C   UNL A   1      40.849  30.211  34.677  1.00  0.00     0.049 A 
ATOM     51  C   UNL A   1      42.583  27.307  30.184  1.00  0.00     0.074 A 
ATOM     52  C   UNL A   1      41.581  30.048  35.839  1.00  0.00     0.029 A 
ATOM     53  N   UNL A   1      41.448  29.418  33.709  1.00  0.00    -0.354 N 
ATOM     54  N   UNL A   1      42.288  27.912  31.310  1.00  0.00    -0.248 NA
ATOM     55  C   UNL A   1      43.782  26.462  30.251  1.00  0.00     0.031 C 
ATOM     56  C   UNL A   1      42.641  29.179  35.565  1.00  0.00     0.029 A 
ATOM     57  C   UNL A   1      42.546  28.769  34.245  1.00  0.00     0.049 A 
ATOM     58  H   UNL A   1      41.138  29.331  32.778  1.00  0.00     0.167 HD
ATOM     59  C   UNL A   1      43.245  27.500  32.226  1.00  0.00     0.074 A 
ATOM     60  C   UNL A   1      44.121  26.582  31.527  1.00  0.00     0.031 C 
ATOM     61  C   UNL A   1      43.393  27.851  33.527  1.00  0.00     0.037 A 
BRANCH  48  62
ATOM     62  C   UNL A   1      39.163  31.870  35.578  1.00  0.00     0.057 A 
ATOM     63  C   UNL A   1      39.554  33.208  35.730  1.00  0.00     0.134 A 
ATOM     64  C   UNL A   1      38.263  31.352  36.518  1.00  0.00     0.134 A 
ATOM     65  F   UNL A   1      40.428  33.762  34.875  1.00  0.00    -0.206 F 
ATOM     66  C   UNL A   1      39.099  33.988  36.794  1.00  0.00     0.040 A 
ATOM     67  C   UNL A   1      37.777  32.132  37.569  1.00  0.00     0.040 A 
ATOM     68  F   UNL A   1      37.846  30.081  36.432  1.00  0.00    -0.206 F 
ATOM     69  C   UNL A   1      38.201  33.451  37.715  1.00  0.00     0.006 A 
ENDBRANCH  48  62
BRANCH  49  70
ATOM     70  C   UNL A   1      42.359  26.589  27.695  1.00  0.00     0.057 A 
ATOM     71  C   UNL A   1      41.915  25.284  27.457  1.00  0.00     0.134 A 
ATOM     72  C   UNL A   1      43.280  27.131  26.790  1.00  0.00     0.134 A 
ATOM     73  F   UNL A   1      41.043  24.705  28.297  1.00  0.00    -0.206 F 
ATOM     74  C   UNL A   1      42.383  24.535  26.376  1.00  0.00     0.040 A 
ATOM     75  C   UNL A   1      43.740  26.402  25.691  1.00  0.00     0.040 A 
ATOM     76  F   UNL A   1      43.737  28.380  26.954  1.00  0.00    -0.206 F 
ATOM     77  C   UNL A   1      43.296  25.097  25.486  1.00  0.00     0.006 A 
ENDBRANCH  49  70
BRANCH  61  78
ATOM     78  C   UNL A   1      44.517  27.211  34.282  1.00  0.00     0.057 A 
ATOM     79  C   UNL A   1      45.775  27.818  34.386  1.00  0.00     0.134 A 
ATOM     80  C   UNL A   1      44.327  25.992  34.945  1.00  0.00     0.134 A 
ATOM     81  F   UNL A   1      46.022  28.981  33.765  1.00  0.00    -0.206 F 
ATOM     82  C   UNL A   1      46.812  27.222  35.104  1.00  0.00     0.040 A 
ATOM     83  C   UNL A   1      45.347  25.399  35.688  1.00  0.00     0.040 A 
ATOM     84  F   UNL A   1      43.141  25.365  34.891  1.00  0.00    -0.206 F 
ATOM     85  C   UNL A   1      46.597  26.012  35.763  1.00  0.00     0.006 A 
ENDBRANCH  61  78
ENDBRANCH  35  36
ENDBRANCH  27  30
ENDBRANCH  25  26
ENDBRANCH  24  25
ENDBRANCH   1  24
TORSDOF 14
ENDMDL
