MODEL 1
REMARK VINA RESULT:     -12.3      0.000      0.000
REMARK SMILES O=C(NCCCNC(=O)[C@H](c1ccccc1)C(c1ccccc1)c1ccccc1)c1ccc(-c2c3nc(c(-c4c(F)cccc4F)c4ccc([nH]4)c(-c4c(F)cccc4F)c4nc(c(-c5c(F)cccc5F)c5ccc2[nH]5)C=C4)C=C3)cc1
REMARK SMILES IDX 5 1 4 2 3 3 1 4 2 5 30 7 31 8 83 9 32 10 82 11 33 12 34 13
REMARK SMILES IDX 35 14 76 15 36 16 81 17 75 18 77 19 37 20 80 21 74 22 73 23
REMARK SMILES IDX 38 25 64 26 47 27 63 28 48 29 51 30 62 31 78 32 49 33 50 34
REMARK SMILES IDX 61 36 79 37 52 38 39 39 40 40 45 41 41 42 42 43 44 44 46 45
REMARK SMILES IDX 43 46 65 47 66 48 71 49 67 50 68 51 70 52 72 53 69 54 53 55
REMARK SMILES IDX 54 56 59 57 55 58 56 59 58 60 60 61 57 62 6 63 7 64 8 65
REMARK SMILES IDX 9 67 10 68 17 69 18 70 19 71 23 72 20 73 22 74 21 75 24 76
REMARK SMILES IDX 25 77 29 78 26 79 28 80 27 81 11 82 12 83 16 84 13 85 15 86
REMARK SMILES IDX 14 87
REMARK H PARENT 3 6 77 24 51 35 7 66
REMARK Flexibility Score: inf
ROOT
ATOM      1  C   UNL A   1      31.824  27.845  27.547  1.00  0.00     0.042 C 
ENDROOT
BRANCH   1   2
ATOM      2  C   UNL A   1      33.233  28.382  27.375  1.00  0.00     0.118 C 
BRANCH   2   3
ATOM      3  N   UNL A   1      33.274  29.834  27.289  1.00  0.00    -0.352 N 
ATOM      4  O   UNL A   1      34.001  31.920  27.733  1.00  0.00    -0.269 OA
ATOM      5  C   UNL A   1      34.231  30.718  27.732  1.00  0.00     0.251 C 
ATOM      6  H   UNL A   1      32.499  30.247  26.845  1.00  0.00     0.163 HD
BRANCH   5   7
ATOM      7  C   UNL A   1      35.531  30.215  28.234  1.00  0.00     0.039 A 
ATOM      8  C   UNL A   1      35.648  29.693  29.522  1.00  0.00     0.014 A 
ATOM      9  C   UNL A   1      36.648  30.247  27.393  1.00  0.00     0.014 A 
ATOM     10  C   UNL A   1      36.901  29.371  30.029  1.00  0.00     0.010 A 
ATOM     11  C   UNL A   1      37.890  29.813  27.867  1.00  0.00     0.010 A 
ATOM     12  C   UNL A   1      38.033  29.401  29.200  1.00  0.00    -0.014 A 
BRANCH  12  13
ATOM     13  C   UNL A   1      39.330  28.916  29.735  1.00  0.00     0.031 A 
ATOM     14  C   UNL A   1      39.950  29.524  30.963  1.00  0.00     0.074 A 
ATOM     15  C   UNL A   1      39.937  27.886  29.111  1.00  0.00     0.049 A 
ATOM     16  N   UNL A   1      41.068  29.202  31.564  1.00  0.00    -0.248 NA
ATOM     17  C   UNL A   1      39.230  30.640  31.593  1.00  0.00     0.031 C 
ATOM     18  C   UNL A   1      39.437  27.224  27.903  1.00  0.00     0.029 A 
ATOM     19  N   UNL A   1      41.086  27.203  29.410  1.00  0.00    -0.354 N 
ATOM     20  C   UNL A   1      41.197  30.084  32.629  1.00  0.00     0.074 A 
ATOM     21  C   UNL A   1      40.055  30.973  32.577  1.00  0.00     0.031 C 
ATOM     22  C   UNL A   1      40.242  26.199  27.597  1.00  0.00     0.029 A 
ATOM     23  C   UNL A   1      41.353  26.175  28.540  1.00  0.00     0.049 A 
ATOM     24  H   UNL A   1      41.663  27.426  30.176  1.00  0.00     0.167 HD
ATOM     25  C   UNL A   1      42.175  30.141  33.565  1.00  0.00     0.037 A 
ATOM     26  C   UNL A   1      42.388  25.318  28.489  1.00  0.00     0.037 A 
ATOM     27  C   UNL A   1      43.302  29.244  33.617  1.00  0.00     0.049 A 
ATOM     28  C   UNL A   1      43.469  25.423  29.522  1.00  0.00     0.074 A 
ATOM     29  C   UNL A   1      44.326  29.197  34.548  1.00  0.00     0.029 A 
ATOM     30  N   UNL A   1      43.558  28.238  32.695  1.00  0.00    -0.354 N 
ATOM     31  N   UNL A   1      43.560  26.242  30.541  1.00  0.00    -0.248 NA
ATOM     32  C   UNL A   1      44.596  24.490  29.394  1.00  0.00     0.031 C 
ATOM     33  C   UNL A   1      45.224  28.196  34.163  1.00  0.00     0.029 A 
ATOM     34  C   UNL A   1      44.735  27.585  33.021  1.00  0.00     0.049 A 
ATOM     35  H   UNL A   1      42.985  28.021  31.923  1.00  0.00     0.167 HD
ATOM     36  C   UNL A   1      44.745  25.916  31.184  1.00  0.00     0.074 A 
ATOM     37  C   UNL A   1      45.327  24.809  30.453  1.00  0.00     0.031 C 
ATOM     38  C   UNL A   1      45.303  26.487  32.280  1.00  0.00     0.037 A 
BRANCH  25  39
ATOM     39  C   UNL A   1      42.084  31.224  34.602  1.00  0.00     0.057 A 
ATOM     40  C   UNL A   1      41.383  31.045  35.802  1.00  0.00     0.134 A 
ATOM     41  C   UNL A   1      42.749  32.444  34.420  1.00  0.00     0.134 A 
ATOM     42  F   UNL A   1      40.716  29.905  36.037  1.00  0.00    -0.206 F 
ATOM     43  C   UNL A   1      41.328  32.048  36.773  1.00  0.00     0.040 A 
ATOM     44  C   UNL A   1      42.721  33.445  35.392  1.00  0.00     0.040 A 
ATOM     45  F   UNL A   1      43.446  32.678  33.298  1.00  0.00    -0.206 F 
ATOM     46  C   UNL A   1      42.004  33.250  36.572  1.00  0.00     0.006 A 
ENDBRANCH  25  39
BRANCH  26  47
ATOM     47  C   UNL A   1      42.447  24.298  27.413  1.00  0.00     0.057 A 
ATOM     48  C   UNL A   1      41.892  23.026  27.588  1.00  0.00     0.134 A 
ATOM     49  C   UNL A   1      43.042  24.580  26.177  1.00  0.00     0.134 A 
ATOM     50  F   UNL A   1      41.322  22.694  28.756  1.00  0.00    -0.206 F 
ATOM     51  C   UNL A   1      41.937  22.065  26.577  1.00  0.00     0.040 A 
ATOM     52  C   UNL A   1      43.069  23.639  25.147  1.00  0.00     0.040 A 
ATOM     53  F   UNL A   1      43.583  25.785  25.943  1.00  0.00    -0.206 F 
ATOM     54  C   UNL A   1      42.520  22.374  25.349  1.00  0.00     0.006 A 
ENDBRANCH  26  47
BRANCH  38  55
ATOM     55  C   UNL A   1      46.598  25.903  32.761  1.00  0.00     0.057 A 
ATOM     56  C   UNL A   1      46.634  24.863  33.698  1.00  0.00     0.134 A 
ATOM     57  C   UNL A   1      47.820  26.372  32.264  1.00  0.00     0.134 A 
ATOM     58  F   UNL A   1      45.498  24.382  34.225  1.00  0.00    -0.206 F 
ATOM     59  C   UNL A   1      47.843  24.328  34.146  1.00  0.00     0.040 A 
ATOM     60  C   UNL A   1      49.034  25.826  32.684  1.00  0.00     0.040 A 
ATOM     61  F   UNL A   1      47.854  27.361  31.360  1.00  0.00    -0.206 F 
ATOM     62  C   UNL A   1      49.047  24.807  33.634  1.00  0.00     0.006 A 
ENDBRANCH  38  55
ENDBRANCH  12  13
ENDBRANCH   5   7
ENDBRANCH   2   3
ENDBRANCH   1   2
BRANCH   1  63
ATOM     63  C   UNL A   1      31.413  26.825  26.498  1.00  0.00     0.117 C 
BRANCH  63  64
ATOM     64  N   UNL A   1      31.338  25.473  27.015  1.00  0.00    -0.355 N 
ATOM     65  C   UNL A   1      31.845  24.302  26.539  1.00  0.00     0.228 C 
ATOM     66  H   UNL A   1      30.832  25.385  27.855  1.00  0.00     0.163 HD
ATOM     67  O   UNL A   1      31.734  23.318  27.281  1.00  0.00    -0.274 OA
BRANCH  65  68
ATOM     68  C   UNL A   1      32.532  24.170  25.171  1.00  0.00     0.120 C 
BRANCH  68  69
ATOM     69  C   UNL A   1      33.866  24.995  25.042  1.00  0.00     0.066 C 
BRANCH  69  70
ATOM     70  C   UNL A   1      35.068  24.046  24.848  1.00  0.00    -0.039 A 
ATOM     71  C   UNL A   1      35.416  23.603  23.562  1.00  0.00     0.004 A 
ATOM     72  C   UNL A   1      35.860  23.628  25.934  1.00  0.00     0.004 A 
ATOM     73  C   UNL A   1      36.533  22.789  23.368  1.00  0.00     0.000 A 
ATOM     74  C   UNL A   1      36.954  22.784  25.742  1.00  0.00     0.000 A 
ATOM     75  C   UNL A   1      37.296  22.373  24.458  1.00  0.00     0.000 A 
ENDBRANCH  69  70
BRANCH  69  76
ATOM     76  C   UNL A   1      33.847  26.154  24.015  1.00  0.00    -0.039 A 
ATOM     77  C   UNL A   1      34.195  27.480  24.328  1.00  0.00     0.004 A 
ATOM     78  C   UNL A   1      33.411  25.913  22.699  1.00  0.00     0.004 A 
ATOM     79  C   UNL A   1      34.108  28.507  23.380  1.00  0.00     0.000 A 
ATOM     80  C   UNL A   1      33.334  26.933  21.745  1.00  0.00     0.000 A 
ATOM     81  C   UNL A   1      33.680  28.234  22.087  1.00  0.00     0.000 A 
ENDBRANCH  69  76
ENDBRANCH  68  69
BRANCH  68  82
ATOM     82  C   UNL A   1      32.555  22.692  24.728  1.00  0.00    -0.035 A 
ATOM     83  C   UNL A   1      32.929  21.628  25.568  1.00  0.00     0.004 A 
ATOM     84  C   UNL A   1      32.147  22.373  23.420  1.00  0.00     0.004 A 
ATOM     85  C   UNL A   1      32.874  20.302  25.135  1.00  0.00     0.000 A 
ATOM     86  C   UNL A   1      32.109  21.047  22.980  1.00  0.00     0.000 A 
ATOM     87  C   UNL A   1      32.466  20.011  23.839  1.00  0.00     0.000 A 
ENDBRANCH  68  82
ENDBRANCH  65  68
ENDBRANCH  63  64
ENDBRANCH   1  63
TORSDOF 14
ENDMDL
MODEL 2
REMARK VINA RESULT:     -12.2      3.647      8.023
REMARK SMILES O=C(NCCCNC(=O)[C@H](c1ccccc1)C(c1ccccc1)c1ccccc1)c1ccc(-c2c3nc(c(-c4c(F)cccc4F)c4ccc([nH]4)c(-c4c(F)cccc4F)c4nc(c(-c5c(F)cccc5F)c5ccc2[nH]5)C=C4)C=C3)cc1
REMARK SMILES IDX 5 1 4 2 3 3 1 4 2 5 30 7 31 8 83 9 32 10 82 11 33 12 34 13
REMARK SMILES IDX 35 14 76 15 36 16 81 17 75 18 77 19 37 20 80 21 74 22 73 23
REMARK SMILES IDX 38 25 64 26 47 27 63 28 48 29 51 30 62 31 78 32 49 33 50 34
REMARK SMILES IDX 61 36 79 37 52 38 39 39 40 40 45 41 41 42 42 43 44 44 46 45
REMARK SMILES IDX 43 46 65 47 66 48 71 49 67 50 68 51 70 52 72 53 69 54 53 55
REMARK SMILES IDX 54 56 59 57 55 58 56 59 58 60 60 61 57 62 6 63 7 64 8 65
REMARK SMILES IDX 9 67 10 68 17 69 18 70 19 71 23 72 20 73 22 74 21 75 24 76
REMARK SMILES IDX 25 77 29 78 26 79 28 80 27 81 11 82 12 83 16 84 13 85 15 86
REMARK SMILES IDX 14 87
REMARK H PARENT 3 6 77 24 51 35 7 66
REMARK Flexibility Score: inf
ROOT
ATOM      1  C   UNL A   1      35.477  23.794  25.920  1.00  0.00     0.042 C 
ENDROOT
BRANCH   1   2
ATOM      2  C   UNL A   1      36.782  23.719  25.148  1.00  0.00     0.118 C 
BRANCH   2   3
ATOM      3  N   UNL A   1      37.639  22.633  25.598  1.00  0.00    -0.352 N 
ATOM      4  O   UNL A   1      39.515  21.655  26.374  1.00  0.00    -0.269 OA
ATOM      5  C   UNL A   1      38.856  22.677  26.240  1.00  0.00     0.251 C 
ATOM      6  H   UNL A   1      37.296  21.729  25.416  1.00  0.00     0.163 HD
BRANCH   5   7
ATOM      7  C   UNL A   1      39.382  23.966  26.746  1.00  0.00     0.039 A 
ATOM      8  C   UNL A   1      39.264  24.308  28.093  1.00  0.00     0.014 A 
ATOM      9  C   UNL A   1      40.024  24.838  25.860  1.00  0.00     0.014 A 
ATOM     10  C   UNL A   1      39.623  25.580  28.520  1.00  0.00     0.010 A 
ATOM     11  C   UNL A   1      40.490  26.075  26.317  1.00  0.00     0.010 A 
ATOM     12  C   UNL A   1      40.265  26.470  27.643  1.00  0.00    -0.014 A 
BRANCH  12  13
ATOM     13  C   UNL A   1      40.759  27.767  28.170  1.00  0.00     0.031 A 
ATOM     14  C   UNL A   1      42.223  28.106  28.176  1.00  0.00     0.074 A 
ATOM     15  C   UNL A   1      39.856  28.662  28.620  1.00  0.00     0.049 A 
ATOM     16  N   UNL A   1      42.811  29.202  28.586  1.00  0.00    -0.248 NA
ATOM     17  C   UNL A   1      43.149  27.084  27.666  1.00  0.00     0.031 C 
ATOM     18  C   UNL A   1      38.409  28.439  28.676  1.00  0.00     0.029 A 
ATOM     19  N   UNL A   1      40.012  29.937  29.095  1.00  0.00    -0.354 N 
ATOM     20  C   UNL A   1      44.173  28.997  28.403  1.00  0.00     0.074 A 
ATOM     21  C   UNL A   1      44.327  27.661  27.868  1.00  0.00     0.031 C 
ATOM     22  C   UNL A   1      37.807  29.556  29.104  1.00  0.00     0.029 A 
ATOM     23  C   UNL A   1      38.827  30.547  29.423  1.00  0.00     0.049 A 
ATOM     24  H   UNL A   1      40.889  30.374  29.191  1.00  0.00     0.167 HD
ATOM     25  C   UNL A   1      45.196  29.849  28.652  1.00  0.00     0.037 A 
ATOM     26  C   UNL A   1      38.583  31.763  29.944  1.00  0.00     0.037 A 
ATOM     27  C   UNL A   1      45.033  31.183  29.173  1.00  0.00     0.049 A 
ATOM     28  C   UNL A   1      39.738  32.673  30.236  1.00  0.00     0.074 A 
ATOM     29  C   UNL A   1      46.006  32.136  29.425  1.00  0.00     0.029 A 
ATOM     30  N   UNL A   1      43.818  31.752  29.528  1.00  0.00    -0.354 N 
ATOM     31  N   UNL A   1      41.016  32.476  30.027  1.00  0.00    -0.248 NA
ATOM     32  C   UNL A   1      39.417  33.971  30.843  1.00  0.00     0.031 C 
ATOM     33  C   UNL A   1      45.385  33.263  29.976  1.00  0.00     0.029 A 
ATOM     34  C   UNL A   1      44.020  33.032  30.021  1.00  0.00     0.049 A 
ATOM     35  H   UNL A   1      42.942  31.312  29.442  1.00  0.00     0.167 HD
ATOM     36  C   UNL A   1      41.653  33.629  30.464  1.00  0.00     0.074 A 
ATOM     37  C   UNL A   1      40.616  34.529  30.927  1.00  0.00     0.031 C 
ATOM     38  C   UNL A   1      42.978  33.913  30.483  1.00  0.00     0.037 A 
BRANCH  25  39
ATOM     39  C   UNL A   1      46.591  29.359  28.386  1.00  0.00     0.057 A 
ATOM     40  C   UNL A   1      47.219  29.545  27.148  1.00  0.00     0.134 A 
ATOM     41  C   UNL A   1      47.334  28.737  29.398  1.00  0.00     0.134 A 
ATOM     42  F   UNL A   1      46.562  30.125  26.132  1.00  0.00    -0.206 F 
ATOM     43  C   UNL A   1      48.527  29.111  26.919  1.00  0.00     0.040 A 
ATOM     44  C   UNL A   1      48.650  28.320  29.189  1.00  0.00     0.040 A 
ATOM     45  F   UNL A   1      46.797  28.535  30.610  1.00  0.00    -0.206 F 
ATOM     46  C   UNL A   1      49.249  28.502  27.944  1.00  0.00     0.006 A 
ENDBRANCH  25  39
BRANCH  26  47
ATOM     47  C   UNL A   1      37.187  32.175  30.230  1.00  0.00     0.057 A 
ATOM     48  C   UNL A   1      36.395  32.781  29.249  1.00  0.00     0.134 A 
ATOM     49  C   UNL A   1      36.605  31.951  31.484  1.00  0.00     0.134 A 
ATOM     50  F   UNL A   1      36.901  33.034  28.034  1.00  0.00    -0.206 F 
ATOM     51  C   UNL A   1      35.078  33.164  29.509  1.00  0.00     0.040 A 
ATOM     52  C   UNL A   1      35.280  32.301  31.749  1.00  0.00     0.040 A 
ATOM     53  F   UNL A   1      37.309  31.363  32.463  1.00  0.00    -0.206 F 
ATOM     54  C   UNL A   1      34.515  32.916  30.760  1.00  0.00     0.006 A 
ENDBRANCH  26  47
BRANCH  38  55
ATOM     55  C   UNL A   1      43.372  35.264  31.003  1.00  0.00     0.057 A 
ATOM     56  C   UNL A   1      43.541  36.361  30.150  1.00  0.00     0.134 A 
ATOM     57  C   UNL A   1      43.563  35.472  32.374  1.00  0.00     0.134 A 
ATOM     58  F   UNL A   1      43.389  36.223  28.824  1.00  0.00    -0.206 F 
ATOM     59  C   UNL A   1      43.913  37.615  30.640  1.00  0.00     0.040 A 
ATOM     60  C   UNL A   1      43.909  36.726  32.879  1.00  0.00     0.040 A 
ATOM     61  F   UNL A   1      43.411  34.463  33.245  1.00  0.00    -0.206 F 
ATOM     62  C   UNL A   1      44.093  37.799  32.010  1.00  0.00     0.006 A 
ENDBRANCH  38  55
ENDBRANCH  12  13
ENDBRANCH   5   7
ENDBRANCH   2   3
ENDBRANCH   1   2
BRANCH   1  63
ATOM     63  C   UNL A   1      34.560  24.926  25.486  1.00  0.00     0.117 C 
BRANCH  63  64
ATOM     64  N   UNL A   1      33.404  25.086  26.345  1.00  0.00    -0.355 N 
ATOM     65  C   UNL A   1      32.105  25.376  26.056  1.00  0.00     0.228 C 
ATOM     66  H   UNL A   1      33.589  24.964  27.305  1.00  0.00     0.163 HD
ATOM     67  O   UNL A   1      31.308  25.308  27.000  1.00  0.00    -0.274 OA
BRANCH  65  68
ATOM     68  C   UNL A   1      31.616  25.759  24.652  1.00  0.00     0.120 C 
BRANCH  68  69
ATOM     69  C   UNL A   1      31.913  27.253  24.255  1.00  0.00     0.066 C 
BRANCH  69  70
ATOM     70  C   UNL A   1      30.676  27.887  23.582  1.00  0.00    -0.039 A 
ATOM     71  C   UNL A   1      29.406  27.316  23.761  1.00  0.00     0.004 A 
ATOM     72  C   UNL A   1      30.777  29.057  22.807  1.00  0.00     0.004 A 
ATOM     73  C   UNL A   1      28.274  27.910  23.203  1.00  0.00     0.000 A 
ATOM     74  C   UNL A   1      29.649  29.629  22.219  1.00  0.00     0.000 A 
ATOM     75  C   UNL A   1      28.396  29.061  22.426  1.00  0.00     0.000 A 
ENDBRANCH  69  70
BRANCH  69  76
ATOM     76  C   UNL A   1      32.508  28.143  25.373  1.00  0.00    -0.039 A 
ATOM     77  C   UNL A   1      31.729  28.815  26.334  1.00  0.00     0.004 A 
ATOM     78  C   UNL A   1      33.897  28.358  25.430  1.00  0.00     0.004 A 
ATOM     79  C   UNL A   1      32.307  29.655  27.293  1.00  0.00     0.000 A 
ATOM     80  C   UNL A   1      34.480  29.188  26.394  1.00  0.00     0.000 A 
ATOM     81  C   UNL A   1      33.684  29.840  27.325  1.00  0.00     0.000 A 
ENDBRANCH  69  76
ENDBRANCH  68  69
BRANCH  68  82
ATOM     82  C   UNL A   1      31.994  24.657  23.638  1.00  0.00    -0.035 A 
ATOM     83  C   UNL A   1      32.736  24.892  22.468  1.00  0.00     0.004 A 
ATOM     84  C   UNL A   1      31.609  23.332  23.908  1.00  0.00     0.004 A 
ATOM     85  C   UNL A   1      33.104  23.848  21.616  1.00  0.00     0.000 A 
ATOM     86  C   UNL A   1      31.960  22.290  23.046  1.00  0.00     0.000 A 
ATOM     87  C   UNL A   1      32.713  22.546  21.903  1.00  0.00     0.000 A 
ENDBRANCH  68  82
ENDBRANCH  65  68
ENDBRANCH  63  64
ENDBRANCH   1  63
TORSDOF 14
ENDMDL
MODEL 3
REMARK VINA RESULT:     -12.1      2.879      7.304
REMARK SMILES O=C(NCCCNC(=O)[C@H](c1ccccc1)C(c1ccccc1)c1ccccc1)c1ccc(-c2c3nc(c(-c4c(F)cccc4F)c4ccc([nH]4)c(-c4c(F)cccc4F)c4nc(c(-c5c(F)cccc5F)c5ccc2[nH]5)C=C4)C=C3)cc1
REMARK SMILES IDX 5 1 4 2 3 3 1 4 2 5 30 7 31 8 83 9 32 10 82 11 33 12 34 13
REMARK SMILES IDX 35 14 76 15 36 16 81 17 75 18 77 19 37 20 80 21 74 22 73 23
REMARK SMILES IDX 38 25 64 26 47 27 63 28 48 29 51 30 62 31 78 32 49 33 50 34
REMARK SMILES IDX 61 36 79 37 52 38 39 39 40 40 45 41 41 42 42 43 44 44 46 45
REMARK SMILES IDX 43 46 65 47 66 48 71 49 67 50 68 51 70 52 72 53 69 54 53 55
REMARK SMILES IDX 54 56 59 57 55 58 56 59 58 60 60 61 57 62 6 63 7 64 8 65
REMARK SMILES IDX 9 67 10 68 17 69 18 70 19 71 23 72 20 73 22 74 21 75 24 76
REMARK SMILES IDX 25 77 29 78 26 79 28 80 27 81 11 82 12 83 16 84 13 85 15 86
REMARK SMILES IDX 14 87
REMARK H PARENT 3 6 77 24 51 35 7 66
REMARK Flexibility Score: inf
ROOT
ATOM      1  C   UNL A   1      35.704  23.629  25.698  1.00  0.00     0.042 C 
ENDROOT
BRANCH   1   2
ATOM      2  C   UNL A   1      37.068  23.897  25.087  1.00  0.00     0.118 C 
BRANCH   2   3
ATOM      3  N   UNL A   1      38.037  22.859  25.403  1.00  0.00    -0.352 N 
ATOM      4  O   UNL A   1      39.988  21.992  26.122  1.00  0.00    -0.269 OA
ATOM      5  C   UNL A   1      39.210  22.936  26.119  1.00  0.00     0.251 C 
ATOM      6  H   UNL A   1      37.821  21.966  25.050  1.00  0.00     0.163 HD
BRANCH   5   7
ATOM      7  C   UNL A   1      39.544  24.170  26.867  1.00  0.00     0.039 A 
ATOM      8  C   UNL A   1      39.146  24.333  28.194  1.00  0.00     0.014 A 
ATOM      9  C   UNL A   1      40.287  25.173  26.236  1.00  0.00     0.014 A 
ATOM     10  C   UNL A   1      39.332  25.554  28.829  1.00  0.00     0.010 A 
ATOM     11  C   UNL A   1      40.575  26.360  26.918  1.00  0.00     0.010 A 
ATOM     12  C   UNL A   1      40.073  26.573  28.209  1.00  0.00    -0.014 A 
BRANCH  12  13
ATOM     13  C   UNL A   1      40.371  27.812  28.972  1.00  0.00     0.031 A 
ATOM     14  C   UNL A   1      39.373  28.931  29.074  1.00  0.00     0.074 A 
ATOM     15  C   UNL A   1      41.558  27.903  29.606  1.00  0.00     0.049 A 
ATOM     16  N   UNL A   1      39.477  30.068  29.715  1.00  0.00    -0.248 NA
ATOM     17  C   UNL A   1      38.100  28.760  28.361  1.00  0.00     0.031 C 
ATOM     18  C   UNL A   1      42.612  26.886  29.568  1.00  0.00     0.029 A 
ATOM     19  N   UNL A   1      42.071  28.880  30.419  1.00  0.00    -0.354 N 
ATOM     20  C   UNL A   1      38.296  30.755  29.469  1.00  0.00     0.074 A 
ATOM     21  C   UNL A   1      37.498  29.918  28.598  1.00  0.00     0.031 C 
ATOM     22  C   UNL A   1      43.619  27.264  30.364  1.00  0.00     0.029 A 
ATOM     23  C   UNL A   1      43.318  28.582  30.910  1.00  0.00     0.049 A 
ATOM     24  H   UNL A   1      41.592  29.714  30.630  1.00  0.00     0.167 HD
ATOM     25  C   UNL A   1      37.912  31.969  29.933  1.00  0.00     0.037 A 
ATOM     26  C   UNL A   1      44.141  29.296  31.698  1.00  0.00     0.037 A 
ATOM     27  C   UNL A   1      38.707  32.791  30.811  1.00  0.00     0.049 A 
ATOM     28  C   UNL A   1      43.701  30.647  32.174  1.00  0.00     0.074 A 
ATOM     29  C   UNL A   1      38.389  34.020  31.366  1.00  0.00     0.029 A 
ATOM     30  N   UNL A   1      39.981  32.471  31.258  1.00  0.00    -0.354 N 
ATOM     31  N   UNL A   1      42.568  31.269  31.957  1.00  0.00    -0.248 NA
ATOM     32  C   UNL A   1      44.656  31.400  32.995  1.00  0.00     0.031 C 
ATOM     33  C   UNL A   1      39.489  34.463  32.109  1.00  0.00     0.029 A 
ATOM     34  C   UNL A   1      40.472  33.490  32.059  1.00  0.00     0.049 A 
ATOM     35  H   UNL A   1      40.465  31.641  31.039  1.00  0.00     0.167 HD
ATOM     36  C   UNL A   1      42.666  32.480  32.627  1.00  0.00     0.074 A 
ATOM     37  C   UNL A   1      43.962  32.495  33.275  1.00  0.00     0.031 C 
ATOM     38  C   UNL A   1      41.766  33.491  32.693  1.00  0.00     0.037 A 
BRANCH  25  39
ATOM     39  C   UNL A   1      36.578  32.497  29.485  1.00  0.00     0.057 A 
ATOM     40  C   UNL A   1      36.447  33.323  28.362  1.00  0.00     0.134 A 
ATOM     41  C   UNL A   1      35.404  32.132  30.158  1.00  0.00     0.134 A 
ATOM     42  F   UNL A   1      37.531  33.719  27.677  1.00  0.00    -0.206 F 
ATOM     43  C   UNL A   1      35.199  33.785  27.937  1.00  0.00     0.040 A 
ATOM     44  C   UNL A   1      34.150  32.568  29.729  1.00  0.00     0.040 A 
ATOM     45  F   UNL A   1      35.457  31.336  31.236  1.00  0.00    -0.206 F 
ATOM     46  C   UNL A   1      34.045  33.402  28.617  1.00  0.00     0.006 A 
ENDBRANCH  25  39
BRANCH  26  47
ATOM     47  C   UNL A   1      45.467  28.743  32.070  1.00  0.00     0.057 A 
ATOM     48  C   UNL A   1      46.593  28.956  31.268  1.00  0.00     0.134 A 
ATOM     49  C   UNL A   1      45.643  28.007  33.249  1.00  0.00     0.134 A 
ATOM     50  F   UNL A   1      46.483  29.641  30.120  1.00  0.00    -0.206 F 
ATOM     51  C   UNL A   1      47.844  28.446  31.616  1.00  0.00     0.040 A 
ATOM     52  C   UNL A   1      46.893  27.516  33.625  1.00  0.00     0.040 A 
ATOM     53  F   UNL A   1      44.604  27.777  34.066  1.00  0.00    -0.206 F 
ATOM     54  C   UNL A   1      47.998  27.730  32.802  1.00  0.00     0.006 A 
ENDBRANCH  26  47
BRANCH  38  55
ATOM     55  C   UNL A   1      42.150  34.684  33.517  1.00  0.00     0.057 A 
ATOM     56  C   UNL A   1      41.859  34.760  34.884  1.00  0.00     0.134 A 
ATOM     57  C   UNL A   1      42.835  35.759  32.938  1.00  0.00     0.134 A 
ATOM     58  F   UNL A   1      41.189  33.771  35.494  1.00  0.00    -0.206 F 
ATOM     59  C   UNL A   1      42.214  35.877  35.643  1.00  0.00     0.040 A 
ATOM     60  C   UNL A   1      43.219  36.869  33.692  1.00  0.00     0.040 A 
ATOM     61  F   UNL A   1      43.149  35.745  31.634  1.00  0.00    -0.206 F 
ATOM     62  C   UNL A   1      42.902  36.933  35.047  1.00  0.00     0.006 A 
ENDBRANCH  38  55
ENDBRANCH  12  13
ENDBRANCH   5   7
ENDBRANCH   2   3
ENDBRANCH   1   2
BRANCH   1  63
ATOM     63  C   UNL A   1      34.676  24.716  25.428  1.00  0.00     0.117 C 
BRANCH  63  64
ATOM     64  N   UNL A   1      33.579  24.713  26.376  1.00  0.00    -0.355 N 
ATOM     65  C   UNL A   1      32.234  24.828  26.192  1.00  0.00     0.228 C 
ATOM     66  H   UNL A   1      33.852  24.610  27.316  1.00  0.00     0.163 HD
ATOM     67  O   UNL A   1      31.529  24.647  27.192  1.00  0.00    -0.274 OA
BRANCH  65  68
ATOM     68  C   UNL A   1      31.590  25.152  24.835  1.00  0.00     0.120 C 
BRANCH  68  69
ATOM     69  C   UNL A   1      31.712  26.663  24.413  1.00  0.00     0.066 C 
BRANCH  69  70
ATOM     70  C   UNL A   1      30.348  27.196  23.923  1.00  0.00    -0.039 A 
ATOM     71  C   UNL A   1      29.173  26.476  24.189  1.00  0.00     0.004 A 
ATOM     72  C   UNL A   1      30.239  28.417  23.232  1.00  0.00     0.004 A 
ATOM     73  C   UNL A   1      27.929  26.973  23.798  1.00  0.00     0.000 A 
ATOM     74  C   UNL A   1      28.998  28.895  22.809  1.00  0.00     0.000 A 
ATOM     75  C   UNL A   1      27.843  28.177  23.101  1.00  0.00     0.000 A 
ENDBRANCH  69  70
BRANCH  69  76
ATOM     76  C   UNL A   1      32.383  27.601  25.446  1.00  0.00    -0.039 A 
ATOM     77  C   UNL A   1      33.729  28.006  25.374  1.00  0.00     0.004 A 
ATOM     78  C   UNL A   1      31.651  28.050  26.561  1.00  0.00     0.004 A 
ATOM     79  C   UNL A   1      34.309  28.810  26.363  1.00  0.00     0.000 A 
ATOM     80  C   UNL A   1      32.223  28.863  27.545  1.00  0.00     0.000 A 
ATOM     81  C   UNL A   1      33.556  29.241  27.448  1.00  0.00     0.000 A 
ENDBRANCH  69  76
ENDBRANCH  68  69
BRANCH  68  82
ATOM     82  C   UNL A   1      31.979  24.081  23.793  1.00  0.00    -0.035 A 
ATOM     83  C   UNL A   1      32.651  24.366  22.591  1.00  0.00     0.004 A 
ATOM     84  C   UNL A   1      31.679  22.735  24.066  1.00  0.00     0.004 A 
ATOM     85  C   UNL A   1      33.033  23.351  21.711  1.00  0.00     0.000 A 
ATOM     86  C   UNL A   1      32.046  21.721  23.177  1.00  0.00     0.000 A 
ATOM     87  C   UNL A   1      32.728  22.027  22.003  1.00  0.00     0.000 A 
ENDBRANCH  68  82
ENDBRANCH  65  68
ENDBRANCH  63  64
ENDBRANCH   1  63
TORSDOF 14
ENDMDL
