MODEL 1
REMARK VINA RESULT:     -11.1      0.000      0.000
REMARK SMILES O=C(NCCCNC(=O)c1ccccc1OCC[S@@](=O)c1cccc(F)c1)c1ccc(-c2c3nc(c(-c4c(F)cccc4F)c4ccc([nH]4)c(-c4c(F)cccc4F)c4nc(c(-c5c(F)cccc5F)c5ccc2[nH]5)C=C4)C=C3)cc1
REMARK SMILES IDX 7 1 8 2 9 3 6 5 5 6 4 7 3 8 1 9 2 10 28 12 29 13 81 14 30 15
REMARK SMILES IDX 80 16 31 17 32 18 33 19 74 20 34 21 79 22 73 23 75 24 35 25
REMARK SMILES IDX 78 26 72 27 71 28 36 30 62 31 45 32 61 33 46 34 49 35 60 36
REMARK SMILES IDX 76 37 47 38 48 39 59 41 77 42 50 43 37 44 38 45 43 46 39 47
REMARK SMILES IDX 40 48 42 49 44 50 41 51 63 52 64 53 69 54 65 55 66 56 68 57
REMARK SMILES IDX 70 58 67 59 51 60 52 61 57 62 53 63 54 64 56 65 58 66 55 67
REMARK SMILES IDX 10 68 11 69 15 70 12 71 14 72 13 73 16 74 17 75 18 76 19 77
REMARK SMILES IDX 20 78 21 79 22 80 27 81 23 82 25 83 24 84 26 85
REMARK H PARENT 7 4 3 11 75 29 49 40
REMARK Flexibility Score: inf
ROOT
ATOM      1  N   UNL A   1      33.305  34.191  29.117  1.00  0.00    -0.352 N 
ATOM      2  C   UNL A   1      32.976  35.448  29.595  1.00  0.00     0.255 C 
ATOM      3  O   UNL A   1      32.227  36.110  28.868  1.00  0.00    -0.269 OA
ATOM      4  H   UNL A   1      32.604  33.818  28.534  1.00  0.00     0.163 HD
ENDROOT
BRANCH   1   5
ATOM      5  C   UNL A   1      34.435  33.287  29.269  1.00  0.00     0.118 C 
BRANCH   5   6
ATOM      6  C   UNL A   1      35.010  32.679  28.005  1.00  0.00     0.042 C 
BRANCH   6   7
ATOM      7  C   UNL A   1      35.555  31.284  28.236  1.00  0.00     0.118 C 
BRANCH   7   8
ATOM      8  N   UNL A   1      35.544  30.891  29.657  1.00  0.00    -0.352 N 
ATOM      9  O   UNL A   1      36.002  29.715  31.527  1.00  0.00    -0.269 OA
ATOM     10  C   UNL A   1      36.369  30.085  30.407  1.00  0.00     0.251 C 
ATOM     11  H   UNL A   1      34.799  31.281  30.170  1.00  0.00     0.163 HD
BRANCH  10  12
ATOM     12  C   UNL A   1      37.684  29.662  29.893  1.00  0.00     0.039 A 
ATOM     13  C   UNL A   1      38.548  28.988  30.742  1.00  0.00     0.014 A 
ATOM     14  C   UNL A   1      38.072  29.901  28.569  1.00  0.00     0.014 A 
ATOM     15  C   UNL A   1      39.871  28.832  30.394  1.00  0.00     0.010 A 
ATOM     16  C   UNL A   1      39.352  29.522  28.141  1.00  0.00     0.010 A 
ATOM     17  C   UNL A   1      40.274  29.014  29.067  1.00  0.00    -0.014 A 
BRANCH  17  18
ATOM     18  C   UNL A   1      41.637  28.544  28.711  1.00  0.00     0.031 A 
ATOM     19  C   UNL A   1      41.890  27.137  28.262  1.00  0.00     0.074 A 
ATOM     20  C   UNL A   1      42.629  29.461  28.701  1.00  0.00     0.049 A 
ATOM     21  N   UNL A   1      43.018  26.590  27.888  1.00  0.00    -0.248 NA
ATOM     22  C   UNL A   1      40.742  26.218  28.239  1.00  0.00     0.031 C 
ATOM     23  C   UNL A   1      42.484  30.864  29.115  1.00  0.00     0.029 A 
ATOM     24  N   UNL A   1      43.929  29.385  28.276  1.00  0.00    -0.354 N 
ATOM     25  C   UNL A   1      42.725  25.261  27.613  1.00  0.00     0.074 A 
ATOM     26  C   UNL A   1      41.316  25.075  27.886  1.00  0.00     0.031 C 
ATOM     27  C   UNL A   1      43.603  31.534  28.820  1.00  0.00     0.029 A 
ATOM     28  C   UNL A   1      44.592  30.587  28.336  1.00  0.00     0.049 A 
ATOM     29  H   UNL A   1      44.346  28.552  27.960  1.00  0.00     0.167 HD
ATOM     30  C   UNL A   1      43.562  24.293  27.169  1.00  0.00     0.037 A 
ATOM     31  C   UNL A   1      45.875  30.893  28.075  1.00  0.00     0.037 A 
ATOM     32  C   UNL A   1      44.960  24.508  26.890  1.00  0.00     0.049 A 
ATOM     33  C   UNL A   1      46.784  29.788  27.639  1.00  0.00     0.074 A 
ATOM     34  C   UNL A   1      45.901  23.598  26.445  1.00  0.00     0.029 A 
ATOM     35  N   UNL A   1      45.616  25.724  27.030  1.00  0.00    -0.354 N 
ATOM     36  N   UNL A   1      46.497  28.530  27.404  1.00  0.00    -0.248 NA
ATOM     37  C   UNL A   1      48.196  30.134  27.451  1.00  0.00     0.031 C 
ATOM     38  C   UNL A   1      47.136  24.250  26.363  1.00  0.00     0.029 A 
ATOM     39  C   UNL A   1      46.954  25.583  26.696  1.00  0.00     0.049 A 
ATOM     40  H   UNL A   1      45.193  26.564  27.321  1.00  0.00     0.167 HD
ATOM     41  C   UNL A   1      47.690  27.935  27.025  1.00  0.00     0.074 A 
ATOM     42  C   UNL A   1      48.695  28.980  27.034  1.00  0.00     0.031 C 
ATOM     43  C   UNL A   1      47.933  26.641  26.709  1.00  0.00     0.037 A 
BRANCH  30  44
ATOM     44  C   UNL A   1      42.998  22.912  26.988  1.00  0.00     0.057 A 
ATOM     45  C   UNL A   1      42.692  22.081  28.074  1.00  0.00     0.134 A 
ATOM     46  C   UNL A   1      42.724  22.416  25.705  1.00  0.00     0.134 A 
ATOM     47  F   UNL A   1      42.940  22.485  29.329  1.00  0.00    -0.206 F 
ATOM     48  C   UNL A   1      42.156  20.805  27.892  1.00  0.00     0.040 A 
ATOM     49  C   UNL A   1      42.162  21.153  25.512  1.00  0.00     0.040 A 
ATOM     50  F   UNL A   1      42.987  23.157  24.618  1.00  0.00    -0.206 F 
ATOM     51  C   UNL A   1      41.882  20.340  26.607  1.00  0.00     0.006 A 
ENDBRANCH  30  44
BRANCH  31  52
ATOM     52  C   UNL A   1      46.372  32.278  28.286  1.00  0.00     0.057 A 
ATOM     53  C   UNL A   1      46.964  32.666  29.492  1.00  0.00     0.134 A 
ATOM     54  C   UNL A   1      46.266  33.248  27.281  1.00  0.00     0.134 A 
ATOM     55  F   UNL A   1      47.084  31.789  30.499  1.00  0.00    -0.206 F 
ATOM     56  C   UNL A   1      47.413  33.971  29.698  1.00  0.00     0.040 A 
ATOM     57  C   UNL A   1      46.745  34.546  27.458  1.00  0.00     0.040 A 
ATOM     58  F   UNL A   1      45.719  32.941  26.094  1.00  0.00    -0.206 F 
ATOM     59  C   UNL A   1      47.311  34.915  28.676  1.00  0.00     0.006 A 
ENDBRANCH  31  52
BRANCH  43  60
ATOM     60  C   UNL A   1      49.337  26.307  26.303  1.00  0.00     0.057 A 
ATOM     61  C   UNL A   1      50.249  25.726  27.193  1.00  0.00     0.134 A 
ATOM     62  C   UNL A   1      49.778  26.568  24.999  1.00  0.00     0.134 A 
ATOM     63  F   UNL A   1      49.894  25.471  28.461  1.00  0.00    -0.206 F 
ATOM     64  C   UNL A   1      51.562  25.447  26.810  1.00  0.00     0.040 A 
ATOM     65  C   UNL A   1      51.077  26.262  24.595  1.00  0.00     0.040 A 
ATOM     66  F   UNL A   1      48.952  27.118  24.097  1.00  0.00    -0.206 F 
ATOM     67  C   UNL A   1      51.975  25.709  25.505  1.00  0.00     0.006 A 
ENDBRANCH  43  60
ENDBRANCH  17  18
ENDBRANCH  10  12
ENDBRANCH   7   8
ENDBRANCH   6   7
ENDBRANCH   5   6
ENDBRANCH   1   5
BRANCH   2  68
ATOM     68  C   UNL A   1      33.184  35.993  30.974  1.00  0.00     0.081 A 
ATOM     69  C   UNL A   1      33.305  37.401  31.003  1.00  0.00     0.018 A 
ATOM     70  C   UNL A   1      33.495  35.312  32.166  1.00  0.00     0.132 A 
ATOM     71  C   UNL A   1      33.665  38.098  32.167  1.00  0.00     0.001 A 
ATOM     72  C   UNL A   1      33.879  36.020  33.327  1.00  0.00     0.047 A 
ATOM     73  C   UNL A   1      33.945  37.406  33.336  1.00  0.00     0.004 A 
BRANCH  70  74
ATOM     74  O   UNL A   1      33.473  33.968  32.391  1.00  0.00    -0.492 OA
BRANCH  74  75
ATOM     75  C   UNL A   1      34.281  33.548  33.483  1.00  0.00     0.243 C 
BRANCH  75  76
ATOM     76  C   UNL A   1      35.397  32.507  33.214  1.00  0.00     0.152 C 
BRANCH  76  77
ATOM     77  S   UNL A   1      37.074  32.866  33.895  1.00  0.00     0.056 S 
ATOM     78  O   UNL A   1      37.530  31.688  34.702  1.00  0.00    -0.254 OA
BRANCH  77  79
ATOM     79  C   UNL A   1      38.110  32.852  32.454  1.00  0.00     0.042 A 
ATOM     80  C   UNL A   1      39.419  32.375  32.500  1.00  0.00     0.018 A 
ATOM     81  C   UNL A   1      37.601  33.391  31.269  1.00  0.00     0.057 A 
ATOM     82  C   UNL A   1      40.193  32.358  31.344  1.00  0.00     0.004 A 
ATOM     83  C   UNL A   1      38.385  33.381  30.126  1.00  0.00     0.124 A 
ATOM     84  C   UNL A   1      39.671  32.854  30.151  1.00  0.00     0.039 A 
ATOM     85  F   UNL A   1      37.894  33.882  28.986  1.00  0.00    -0.207 F 
ENDBRANCH  77  79
ENDBRANCH  76  77
ENDBRANCH  75  76
ENDBRANCH  74  75
ENDBRANCH  70  74
ENDBRANCH   2  68
TORSDOF 15
ENDMDL
MODEL 2
REMARK VINA RESULT:     -11.0      5.513     10.469
REMARK SMILES O=C(NCCCNC(=O)c1ccccc1OCC[S@@](=O)c1cccc(F)c1)c1ccc(-c2c3nc(c(-c4c(F)cccc4F)c4ccc([nH]4)c(-c4c(F)cccc4F)c4nc(c(-c5c(F)cccc5F)c5ccc2[nH]5)C=C4)C=C3)cc1
REMARK SMILES IDX 7 1 8 2 9 3 6 5 5 6 4 7 3 8 1 9 2 10 28 12 29 13 81 14 30 15
REMARK SMILES IDX 80 16 31 17 32 18 33 19 74 20 34 21 79 22 73 23 75 24 35 25
REMARK SMILES IDX 78 26 72 27 71 28 36 30 62 31 45 32 61 33 46 34 49 35 60 36
REMARK SMILES IDX 76 37 47 38 48 39 59 41 77 42 50 43 37 44 38 45 43 46 39 47
REMARK SMILES IDX 40 48 42 49 44 50 41 51 63 52 64 53 69 54 65 55 66 56 68 57
REMARK SMILES IDX 70 58 67 59 51 60 52 61 57 62 53 63 54 64 56 65 58 66 55 67
REMARK SMILES IDX 10 68 11 69 15 70 12 71 14 72 13 73 16 74 17 75 18 76 19 77
REMARK SMILES IDX 20 78 21 79 22 80 27 81 23 82 25 83 24 84 26 85
REMARK H PARENT 7 4 3 11 75 29 49 40
REMARK Flexibility Score: inf
ROOT
ATOM      1  N   UNL A   1      32.211  29.760  26.022  1.00  0.00    -0.352 N 
ATOM      2  C   UNL A   1      33.085  28.847  25.458  1.00  0.00     0.255 C 
ATOM      3  O   UNL A   1      34.142  28.674  26.077  1.00  0.00    -0.269 OA
ATOM      4  H   UNL A   1      32.312  29.818  27.001  1.00  0.00     0.163 HD
ENDROOT
BRANCH   1   5
ATOM      5  C   UNL A   1      31.178  30.653  25.521  1.00  0.00     0.118 C 
BRANCH   5   6
ATOM      6  C   UNL A   1      31.050  32.007  26.190  1.00  0.00     0.042 C 
BRANCH   6   7
ATOM      7  C   UNL A   1      32.316  32.409  26.919  1.00  0.00     0.118 C 
BRANCH   7   8
ATOM      8  N   UNL A   1      32.273  33.795  27.423  1.00  0.00    -0.352 N 
ATOM      9  O   UNL A   1      32.606  35.554  28.795  1.00  0.00    -0.269 OA
ATOM     10  C   UNL A   1      33.002  34.460  28.382  1.00  0.00     0.251 C 
ATOM     11  H   UNL A   1      31.588  34.353  26.989  1.00  0.00     0.163 HD
BRANCH  10  12
ATOM     12  C   UNL A   1      34.250  33.886  28.917  1.00  0.00     0.039 A 
ATOM     13  C   UNL A   1      34.178  32.746  29.702  1.00  0.00     0.014 A 
ATOM     14  C   UNL A   1      35.502  34.446  28.634  1.00  0.00     0.014 A 
ATOM     15  C   UNL A   1      35.269  32.352  30.443  1.00  0.00     0.010 A 
ATOM     16  C   UNL A   1      36.655  33.890  29.206  1.00  0.00     0.010 A 
ATOM     17  C   UNL A   1      36.540  32.857  30.146  1.00  0.00    -0.014 A 
BRANCH  17  18
ATOM     18  C   UNL A   1      37.696  32.172  30.777  1.00  0.00     0.031 A 
ATOM     19  C   UNL A   1      38.089  32.443  32.197  1.00  0.00     0.074 A 
ATOM     20  C   UNL A   1      38.320  31.213  30.059  1.00  0.00     0.049 A 
ATOM     21  N   UNL A   1      39.054  31.900  32.895  1.00  0.00    -0.248 NA
ATOM     22  C   UNL A   1      37.317  33.457  32.932  1.00  0.00     0.031 C 
ATOM     23  C   UNL A   1      38.007  30.867  28.664  1.00  0.00     0.029 A 
ATOM     24  N   UNL A   1      39.292  30.311  30.402  1.00  0.00    -0.354 N 
ATOM     25  C   UNL A   1      39.024  32.522  34.135  1.00  0.00     0.074 A 
ATOM     26  C   UNL A   1      37.962  33.503  34.089  1.00  0.00     0.031 C 
ATOM     27  C   UNL A   1      38.685  29.768  28.314  1.00  0.00     0.029 A 
ATOM     28  C   UNL A   1      39.585  29.418  29.399  1.00  0.00     0.049 A 
ATOM     29  H   UNL A   1      39.736  30.304  31.280  1.00  0.00     0.167 HD
ATOM     30  C   UNL A   1      39.815  32.287  35.210  1.00  0.00     0.037 A 
ATOM     31  C   UNL A   1      40.513  28.448  29.335  1.00  0.00     0.037 A 
ATOM     32  C   UNL A   1      40.859  31.293  35.234  1.00  0.00     0.049 A 
ATOM     33  C   UNL A   1      41.405  28.252  30.520  1.00  0.00     0.074 A 
ATOM     34  C   UNL A   1      41.725  30.975  36.265  1.00  0.00     0.029 A 
ATOM     35  N   UNL A   1      41.177  30.453  34.174  1.00  0.00    -0.354 N 
ATOM     36  N   UNL A   1      41.379  28.864  31.680  1.00  0.00    -0.248 NA
ATOM     37  C   UNL A   1      42.465  27.249  30.385  1.00  0.00     0.031 C 
ATOM     38  C   UNL A   1      42.598  29.979  35.813  1.00  0.00     0.029 A 
ATOM     39  C   UNL A   1      42.237  29.630  34.521  1.00  0.00     0.049 A 
ATOM     40  H   UNL A   1      40.715  30.442  33.305  1.00  0.00     0.167 HD
ATOM     41  C   UNL A   1      42.411  28.310  32.421  1.00  0.00     0.074 A 
ATOM     42  C   UNL A   1      43.020  27.293  31.588  1.00  0.00     0.031 C 
ATOM     43  C   UNL A   1      42.822  28.622  33.674  1.00  0.00     0.037 A 
BRANCH  30  44
ATOM     44  C   UNL A   1      39.604  33.136  36.432  1.00  0.00     0.057 A 
ATOM     45  C   UNL A   1      38.747  32.749  37.471  1.00  0.00     0.134 A 
ATOM     46  C   UNL A   1      40.296  34.345  36.588  1.00  0.00     0.134 A 
ATOM     47  F   UNL A   1      38.042  31.612  37.382  1.00  0.00    -0.206 F 
ATOM     48  C   UNL A   1      38.570  33.542  38.607  1.00  0.00     0.040 A 
ATOM     49  C   UNL A   1      40.150  35.131  37.732  1.00  0.00     0.040 A 
ATOM     50  F   UNL A   1      41.138  34.776  35.636  1.00  0.00    -0.206 F 
ATOM     51  C   UNL A   1      39.279  34.734  38.743  1.00  0.00     0.006 A 
ENDBRANCH  30  44
BRANCH  31  52
ATOM     52  C   UNL A   1      40.678  27.652  28.091  1.00  0.00     0.057 A 
ATOM     53  C   UNL A   1      41.478  28.101  27.037  1.00  0.00     0.134 A 
ATOM     54  C   UNL A   1      40.037  26.416  27.929  1.00  0.00     0.134 A 
ATOM     55  F   UNL A   1      42.110  29.282  27.123  1.00  0.00    -0.206 F 
ATOM     56  C   UNL A   1      41.619  27.363  25.860  1.00  0.00     0.040 A 
ATOM     57  C   UNL A   1      40.198  25.650  26.775  1.00  0.00     0.040 A 
ATOM     58  F   UNL A   1      39.263  25.919  28.907  1.00  0.00    -0.206 F 
ATOM     59  C   UNL A   1      40.982  26.129  25.730  1.00  0.00     0.006 A 
ENDBRANCH  31  52
BRANCH  43  60
ATOM     60  C   UNL A   1      43.959  27.813  34.223  1.00  0.00     0.057 A 
ATOM     61  C   UNL A   1      43.754  26.584  34.862  1.00  0.00     0.134 A 
ATOM     62  C   UNL A   1      45.277  28.272  34.104  1.00  0.00     0.134 A 
ATOM     63  F   UNL A   1      42.514  26.099  35.026  1.00  0.00    -0.206 F 
ATOM     64  C   UNL A   1      44.818  25.855  35.394  1.00  0.00     0.040 A 
ATOM     65  C   UNL A   1      46.351  27.536  34.601  1.00  0.00     0.040 A 
ATOM     66  F   UNL A   1      45.540  29.439  33.497  1.00  0.00    -0.206 F 
ATOM     67  C   UNL A   1      46.122  26.328  35.257  1.00  0.00     0.006 A 
ENDBRANCH  43  60
ENDBRANCH  17  18
ENDBRANCH  10  12
ENDBRANCH   7   8
ENDBRANCH   6   7
ENDBRANCH   5   6
ENDBRANCH   1   5
BRANCH   2  68
ATOM     68  C   UNL A   1      32.809  27.860  24.367  1.00  0.00     0.081 A 
ATOM     69  C   UNL A   1      33.779  27.882  23.339  1.00  0.00     0.018 A 
ATOM     70  C   UNL A   1      31.646  27.108  24.116  1.00  0.00     0.132 A 
ATOM     71  C   UNL A   1      33.625  27.156  22.147  1.00  0.00     0.001 A 
ATOM     72  C   UNL A   1      31.489  26.398  22.904  1.00  0.00     0.047 A 
ATOM     73  C   UNL A   1      32.480  26.403  21.932  1.00  0.00     0.004 A 
BRANCH  70  74
ATOM     74  O   UNL A   1      30.567  26.941  24.930  1.00  0.00    -0.492 OA
BRANCH  74  75
ATOM     75  C   UNL A   1      30.138  25.591  25.060  1.00  0.00     0.243 C 
BRANCH  75  76
ATOM     76  C   UNL A   1      30.236  24.920  26.453  1.00  0.00     0.152 C 
BRANCH  76  77
ATOM     77  S   UNL A   1      31.234  23.373  26.581  1.00  0.00     0.056 S 
ATOM     78  O   UNL A   1      30.525  22.278  25.843  1.00  0.00    -0.254 OA
BRANCH  77  79
ATOM     79  C   UNL A   1      32.664  23.728  25.590  1.00  0.00     0.042 A 
ATOM     80  C   UNL A   1      33.670  24.582  26.039  1.00  0.00     0.018 A 
ATOM     81  C   UNL A   1      32.733  23.175  24.308  1.00  0.00     0.057 A 
ATOM     82  C   UNL A   1      34.787  24.819  25.244  1.00  0.00     0.004 A 
ATOM     83  C   UNL A   1      33.845  23.427  23.520  1.00  0.00     0.124 A 
ATOM     84  C   UNL A   1      34.878  24.231  23.984  1.00  0.00     0.039 A 
ATOM     85  F   UNL A   1      33.921  22.885  22.298  1.00  0.00    -0.207 F 
ENDBRANCH  77  79
ENDBRANCH  76  77
ENDBRANCH  75  76
ENDBRANCH  74  75
ENDBRANCH  70  74
ENDBRANCH   2  68
TORSDOF 15
ENDMDL
MODEL 3
REMARK VINA RESULT:     -10.8      5.480     10.751
REMARK SMILES O=C(NCCCNC(=O)c1ccccc1OCC[S@@](=O)c1cccc(F)c1)c1ccc(-c2c3nc(c(-c4c(F)cccc4F)c4ccc([nH]4)c(-c4c(F)cccc4F)c4nc(c(-c5c(F)cccc5F)c5ccc2[nH]5)C=C4)C=C3)cc1
REMARK SMILES IDX 7 1 8 2 9 3 6 5 5 6 4 7 3 8 1 9 2 10 28 12 29 13 81 14 30 15
REMARK SMILES IDX 80 16 31 17 32 18 33 19 74 20 34 21 79 22 73 23 75 24 35 25
REMARK SMILES IDX 78 26 72 27 71 28 36 30 62 31 45 32 61 33 46 34 49 35 60 36
REMARK SMILES IDX 76 37 47 38 48 39 59 41 77 42 50 43 37 44 38 45 43 46 39 47
REMARK SMILES IDX 40 48 42 49 44 50 41 51 63 52 64 53 69 54 65 55 66 56 68 57
REMARK SMILES IDX 70 58 67 59 51 60 52 61 57 62 53 63 54 64 56 65 58 66 55 67
REMARK SMILES IDX 10 68 11 69 15 70 12 71 14 72 13 73 16 74 17 75 18 76 19 77
REMARK SMILES IDX 20 78 21 79 22 80 27 81 23 82 25 83 24 84 26 85
REMARK H PARENT 7 4 3 11 75 29 49 40
REMARK Flexibility Score: inf
ROOT
ATOM      1  N   UNL A   1      36.634  21.977  24.924  1.00  0.00    -0.352 N 
ATOM      2  C   UNL A   1      36.181  22.985  25.757  1.00  0.00     0.255 C 
ATOM      3  O   UNL A   1      36.996  23.885  25.990  1.00  0.00    -0.269 OA
ATOM      4  H   UNL A   1      37.326  22.293  24.298  1.00  0.00     0.163 HD
ENDROOT
BRANCH   1   5
ATOM      5  C   UNL A   1      36.336  20.564  24.748  1.00  0.00     0.118 C 
BRANCH   5   6
ATOM      6  C   UNL A   1      37.498  19.594  24.840  1.00  0.00     0.042 C 
BRANCH   6   7
ATOM      7  C   UNL A   1      38.609  20.114  25.730  1.00  0.00     0.118 C 
BRANCH   7   8
ATOM      8  N   UNL A   1      39.775  19.212  25.778  1.00  0.00    -0.352 N 
ATOM      9  O   UNL A   1      41.928  18.539  25.738  1.00  0.00    -0.269 OA
ATOM     10  C   UNL A   1      41.116  19.434  25.994  1.00  0.00     0.251 C 
ATOM     11  H   UNL A   1      39.551  18.266  25.625  1.00  0.00     0.163 HD
BRANCH  10  12
ATOM     12  C   UNL A   1      41.593  20.722  26.530  1.00  0.00     0.039 A 
ATOM     13  C   UNL A   1      41.608  21.828  25.695  1.00  0.00     0.014 A 
ATOM     14  C   UNL A   1      42.008  20.860  27.860  1.00  0.00     0.014 A 
ATOM     15  C   UNL A   1      42.301  22.958  26.065  1.00  0.00     0.010 A 
ATOM     16  C   UNL A   1      42.498  22.095  28.309  1.00  0.00     0.010 A 
ATOM     17  C   UNL A   1      42.680  23.145  27.399  1.00  0.00    -0.014 A 
BRANCH  17  18
ATOM     18  C   UNL A   1      43.151  24.502  27.778  1.00  0.00     0.031 A 
ATOM     19  C   UNL A   1      44.585  24.907  27.619  1.00  0.00     0.074 A 
ATOM     20  C   UNL A   1      42.220  25.397  28.170  1.00  0.00     0.049 A 
ATOM     21  N   UNL A   1      45.139  26.064  27.876  1.00  0.00    -0.248 NA
ATOM     22  C   UNL A   1      45.525  23.890  27.123  1.00  0.00     0.031 C 
ATOM     23  C   UNL A   1      40.790  25.103  28.351  1.00  0.00     0.029 A 
ATOM     24  N   UNL A   1      42.304  26.740  28.427  1.00  0.00    -0.354 N 
ATOM     25  C   UNL A   1      46.491  25.910  27.601  1.00  0.00     0.074 A 
ATOM     26  C   UNL A   1      46.681  24.538  27.181  1.00  0.00     0.031 C 
ATOM     27  C   UNL A   1      40.125  26.241  28.575  1.00  0.00     0.029 A 
ATOM     28  C   UNL A   1      41.089  27.320  28.700  1.00  0.00     0.049 A 
ATOM     29  H   UNL A   1      43.153  27.239  28.417  1.00  0.00     0.167 HD
ATOM     30  C   UNL A   1      47.476  26.835  27.691  1.00  0.00     0.037 A 
ATOM     31  C   UNL A   1      40.780  28.577  29.062  1.00  0.00     0.037 A 
ATOM     32  C   UNL A   1      47.257  28.200  28.099  1.00  0.00     0.049 A 
ATOM     33  C   UNL A   1      41.900  29.560  29.204  1.00  0.00     0.074 A 
ATOM     34  C   UNL A   1      48.182  29.220  28.233  1.00  0.00     0.029 A 
ATOM     35  N   UNL A   1      46.021  28.737  28.438  1.00  0.00    -0.354 N 
ATOM     36  N   UNL A   1      43.178  29.393  28.961  1.00  0.00    -0.248 NA
ATOM     37  C   UNL A   1      41.543  30.897  29.688  1.00  0.00     0.031 C 
ATOM     38  C   UNL A   1      47.515  30.358  28.700  1.00  0.00     0.029 A 
ATOM     39  C   UNL A   1      46.164  30.068  28.798  1.00  0.00     0.049 A 
ATOM     40  H   UNL A   1      45.169  28.244  28.423  1.00  0.00     0.167 HD
ATOM     41  C   UNL A   1      43.778  30.608  29.249  1.00  0.00     0.074 A 
ATOM     42  C   UNL A   1      42.718  31.509  29.654  1.00  0.00     0.031 C 
ATOM     43  C   UNL A   1      45.089  30.945  29.193  1.00  0.00     0.037 A 
BRANCH  30  44
ATOM     44  C   UNL A   1      48.877  26.397  27.374  1.00  0.00     0.057 A 
ATOM     45  C   UNL A   1      49.407  26.467  26.079  1.00  0.00     0.134 A 
ATOM     46  C   UNL A   1      49.725  25.928  28.389  1.00  0.00     0.134 A 
ATOM     47  F   UNL A   1      48.649  26.891  25.057  1.00  0.00    -0.206 F 
ATOM     48  C   UNL A   1      50.716  26.068  25.801  1.00  0.00     0.040 A 
ATOM     49  C   UNL A   1      51.044  25.555  28.128  1.00  0.00     0.040 A 
ATOM     50  F   UNL A   1      49.287  25.839  29.654  1.00  0.00    -0.206 F 
ATOM     51  C   UNL A   1      51.542  25.617  26.829  1.00  0.00     0.006 A 
ENDBRANCH  30  44
BRANCH  31  52
ATOM     52  C   UNL A   1      39.374  28.943  29.373  1.00  0.00     0.057 A 
ATOM     53  C   UNL A   1      38.845  28.785  30.657  1.00  0.00     0.134 A 
ATOM     54  C   UNL A   1      38.524  29.463  28.388  1.00  0.00     0.134 A 
ATOM     55  F   UNL A   1      39.602  28.281  31.644  1.00  0.00    -0.206 F 
ATOM     56  C   UNL A   1      37.519  29.110  30.946  1.00  0.00     0.040 A 
ATOM     57  C   UNL A   1      37.208  29.828  28.670  1.00  0.00     0.040 A 
ATOM     58  F   UNL A   1      38.970  29.652  27.136  1.00  0.00    -0.206 F 
ATOM     59  C   UNL A   1      36.697  29.640  29.952  1.00  0.00     0.006 A 
ENDBRANCH  31  52
BRANCH  43  60
ATOM     60  C   UNL A   1      45.428  32.364  29.536  1.00  0.00     0.057 A 
ATOM     61  C   UNL A   1      45.379  33.390  28.584  1.00  0.00     0.134 A 
ATOM     62  C   UNL A   1      45.805  32.706  30.841  1.00  0.00     0.134 A 
ATOM     63  F   UNL A   1      45.046  33.123  27.312  1.00  0.00    -0.206 F 
ATOM     64  C   UNL A   1      45.725  34.702  28.910  1.00  0.00     0.040 A 
ATOM     65  C   UNL A   1      46.120  34.019  31.187  1.00  0.00     0.040 A 
ATOM     66  F   UNL A   1      45.866  31.771  31.801  1.00  0.00    -0.206 F 
ATOM     67  C   UNL A   1      46.090  35.019  30.217  1.00  0.00     0.006 A 
ENDBRANCH  43  60
ENDBRANCH  17  18
ENDBRANCH  10  12
ENDBRANCH   7   8
ENDBRANCH   6   7
ENDBRANCH   5   6
ENDBRANCH   1   5
BRANCH   2  68
ATOM     68  C   UNL A   1      34.773  23.263  26.184  1.00  0.00     0.081 A 
ATOM     69  C   UNL A   1      34.394  22.553  27.345  1.00  0.00     0.018 A 
ATOM     70  C   UNL A   1      33.743  23.927  25.490  1.00  0.00     0.132 A 
ATOM     71  C   UNL A   1      33.072  22.543  27.820  1.00  0.00     0.001 A 
ATOM     72  C   UNL A   1      32.412  23.893  25.962  1.00  0.00     0.047 A 
ATOM     73  C   UNL A   1      32.079  23.223  27.131  1.00  0.00     0.004 A 
BRANCH  70  74
ATOM     74  O   UNL A   1      33.844  24.659  24.346  1.00  0.00    -0.492 OA
BRANCH  74  75
ATOM     75  C   UNL A   1      33.187  24.081  23.225  1.00  0.00     0.243 C 
BRANCH  75  76
ATOM     76  C   UNL A   1      33.445  22.585  22.913  1.00  0.00     0.152 C 
BRANCH  76  77
ATOM     77  S   UNL A   1      31.971  21.488  22.746  1.00  0.00     0.056 S 
ATOM     78  O   UNL A   1      31.913  20.968  21.341  1.00  0.00    -0.254 OA
BRANCH  77  79
ATOM     79  C   UNL A   1      32.403  20.075  23.729  1.00  0.00     0.042 A 
ATOM     80  C   UNL A   1      32.578  20.170  25.108  1.00  0.00     0.018 A 
ATOM     81  C   UNL A   1      32.626  18.859  23.076  1.00  0.00     0.057 A 
ATOM     82  C   UNL A   1      32.893  19.036  25.850  1.00  0.00     0.004 A 
ATOM     83  C   UNL A   1      32.952  17.737  23.823  1.00  0.00     0.124 A 
ATOM     84  C   UNL A   1      33.071  17.813  25.205  1.00  0.00     0.039 A 
ATOM     85  F   UNL A   1      33.150  16.568  23.202  1.00  0.00    -0.207 F 
ENDBRANCH  77  79
ENDBRANCH  76  77
ENDBRANCH  75  76
ENDBRANCH  74  75
ENDBRANCH  70  74
ENDBRANCH   2  68
TORSDOF 15
ENDMDL
