MODEL 1
REMARK VINA RESULT:     -11.9      0.000      0.000
REMARK SMILES O=C(NCCCNC(=O)c1ccc(Br)c(NC(=S)NC(=O)c2cccs2)c1)c1ccc(-c2c3nc(c(-c4c(F)cccc4F)c4ccc([nH]4)c(-c4c(F)cccc4F)c4nc(c(-c5c(F)cccc5F)c5ccc2[nH]5)C=C4)C=C3)cc1
REMARK SMILES IDX 6 1 5 2 4 3 3 4 1 5 2 6 28 8 29 9 81 10 30 11 80 12 31 13
REMARK SMILES IDX 32 14 33 15 74 16 34 17 79 18 73 19 75 20 35 21 78 22 72 23
REMARK SMILES IDX 71 24 36 26 62 27 45 28 61 29 46 30 49 31 60 32 76 33 47 34
REMARK SMILES IDX 48 35 59 37 77 38 50 39 37 40 38 41 43 42 39 43 40 44 42 45
REMARK SMILES IDX 44 46 41 47 63 48 64 49 69 50 65 51 66 52 68 53 70 54 67 55
REMARK SMILES IDX 51 56 52 57 57 58 53 59 54 60 56 61 58 62 55 63 7 64 8 65
REMARK SMILES IDX 9 67 10 68 11 69 27 70 12 71 15 72 13 73 14 74 16 75 17 77
REMARK SMILES IDX 18 78 19 79 20 80 21 82 22 83 23 84 26 85 24 86 25 87
REMARK H PARENT 3 7 75 25 49 36 7 66 16 76 19 81
REMARK Flexibility Score: inf
ROOT
ATOM      1  C   UNL A   1      37.351  21.194  24.584  1.00  0.00     0.118 C 
ENDROOT
BRANCH   1   2
ATOM      2  C   UNL A   1      38.140  19.935  24.886  1.00  0.00     0.042 C 
BRANCH   2   3
ATOM      3  C   UNL A   1      39.150  20.113  26.002  1.00  0.00     0.118 C 
BRANCH   3   4
ATOM      4  N   UNL A   1      40.227  19.130  25.944  1.00  0.00    -0.352 N 
ATOM      5  O   UNL A   1      42.366  18.426  25.744  1.00  0.00    -0.269 OA
ATOM      6  C   UNL A   1      41.584  19.324  26.033  1.00  0.00     0.251 C 
ATOM      7  H   UNL A   1      39.940  18.197  25.824  1.00  0.00     0.163 HD
BRANCH   6   8
ATOM      8  C   UNL A   1      42.081  20.640  26.471  1.00  0.00     0.039 A 
ATOM      9  C   UNL A   1      42.427  21.591  25.511  1.00  0.00     0.014 A 
ATOM     10  C   UNL A   1      42.220  20.918  27.831  1.00  0.00     0.014 A 
ATOM     11  C   UNL A   1      43.076  22.749  25.895  1.00  0.00     0.010 A 
ATOM     12  C   UNL A   1      42.737  22.153  28.224  1.00  0.00     0.010 A 
ATOM     13  C   UNL A   1      43.171  23.074  27.256  1.00  0.00    -0.014 A 
BRANCH  13  14
ATOM     14  C   UNL A   1      43.556  24.456  27.618  1.00  0.00     0.031 A 
ATOM     15  C   UNL A   1      42.538  25.489  27.988  1.00  0.00     0.074 A 
ATOM     16  C   UNL A   1      44.871  24.756  27.597  1.00  0.00     0.049 A 
ATOM     17  N   UNL A   1      42.729  26.749  28.282  1.00  0.00    -0.248 NA
ATOM     18  C   UNL A   1      41.130  25.067  28.031  1.00  0.00     0.031 C 
ATOM     19  C   UNL A   1      45.946  23.818  27.245  1.00  0.00     0.029 A 
ATOM     20  N   UNL A   1      45.536  25.921  27.876  1.00  0.00    -0.354 N 
ATOM     21  C   UNL A   1      41.469  27.279  28.520  1.00  0.00     0.074 A 
ATOM     22  C   UNL A   1      40.516  26.207  28.328  1.00  0.00     0.031 C 
ATOM     23  C   UNL A   1      47.128  24.431  27.364  1.00  0.00     0.029 A 
ATOM     24  C   UNL A   1      46.895  25.828  27.696  1.00  0.00     0.049 A 
ATOM     25  H   UNL A   1      45.084  26.742  28.176  1.00  0.00     0.167 HD
ATOM     26  C   UNL A   1      41.152  28.550  28.861  1.00  0.00     0.037 A 
ATOM     27  C   UNL A   1      47.849  26.773  27.734  1.00  0.00     0.037 A 
ATOM     28  C   UNL A   1      42.120  29.601  29.053  1.00  0.00     0.049 A 
ATOM     29  C   UNL A   1      47.445  28.183  28.052  1.00  0.00     0.074 A 
ATOM     30  C   UNL A   1      41.897  30.906  29.458  1.00  0.00     0.029 A 
ATOM     31  N   UNL A   1      43.483  29.479  28.833  1.00  0.00    -0.354 N 
ATOM     32  N   UNL A   1      46.259  28.653  28.352  1.00  0.00    -0.248 NA
ATOM     33  C   UNL A   1      48.507  29.196  28.029  1.00  0.00     0.031 C 
ATOM     34  C   UNL A   1      43.109  31.596  29.392  1.00  0.00     0.029 A 
ATOM     35  C   UNL A   1      44.103  30.701  29.033  1.00  0.00     0.049 A 
ATOM     36  H   UNL A   1      43.942  28.647  28.572  1.00  0.00     0.167 HD
ATOM     37  C   UNL A   1      46.437  30.011  28.573  1.00  0.00     0.074 A 
ATOM     38  C   UNL A   1      47.849  30.281  28.409  1.00  0.00     0.031 C 
ATOM     39  C   UNL A   1      45.512  30.953  28.871  1.00  0.00     0.037 A 
BRANCH  26  40
ATOM     40  C   UNL A   1      39.704  28.911  29.015  1.00  0.00     0.057 A 
ATOM     41  C   UNL A   1      38.902  29.274  27.927  1.00  0.00     0.134 A 
ATOM     42  C   UNL A   1      39.077  28.774  30.263  1.00  0.00     0.134 A 
ATOM     43  F   UNL A   1      39.438  29.426  26.707  1.00  0.00    -0.206 F 
ATOM     44  C   UNL A   1      37.530  29.488  28.073  1.00  0.00     0.040 A 
ATOM     45  C   UNL A   1      37.703  28.957  30.415  1.00  0.00     0.040 A 
ATOM     46  F   UNL A   1      39.785  28.420  31.345  1.00  0.00    -0.206 F 
ATOM     47  C   UNL A   1      36.925  29.316  29.317  1.00  0.00     0.006 A 
ENDBRANCH  26  40
BRANCH  27  48
ATOM     48  C   UNL A   1      49.256  26.439  27.394  1.00  0.00     0.057 A 
ATOM     49  C   UNL A   1      50.186  26.103  28.383  1.00  0.00     0.134 A 
ATOM     50  C   UNL A   1      49.720  26.506  26.072  1.00  0.00     0.134 A 
ATOM     51  F   UNL A   1      49.807  26.030  29.668  1.00  0.00    -0.206 F 
ATOM     52  C   UNL A   1      51.533  25.902  28.081  1.00  0.00     0.040 A 
ATOM     53  C   UNL A   1      51.055  26.261  25.750  1.00  0.00     0.040 A 
ATOM     54  F   UNL A   1      48.880  26.806  25.069  1.00  0.00    -0.206 F 
ATOM     55  C   UNL A   1      51.969  25.981  26.761  1.00  0.00     0.006 A 
ENDBRANCH  27  48
BRANCH  39  56
ATOM     56  C   UNL A   1      46.001  32.359  29.062  1.00  0.00     0.057 A 
ATOM     57  C   UNL A   1      46.444  32.824  30.307  1.00  0.00     0.134 A 
ATOM     58  C   UNL A   1      46.075  33.243  27.979  1.00  0.00     0.134 A 
ATOM     59  F   UNL A   1      46.387  32.034  31.390  1.00  0.00    -0.206 F 
ATOM     60  C   UNL A   1      46.921  34.125  30.471  1.00  0.00     0.040 A 
ATOM     61  C   UNL A   1      46.586  34.532  28.122  1.00  0.00     0.040 A 
ATOM     62  F   UNL A   1      45.675  32.858  26.756  1.00  0.00    -0.206 F 
ATOM     63  C   UNL A   1      47.004  34.979  29.373  1.00  0.00     0.006 A 
ENDBRANCH  39  56
ENDBRANCH  13  14
ENDBRANCH   6   8
ENDBRANCH   3   4
ENDBRANCH   2   3
ENDBRANCH   1   2
BRANCH   1  64
ATOM     64  N   UNL A   1      37.859  22.343  25.311  1.00  0.00    -0.352 N 
ATOM     65  C   UNL A   1      37.256  23.490  25.764  1.00  0.00     0.251 C 
ATOM     66  H   UNL A   1      38.818  22.289  25.519  1.00  0.00     0.163 HD
ATOM     67  O   UNL A   1      38.025  24.359  26.166  1.00  0.00    -0.269 OA
BRANCH  65  68
ATOM     68  C   UNL A   1      35.686  23.581  25.741  1.00  0.00     0.041 A 
ATOM     69  C   UNL A   1      35.027  22.823  27.256  1.00  0.00     0.015 A 
ATOM     70  C   UNL A   1      34.227  24.228  24.440  1.00  0.00     0.041 A 
ATOM     71  C   UNL A   1      33.258  22.687  27.387  1.00  0.00     0.018 A 
ATOM     72  C   UNL A   1      32.611  23.957  24.618  1.00  0.00     0.055 A 
ATOM     73  C   UNL A   1      32.125  23.224  26.108  1.00  0.00     0.041 A 
ATOM     74  Br  UNL A   1      30.298  22.773  26.331  1.00  0.00    -0.049 Br
BRANCH  72  75
ATOM     75  N   UNL A   1      32.011  24.106  23.350  1.00  0.00    -0.331 N 
ATOM     76  H   UNL A   1      31.789  23.263  22.892  1.00  0.00     0.169 HD
BRANCH  75  77
ATOM     77  C   UNL A   1      31.686  25.269  22.644  1.00  0.00     0.177 C 
ATOM     78  S   UNL A   1      32.651  25.618  21.310  1.00  0.00    -0.040 S 
BRANCH  77  79
ATOM     79  N   UNL A   1      30.607  26.214  22.892  1.00  0.00    -0.298 N 
ATOM     80  C   UNL A   1      29.967  27.427  23.587  1.00  0.00     0.267 C 
ATOM     81  H   UNL A   1      29.898  25.907  22.282  1.00  0.00     0.172 HD
ATOM     82  O   UNL A   1      28.755  27.585  23.449  1.00  0.00    -0.268 OA
BRANCH  80  83
ATOM     83  C   UNL A   1      30.858  28.395  24.381  1.00  0.00     0.092 A 
ATOM     84  C   UNL A   1      32.150  29.006  23.449  1.00  0.00     0.025 A 
ATOM     85  S   UNL A   1      31.479  27.436  26.393  1.00  0.00    -0.139 S 
ATOM     86  C   UNL A   1      33.864  28.392  24.032  1.00  0.00     0.012 A 
ATOM     87  C   UNL A   1      33.724  27.398  25.746  1.00  0.00     0.065 A 
ENDBRANCH  80  83
ENDBRANCH  77  79
ENDBRANCH  75  77
ENDBRANCH  72  75
ENDBRANCH  65  68
ENDBRANCH   1  64
TORSDOF 14
ENDMDL
MODEL 2
REMARK VINA RESULT:     -11.9      5.146     10.060
REMARK SMILES O=C(NCCCNC(=O)c1ccc(Br)c(NC(=S)NC(=O)c2cccs2)c1)c1ccc(-c2c3nc(c(-c4c(F)cccc4F)c4ccc([nH]4)c(-c4c(F)cccc4F)c4nc(c(-c5c(F)cccc5F)c5ccc2[nH]5)C=C4)C=C3)cc1
REMARK SMILES IDX 6 1 5 2 4 3 3 4 1 5 2 6 28 8 29 9 81 10 30 11 80 12 31 13
REMARK SMILES IDX 32 14 33 15 74 16 34 17 79 18 73 19 75 20 35 21 78 22 72 23
REMARK SMILES IDX 71 24 36 26 62 27 45 28 61 29 46 30 49 31 60 32 76 33 47 34
REMARK SMILES IDX 48 35 59 37 77 38 50 39 37 40 38 41 43 42 39 43 40 44 42 45
REMARK SMILES IDX 44 46 41 47 63 48 64 49 69 50 65 51 66 52 68 53 70 54 67 55
REMARK SMILES IDX 51 56 52 57 57 58 53 59 54 60 56 61 58 62 55 63 7 64 8 65
REMARK SMILES IDX 9 67 10 68 11 69 27 70 12 71 15 72 13 73 14 74 16 75 17 77
REMARK SMILES IDX 18 78 19 79 20 80 21 82 22 83 23 84 26 85 24 86 25 87
REMARK H PARENT 3 7 75 25 49 36 7 66 16 76 19 81
REMARK Flexibility Score: inf
ROOT
ATOM      1  C   UNL A   1      31.745  30.566  26.893  1.00  0.00     0.118 C 
ENDROOT
BRANCH   1   2
ATOM      2  C   UNL A   1      31.528  32.063  26.792  1.00  0.00     0.042 C 
BRANCH   2   3
ATOM      3  C   UNL A   1      32.792  32.869  27.022  1.00  0.00     0.118 C 
BRANCH   3   4
ATOM      4  N   UNL A   1      32.524  34.172  27.622  1.00  0.00    -0.352 N 
ATOM      5  O   UNL A   1      32.619  35.760  29.227  1.00  0.00    -0.269 OA
ATOM      6  C   UNL A   1      33.107  34.759  28.717  1.00  0.00     0.251 C 
ATOM      7  H   UNL A   1      31.825  34.705  27.178  1.00  0.00     0.163 HD
BRANCH   6   8
ATOM      8  C   UNL A   1      34.328  34.152  29.275  1.00  0.00     0.039 A 
ATOM      9  C   UNL A   1      34.214  33.211  30.300  1.00  0.00     0.014 A 
ATOM     10  C   UNL A   1      35.581  34.532  28.795  1.00  0.00     0.014 A 
ATOM     11  C   UNL A   1      35.346  32.781  30.965  1.00  0.00     0.010 A 
ATOM     12  C   UNL A   1      36.727  33.981  29.370  1.00  0.00     0.010 A 
ATOM     13  C   UNL A   1      36.614  33.104  30.462  1.00  0.00    -0.014 A 
BRANCH  13  14
ATOM     14  C   UNL A   1      37.781  32.361  30.984  1.00  0.00     0.031 A 
ATOM     15  C   UNL A   1      38.428  31.257  30.206  1.00  0.00     0.074 A 
ATOM     16  C   UNL A   1      38.243  32.713  32.201  1.00  0.00     0.049 A 
ATOM     17  N   UNL A   1      39.429  30.492  30.560  1.00  0.00    -0.248 NA
ATOM     18  C   UNL A   1      37.892  30.967  28.867  1.00  0.00     0.031 C 
ATOM     19  C   UNL A   1      37.678  33.775  33.044  1.00  0.00     0.029 A 
ATOM     20  N   UNL A   1      39.287  32.229  32.946  1.00  0.00    -0.354 N 
ATOM     21  C   UNL A   1      39.626  29.613  29.504  1.00  0.00     0.074 A 
ATOM     22  C   UNL A   1      38.638  29.933  28.497  1.00  0.00     0.031 C 
ATOM     23  C   UNL A   1      38.400  33.885  34.165  1.00  0.00     0.029 A 
ATOM     24  C   UNL A   1      39.408  32.837  34.171  1.00  0.00     0.049 A 
ATOM     25  H   UNL A   1      39.889  31.516  32.633  1.00  0.00     0.167 HD
ATOM     26  C   UNL A   1      40.551  28.629  29.404  1.00  0.00     0.037 A 
ATOM     27  C   UNL A   1      40.204  32.550  35.216  1.00  0.00     0.037 A 
ATOM     28  C   UNL A   1      41.531  28.333  30.418  1.00  0.00     0.049 A 
ATOM     29  C   UNL A   1      41.169  31.409  35.085  1.00  0.00     0.074 A 
ATOM     30  C   UNL A   1      42.546  27.394  30.378  1.00  0.00     0.029 A 
ATOM     31  N   UNL A   1      41.604  28.949  31.658  1.00  0.00    -0.354 N 
ATOM     32  N   UNL A   1      41.399  30.637  34.051  1.00  0.00    -0.248 NA
ATOM     33  C   UNL A   1      41.980  31.091  36.266  1.00  0.00     0.031 C 
ATOM     34  C   UNL A   1      43.173  27.376  31.625  1.00  0.00     0.029 A 
ATOM     35  C   UNL A   1      42.609  28.365  32.413  1.00  0.00     0.049 A 
ATOM     36  H   UNL A   1      41.029  29.690  31.958  1.00  0.00     0.167 HD
ATOM     37  C   UNL A   1      42.394  29.757  34.451  1.00  0.00     0.074 A 
ATOM     38  C   UNL A   1      42.749  30.115  35.807  1.00  0.00     0.031 C 
ATOM     39  C   UNL A   1      42.955  28.736  33.761  1.00  0.00     0.037 A 
BRANCH  26  40
ATOM     40  C   UNL A   1      40.542  27.761  28.180  1.00  0.00     0.057 A 
ATOM     41  C   UNL A   1      41.273  28.080  27.030  1.00  0.00     0.134 A 
ATOM     42  C   UNL A   1      39.883  26.522  28.204  1.00  0.00     0.134 A 
ATOM     43  F   UNL A   1      41.923  29.249  26.939  1.00  0.00    -0.206 F 
ATOM     44  C   UNL A   1      41.349  27.200  25.948  1.00  0.00     0.040 A 
ATOM     45  C   UNL A   1      39.975  25.623  27.142  1.00  0.00     0.040 A 
ATOM     46  F   UNL A   1      39.172  26.151  29.280  1.00  0.00    -0.206 F 
ATOM     47  C   UNL A   1      40.710  25.962  26.008  1.00  0.00     0.006 A 
ENDBRANCH  26  40
BRANCH  27  48
ATOM     48  C   UNL A   1      40.072  33.298  36.493  1.00  0.00     0.057 A 
ATOM     49  C   UNL A   1      39.128  32.932  37.458  1.00  0.00     0.134 A 
ATOM     50  C   UNL A   1      40.850  34.435  36.754  1.00  0.00     0.134 A 
ATOM     51  F   UNL A   1      38.348  31.857  37.265  1.00  0.00    -0.206 F 
ATOM     52  C   UNL A   1      38.922  33.697  38.605  1.00  0.00     0.040 A 
ATOM     53  C   UNL A   1      40.687  35.183  37.920  1.00  0.00     0.040 A 
ATOM     54  F   UNL A   1      41.787  34.835  35.881  1.00  0.00    -0.206 F 
ATOM     55  C   UNL A   1      39.704  34.827  38.838  1.00  0.00     0.006 A 
ENDBRANCH  27  48
BRANCH  39  56
ATOM     56  C   UNL A   1      44.026  27.947  34.454  1.00  0.00     0.057 A 
ATOM     57  C   UNL A   1      43.747  26.744  35.116  1.00  0.00     0.134 A 
ATOM     58  C   UNL A   1      45.361  28.370  34.418  1.00  0.00     0.134 A 
ATOM     59  F   UNL A   1      42.488  26.289  35.200  1.00  0.00    -0.206 F 
ATOM     60  C   UNL A   1      44.753  26.003  35.736  1.00  0.00     0.040 A 
ATOM     61  C   UNL A   1      46.381  27.619  35.002  1.00  0.00     0.040 A 
ATOM     62  F   UNL A   1      45.699  29.509  33.794  1.00  0.00    -0.206 F 
ATOM     63  C   UNL A   1      46.076  26.435  35.669  1.00  0.00     0.006 A 
ENDBRANCH  39  56
ENDBRANCH  13  14
ENDBRANCH   6   8
ENDBRANCH   3   4
ENDBRANCH   2   3
ENDBRANCH   1   2
BRANCH   1  64
ATOM     64  N   UNL A   1      33.067  30.239  27.393  1.00  0.00    -0.352 N 
ATOM     65  C   UNL A   1      33.894  29.163  27.186  1.00  0.00     0.251 C 
ATOM     66  H   UNL A   1      33.444  30.919  27.996  1.00  0.00     0.163 HD
ATOM     67  O   UNL A   1      34.869  29.103  27.931  1.00  0.00    -0.269 OA
BRANCH  65  68
ATOM     68  C   UNL A   1      33.539  28.144  26.042  1.00  0.00     0.041 A 
ATOM     69  C   UNL A   1      34.127  28.806  24.455  1.00  0.00     0.015 A 
ATOM     70  C   UNL A   1      32.529  26.357  25.868  1.00  0.00     0.041 A 
ATOM     71  C   UNL A   1      33.713  27.883  22.991  1.00  0.00     0.018 A 
ATOM     72  C   UNL A   1      32.112  25.640  24.443  1.00  0.00     0.055 A 
ATOM     73  C   UNL A   1      32.738  26.381  23.009  1.00  0.00     0.041 A 
ATOM     74  Br  UNL A   1      32.201  25.682  21.331  1.00  0.00    -0.049 Br
BRANCH  72  75
ATOM     75  N   UNL A   1      31.056  24.744  24.710  1.00  0.00    -0.331 N 
ATOM     76  H   UNL A   1      30.153  25.117  24.594  1.00  0.00     0.169 HD
BRANCH  75  77
ATOM     77  C   UNL A   1      31.099  23.405  25.115  1.00  0.00     0.177 C 
ATOM     78  S   UNL A   1      30.552  23.087  26.674  1.00  0.00    -0.040 S 
BRANCH  77  79
ATOM     79  N   UNL A   1      31.533  22.239  24.360  1.00  0.00    -0.298 N 
ATOM     80  C   UNL A   1      32.589  21.275  23.794  1.00  0.00     0.267 C 
ATOM     81  H   UNL A   1      30.687  21.859  24.032  1.00  0.00     0.172 HD
ATOM     82  O   UNL A   1      32.225  20.478  22.931  1.00  0.00    -0.268 OA
BRANCH  80  83
ATOM     83  C   UNL A   1      34.022  21.324  24.345  1.00  0.00     0.092 A 
ATOM     84  C   UNL A   1      34.076  21.151  26.042  1.00  0.00     0.025 A 
ATOM     85  S   UNL A   1      35.130  23.181  23.522  1.00  0.00    -0.139 S 
ATOM     86  C   UNL A   1      34.648  22.734  26.949  1.00  0.00     0.012 A 
ATOM     87  C   UNL A   1      35.287  24.106  25.663  1.00  0.00     0.065 A 
ENDBRANCH  80  83
ENDBRANCH  77  79
ENDBRANCH  75  77
ENDBRANCH  72  75
ENDBRANCH  65  68
ENDBRANCH   1  64
TORSDOF 14
ENDMDL
MODEL 3
REMARK VINA RESULT:     -11.7      0.423      6.247
REMARK SMILES O=C(NCCCNC(=O)c1ccc(Br)c(NC(=S)NC(=O)c2cccs2)c1)c1ccc(-c2c3nc(c(-c4c(F)cccc4F)c4ccc([nH]4)c(-c4c(F)cccc4F)c4nc(c(-c5c(F)cccc5F)c5ccc2[nH]5)C=C4)C=C3)cc1
REMARK SMILES IDX 6 1 5 2 4 3 3 4 1 5 2 6 28 8 29 9 81 10 30 11 80 12 31 13
REMARK SMILES IDX 32 14 33 15 74 16 34 17 79 18 73 19 75 20 35 21 78 22 72 23
REMARK SMILES IDX 71 24 36 26 62 27 45 28 61 29 46 30 49 31 60 32 76 33 47 34
REMARK SMILES IDX 48 35 59 37 77 38 50 39 37 40 38 41 43 42 39 43 40 44 42 45
REMARK SMILES IDX 44 46 41 47 63 48 64 49 69 50 65 51 66 52 68 53 70 54 67 55
REMARK SMILES IDX 51 56 52 57 57 58 53 59 54 60 56 61 58 62 55 63 7 64 8 65
REMARK SMILES IDX 9 67 10 68 11 69 27 70 12 71 15 72 13 73 14 74 16 75 17 77
REMARK SMILES IDX 18 78 19 79 20 80 21 82 22 83 23 84 26 85 24 86 25 87
REMARK H PARENT 3 7 75 25 49 36 7 66 16 76 19 81
REMARK Flexibility Score: inf
ROOT
ATOM      1  C   UNL A   1      37.257  21.065  24.615  1.00  0.00     0.118 C 
ENDROOT
BRANCH   1   2
ATOM      2  C   UNL A   1      38.044  19.813  24.945  1.00  0.00     0.042 C 
BRANCH   2   3
ATOM      3  C   UNL A   1      39.051  20.013  26.059  1.00  0.00     0.118 C 
BRANCH   3   4
ATOM      4  N   UNL A   1      40.135  19.037  26.017  1.00  0.00    -0.352 N 
ATOM      5  O   UNL A   1      42.271  18.338  25.781  1.00  0.00    -0.269 OA
ATOM      6  C   UNL A   1      41.492  19.244  26.048  1.00  0.00     0.251 C 
ATOM      7  H   UNL A   1      39.853  18.096  25.957  1.00  0.00     0.163 HD
BRANCH   6   8
ATOM      8  C   UNL A   1      41.991  20.586  26.397  1.00  0.00     0.039 A 
ATOM      9  C   UNL A   1      42.339  21.470  25.375  1.00  0.00     0.014 A 
ATOM     10  C   UNL A   1      42.132  20.953  27.735  1.00  0.00     0.014 A 
ATOM     11  C   UNL A   1      42.990  22.650  25.682  1.00  0.00     0.010 A 
ATOM     12  C   UNL A   1      42.652  22.211  28.045  1.00  0.00     0.010 A 
ATOM     13  C   UNL A   1      43.088  23.064  27.018  1.00  0.00    -0.014 A 
BRANCH  13  14
ATOM     14  C   UNL A   1      43.475  24.466  27.286  1.00  0.00     0.031 A 
ATOM     15  C   UNL A   1      44.899  24.923  27.203  1.00  0.00     0.074 A 
ATOM     16  C   UNL A   1      42.490  25.326  27.619  1.00  0.00     0.049 A 
ATOM     17  N   UNL A   1      45.387  26.110  27.456  1.00  0.00    -0.248 NA
ATOM     18  C   UNL A   1      45.904  23.933  26.789  1.00  0.00     0.031 C 
ATOM     19  C   UNL A   1      41.068  24.977  27.732  1.00  0.00     0.029 A 
ATOM     20  N   UNL A   1      42.521  26.662  27.919  1.00  0.00    -0.354 N 
ATOM     21  C   UNL A   1      46.757  26.007  27.260  1.00  0.00     0.074 A 
ATOM     22  C   UNL A   1      47.026  24.639  26.873  1.00  0.00     0.031 C 
ATOM     23  C   UNL A   1      40.365  26.073  28.039  1.00  0.00     0.029 A 
ATOM     24  C   UNL A   1      41.290  27.174  28.249  1.00  0.00     0.049 A 
ATOM     25  H   UNL A   1      43.345  27.201  27.901  1.00  0.00     0.167 HD
ATOM     26  C   UNL A   1      47.692  26.976  27.400  1.00  0.00     0.037 A 
ATOM     27  C   UNL A   1      40.943  28.382  28.725  1.00  0.00     0.037 A 
ATOM     28  C   UNL A   1      47.398  28.335  27.780  1.00  0.00     0.049 A 
ATOM     29  C   UNL A   1      42.022  29.405  28.928  1.00  0.00     0.074 A 
ATOM     30  C   UNL A   1      48.274  29.400  27.889  1.00  0.00     0.029 A 
ATOM     31  N   UNL A   1      46.145  28.809  28.135  1.00  0.00    -0.354 N 
ATOM     32  N   UNL A   1      43.303  29.318  28.662  1.00  0.00    -0.248 NA
ATOM     33  C   UNL A   1      41.612  30.692  29.503  1.00  0.00     0.031 C 
ATOM     34  C   UNL A   1      47.571  30.493  28.398  1.00  0.00     0.029 A 
ATOM     35  C   UNL A   1      46.239  30.136  28.524  1.00  0.00     0.049 A 
ATOM     36  H   UNL A   1      45.313  28.282  28.115  1.00  0.00     0.167 HD
ATOM     37  C   UNL A   1      43.846  30.544  29.019  1.00  0.00     0.074 A 
ATOM     38  C   UNL A   1      42.751  31.368  29.483  1.00  0.00     0.031 C 
ATOM     39  C   UNL A   1      45.138  30.946  28.978  1.00  0.00     0.037 A 
BRANCH  26  40
ATOM     40  C   UNL A   1      49.133  26.616  27.185  1.00  0.00     0.057 A 
ATOM     41  C   UNL A   1      49.956  26.170  28.224  1.00  0.00     0.134 A 
ATOM     42  C   UNL A   1      49.666  26.605  25.887  1.00  0.00     0.134 A 
ATOM     43  F   UNL A   1      49.511  26.159  29.489  1.00  0.00    -0.206 F 
ATOM     44  C   UNL A   1      51.259  25.726  27.982  1.00  0.00     0.040 A 
ATOM     45  C   UNL A   1      50.954  26.136  25.629  1.00  0.00     0.040 A 
ATOM     46  F   UNL A   1      48.927  27.011  24.844  1.00  0.00    -0.206 F 
ATOM     47  C   UNL A   1      51.755  25.695  26.679  1.00  0.00     0.006 A 
ENDBRANCH  26  40
BRANCH  27  48
ATOM     48  C   UNL A   1      39.538  28.666  29.114  1.00  0.00     0.057 A 
ATOM     49  C   UNL A   1      38.640  29.260  28.222  1.00  0.00     0.134 A 
ATOM     50  C   UNL A   1      39.074  28.401  30.411  1.00  0.00     0.134 A 
ATOM     51  F   UNL A   1      39.025  29.546  26.968  1.00  0.00    -0.206 F 
ATOM     52  C   UNL A   1      37.356  29.633  28.617  1.00  0.00     0.040 A 
ATOM     53  C   UNL A   1      37.777  28.725  30.806  1.00  0.00     0.040 A 
ATOM     54  F   UNL A   1      39.875  27.816  31.315  1.00  0.00    -0.206 F 
ATOM     55  C   UNL A   1      36.922  29.364  29.914  1.00  0.00     0.006 A 
ENDBRANCH  27  48
BRANCH  39  56
ATOM     56  C   UNL A   1      45.435  32.347  29.427  1.00  0.00     0.057 A 
ATOM     57  C   UNL A   1      45.818  32.635  30.743  1.00  0.00     0.134 A 
ATOM     58  C   UNL A   1      45.384  33.413  28.520  1.00  0.00     0.134 A 
ATOM     59  F   UNL A   1      45.873  31.663  31.666  1.00  0.00    -0.206 F 
ATOM     60  C   UNL A   1      46.116  33.937  31.146  1.00  0.00     0.040 A 
ATOM     61  C   UNL A   1      45.717  34.712  28.902  1.00  0.00     0.040 A 
ATOM     62  F   UNL A   1      45.033  33.205  27.242  1.00  0.00    -0.206 F 
ATOM     63  C   UNL A   1      46.078  34.978  30.221  1.00  0.00     0.006 A 
ENDBRANCH  39  56
ENDBRANCH  13  14
ENDBRANCH   6   8
ENDBRANCH   3   4
ENDBRANCH   2   3
ENDBRANCH   1   2
BRANCH   1  64
ATOM     64  N   UNL A   1      37.797  22.239  25.275  1.00  0.00    -0.352 N 
ATOM     65  C   UNL A   1      37.218  23.407  25.706  1.00  0.00     0.251 C 
ATOM     66  H   UNL A   1      38.764  22.187  25.448  1.00  0.00     0.163 HD
ATOM     67  O   UNL A   1      38.006  24.286  26.044  1.00  0.00    -0.269 OA
BRANCH  65  68
ATOM     68  C   UNL A   1      35.649  23.506  25.740  1.00  0.00     0.041 A 
ATOM     69  C   UNL A   1      35.038  22.711  27.257  1.00  0.00     0.015 A 
ATOM     70  C   UNL A   1      34.149  24.195  24.508  1.00  0.00     0.041 A 
ATOM     71  C   UNL A   1      33.274  22.580  27.446  1.00  0.00     0.018 A 
ATOM     72  C   UNL A   1      32.539  23.927  24.736  1.00  0.00     0.055 A 
ATOM     73  C   UNL A   1      32.100  23.156  26.222  1.00  0.00     0.041 A 
ATOM     74  Br  UNL A   1      30.279  22.709  26.497  1.00  0.00    -0.049 Br
BRANCH  72  75
ATOM     75  N   UNL A   1      31.896  24.113  23.494  1.00  0.00    -0.331 N 
ATOM     76  H   UNL A   1      31.539  23.294  23.082  1.00  0.00     0.169 HD
BRANCH  75  77
ATOM     77  C   UNL A   1      31.691  25.285  22.758  1.00  0.00     0.177 C 
ATOM     78  S   UNL A   1      32.739  25.540  21.466  1.00  0.00    -0.040 S 
BRANCH  77  79
ATOM     79  N   UNL A   1      30.676  26.311  22.943  1.00  0.00    -0.298 N 
ATOM     80  C   UNL A   1      30.093  27.575  23.598  1.00  0.00     0.267 C 
ATOM     81  H   UNL A   1      29.980  26.055  22.295  1.00  0.00     0.172 HD
ATOM     82  O   UNL A   1      28.906  27.824  23.392  1.00  0.00    -0.268 OA
BRANCH  80  83
ATOM     83  C   UNL A   1      31.010  28.477  24.437  1.00  0.00     0.092 A 
ATOM     84  C   UNL A   1      32.412  28.953  23.590  1.00  0.00     0.025 A 
ATOM     85  S   UNL A   1      31.404  27.510  26.502  1.00  0.00    -0.139 S 
ATOM     86  C   UNL A   1      34.020  28.204  24.300  1.00  0.00     0.012 A 
ATOM     87  C   UNL A   1      33.676  27.261  26.014  1.00  0.00     0.065 A 
ENDBRANCH  80  83
ENDBRANCH  77  79
ENDBRANCH  75  77
ENDBRANCH  72  75
ENDBRANCH  65  68
ENDBRANCH   1  64
TORSDOF 14
ENDMDL
