MODEL 1
REMARK VINA RESULT:     -12.6      0.000      0.000
REMARK SMILES O=C(NCCCNC(=O)c1cccc2c1cc(Br)c1ccccc12)c1ccc(-c2c3nc(c(-c4c(F)cccc4F)c4ccc([nH]4)c(-c4c(F)cccc4F)c4nc(c(-c5c(F)cccc5F)c5ccc2[nH]5)C=C4)C=C3)cc1
REMARK SMILES IDX 4 1 3 2 1 3 2 4 25 6 26 7 78 8 27 9 77 10 28 11 29 12 30 13
REMARK SMILES IDX 71 14 31 15 76 16 70 17 72 18 32 19 75 20 69 21 68 22 33 24
REMARK SMILES IDX 59 25 42 26 58 27 43 28 46 29 57 30 73 31 44 32 45 33 56 35
REMARK SMILES IDX 74 36 47 37 34 38 35 39 40 40 36 41 37 42 39 43 41 44 38 45
REMARK SMILES IDX 60 46 61 47 66 48 62 49 63 50 65 51 67 52 64 53 48 54 49 55
REMARK SMILES IDX 54 56 50 57 51 58 53 59 55 60 52 61 5 62 6 63 7 64 8 65 9 67
REMARK SMILES IDX 10 68 11 69 15 70 12 71 14 72 16 73 13 74 24 75 17 76 19 77
REMARK SMILES IDX 23 78 18 79 20 80 22 81 21 82
REMARK H PARENT 3 5 72 23 46 34 7 66
REMARK Flexibility Score: inf
ROOT
ATOM      1  C   UNL A   1      33.563  28.578  27.261  1.00  0.00     0.118 C 
ENDROOT
BRANCH   1   2
ATOM      2  N   UNL A   1      33.641  29.967  27.687  1.00  0.00    -0.352 N 
ATOM      3  O   UNL A   1      34.427  31.809  28.693  1.00  0.00    -0.269 OA
ATOM      4  C   UNL A   1      34.660  30.679  28.265  1.00  0.00     0.251 C 
ATOM      5  H   UNL A   1      32.819  30.487  27.533  1.00  0.00     0.163 HD
BRANCH   4   6
ATOM      6  C   UNL A   1      36.028  30.125  28.393  1.00  0.00     0.039 A 
ATOM      7  C   UNL A   1      36.400  29.546  29.614  1.00  0.00     0.014 A 
ATOM      8  C   UNL A   1      36.977  30.249  27.376  1.00  0.00     0.014 A 
ATOM      9  C   UNL A   1      37.701  29.071  29.802  1.00  0.00     0.010 A 
ATOM     10  C   UNL A   1      38.251  29.705  27.534  1.00  0.00     0.010 A 
ATOM     11  C   UNL A   1      38.635  29.139  28.759  1.00  0.00    -0.014 A 
BRANCH  11  12
ATOM     12  C   UNL A   1      40.045  28.714  28.957  1.00  0.00     0.031 A 
ATOM     13  C   UNL A   1      41.025  29.666  29.590  1.00  0.00     0.074 A 
ATOM     14  C   UNL A   1      40.459  27.501  28.543  1.00  0.00     0.049 A 
ATOM     15  N   UNL A   1      42.316  29.537  29.763  1.00  0.00    -0.248 NA
ATOM     16  C   UNL A   1      40.481  30.948  30.068  1.00  0.00     0.031 C 
ATOM     17  C   UNL A   1      39.619  26.489  27.902  1.00  0.00     0.029 A 
ATOM     18  N   UNL A   1      41.700  26.919  28.599  1.00  0.00    -0.354 N 
ATOM     19  C   UNL A   1      42.740  30.727  30.342  1.00  0.00     0.074 A 
ATOM     20  C   UNL A   1      41.580  31.583  30.450  1.00  0.00     0.031 C 
ATOM     21  C   UNL A   1      40.365  25.402  27.643  1.00  0.00     0.029 A 
ATOM     22  C   UNL A   1      41.739  25.653  28.068  1.00  0.00     0.049 A 
ATOM     23  H   UNL A   1      42.489  27.367  28.982  1.00  0.00     0.167 HD
ATOM     24  C   UNL A   1      43.979  31.071  30.766  1.00  0.00     0.037 A 
ATOM     25  C   UNL A   1      42.769  24.797  27.936  1.00  0.00     0.037 A 
ATOM     26  C   UNL A   1      45.127  30.207  30.705  1.00  0.00     0.049 A 
ATOM     27  C   UNL A   1      44.136  25.202  28.413  1.00  0.00     0.074 A 
ATOM     28  C   UNL A   1      46.414  30.446  31.156  1.00  0.00     0.029 A 
ATOM     29  N   UNL A   1      45.121  28.931  30.166  1.00  0.00    -0.354 N 
ATOM     30  N   UNL A   1      44.516  26.320  28.981  1.00  0.00    -0.248 NA
ATOM     31  C   UNL A   1      45.217  24.222  28.230  1.00  0.00     0.031 C 
ATOM     32  C   UNL A   1      47.194  29.319  30.870  1.00  0.00     0.029 A 
ATOM     33  C   UNL A   1      46.383  28.370  30.265  1.00  0.00     0.049 A 
ATOM     34  H   UNL A   1      44.336  28.487  29.772  1.00  0.00     0.167 HD
ATOM     35  C   UNL A   1      45.873  26.172  29.240  1.00  0.00     0.074 A 
ATOM     36  C   UNL A   1      46.246  24.851  28.780  1.00  0.00     0.031 C 
ATOM     37  C   UNL A   1      46.733  27.051  29.807  1.00  0.00     0.037 A 
BRANCH  24  38
ATOM     38  C   UNL A   1      44.147  32.446  31.340  1.00  0.00     0.057 A 
ATOM     39  C   UNL A   1      44.466  33.532  30.516  1.00  0.00     0.134 A 
ATOM     40  C   UNL A   1      43.994  32.695  32.710  1.00  0.00     0.134 A 
ATOM     41  F   UNL A   1      44.628  33.360  29.195  1.00  0.00    -0.206 F 
ATOM     42  C   UNL A   1      44.621  34.818  31.034  1.00  0.00     0.040 A 
ATOM     43  C   UNL A   1      44.124  33.982  33.236  1.00  0.00     0.040 A 
ATOM     44  F   UNL A   1      43.671  31.700  33.550  1.00  0.00    -0.206 F 
ATOM     45  C   UNL A   1      44.443  35.047  32.397  1.00  0.00     0.006 A 
ENDBRANCH  24  38
BRANCH  25  46
ATOM     46  C   UNL A   1      42.551  23.456  27.342  1.00  0.00     0.057 A 
ATOM     47  C   UNL A   1      42.743  23.218  25.976  1.00  0.00     0.134 A 
ATOM     48  C   UNL A   1      42.166  22.373  28.140  1.00  0.00     0.134 A 
ATOM     49  F   UNL A   1      43.110  24.217  25.160  1.00  0.00    -0.206 F 
ATOM     50  C   UNL A   1      42.558  21.950  25.424  1.00  0.00     0.040 A 
ATOM     51  C   UNL A   1      41.997  21.095  27.606  1.00  0.00     0.040 A 
ATOM     52  F   UNL A   1      41.989  22.536  29.459  1.00  0.00    -0.206 F 
ATOM     53  C   UNL A   1      42.191  20.882  26.242  1.00  0.00     0.006 A 
ENDBRANCH  25  46
BRANCH  37  54
ATOM     54  C   UNL A   1      48.150  26.599  29.984  1.00  0.00     0.057 A 
ATOM     55  C   UNL A   1      48.541  25.912  31.141  1.00  0.00     0.134 A 
ATOM     56  C   UNL A   1      49.132  26.864  29.022  1.00  0.00     0.134 A 
ATOM     57  F   UNL A   1      47.648  25.632  32.101  1.00  0.00    -0.206 F 
ATOM     58  C   UNL A   1      49.862  25.504  31.333  1.00  0.00     0.040 A 
ATOM     59  C   UNL A   1      50.451  26.444  29.195  1.00  0.00     0.040 A 
ATOM     60  F   UNL A   1      48.815  27.505  27.887  1.00  0.00    -0.206 F 
ATOM     61  C   UNL A   1      50.820  25.767  30.356  1.00  0.00     0.006 A 
ENDBRANCH  37  54
ENDBRANCH  11  12
ENDBRANCH   4   6
ENDBRANCH   1   2
BRANCH   1  62
ATOM     62  C   UNL A   1      34.050  28.365  25.834  1.00  0.00     0.042 C 
BRANCH  62  63
ATOM     63  C   UNL A   1      32.984  27.901  24.849  1.00  0.00     0.118 C 
BRANCH  63  64
ATOM     64  N   UNL A   1      33.492  27.732  23.497  1.00  0.00    -0.352 N 
ATOM     65  C   UNL A   1      33.360  26.679  22.628  1.00  0.00     0.251 C 
ATOM     66  H   UNL A   1      34.013  28.493  23.151  1.00  0.00     0.163 HD
ATOM     67  O   UNL A   1      33.915  26.733  21.530  1.00  0.00    -0.269 OA
BRANCH  65  68
ATOM     68  C   UNL A   1      32.540  25.497  22.996  1.00  0.00     0.047 A 
ATOM     69  C   UNL A   1      31.161  25.601  22.786  1.00  0.00     0.014 A 
ATOM     70  C   UNL A   1      33.130  24.289  23.469  1.00  0.00    -0.004 A 
ATOM     71  C   UNL A   1      30.335  24.546  23.126  1.00  0.00     0.002 A 
ATOM     72  C   UNL A   1      32.294  23.185  23.789  1.00  0.00    -0.010 A 
ATOM     73  C   UNL A   1      34.519  24.135  23.632  1.00  0.00     0.026 A 
ATOM     74  C   UNL A   1      30.896  23.370  23.625  1.00  0.00     0.009 A 
ATOM     75  C   UNL A   1      32.876  21.939  24.240  1.00  0.00    -0.009 A 
ATOM     76  C   UNL A   1      35.086  22.930  24.052  1.00  0.00     0.026 A 
ATOM     77  C   UNL A   1      34.288  21.810  24.354  1.00  0.00    -0.004 A 
ATOM     78  C   UNL A   1      32.098  20.796  24.569  1.00  0.00     0.009 A 
ATOM     79  Br  UNL A   1      36.993  22.908  24.178  1.00  0.00    -0.050 Br
ATOM     80  C   UNL A   1      34.834  20.564  24.759  1.00  0.00     0.010 A 
ATOM     81  C   UNL A   1      32.661  19.582  24.970  1.00  0.00     0.001 A 
ATOM     82  C   UNL A   1      34.034  19.464  25.059  1.00  0.00     0.001 A 
ENDBRANCH  65  68
ENDBRANCH  63  64
ENDBRANCH  62  63
ENDBRANCH   1  62
TORSDOF 10
ENDMDL
MODEL 2
REMARK VINA RESULT:     -12.3      4.571      8.255
REMARK SMILES O=C(NCCCNC(=O)c1cccc2c1cc(Br)c1ccccc12)c1ccc(-c2c3nc(c(-c4c(F)cccc4F)c4ccc([nH]4)c(-c4c(F)cccc4F)c4nc(c(-c5c(F)cccc5F)c5ccc2[nH]5)C=C4)C=C3)cc1
REMARK SMILES IDX 4 1 3 2 1 3 2 4 25 6 26 7 78 8 27 9 77 10 28 11 29 12 30 13
REMARK SMILES IDX 71 14 31 15 76 16 70 17 72 18 32 19 75 20 69 21 68 22 33 24
REMARK SMILES IDX 59 25 42 26 58 27 43 28 46 29 57 30 73 31 44 32 45 33 56 35
REMARK SMILES IDX 74 36 47 37 34 38 35 39 40 40 36 41 37 42 39 43 41 44 38 45
REMARK SMILES IDX 60 46 61 47 66 48 62 49 63 50 65 51 67 52 64 53 48 54 49 55
REMARK SMILES IDX 54 56 50 57 51 58 53 59 55 60 52 61 5 62 6 63 7 64 8 65 9 67
REMARK SMILES IDX 10 68 11 69 15 70 12 71 14 72 16 73 13 74 24 75 17 76 19 77
REMARK SMILES IDX 23 78 18 79 20 80 22 81 21 82
REMARK H PARENT 3 5 72 23 46 34 7 66
REMARK Flexibility Score: inf
ROOT
ATOM      1  C   UNL A   1      33.683  35.105  32.568  1.00  0.00     0.118 C 
ENDROOT
BRANCH   1   2
ATOM      2  N   UNL A   1      33.002  34.951  31.292  1.00  0.00    -0.352 N 
ATOM      3  O   UNL A   1      32.719  34.601  29.097  1.00  0.00    -0.269 OA
ATOM      4  C   UNL A   1      33.442  34.474  30.085  1.00  0.00     0.251 C 
ATOM      5  H   UNL A   1      32.060  35.239  31.297  1.00  0.00     0.163 HD
BRANCH   4   6
ATOM      6  C   UNL A   1      34.762  33.817  29.936  1.00  0.00     0.039 A 
ATOM      7  C   UNL A   1      35.056  32.722  30.758  1.00  0.00     0.014 A 
ATOM      8  C   UNL A   1      35.744  34.313  29.076  1.00  0.00     0.014 A 
ATOM      9  C   UNL A   1      36.313  32.113  30.700  1.00  0.00     0.010 A 
ATOM     10  C   UNL A   1      36.971  33.659  28.961  1.00  0.00     0.010 A 
ATOM     11  C   UNL A   1      37.278  32.572  29.793  1.00  0.00    -0.014 A 
BRANCH  11  12
ATOM     12  C   UNL A   1      38.646  31.995  29.764  1.00  0.00     0.031 A 
ATOM     13  C   UNL A   1      39.809  32.818  30.254  1.00  0.00     0.074 A 
ATOM     14  C   UNL A   1      38.859  30.760  29.273  1.00  0.00     0.049 A 
ATOM     15  N   UNL A   1      41.090  32.548  30.224  1.00  0.00    -0.248 NA
ATOM     16  C   UNL A   1      39.487  34.135  30.829  1.00  0.00     0.031 C 
ATOM     17  C   UNL A   1      37.827  29.863  28.753  1.00  0.00     0.029 A 
ATOM     18  N   UNL A   1      40.024  30.049  29.128  1.00  0.00    -0.354 N 
ATOM     19  C   UNL A   1      41.724  33.668  30.749  1.00  0.00     0.074 A 
ATOM     20  C   UNL A   1      40.693  34.638  31.047  1.00  0.00     0.031 C 
ATOM     21  C   UNL A   1      38.402  28.712  28.366  1.00  0.00     0.029 A 
ATOM     22  C   UNL A   1      39.843  28.803  28.578  1.00  0.00     0.049 A 
ATOM     23  H   UNL A   1      40.905  30.399  29.392  1.00  0.00     0.167 HD
ATOM     24  C   UNL A   1      43.043  33.867  30.982  1.00  0.00     0.037 A 
ATOM     25  C   UNL A   1      40.742  27.848  28.276  1.00  0.00     0.037 A 
ATOM     26  C   UNL A   1      44.067  32.889  30.732  1.00  0.00     0.049 A 
ATOM     27  C   UNL A   1      42.201  28.092  28.543  1.00  0.00     0.074 A 
ATOM     28  C   UNL A   1      45.425  32.977  30.983  1.00  0.00     0.029 A 
ATOM     29  N   UNL A   1      43.840  31.638  30.181  1.00  0.00    -0.354 N 
ATOM     30  N   UNL A   1      42.783  29.145  29.062  1.00  0.00    -0.248 NA
ATOM     31  C   UNL A   1      43.129  27.010  28.180  1.00  0.00     0.031 C 
ATOM     32  C   UNL A   1      46.025  31.784  30.562  1.00  0.00     0.029 A 
ATOM     33  C   UNL A   1      45.035  30.945  30.076  1.00  0.00     0.049 A 
ATOM     34  H   UNL A   1      42.961  31.292  29.906  1.00  0.00     0.167 HD
ATOM     35  C   UNL A   1      44.139  28.847  29.108  1.00  0.00     0.074 A 
ATOM     36  C   UNL A   1      44.292  27.509  28.575  1.00  0.00     0.031 C 
ATOM     37  C   UNL A   1      45.166  29.612  29.549  1.00  0.00     0.037 A 
BRANCH  24  38
ATOM     38  C   UNL A   1      43.444  35.197  31.545  1.00  0.00     0.057 A 
ATOM     39  C   UNL A   1      43.680  35.352  32.916  1.00  0.00     0.134 A 
ATOM     40  C   UNL A   1      43.595  36.326  30.729  1.00  0.00     0.134 A 
ATOM     41  F   UNL A   1      43.551  34.311  33.752  1.00  0.00    -0.206 F 
ATOM     42  C   UNL A   1      44.059  36.583  33.455  1.00  0.00     0.040 A 
ATOM     43  C   UNL A   1      43.996  37.556  31.253  1.00  0.00     0.040 A 
ATOM     44  F   UNL A   1      43.399  36.238  29.404  1.00  0.00    -0.206 F 
ATOM     45  C   UNL A   1      44.224  37.687  32.621  1.00  0.00     0.006 A 
ENDBRANCH  24  38
BRANCH  25  46
ATOM     46  C   UNL A   1      40.292  26.557  27.701  1.00  0.00     0.057 A 
ATOM     47  C   UNL A   1      40.572  26.206  26.376  1.00  0.00     0.134 A 
ATOM     48  C   UNL A   1      39.588  25.633  28.482  1.00  0.00     0.134 A 
ATOM     49  F   UNL A   1      41.242  27.051  25.579  1.00  0.00    -0.206 F 
ATOM     50  C   UNL A   1      40.166  24.980  25.846  1.00  0.00     0.040 A 
ATOM     51  C   UNL A   1      39.193  24.396  27.971  1.00  0.00     0.040 A 
ATOM     52  F   UNL A   1      39.311  25.906  29.765  1.00  0.00    -0.206 F 
ATOM     53  C   UNL A   1      39.480  24.069  26.647  1.00  0.00     0.006 A 
ENDBRANCH  25  46
BRANCH  37  54
ATOM     54  C   UNL A   1      46.535  29.007  29.498  1.00  0.00     0.057 A 
ATOM     55  C   UNL A   1      47.330  29.137  28.353  1.00  0.00     0.134 A 
ATOM     56  C   UNL A   1      47.056  28.278  30.574  1.00  0.00     0.134 A 
ATOM     57  F   UNL A   1      46.886  29.820  27.288  1.00  0.00    -0.206 F 
ATOM     58  C   UNL A   1      48.599  28.559  28.279  1.00  0.00     0.040 A 
ATOM     59  C   UNL A   1      48.330  27.712  30.518  1.00  0.00     0.040 A 
ATOM     60  F   UNL A   1      46.347  28.132  31.703  1.00  0.00    -0.206 F 
ATOM     61  C   UNL A   1      49.103  27.848  29.366  1.00  0.00     0.006 A 
ENDBRANCH  37  54
ENDBRANCH  11  12
ENDBRANCH   4   6
ENDBRANCH   1   2
BRANCH   1  62
ATOM     62  C   UNL A   1      35.053  35.759  32.437  1.00  0.00     0.042 C 
BRANCH  62  63
ATOM     63  C   UNL A   1      36.202  34.989  33.075  1.00  0.00     0.118 C 
BRANCH  63  64
ATOM     64  N   UNL A   1      35.860  34.427  34.372  1.00  0.00    -0.352 N 
ATOM     65  C   UNL A   1      36.657  33.822  35.310  1.00  0.00     0.251 C 
ATOM     66  H   UNL A   1      34.908  34.490  34.614  1.00  0.00     0.163 HD
ATOM     67  O   UNL A   1      36.143  33.375  36.337  1.00  0.00    -0.269 OA
BRANCH  65  68
ATOM     68  C   UNL A   1      38.123  33.724  35.104  1.00  0.00     0.047 A 
ATOM     69  C   UNL A   1      38.905  34.740  35.665  1.00  0.00     0.014 A 
ATOM     70  C   UNL A   1      38.717  32.616  34.432  1.00  0.00    -0.004 A 
ATOM     71  C   UNL A   1      40.276  34.723  35.493  1.00  0.00     0.002 A 
ATOM     72  C   UNL A   1      40.130  32.570  34.280  1.00  0.00    -0.010 A 
ATOM     73  C   UNL A   1      37.962  31.550  33.911  1.00  0.00     0.026 A 
ATOM     74  C   UNL A   1      40.868  33.663  34.806  1.00  0.00     0.009 A 
ATOM     75  C   UNL A   1      40.755  31.438  33.630  1.00  0.00    -0.009 A 
ATOM     76  C   UNL A   1      38.562  30.448  33.297  1.00  0.00     0.026 A 
ATOM     77  C   UNL A   1      39.960  30.360  33.151  1.00  0.00    -0.004 A 
ATOM     78  C   UNL A   1      42.160  31.327  33.452  1.00  0.00     0.009 A 
ATOM     79  Br  UNL A   1      37.369  29.086  32.686  1.00  0.00    -0.050 Br
ATOM     80  C   UNL A   1      40.602  29.244  32.555  1.00  0.00     0.010 A 
ATOM     81  C   UNL A   1      42.767  30.218  32.857  1.00  0.00     0.001 A 
ATOM     82  C   UNL A   1      41.986  29.170  32.413  1.00  0.00     0.001 A 
ENDBRANCH  65  68
ENDBRANCH  63  64
ENDBRANCH  62  63
ENDBRANCH   1  62
TORSDOF 10
ENDMDL
MODEL 3
REMARK VINA RESULT:     -12.2      3.299      6.998
REMARK SMILES O=C(NCCCNC(=O)c1cccc2c1cc(Br)c1ccccc12)c1ccc(-c2c3nc(c(-c4c(F)cccc4F)c4ccc([nH]4)c(-c4c(F)cccc4F)c4nc(c(-c5c(F)cccc5F)c5ccc2[nH]5)C=C4)C=C3)cc1
REMARK SMILES IDX 4 1 3 2 1 3 2 4 25 6 26 7 78 8 27 9 77 10 28 11 29 12 30 13
REMARK SMILES IDX 71 14 31 15 76 16 70 17 72 18 32 19 75 20 69 21 68 22 33 24
REMARK SMILES IDX 59 25 42 26 58 27 43 28 46 29 57 30 73 31 44 32 45 33 56 35
REMARK SMILES IDX 74 36 47 37 34 38 35 39 40 40 36 41 37 42 39 43 41 44 38 45
REMARK SMILES IDX 60 46 61 47 66 48 62 49 63 50 65 51 67 52 64 53 48 54 49 55
REMARK SMILES IDX 54 56 50 57 51 58 53 59 55 60 52 61 5 62 6 63 7 64 8 65 9 67
REMARK SMILES IDX 10 68 11 69 15 70 12 71 14 72 16 73 13 74 24 75 17 76 19 77
REMARK SMILES IDX 23 78 18 79 20 80 22 81 21 82
REMARK H PARENT 3 5 72 23 46 34 7 66
REMARK Flexibility Score: inf
ROOT
ATOM      1  C   UNL A   1      33.006  29.126  24.920  1.00  0.00     0.118 C 
ENDROOT
BRANCH   1   2
ATOM      2  N   UNL A   1      32.427  30.309  25.536  1.00  0.00    -0.352 N 
ATOM      3  O   UNL A   1      32.051  31.906  27.063  1.00  0.00    -0.269 OA
ATOM      4  C   UNL A   1      32.807  31.034  26.636  1.00  0.00     0.251 C 
ATOM      5  H   UNL A   1      31.620  30.650  25.085  1.00  0.00     0.163 HD
BRANCH   4   6
ATOM      6  C   UNL A   1      34.098  30.794  27.324  1.00  0.00     0.039 A 
ATOM      7  C   UNL A   1      34.390  29.493  27.753  1.00  0.00     0.014 A 
ATOM      8  C   UNL A   1      34.976  31.833  27.637  1.00  0.00     0.014 A 
ATOM      9  C   UNL A   1      35.565  29.233  28.465  1.00  0.00     0.010 A 
ATOM     10  C   UNL A   1      36.184  31.562  28.278  1.00  0.00     0.010 A 
ATOM     11  C   UNL A   1      36.477  30.265  28.725  1.00  0.00    -0.014 A 
BRANCH  11  12
ATOM     12  C   UNL A   1      37.692  30.032  29.546  1.00  0.00     0.031 A 
ATOM     13  C   UNL A   1      38.808  29.181  28.996  1.00  0.00     0.074 A 
ATOM     14  C   UNL A   1      37.789  30.545  30.787  1.00  0.00     0.049 A 
ATOM     15  N   UNL A   1      39.905  28.771  29.580  1.00  0.00    -0.248 NA
ATOM     16  C   UNL A   1      38.651  28.706  27.612  1.00  0.00     0.031 C 
ATOM     17  C   UNL A   1      36.779  31.372  31.446  1.00  0.00     0.029 A 
ATOM     18  N   UNL A   1      38.792  30.437  31.718  1.00  0.00    -0.354 N 
ATOM     19  C   UNL A   1      40.552  27.971  28.646  1.00  0.00     0.074 A 
ATOM     20  C   UNL A   1      39.705  27.917  27.476  1.00  0.00     0.031 C 
ATOM     21  C   UNL A   1      37.222  31.715  32.667  1.00  0.00     0.029 A 
ATOM     22  C   UNL A   1      38.530  31.106  32.889  1.00  0.00     0.049 A 
ATOM     23  H   UNL A   1      39.620  29.928  31.562  1.00  0.00     0.167 HD
ATOM     24  C   UNL A   1      41.753  27.353  28.744  1.00  0.00     0.037 A 
ATOM     25  C   UNL A   1      39.262  31.208  34.014  1.00  0.00     0.037 A 
ATOM     26  C   UNL A   1      42.621  27.441  29.887  1.00  0.00     0.049 A 
ATOM     27  C   UNL A   1      40.592  30.512  34.099  1.00  0.00     0.074 A 
ATOM     28  C   UNL A   1      43.880  26.893  30.061  1.00  0.00     0.029 A 
ATOM     29  N   UNL A   1      42.320  28.134  31.049  1.00  0.00    -0.354 N 
ATOM     30  N   UNL A   1      41.201  29.780  33.199  1.00  0.00    -0.248 NA
ATOM     31  C   UNL A   1      41.334  30.658  35.360  1.00  0.00     0.031 C 
ATOM     32  C   UNL A   1      44.333  27.237  31.340  1.00  0.00     0.029 A 
ATOM     33  C   UNL A   1      43.366  28.022  31.950  1.00  0.00     0.049 A 
ATOM     34  H   UNL A   1      41.487  28.633  31.211  1.00  0.00     0.167 HD
ATOM     35  C   UNL A   1      42.406  29.396  33.776  1.00  0.00     0.074 A 
ATOM     36  C   UNL A   1      42.446  29.986  35.097  1.00  0.00     0.031 C 
ATOM     37  C   UNL A   1      43.390  28.622  33.258  1.00  0.00     0.037 A 
BRANCH  24  38
ATOM     38  C   UNL A   1      42.195  26.531  27.571  1.00  0.00     0.057 A 
ATOM     39  C   UNL A   1      41.901  25.163  27.504  1.00  0.00     0.134 A 
ATOM     40  C   UNL A   1      42.913  27.092  26.507  1.00  0.00     0.134 A 
ATOM     41  F   UNL A   1      41.218  24.564  28.492  1.00  0.00    -0.206 F 
ATOM     42  C   UNL A   1      42.302  24.385  26.417  1.00  0.00     0.040 A 
ATOM     43  C   UNL A   1      43.299  26.328  25.404  1.00  0.00     0.040 A 
ATOM     44  F   UNL A   1      43.211  28.400  26.504  1.00  0.00    -0.206 F 
ATOM     45  C   UNL A   1      42.996  24.969  25.360  1.00  0.00     0.006 A 
ENDBRANCH  24  38
BRANCH  25  46
ATOM     46  C   UNL A   1      38.767  32.018  35.153  1.00  0.00     0.057 A 
ATOM     47  C   UNL A   1      38.162  31.426  36.267  1.00  0.00     0.134 A 
ATOM     48  C   UNL A   1      38.913  33.410  35.158  1.00  0.00     0.134 A 
ATOM     49  F   UNL A   1      37.994  30.096  36.319  1.00  0.00    -0.206 F 
ATOM     50  C   UNL A   1      37.718  32.190  37.347  1.00  0.00     0.040 A 
ATOM     51  C   UNL A   1      38.491  34.185  36.239  1.00  0.00     0.040 A 
ATOM     52  F   UNL A   1      39.505  34.030  34.127  1.00  0.00    -0.206 F 
ATOM     53  C   UNL A   1      37.888  33.573  37.337  1.00  0.00     0.006 A 
ENDBRANCH  25  46
BRANCH  37  54
ATOM     54  C   UNL A   1      44.599  28.396  34.113  1.00  0.00     0.057 A 
ATOM     55  C   UNL A   1      44.663  27.300  34.982  1.00  0.00     0.134 A 
ATOM     56  C   UNL A   1      45.687  29.277  34.093  1.00  0.00     0.134 A 
ATOM     57  F   UNL A   1      43.651  26.424  35.050  1.00  0.00    -0.206 F 
ATOM     58  C   UNL A   1      45.771  27.088  35.804  1.00  0.00     0.040 A 
ATOM     59  C   UNL A   1      46.808  29.065  34.896  1.00  0.00     0.040 A 
ATOM     60  F   UNL A   1      45.689  30.336  33.271  1.00  0.00    -0.206 F 
ATOM     61  C   UNL A   1      46.850  27.970  35.759  1.00  0.00     0.006 A 
ENDBRANCH  37  54
ENDBRANCH  11  12
ENDBRANCH   4   6
ENDBRANCH   1   2
BRANCH   1  62
ATOM     62  C   UNL A   1      33.192  29.268  23.415  1.00  0.00     0.042 C 
BRANCH  62  63
ATOM     63  C   UNL A   1      34.026  28.174  22.760  1.00  0.00     0.118 C 
BRANCH  63  64
ATOM     64  N   UNL A   1      33.304  27.450  21.725  1.00  0.00    -0.352 N 
ATOM     65  C   UNL A   1      32.387  26.435  21.834  1.00  0.00     0.251 C 
ATOM     66  H   UNL A   1      33.505  27.731  20.804  1.00  0.00     0.163 HD
ATOM     67  O   UNL A   1      31.924  25.932  20.810  1.00  0.00    -0.269 OA
BRANCH  65  68
ATOM     68  C   UNL A   1      31.939  25.964  23.169  1.00  0.00     0.047 A 
ATOM     69  C   UNL A   1      30.691  26.417  23.609  1.00  0.00     0.014 A 
ATOM     70  C   UNL A   1      32.705  25.037  23.935  1.00  0.00    -0.004 A 
ATOM     71  C   UNL A   1      30.223  26.034  24.851  1.00  0.00     0.002 A 
ATOM     72  C   UNL A   1      32.216  24.608  25.200  1.00  0.00    -0.010 A 
ATOM     73  C   UNL A   1      33.934  24.516  23.491  1.00  0.00     0.026 A 
ATOM     74  C   UNL A   1      30.978  25.156  25.628  1.00  0.00     0.009 A 
ATOM     75  C   UNL A   1      32.962  23.643  25.978  1.00  0.00    -0.009 A 
ATOM     76  C   UNL A   1      34.650  23.574  24.232  1.00  0.00     0.026 A 
ATOM     77  C   UNL A   1      34.182  23.110  25.477  1.00  0.00    -0.004 A 
ATOM     78  C   UNL A   1      32.527  23.168  27.245  1.00  0.00     0.009 A 
ATOM     79  Br  UNL A   1      36.280  22.961  23.445  1.00  0.00    -0.050 Br
ATOM     80  C   UNL A   1      34.872  22.135  26.243  1.00  0.00     0.010 A 
ATOM     81  C   UNL A   1      33.228  22.210  27.981  1.00  0.00     0.001 A 
ATOM     82  C   UNL A   1      34.402  21.687  27.475  1.00  0.00     0.001 A 
ENDBRANCH  65  68
ENDBRANCH  63  64
ENDBRANCH  62  63
ENDBRANCH   1  62
TORSDOF 10
ENDMDL
