MODEL 1
REMARK VINA RESULT:     -13.4      0.000      0.000
REMARK SMILES C[C@H]1CCc2sc3ncn4nc(/C=C\C(=O)NCCCNC(=O)c5ccc(-c6c7nc(c(-c8c(F)cccc8F)c8ccc([nH]8)c(-c8c(F)cccc8F)c8nc(c(-c9c(F)cccc9F)c9ccc6[nH]9)C=C8)C=C7)cc5)nc4c3c2C1
REMARK SMILES IDX 19 1 18 2 17 3 15 4 16 5 14 7 13 8 12 9 1 10 2 11 3 12 82 13
REMARK SMILES IDX 4 14 81 15 5 16 80 17 6 18 7 19 79 20 8 21 10 22 78 23 9 24
REMARK SMILES IDX 11 25 20 26 21 27 22 28 23 30 24 31 25 32 77 33 26 34 76 35
REMARK SMILES IDX 27 36 28 37 29 38 70 39 30 40 75 41 69 42 71 43 31 44 74 45
REMARK SMILES IDX 68 46 67 47 32 49 58 50 41 51 57 52 42 53 45 54 56 55 72 56
REMARK SMILES IDX 43 57 44 58 55 60 73 61 46 62 33 63 34 64 39 65 35 66 36 67
REMARK SMILES IDX 38 68 40 69 37 70 59 71 60 72 65 73 61 74 62 75 64 76 66 77
REMARK SMILES IDX 63 78 47 79 48 80 53 81 49 82 50 83 52 84 54 85 51 86
REMARK H PARENT 17 6 21 29 71 48 45 59
REMARK Flexibility Score: inf
ROOT
ATOM      1  C   UNL A   1      40.931  20.586  26.100  1.00  0.00     0.042 C 
ENDROOT
BRANCH   1   2
ATOM      2  C   UNL A   1      40.042  21.476  26.956  1.00  0.00     0.118 C 
BRANCH   2   3
ATOM      3  N   UNL A   1      39.278  22.471  26.234  1.00  0.00    -0.352 N 
ATOM      4  C   UNL A   1      38.090  22.384  25.581  1.00  0.00     0.244 C 
ATOM      5  O   UNL A   1      37.559  23.420  25.178  1.00  0.00    -0.270 OA
ATOM      6  H   UNL A   1      39.690  23.365  26.211  1.00  0.00     0.163 HD
BRANCH   4   7
ATOM      7  C   UNL A   1      37.498  21.091  25.164  1.00  0.00     0.075 C 
ATOM      8  C   UNL A   1      36.227  20.675  25.051  1.00  0.00     0.057 C 
BRANCH   8   9
ATOM      9  C   UNL A   1      35.018  21.356  25.368  1.00  0.00     0.175 A 
ATOM     10  C   UNL A   1      32.162  25.865  21.039  1.00  0.00     0.008 C 
ATOM     11  C   UNL A   1      33.270  26.356  21.970  1.00  0.00    -0.009 C 
ATOM     12  C   UNL A   1      32.843  27.651  22.694  1.00  0.00     0.009 C 
ATOM     13  C   UNL A   1      33.712  25.241  22.946  1.00  0.00     0.041 C 
ATOM     14  C   UNL A   1      31.775  27.456  23.778  1.00  0.00     0.047 C 
ATOM     15  C   UNL A   1      32.870  25.177  24.184  1.00  0.00    -0.020 A 
ATOM     16  C   UNL A   1      32.011  26.197  24.550  1.00  0.00     0.011 A 
ATOM     17  C   UNL A   1      32.862  24.171  25.180  1.00  0.00     0.060 A 
ATOM     18  S   UNL A   1      31.179  25.887  26.012  1.00  0.00    -0.120 S 
ATOM     19  C   UNL A   1      32.046  24.437  26.272  1.00  0.00     0.129 A 
ATOM     20  C   UNL A   1      33.635  22.926  25.315  1.00  0.00     0.168 A 
ATOM     21  N   UNL A   1      31.922  23.708  27.434  1.00  0.00    -0.225 NA
ATOM     22  N   UNL A   1      33.508  22.238  26.484  1.00  0.00    -0.201 N 
ATOM     23  N   UNL A   1      34.553  22.373  24.561  1.00  0.00    -0.207 NA
ATOM     24  C   UNL A   1      32.676  22.643  27.527  1.00  0.00     0.227 A 
ATOM     25  N   UNL A   1      34.370  21.207  26.538  1.00  0.00    -0.145 NA
ENDBRANCH   8   9
ENDBRANCH   4   7
ENDBRANCH   2   3
ENDBRANCH   1   2
BRANCH   1  26
ATOM     26  C   UNL A   1      42.195  20.099  26.812  1.00  0.00     0.118 C 
BRANCH  26  27
ATOM     27  N   UNL A   1      43.210  19.534  25.927  1.00  0.00    -0.352 N 
ATOM     28  C   UNL A   1      44.080  20.177  25.070  1.00  0.00     0.251 C 
ATOM     29  H   UNL A   1      43.284  18.553  25.945  1.00  0.00     0.163 HD
ATOM     30  O   UNL A   1      44.533  19.561  24.113  1.00  0.00    -0.269 OA
BRANCH  28  31
ATOM     31  C   UNL A   1      44.394  21.614  25.244  1.00  0.00     0.039 A 
ATOM     32  C   UNL A   1      43.613  22.556  24.574  1.00  0.00     0.014 A 
ATOM     33  C   UNL A   1      45.383  22.040  26.133  1.00  0.00     0.014 A 
ATOM     34  C   UNL A   1      43.687  23.890  24.960  1.00  0.00     0.010 A 
ATOM     35  C   UNL A   1      45.401  23.352  26.583  1.00  0.00     0.010 A 
ATOM     36  C   UNL A   1      44.496  24.264  26.052  1.00  0.00    -0.014 A 
BRANCH  36  37
ATOM     37  C   UNL A   1      44.090  25.452  26.813  1.00  0.00     0.031 A 
ATOM     38  C   UNL A   1      44.977  26.635  26.575  1.00  0.00     0.074 A 
ATOM     39  C   UNL A   1      42.932  25.700  27.456  1.00  0.00     0.049 A 
ATOM     40  N   UNL A   1      45.781  27.200  27.414  1.00  0.00    -0.248 NA
ATOM     41  C   UNL A   1      45.061  27.172  25.208  1.00  0.00     0.031 C 
ATOM     42  C   UNL A   1      41.716  24.892  27.528  1.00  0.00     0.029 A 
ATOM     43  N   UNL A   1      42.591  26.836  28.137  1.00  0.00    -0.354 N 
ATOM     44  C   UNL A   1      46.363  28.267  26.734  1.00  0.00     0.074 A 
ATOM     45  C   UNL A   1      45.987  28.122  25.351  1.00  0.00     0.031 C 
ATOM     46  C   UNL A   1      40.712  25.641  28.043  1.00  0.00     0.029 A 
ATOM     47  C   UNL A   1      41.256  26.914  28.487  1.00  0.00     0.049 A 
ATOM     48  H   UNL A   1      43.244  27.540  28.359  1.00  0.00     0.167 HD
ATOM     49  C   UNL A   1      46.951  29.298  27.399  1.00  0.00     0.037 A 
ATOM     50  C   UNL A   1      40.641  27.955  29.094  1.00  0.00     0.037 A 
ATOM     51  C   UNL A   1      47.203  28.965  28.776  1.00  0.00     0.049 A 
ATOM     52  C   UNL A   1      41.679  28.744  29.800  1.00  0.00     0.074 A 
ATOM     53  C   UNL A   1      47.943  28.008  29.441  1.00  0.00     0.029 A 
ATOM     54  N   UNL A   1      46.344  29.491  29.707  1.00  0.00    -0.354 N 
ATOM     55  N   UNL A   1      42.355  28.314  30.829  1.00  0.00    -0.248 NA
ATOM     56  C   UNL A   1      42.207  29.944  29.168  1.00  0.00     0.031 C 
ATOM     57  C   UNL A   1      47.180  27.692  30.605  1.00  0.00     0.029 A 
ATOM     58  C   UNL A   1      46.038  28.494  30.594  1.00  0.00     0.049 A 
ATOM     59  H   UNL A   1      46.011  30.417  29.734  1.00  0.00     0.167 HD
ATOM     60  C   UNL A   1      43.594  28.924  30.718  1.00  0.00     0.074 A 
ATOM     61  C   UNL A   1      43.389  30.023  29.785  1.00  0.00     0.031 C 
ATOM     62  C   UNL A   1      44.724  28.308  31.171  1.00  0.00     0.037 A 
BRANCH  49  63
ATOM     63  C   UNL A   1      46.957  30.730  26.923  1.00  0.00     0.057 A 
ATOM     64  C   UNL A   1      48.160  31.462  26.961  1.00  0.00     0.134 A 
ATOM     65  C   UNL A   1      45.792  31.500  26.737  1.00  0.00     0.134 A 
ATOM     66  F   UNL A   1      49.336  30.845  27.148  1.00  0.00    -0.206 F 
ATOM     67  C   UNL A   1      48.189  32.861  26.904  1.00  0.00     0.040 A 
ATOM     68  C   UNL A   1      45.816  32.893  26.626  1.00  0.00     0.040 A 
ATOM     69  F   UNL A   1      44.567  30.962  26.760  1.00  0.00    -0.206 F 
ATOM     70  C   UNL A   1      47.013  33.582  26.745  1.00  0.00     0.006 A 
ENDBRANCH  49  63
BRANCH  50  71
ATOM     71  C   UNL A   1      39.240  28.414  28.976  1.00  0.00     0.057 A 
ATOM     72  C   UNL A   1      38.369  28.382  30.074  1.00  0.00     0.134 A 
ATOM     73  C   UNL A   1      38.800  29.145  27.859  1.00  0.00     0.134 A 
ATOM     74  F   UNL A   1      38.715  27.742  31.202  1.00  0.00    -0.206 F 
ATOM     75  C   UNL A   1      37.145  29.063  30.075  1.00  0.00     0.040 A 
ATOM     76  C   UNL A   1      37.576  29.820  27.842  1.00  0.00     0.040 A 
ATOM     77  F   UNL A   1      39.580  29.298  26.780  1.00  0.00    -0.206 F 
ATOM     78  C   UNL A   1      36.750  29.794  28.960  1.00  0.00     0.006 A 
ENDBRANCH  50  71
BRANCH  62  79
ATOM     79  C   UNL A   1      44.572  27.165  32.133  1.00  0.00     0.057 A 
ATOM     80  C   UNL A   1      44.466  25.820  31.751  1.00  0.00     0.134 A 
ATOM     81  C   UNL A   1      44.698  27.428  33.501  1.00  0.00     0.134 A 
ATOM     82  F   UNL A   1      44.434  25.464  30.461  1.00  0.00    -0.206 F 
ATOM     83  C   UNL A   1      44.455  24.788  32.694  1.00  0.00     0.040 A 
ATOM     84  C   UNL A   1      44.722  26.404  34.451  1.00  0.00     0.040 A 
ATOM     85  F   UNL A   1      44.856  28.690  33.937  1.00  0.00    -0.206 F 
ATOM     86  C   UNL A   1      44.592  25.078  34.048  1.00  0.00     0.006 A 
ENDBRANCH  62  79
ENDBRANCH  36  37
ENDBRANCH  28  31
ENDBRANCH  26  27
ENDBRANCH   1  26
TORSDOF 11
ENDMDL
MODEL 2
REMARK VINA RESULT:     -13.2      2.793      7.344
REMARK SMILES C[C@H]1CCc2sc3ncn4nc(/C=C\C(=O)NCCCNC(=O)c5ccc(-c6c7nc(c(-c8c(F)cccc8F)c8ccc([nH]8)c(-c8c(F)cccc8F)c8nc(c(-c9c(F)cccc9F)c9ccc6[nH]9)C=C8)C=C7)cc5)nc4c3c2C1
REMARK SMILES IDX 19 1 18 2 17 3 15 4 16 5 14 7 13 8 12 9 1 10 2 11 3 12 82 13
REMARK SMILES IDX 4 14 81 15 5 16 80 17 6 18 7 19 79 20 8 21 10 22 78 23 9 24
REMARK SMILES IDX 11 25 20 26 21 27 22 28 23 30 24 31 25 32 77 33 26 34 76 35
REMARK SMILES IDX 27 36 28 37 29 38 70 39 30 40 75 41 69 42 71 43 31 44 74 45
REMARK SMILES IDX 68 46 67 47 32 49 58 50 41 51 57 52 42 53 45 54 56 55 72 56
REMARK SMILES IDX 43 57 44 58 55 60 73 61 46 62 33 63 34 64 39 65 35 66 36 67
REMARK SMILES IDX 38 68 40 69 37 70 59 71 60 72 65 73 61 74 62 75 64 76 66 77
REMARK SMILES IDX 63 78 47 79 48 80 53 81 49 82 50 83 52 84 54 85 51 86
REMARK H PARENT 17 6 21 29 71 48 45 59
REMARK Flexibility Score: inf
ROOT
ATOM      1  C   UNL A   1      33.566  30.445  27.129  1.00  0.00     0.042 C 
ENDROOT
BRANCH   1   2
ATOM      2  C   UNL A   1      32.884  29.562  26.096  1.00  0.00     0.118 C 
BRANCH   2   3
ATOM      3  N   UNL A   1      33.675  29.252  24.923  1.00  0.00    -0.352 N 
ATOM      4  C   UNL A   1      33.307  28.970  23.646  1.00  0.00     0.244 C 
ATOM      5  O   UNL A   1      34.180  28.900  22.780  1.00  0.00    -0.270 OA
ATOM      6  H   UNL A   1      34.648  29.243  25.078  1.00  0.00     0.163 HD
BRANCH   4   7
ATOM      7  C   UNL A   1      31.931  28.557  23.282  1.00  0.00     0.075 C 
ATOM      8  C   UNL A   1      31.128  27.587  23.746  1.00  0.00     0.057 C 
BRANCH   8   9
ATOM      9  C   UNL A   1      31.385  26.586  24.723  1.00  0.00     0.175 A 
ATOM     10  C   UNL A   1      37.686  24.029  25.715  1.00  0.00     0.008 C 
ATOM     11  C   UNL A   1      36.828  23.430  24.602  1.00  0.00    -0.009 C 
ATOM     12  C   UNL A   1      36.812  21.889  24.691  1.00  0.00     0.009 C 
ATOM     13  C   UNL A   1      35.410  24.047  24.599  1.00  0.00     0.041 C 
ATOM     14  C   UNL A   1      35.998  21.325  25.863  1.00  0.00     0.047 C 
ATOM     15  C   UNL A   1      34.466  23.349  25.531  1.00  0.00    -0.020 A 
ATOM     16  C   UNL A   1      34.745  22.111  26.080  1.00  0.00     0.011 A 
ATOM     17  C   UNL A   1      33.170  23.762  25.926  1.00  0.00     0.060 A 
ATOM     18  S   UNL A   1      33.498  21.527  27.095  1.00  0.00    -0.120 S 
ATOM     19  C   UNL A   1      32.486  22.853  26.722  1.00  0.00     0.129 A 
ATOM     20  C   UNL A   1      32.373  24.947  25.570  1.00  0.00     0.168 A 
ATOM     21  N   UNL A   1      31.182  22.925  27.161  1.00  0.00    -0.225 NA
ATOM     22  N   UNL A   1      31.081  24.979  26.001  1.00  0.00    -0.201 N 
ATOM     23  N   UNL A   1      32.618  25.972  24.793  1.00  0.00    -0.207 NA
ATOM     24  C   UNL A   1      30.501  23.970  26.766  1.00  0.00     0.227 A 
ATOM     25  N   UNL A   1      30.425  26.036  25.490  1.00  0.00    -0.145 NA
ENDBRANCH   8   9
ENDBRANCH   4   7
ENDBRANCH   2   3
ENDBRANCH   1   2
BRANCH   1  26
ATOM     26  C   UNL A   1      34.824  29.828  27.745  1.00  0.00     0.118 C 
BRANCH  26  27
ATOM     27  N   UNL A   1      35.414  30.607  28.830  1.00  0.00    -0.352 N 
ATOM     28  C   UNL A   1      36.547  30.350  29.575  1.00  0.00     0.251 C 
ATOM     29  H   UNL A   1      34.935  31.434  29.063  1.00  0.00     0.163 HD
ATOM     30  O   UNL A   1      36.646  30.844  30.691  1.00  0.00    -0.269 OA
BRANCH  28  31
ATOM     31  C   UNL A   1      37.588  29.421  29.078  1.00  0.00     0.039 A 
ATOM     32  C   UNL A   1      38.239  29.723  27.882  1.00  0.00     0.014 A 
ATOM     33  C   UNL A   1      37.993  28.314  29.826  1.00  0.00     0.014 A 
ATOM     34  C   UNL A   1      39.412  29.048  27.564  1.00  0.00     0.010 A 
ATOM     35  C   UNL A   1      39.205  27.695  29.561  1.00  0.00     0.010 A 
ATOM     36  C   UNL A   1      39.957  28.117  28.470  1.00  0.00    -0.014 A 
BRANCH  36  37
ATOM     37  C   UNL A   1      41.412  27.921  28.438  1.00  0.00     0.031 A 
ATOM     38  C   UNL A   1      41.825  26.703  27.670  1.00  0.00     0.074 A 
ATOM     39  C   UNL A   1      42.397  28.784  28.755  1.00  0.00     0.049 A 
ATOM     40  N   UNL A   1      42.366  25.624  28.132  1.00  0.00    -0.248 NA
ATOM     41  C   UNL A   1      41.485  26.639  26.240  1.00  0.00     0.031 C 
ATOM     42  C   UNL A   1      42.312  30.187  29.155  1.00  0.00     0.029 A 
ATOM     43  N   UNL A   1      43.745  28.561  28.688  1.00  0.00    -0.354 N 
ATOM     44  C   UNL A   1      42.584  24.798  27.033  1.00  0.00     0.074 A 
ATOM     45  C   UNL A   1      41.905  25.413  25.922  1.00  0.00     0.031 C 
ATOM     46  C   UNL A   1      43.547  30.741  29.106  1.00  0.00     0.029 A 
ATOM     47  C   UNL A   1      44.520  29.696  28.836  1.00  0.00     0.049 A 
ATOM     48  H   UNL A   1      44.130  27.665  28.546  1.00  0.00     0.167 HD
ATOM     49  C   UNL A   1      43.471  23.769  27.082  1.00  0.00     0.037 A 
ATOM     50  C   UNL A   1      45.867  29.770  28.737  1.00  0.00     0.037 A 
ATOM     51  C   UNL A   1      43.837  23.448  28.436  1.00  0.00     0.049 A 
ATOM     52  C   UNL A   1      46.414  28.414  28.985  1.00  0.00     0.074 A 
ATOM     53  C   UNL A   1      43.164  23.029  29.566  1.00  0.00     0.029 A 
ATOM     54  N   UNL A   1      45.062  23.888  28.868  1.00  0.00    -0.354 N 
ATOM     55  N   UNL A   1      46.356  27.797  30.133  1.00  0.00    -0.248 NA
ATOM     56  C   UNL A   1      46.779  27.579  27.851  1.00  0.00     0.031 C 
ATOM     57  C   UNL A   1      43.838  23.661  30.654  1.00  0.00     0.029 A 
ATOM     58  C   UNL A   1      44.895  24.404  30.125  1.00  0.00     0.049 A 
ATOM     59  H   UNL A   1      45.908  23.840  28.366  1.00  0.00     0.167 HD
ATOM     60  C   UNL A   1      46.261  26.454  29.808  1.00  0.00     0.074 A 
ATOM     61  C   UNL A   1      46.686  26.374  28.417  1.00  0.00     0.031 C 
ATOM     62  C   UNL A   1      45.581  25.583  30.607  1.00  0.00     0.037 A 
BRANCH  49  63
ATOM     63  C   UNL A   1      44.301  23.299  25.912  1.00  0.00     0.057 A 
ATOM     64  C   UNL A   1      44.343  21.925  25.606  1.00  0.00     0.134 A 
ATOM     65  C   UNL A   1      45.293  24.083  25.288  1.00  0.00     0.134 A 
ATOM     66  F   UNL A   1      43.462  21.072  26.149  1.00  0.00    -0.206 F 
ATOM     67  C   UNL A   1      45.347  21.364  24.808  1.00  0.00     0.040 A 
ATOM     68  C   UNL A   1      46.268  23.538  24.448  1.00  0.00     0.040 A 
ATOM     69  F   UNL A   1      45.437  25.389  25.540  1.00  0.00    -0.206 F 
ATOM     70  C   UNL A   1      46.320  22.170  24.233  1.00  0.00     0.006 A 
ENDBRANCH  49  63
BRANCH  50  71
ATOM     71  C   UNL A   1      46.713  30.895  28.282  1.00  0.00     0.057 A 
ATOM     72  C   UNL A   1      46.615  31.398  26.977  1.00  0.00     0.134 A 
ATOM     73  C   UNL A   1      47.444  31.676  29.193  1.00  0.00     0.134 A 
ATOM     74  F   UNL A   1      45.907  30.743  26.044  1.00  0.00    -0.206 F 
ATOM     75  C   UNL A   1      47.184  32.623  26.606  1.00  0.00     0.040 A 
ATOM     76  C   UNL A   1      48.026  32.896  28.833  1.00  0.00     0.040 A 
ATOM     77  F   UNL A   1      47.546  31.325  30.483  1.00  0.00    -0.206 F 
ATOM     78  C   UNL A   1      47.883  33.382  27.539  1.00  0.00     0.006 A 
ENDBRANCH  50  71
BRANCH  62  79
ATOM     79  C   UNL A   1      45.280  26.001  32.018  1.00  0.00     0.057 A 
ATOM     80  C   UNL A   1      44.102  26.648  32.416  1.00  0.00     0.134 A 
ATOM     81  C   UNL A   1      46.151  25.587  33.032  1.00  0.00     0.134 A 
ATOM     82  F   UNL A   1      43.166  26.999  31.525  1.00  0.00    -0.206 F 
ATOM     83  C   UNL A   1      43.821  26.899  33.763  1.00  0.00     0.040 A 
ATOM     84  C   UNL A   1      45.866  25.802  34.383  1.00  0.00     0.040 A 
ATOM     85  F   UNL A   1      47.274  24.915  32.728  1.00  0.00    -0.206 F 
ATOM     86  C   UNL A   1      44.700  26.467  34.751  1.00  0.00     0.006 A 
ENDBRANCH  62  79
ENDBRANCH  36  37
ENDBRANCH  28  31
ENDBRANCH  26  27
ENDBRANCH   1  26
TORSDOF 11
ENDMDL
MODEL 3
REMARK VINA RESULT:     -12.9      4.536      9.639
REMARK SMILES C[C@H]1CCc2sc3ncn4nc(/C=C\C(=O)NCCCNC(=O)c5ccc(-c6c7nc(c(-c8c(F)cccc8F)c8ccc([nH]8)c(-c8c(F)cccc8F)c8nc(c(-c9c(F)cccc9F)c9ccc6[nH]9)C=C8)C=C7)cc5)nc4c3c2C1
REMARK SMILES IDX 19 1 18 2 17 3 15 4 16 5 14 7 13 8 12 9 1 10 2 11 3 12 82 13
REMARK SMILES IDX 4 14 81 15 5 16 80 17 6 18 7 19 79 20 8 21 10 22 78 23 9 24
REMARK SMILES IDX 11 25 20 26 21 27 22 28 23 30 24 31 25 32 77 33 26 34 76 35
REMARK SMILES IDX 27 36 28 37 29 38 70 39 30 40 75 41 69 42 71 43 31 44 74 45
REMARK SMILES IDX 68 46 67 47 32 49 58 50 41 51 57 52 42 53 45 54 56 55 72 56
REMARK SMILES IDX 43 57 44 58 55 60 73 61 46 62 33 63 34 64 39 65 35 66 36 67
REMARK SMILES IDX 38 68 40 69 37 70 59 71 60 72 65 73 61 74 62 75 64 76 66 77
REMARK SMILES IDX 63 78 47 79 48 80 53 81 49 82 50 83 52 84 54 85 51 86
REMARK H PARENT 17 6 21 29 71 48 45 59
REMARK Flexibility Score: inf
ROOT
ATOM      1  C   UNL A   1      33.709  33.335  29.073  1.00  0.00     0.042 C 
ENDROOT
BRANCH   1   2
ATOM      2  C   UNL A   1      34.553  32.821  27.916  1.00  0.00     0.118 C 
BRANCH   2   3
ATOM      3  N   UNL A   1      34.645  31.380  27.806  1.00  0.00    -0.352 N 
ATOM      4  C   UNL A   1      33.861  30.482  27.153  1.00  0.00     0.244 C 
ATOM      5  O   UNL A   1      34.243  29.313  27.072  1.00  0.00    -0.270 OA
ATOM      6  H   UNL A   1      35.407  30.981  28.287  1.00  0.00     0.163 HD
BRANCH   4   7
ATOM      7  C   UNL A   1      32.486  30.798  26.701  1.00  0.00     0.075 C 
ATOM      8  C   UNL A   1      31.684  30.233  25.786  1.00  0.00     0.057 C 
BRANCH   8   9
ATOM      9  C   UNL A   1      31.944  29.155  24.895  1.00  0.00     0.175 A 
ATOM     10  C   UNL A   1      30.379  22.662  26.513  1.00  0.00     0.008 C 
ATOM     11  C   UNL A   1      31.707  23.232  27.007  1.00  0.00    -0.009 C 
ATOM     12  C   UNL A   1      32.870  22.267  26.688  1.00  0.00     0.009 C 
ATOM     13  C   UNL A   1      31.941  24.658  26.456  1.00  0.00     0.041 C 
ATOM     14  C   UNL A   1      33.251  22.194  25.204  1.00  0.00     0.047 C 
ATOM     15  C   UNL A   1      32.585  24.664  25.102  1.00  0.00    -0.020 A 
ATOM     16  C   UNL A   1      33.185  23.542  24.561  1.00  0.00     0.011 A 
ATOM     17  C   UNL A   1      32.759  25.763  24.227  1.00  0.00     0.060 A 
ATOM     18  S   UNL A   1      33.859  23.819  23.014  1.00  0.00    -0.120 S 
ATOM     19  C   UNL A   1      33.489  25.486  23.079  1.00  0.00     0.129 A 
ATOM     20  C   UNL A   1      32.382  27.181  24.355  1.00  0.00     0.168 A 
ATOM     21  N   UNL A   1      33.913  26.369  22.110  1.00  0.00    -0.225 NA
ATOM     22  N   UNL A   1      32.834  28.034  23.393  1.00  0.00    -0.201 N 
ATOM     23  N   UNL A   1      31.775  27.849  25.303  1.00  0.00    -0.207 NA
ATOM     24  C   UNL A   1      33.602  27.625  22.303  1.00  0.00     0.227 A 
ATOM     25  N   UNL A   1      32.547  29.310  23.701  1.00  0.00    -0.145 NA
ENDBRANCH   8   9
ENDBRANCH   4   7
ENDBRANCH   2   3
ENDBRANCH   1   2
BRANCH   1  26
ATOM     26  C   UNL A   1      33.858  34.835  29.335  1.00  0.00     0.118 C 
BRANCH  26  27
ATOM     27  N   UNL A   1      33.079  35.335  30.463  1.00  0.00    -0.352 N 
ATOM     28  C   UNL A   1      33.168  35.009  31.802  1.00  0.00     0.251 C 
ATOM     29  H   UNL A   1      32.389  36.000  30.236  1.00  0.00     0.163 HD
ATOM     30  O   UNL A   1      32.188  35.172  32.518  1.00  0.00    -0.269 OA
BRANCH  28  31
ATOM     31  C   UNL A   1      34.395  34.388  32.351  1.00  0.00     0.039 A 
ATOM     32  C   UNL A   1      34.397  33.016  32.600  1.00  0.00     0.014 A 
ATOM     33  C   UNL A   1      35.567  35.126  32.530  1.00  0.00     0.014 A 
ATOM     34  C   UNL A   1      35.610  32.371  32.814  1.00  0.00     0.010 A 
ATOM     35  C   UNL A   1      36.788  34.480  32.658  1.00  0.00     0.010 A 
ATOM     36  C   UNL A   1      36.817  33.091  32.720  1.00  0.00    -0.014 A 
BRANCH  36  37
ATOM     37  C   UNL A   1      38.015  32.345  32.316  1.00  0.00     0.031 A 
ATOM     38  C   UNL A   1      38.915  32.009  33.466  1.00  0.00     0.074 A 
ATOM     39  C   UNL A   1      38.278  31.713  31.155  1.00  0.00     0.049 A 
ATOM     40  N   UNL A   1      40.100  32.467  33.702  1.00  0.00    -0.248 NA
ATOM     41  C   UNL A   1      38.378  31.154  34.537  1.00  0.00     0.031 C 
ATOM     42  C   UNL A   1      37.423  31.525  29.985  1.00  0.00     0.029 A 
ATOM     43  N   UNL A   1      39.406  31.011  30.833  1.00  0.00    -0.354 N 
ATOM     44  C   UNL A   1      40.532  31.843  34.868  1.00  0.00     0.074 A 
ATOM     45  C   UNL A   1      39.389  31.153  35.408  1.00  0.00     0.031 C 
ATOM     46  C   UNL A   1      37.982  30.602  29.168  1.00  0.00     0.029 A 
ATOM     47  C   UNL A   1      39.303  30.264  29.674  1.00  0.00     0.049 A 
ATOM     48  H   UNL A   1      40.223  31.034  31.383  1.00  0.00     0.167 HD
ATOM     49  C   UNL A   1      41.851  31.784  35.197  1.00  0.00     0.037 A 
ATOM     50  C   UNL A   1      40.236  29.424  29.170  1.00  0.00     0.037 A 
ATOM     51  C   UNL A   1      42.631  32.715  34.425  1.00  0.00     0.049 A 
ATOM     52  C   UNL A   1      41.552  29.825  29.725  1.00  0.00     0.074 A 
ATOM     53  C   UNL A   1      42.650  34.085  34.258  1.00  0.00     0.029 A 
ATOM     54  N   UNL A   1      43.364  32.199  33.388  1.00  0.00    -0.354 N 
ATOM     55  N   UNL A   1      42.156  30.948  29.446  1.00  0.00    -0.248 NA
ATOM     56  C   UNL A   1      42.091  29.097  30.864  1.00  0.00     0.031 C 
ATOM     57  C   UNL A   1      43.001  34.287  32.890  1.00  0.00     0.029 A 
ATOM     58  C   UNL A   1      43.200  33.031  32.313  1.00  0.00     0.049 A 
ATOM     59  H   UNL A   1      43.910  31.380  33.411  1.00  0.00     0.167 HD
ATOM     60  C   UNL A   1      42.856  31.267  30.598  1.00  0.00     0.074 A 
ATOM     61  C   UNL A   1      42.908  30.028  31.361  1.00  0.00     0.031 C 
ATOM     62  C   UNL A   1      43.078  32.567  30.948  1.00  0.00     0.037 A 
BRANCH  49  63
ATOM     63  C   UNL A   1      42.499  30.636  35.932  1.00  0.00     0.057 A 
ATOM     64  C   UNL A   1      43.370  30.910  37.004  1.00  0.00     0.134 A 
ATOM     65  C   UNL A   1      42.555  29.318  35.436  1.00  0.00     0.134 A 
ATOM     66  F   UNL A   1      43.422  32.133  37.554  1.00  0.00    -0.206 F 
ATOM     67  C   UNL A   1      44.285  29.968  37.488  1.00  0.00     0.040 A 
ATOM     68  C   UNL A   1      43.429  28.355  35.947  1.00  0.00     0.040 A 
ATOM     69  F   UNL A   1      41.851  28.924  34.368  1.00  0.00    -0.206 F 
ATOM     70  C   UNL A   1      44.323  28.687  36.952  1.00  0.00     0.006 A 
ENDBRANCH  49  63
BRANCH  50  71
ATOM     71  C   UNL A   1      40.056  28.195  28.369  1.00  0.00     0.057 A 
ATOM     72  C   UNL A   1      40.620  28.070  27.091  1.00  0.00     0.134 A 
ATOM     73  C   UNL A   1      39.556  27.013  28.942  1.00  0.00     0.134 A 
ATOM     74  F   UNL A   1      41.158  29.134  26.475  1.00  0.00    -0.206 F 
ATOM     75  C   UNL A   1      40.710  26.836  26.433  1.00  0.00     0.040 A 
ATOM     76  C   UNL A   1      39.630  25.777  28.292  1.00  0.00     0.040 A 
ATOM     77  F   UNL A   1      39.056  27.004  30.186  1.00  0.00    -0.206 F 
ATOM     78  C   UNL A   1      40.224  25.683  27.039  1.00  0.00     0.006 A 
ENDBRANCH  50  71
BRANCH  62  79
ATOM     79  C   UNL A   1      42.911  33.624  29.895  1.00  0.00     0.057 A 
ATOM     80  C   UNL A   1      41.715  34.315  29.651  1.00  0.00     0.134 A 
ATOM     81  C   UNL A   1      44.050  34.066  29.212  1.00  0.00     0.134 A 
ATOM     82  F   UNL A   1      40.595  34.024  30.324  1.00  0.00    -0.206 F 
ATOM     83  C   UNL A   1      41.653  35.377  28.744  1.00  0.00     0.040 A 
ATOM     84  C   UNL A   1      44.008  35.148  28.329  1.00  0.00     0.040 A 
ATOM     85  F   UNL A   1      45.241  33.486  29.435  1.00  0.00    -0.206 F 
ATOM     86  C   UNL A   1      42.803  35.802  28.087  1.00  0.00     0.006 A 
ENDBRANCH  62  79
ENDBRANCH  36  37
ENDBRANCH  28  31
ENDBRANCH  26  27
ENDBRANCH   1  26
TORSDOF 11
ENDMDL
