MODEL 1
REMARK VINA RESULT:     -12.0      0.000      0.000
REMARK SMILES CCc1cc(N2CCC(O)(C(=O)NCCCNC(=O)c3ccc(-c4c5nc(c(-c6c(F)cccc6F)c6ccc([nH]6)c(-c6c(F)cccc6F)c6nc(c(-c7c(F)cccc7F)c7ccc4[nH]7)C=C6)C=C5)cc3)CC2)nc(N2CCOCC2)n1
REMARK SMILES IDX 15 1 14 2 13 3 11 4 12 5 9 7 6 8 7 9 75 10 8 11 74 12 5 13
REMARK SMILES IDX 3 14 4 15 84 16 77 17 76 18 2 19 1 20 78 21 79 22 83 23
REMARK SMILES IDX 80 24 82 25 81 26 10 27 16 29 17 30 18 31 19 33 20 34 21 35
REMARK SMILES IDX 73 36 22 37 72 38 23 39 24 40 25 41 66 42 26 43 71 44 65 45
REMARK SMILES IDX 67 46 27 47 70 48 64 49 63 50 28 52 54 53 37 54 53 55 38 56
REMARK SMILES IDX 41 57 52 58 68 59 39 60 40 61 51 63 69 64 42 65 29 66 30 67
REMARK SMILES IDX 35 68 31 69 32 70 34 71 36 72 33 73 55 74 56 75 61 76 57 77
REMARK SMILES IDX 58 78 60 79 62 80 59 81 43 82 44 83 49 84 45 85 46 86 48 87
REMARK SMILES IDX 50 88 47 89
REMARK H PARENT 13 6 10 28 17 32 67 51 41 62
REMARK Flexibility Score: inf
ROOT
ATOM      1  C   UNL A   1      32.547  27.952  27.521  1.00  0.00     0.042 C 
ENDROOT
BRANCH   1   2
ATOM      2  C   UNL A   1      31.586  27.624  26.381  1.00  0.00     0.117 C 
BRANCH   2   3
ATOM      3  N   UNL A   1      30.697  26.529  26.721  1.00  0.00    -0.354 N 
ATOM      4  C   UNL A   1      30.591  25.274  26.200  1.00  0.00     0.252 C 
ATOM      5  O   UNL A   1      29.748  24.538  26.722  1.00  0.00    -0.272 OA
ATOM      6  H   UNL A   1      30.064  26.726  27.449  1.00  0.00     0.163 HD
BRANCH   4   7
ATOM      7  C   UNL A   1      31.487  24.797  25.017  1.00  0.00     0.146 C 
ATOM      8  N   UNL A   1      33.519  23.074  23.960  1.00  0.00    -0.356 N 
ATOM      9  C   UNL A   1      32.146  22.856  23.553  1.00  0.00     0.121 C 
ATOM     10  C   UNL A   1      33.927  24.390  24.416  1.00  0.00     0.121 C 
ATOM     11  C   UNL A   1      31.203  23.333  24.656  1.00  0.00     0.067 C 
ATOM     12  C   UNL A   1      32.962  24.930  25.457  1.00  0.00     0.067 C 
BRANCH   8  13
ATOM     13  C   UNL A   1      34.336  21.996  24.224  1.00  0.00     0.134 A 
ATOM     14  C   UNL A   1      36.389  21.112  24.942  1.00  0.00     0.048 A 
ATOM     15  C   UNL A   1      35.658  22.209  24.549  1.00  0.00     0.071 A 
ATOM     16  N   UNL A   1      35.856  19.877  24.986  1.00  0.00    -0.218 NA
ATOM     17  C   UNL A   1      34.585  19.740  24.581  1.00  0.00     0.227 A 
ATOM     18  N   UNL A   1      33.808  20.765  24.208  1.00  0.00    -0.196 NA
BRANCH  14  19
ATOM     19  C   UNL A   1      37.837  21.259  25.321  1.00  0.00     0.053 C 
ATOM     20  C   UNL A   1      38.139  22.665  25.814  1.00  0.00     0.011 C 
ENDBRANCH  14  19
BRANCH  17  21
ATOM     21  N   UNL A   1      34.037  18.495  24.571  1.00  0.00    -0.336 N 
ATOM     22  C   UNL A   1      32.644  18.287  24.926  1.00  0.00     0.148 C 
ATOM     23  C   UNL A   1      34.800  17.343  24.137  1.00  0.00     0.148 C 
ATOM     24  C   UNL A   1      32.530  17.101  25.893  1.00  0.00     0.181 C 
ATOM     25  C   UNL A   1      34.611  16.228  25.182  1.00  0.00     0.181 C 
ATOM     26  O   UNL A   1      33.217  15.935  25.395  1.00  0.00    -0.378 OA
ENDBRANCH  17  21
ENDBRANCH   8  13
BRANCH   7  27
ATOM     27  O   UNL A   1      31.262  25.590  23.844  1.00  0.00    -0.380 OA
ATOM     28  H   UNL A   1      30.364  25.957  23.869  1.00  0.00     0.212 HD
ENDBRANCH   7  27
ENDBRANCH   4   7
ENDBRANCH   2   3
ENDBRANCH   1   2
BRANCH   1  29
ATOM     29  C   UNL A   1      33.752  28.791  27.109  1.00  0.00     0.118 C 
BRANCH  29  30
ATOM     30  N   UNL A   1      33.711  30.141  27.651  1.00  0.00    -0.352 N 
ATOM     31  C   UNL A   1      34.645  30.830  28.379  1.00  0.00     0.251 C 
ATOM     32  H   UNL A   1      32.879  30.636  27.467  1.00  0.00     0.163 HD
ATOM     33  O   UNL A   1      34.333  31.905  28.898  1.00  0.00    -0.269 OA
BRANCH  31  34
ATOM     34  C   UNL A   1      36.012  30.300  28.570  1.00  0.00     0.039 A 
ATOM     35  C   UNL A   1      36.914  30.374  27.504  1.00  0.00     0.014 A 
ATOM     36  C   UNL A   1      36.400  29.695  29.768  1.00  0.00     0.014 A 
ATOM     37  C   UNL A   1      38.217  29.895  27.658  1.00  0.00     0.010 A 
ATOM     38  C   UNL A   1      37.720  29.282  29.946  1.00  0.00     0.010 A 
ATOM     39  C   UNL A   1      38.640  29.373  28.890  1.00  0.00    -0.014 A 
BRANCH  39  40
ATOM     40  C   UNL A   1      40.038  28.913  29.090  1.00  0.00     0.031 A 
ATOM     41  C   UNL A   1      41.069  29.844  29.668  1.00  0.00     0.074 A 
ATOM     42  C   UNL A   1      40.395  27.676  28.695  1.00  0.00     0.049 A 
ATOM     43  N   UNL A   1      42.350  29.647  29.852  1.00  0.00    -0.248 NA
ATOM     44  C   UNL A   1      40.604  31.182  30.068  1.00  0.00     0.031 C 
ATOM     45  C   UNL A   1      39.502  26.694  28.078  1.00  0.00     0.029 A 
ATOM     46  N   UNL A   1      41.609  27.038  28.742  1.00  0.00    -0.354 N 
ATOM     47  C   UNL A   1      42.846  30.838  30.368  1.00  0.00     0.074 A 
ATOM     48  C   UNL A   1      41.738  31.766  30.429  1.00  0.00     0.031 C 
ATOM     49  C   UNL A   1      40.193  25.573  27.820  1.00  0.00     0.029 A 
ATOM     50  C   UNL A   1      41.583  25.767  28.222  1.00  0.00     0.049 A 
ATOM     51  H   UNL A   1      42.422  27.451  29.114  1.00  0.00     0.167 HD
ATOM     52  C   UNL A   1      44.105  31.125  30.774  1.00  0.00     0.037 A 
ATOM     53  C   UNL A   1      42.569  24.862  28.077  1.00  0.00     0.037 A 
ATOM     54  C   UNL A   1      45.201  30.192  30.745  1.00  0.00     0.049 A 
ATOM     55  C   UNL A   1      43.955  25.201  28.548  1.00  0.00     0.074 A 
ATOM     56  C   UNL A   1      46.497  30.369  31.196  1.00  0.00     0.029 A 
ATOM     57  N   UNL A   1      45.128  28.904  30.236  1.00  0.00    -0.354 N 
ATOM     58  N   UNL A   1      44.395  26.309  29.093  1.00  0.00    -0.248 NA
ATOM     59  C   UNL A   1      44.982  24.161  28.389  1.00  0.00     0.031 C 
ATOM     60  C   UNL A   1      47.218  29.201  30.927  1.00  0.00     0.029 A 
ATOM     61  C   UNL A   1      46.360  28.282  30.346  1.00  0.00     0.049 A 
ATOM     62  H   UNL A   1      44.319  28.493  29.853  1.00  0.00     0.167 HD
ATOM     63  C   UNL A   1      45.739  26.092  29.366  1.00  0.00     0.074 A 
ATOM     64  C   UNL A   1      46.040  24.742  28.937  1.00  0.00     0.031 C 
ATOM     65  C   UNL A   1      46.643  26.935  29.920  1.00  0.00     0.037 A 
BRANCH  52  66
ATOM     66  C   UNL A   1      44.366  32.509  31.291  1.00  0.00     0.057 A 
ATOM     67  C   UNL A   1      44.771  33.550  30.445  1.00  0.00     0.134 A 
ATOM     68  C   UNL A   1      44.175  32.815  32.645  1.00  0.00     0.134 A 
ATOM     69  F   UNL A   1      44.982  33.321  29.140  1.00  0.00    -0.206 F 
ATOM     70  C   UNL A   1      45.000  34.839  30.929  1.00  0.00     0.040 A 
ATOM     71  C   UNL A   1      44.377  34.106  33.137  1.00  0.00     0.040 A 
ATOM     72  F   UNL A   1      43.782  31.868  33.509  1.00  0.00    -0.206 F 
ATOM     73  C   UNL A   1      44.796  35.121  32.279  1.00  0.00     0.006 A 
ENDBRANCH  52  66
BRANCH  53  74
ATOM     74  C   UNL A   1      42.275  23.536  27.479  1.00  0.00     0.057 A 
ATOM     75  C   UNL A   1      41.973  22.434  28.286  1.00  0.00     0.134 A 
ATOM     76  C   UNL A   1      42.291  23.340  26.094  1.00  0.00     0.134 A 
ATOM     77  F   UNL A   1      41.961  22.558  29.621  1.00  0.00    -0.206 F 
ATOM     78  C   UNL A   1      41.713  21.177  27.738  1.00  0.00     0.040 A 
ATOM     79  C   UNL A   1      42.010  22.093  25.531  1.00  0.00     0.040 A 
ATOM     80  F   UNL A   1      42.565  24.359  25.267  1.00  0.00    -0.206 F 
ATOM     81  C   UNL A   1      41.727  21.006  26.354  1.00  0.00     0.006 A 
ENDBRANCH  53  74
BRANCH  65  82
ATOM     82  C   UNL A   1      48.033  26.412  30.124  1.00  0.00     0.057 A 
ATOM     83  C   UNL A   1      48.411  25.762  31.305  1.00  0.00     0.134 A 
ATOM     84  C   UNL A   1      48.994  26.530  29.112  1.00  0.00     0.134 A 
ATOM     85  F   UNL A   1      47.540  25.630  32.317  1.00  0.00    -0.206 F 
ATOM     86  C   UNL A   1      49.703  25.264  31.481  1.00  0.00     0.040 A 
ATOM     87  C   UNL A   1      50.282  26.015  29.267  1.00  0.00     0.040 A 
ATOM     88  F   UNL A   1      48.694  27.136  27.954  1.00  0.00    -0.206 F 
ATOM     89  C   UNL A   1      50.640  25.385  30.457  1.00  0.00     0.006 A 
ENDBRANCH  65  82
ENDBRANCH  39  40
ENDBRANCH  31  34
ENDBRANCH  29  30
ENDBRANCH   1  29
TORSDOF 14
ENDMDL
MODEL 2
REMARK VINA RESULT:     -11.9      2.359      8.146
REMARK SMILES CCc1cc(N2CCC(O)(C(=O)NCCCNC(=O)c3ccc(-c4c5nc(c(-c6c(F)cccc6F)c6ccc([nH]6)c(-c6c(F)cccc6F)c6nc(c(-c7c(F)cccc7F)c7ccc4[nH]7)C=C6)C=C5)cc3)CC2)nc(N2CCOCC2)n1
REMARK SMILES IDX 15 1 14 2 13 3 11 4 12 5 9 7 6 8 7 9 75 10 8 11 74 12 5 13
REMARK SMILES IDX 3 14 4 15 84 16 77 17 76 18 2 19 1 20 78 21 79 22 83 23
REMARK SMILES IDX 80 24 82 25 81 26 10 27 16 29 17 30 18 31 19 33 20 34 21 35
REMARK SMILES IDX 73 36 22 37 72 38 23 39 24 40 25 41 66 42 26 43 71 44 65 45
REMARK SMILES IDX 67 46 27 47 70 48 64 49 63 50 28 52 54 53 37 54 53 55 38 56
REMARK SMILES IDX 41 57 52 58 68 59 39 60 40 61 51 63 69 64 42 65 29 66 30 67
REMARK SMILES IDX 35 68 31 69 32 70 34 71 36 72 33 73 55 74 56 75 61 76 57 77
REMARK SMILES IDX 58 78 60 79 62 80 59 81 43 82 44 83 49 84 45 85 46 86 48 87
REMARK SMILES IDX 50 88 47 89
REMARK H PARENT 13 6 10 28 17 32 67 51 41 62
REMARK Flexibility Score: inf
ROOT
ATOM      1  C   UNL A   1      37.146  19.828  24.982  1.00  0.00     0.042 C 
ENDROOT
BRANCH   1   2
ATOM      2  C   UNL A   1      35.987  20.815  24.868  1.00  0.00     0.117 C 
BRANCH   2   3
ATOM      3  N   UNL A   1      35.338  21.037  26.146  1.00  0.00    -0.354 N 
ATOM      4  C   UNL A   1      34.178  21.683  26.455  1.00  0.00     0.252 C 
ATOM      5  O   UNL A   1      33.857  21.683  27.648  1.00  0.00    -0.272 OA
ATOM      6  H   UNL A   1      35.815  20.658  26.920  1.00  0.00     0.163 HD
BRANCH   4   7
ATOM      7  C   UNL A   1      33.307  22.374  25.364  1.00  0.00     0.146 C 
ATOM      8  N   UNL A   1      31.828  24.638  24.412  1.00  0.00    -0.356 N 
ATOM      9  C   UNL A   1      33.103  24.334  23.794  1.00  0.00     0.121 C 
ATOM     10  C   UNL A   1      31.084  23.579  25.068  1.00  0.00     0.121 C 
ATOM     11  C   UNL A   1      34.003  23.621  24.800  1.00  0.00     0.067 C 
ATOM     12  C   UNL A   1      31.973  22.796  26.018  1.00  0.00     0.067 C 
BRANCH   8  13
ATOM     13  C   UNL A   1      31.483  25.948  24.662  1.00  0.00     0.134 A 
ATOM     14  C   UNL A   1      31.749  27.936  25.882  1.00  0.00     0.048 A 
ATOM     15  C   UNL A   1      32.011  26.591  25.761  1.00  0.00     0.071 A 
ATOM     16  N   UNL A   1      30.991  28.600  24.991  1.00  0.00    -0.218 NA
ATOM     17  C   UNL A   1      30.450  27.888  23.991  1.00  0.00     0.227 A 
ATOM     18  N   UNL A   1      30.681  26.582  23.797  1.00  0.00    -0.196 NA
BRANCH  14  19
ATOM     19  C   UNL A   1      32.293  28.714  27.049  1.00  0.00     0.053 C 
ATOM     20  C   UNL A   1      32.366  30.200  26.737  1.00  0.00     0.011 C 
ENDBRANCH  14  19
BRANCH  17  21
ATOM     21  N   UNL A   1      29.642  28.525  23.102  1.00  0.00    -0.336 N 
ATOM     22  C   UNL A   1      30.177  29.502  22.170  1.00  0.00     0.148 C 
ATOM     23  C   UNL A   1      28.234  28.200  23.002  1.00  0.00     0.148 C 
ATOM     24  C   UNL A   1      29.280  30.747  22.156  1.00  0.00     0.181 C 
ATOM     25  C   UNL A   1      27.442  29.521  23.003  1.00  0.00     0.181 C 
ATOM     26  O   UNL A   1      27.893  30.407  21.960  1.00  0.00    -0.378 OA
ENDBRANCH  17  21
ENDBRANCH   8  13
BRANCH   7  27
ATOM     27  O   UNL A   1      33.046  21.485  24.269  1.00  0.00    -0.380 OA
ATOM     28  H   UNL A   1      32.454  20.775  24.564  1.00  0.00     0.212 HD
ENDBRANCH   7  27
ENDBRANCH   4   7
ENDBRANCH   2   3
ENDBRANCH   1   2
BRANCH   1  29
ATOM     29  C   UNL A   1      38.479  20.461  25.366  1.00  0.00     0.118 C 
BRANCH  29  30
ATOM     30  N   UNL A   1      39.540  19.480  25.537  1.00  0.00    -0.352 N 
ATOM     31  C   UNL A   1      40.825  19.636  25.988  1.00  0.00     0.251 C 
ATOM     32  H   UNL A   1      39.297  18.558  25.289  1.00  0.00     0.163 HD
ATOM     33  O   UNL A   1      41.620  18.698  25.882  1.00  0.00    -0.269 OA
BRANCH  31  34
ATOM     34  C   UNL A   1      41.280  20.912  26.580  1.00  0.00     0.039 A 
ATOM     35  C   UNL A   1      41.844  21.877  25.740  1.00  0.00     0.014 A 
ATOM     36  C   UNL A   1      41.195  21.152  27.954  1.00  0.00     0.014 A 
ATOM     37  C   UNL A   1      42.270  23.099  26.266  1.00  0.00     0.010 A 
ATOM     38  C   UNL A   1      41.553  22.396  28.468  1.00  0.00     0.010 A 
ATOM     39  C   UNL A   1      42.100  23.381  27.631  1.00  0.00    -0.014 A 
BRANCH  39  40
ATOM     40  C   UNL A   1      42.492  24.696  28.198  1.00  0.00     0.031 A 
ATOM     41  C   UNL A   1      41.464  25.775  28.399  1.00  0.00     0.074 A 
ATOM     42  C   UNL A   1      43.787  24.941  28.476  1.00  0.00     0.049 A 
ATOM     43  N   UNL A   1      41.627  27.005  28.813  1.00  0.00    -0.248 NA
ATOM     44  C   UNL A   1      40.072  25.433  28.063  1.00  0.00     0.031 C 
ATOM     45  C   UNL A   1      44.888  23.996  28.283  1.00  0.00     0.029 A 
ATOM     46  N   UNL A   1      44.399  26.066  28.970  1.00  0.00    -0.354 N 
ATOM     47  C   UNL A   1      40.367  27.589  28.771  1.00  0.00     0.074 A 
ATOM     48  C   UNL A   1      39.457  26.593  28.249  1.00  0.00     0.031 C 
ATOM     49  C   UNL A   1      46.036  24.573  28.670  1.00  0.00     0.029 A 
ATOM     50  C   UNL A   1      45.759  25.938  29.106  1.00  0.00     0.049 A 
ATOM     51  H   UNL A   1      43.908  26.887  29.205  1.00  0.00     0.167 HD
ATOM     52  C   UNL A   1      39.998  28.835  29.151  1.00  0.00     0.037 A 
ATOM     53  C   UNL A   1      46.681  26.824  29.528  1.00  0.00     0.037 A 
ATOM     54  C   UNL A   1      40.896  29.817  29.701  1.00  0.00     0.049 A 
ATOM     55  C   UNL A   1      46.244  28.196  29.957  1.00  0.00     0.074 A 
ATOM     56  C   UNL A   1      40.605  31.083  30.176  1.00  0.00     0.029 A 
ATOM     57  N   UNL A   1      42.263  29.639  29.849  1.00  0.00    -0.354 N 
ATOM     58  N   UNL A   1      45.039  28.713  29.971  1.00  0.00    -0.248 NA
ATOM     59  C   UNL A   1      47.294  29.107  30.435  1.00  0.00     0.031 C 
ATOM     60  C   UNL A   1      41.801  31.686  30.580  1.00  0.00     0.029 A 
ATOM     61  C   UNL A   1      42.831  30.779  30.392  1.00  0.00     0.049 A 
ATOM     62  H   UNL A   1      42.757  28.823  29.604  1.00  0.00     0.167 HD
ATOM     63  C   UNL A   1      45.181  29.996  30.481  1.00  0.00     0.074 A 
ATOM     64  C   UNL A   1      46.588  30.176  30.776  1.00  0.00     0.031 C 
ATOM     65  C   UNL A   1      44.232  30.941  30.686  1.00  0.00     0.037 A 
BRANCH  52  66
ATOM     66  C   UNL A   1      38.553  29.209  28.988  1.00  0.00     0.057 A 
ATOM     67  C   UNL A   1      37.653  29.157  30.060  1.00  0.00     0.134 A 
ATOM     68  C   UNL A   1      38.065  29.660  27.755  1.00  0.00     0.134 A 
ATOM     69  F   UNL A   1      38.054  28.722  31.264  1.00  0.00    -0.206 F 
ATOM     70  C   UNL A   1      36.312  29.516  29.906  1.00  0.00     0.040 A 
ATOM     71  C   UNL A   1      36.733  30.047  27.595  1.00  0.00     0.040 A 
ATOM     72  F   UNL A   1      38.875  29.741  26.690  1.00  0.00    -0.206 F 
ATOM     73  C   UNL A   1      35.851  29.970  28.671  1.00  0.00     0.006 A 
ENDBRANCH  52  66
BRANCH  53  74
ATOM     74  C   UNL A   1      48.111  26.431  29.588  1.00  0.00     0.057 A 
ATOM     75  C   UNL A   1      48.971  26.678  28.512  1.00  0.00     0.134 A 
ATOM     76  C   UNL A   1      48.649  25.801  30.715  1.00  0.00     0.134 A 
ATOM     77  F   UNL A   1      48.507  27.263  27.398  1.00  0.00    -0.206 F 
ATOM     78  C   UNL A   1      50.313  26.298  28.547  1.00  0.00     0.040 A 
ATOM     79  C   UNL A   1      49.995  25.435  30.773  1.00  0.00     0.040 A 
ATOM     80  F   UNL A   1      47.878  25.544  31.782  1.00  0.00    -0.206 F 
ATOM     81  C   UNL A   1      50.830  25.678  29.684  1.00  0.00     0.006 A 
ENDBRANCH  53  74
BRANCH  65  82
ATOM     82  C   UNL A   1      44.678  32.241  31.285  1.00  0.00     0.057 A 
ATOM     83  C   UNL A   1      44.729  32.436  32.670  1.00  0.00     0.134 A 
ATOM     84  C   UNL A   1      45.095  33.298  30.466  1.00  0.00     0.134 A 
ATOM     85  F   UNL A   1      44.331  31.467  33.509  1.00  0.00    -0.206 F 
ATOM     86  C   UNL A   1      45.161  33.644  33.221  1.00  0.00     0.040 A 
ATOM     87  C   UNL A   1      45.550  34.502  31.004  1.00  0.00     0.040 A 
ATOM     88  F   UNL A   1      45.076  33.173  29.130  1.00  0.00    -0.206 F 
ATOM     89  C   UNL A   1      45.578  34.679  32.386  1.00  0.00     0.006 A 
ENDBRANCH  65  82
ENDBRANCH  39  40
ENDBRANCH  31  34
ENDBRANCH  29  30
ENDBRANCH   1  29
TORSDOF 14
ENDMDL
MODEL 3
REMARK VINA RESULT:     -11.9      0.981      1.830
REMARK SMILES CCc1cc(N2CCC(O)(C(=O)NCCCNC(=O)c3ccc(-c4c5nc(c(-c6c(F)cccc6F)c6ccc([nH]6)c(-c6c(F)cccc6F)c6nc(c(-c7c(F)cccc7F)c7ccc4[nH]7)C=C6)C=C5)cc3)CC2)nc(N2CCOCC2)n1
REMARK SMILES IDX 15 1 14 2 13 3 11 4 12 5 9 7 6 8 7 9 75 10 8 11 74 12 5 13
REMARK SMILES IDX 3 14 4 15 84 16 77 17 76 18 2 19 1 20 78 21 79 22 83 23
REMARK SMILES IDX 80 24 82 25 81 26 10 27 16 29 17 30 18 31 19 33 20 34 21 35
REMARK SMILES IDX 73 36 22 37 72 38 23 39 24 40 25 41 66 42 26 43 71 44 65 45
REMARK SMILES IDX 67 46 27 47 70 48 64 49 63 50 28 52 54 53 37 54 53 55 38 56
REMARK SMILES IDX 41 57 52 58 68 59 39 60 40 61 51 63 69 64 42 65 29 66 30 67
REMARK SMILES IDX 35 68 31 69 32 70 34 71 36 72 33 73 55 74 56 75 61 76 57 77
REMARK SMILES IDX 58 78 60 79 62 80 59 81 43 82 44 83 49 84 45 85 46 86 48 87
REMARK SMILES IDX 50 88 47 89
REMARK H PARENT 13 6 10 28 17 32 67 51 41 62
REMARK Flexibility Score: inf
ROOT
ATOM      1  C   UNL A   1      34.155  28.163  25.812  1.00  0.00     0.042 C 
ENDROOT
BRANCH   1   2
ATOM      2  C   UNL A   1      33.282  27.179  25.037  1.00  0.00     0.117 C 
BRANCH   2   3
ATOM      3  N   UNL A   1      32.091  27.814  24.505  1.00  0.00    -0.354 N 
ATOM      4  C   UNL A   1      30.845  27.314  24.270  1.00  0.00     0.252 C 
ATOM      5  O   UNL A   1      30.012  28.114  23.835  1.00  0.00    -0.272 OA
ATOM      6  H   UNL A   1      32.202  28.765  24.275  1.00  0.00     0.163 HD
BRANCH   4   7
ATOM      7  C   UNL A   1      30.495  25.820  24.541  1.00  0.00     0.146 C 
ATOM      8  N   UNL A   1      31.287  23.078  24.812  1.00  0.00    -0.356 N 
ATOM      9  C   UNL A   1      30.916  23.813  26.005  1.00  0.00     0.121 C 
ATOM     10  C   UNL A   1      30.770  23.502  23.524  1.00  0.00     0.121 C 
ATOM     11  C   UNL A   1      31.202  25.299  25.799  1.00  0.00     0.067 C 
ATOM     12  C   UNL A   1      30.966  24.995  23.323  1.00  0.00     0.067 C 
BRANCH   8  13
ATOM     13  C   UNL A   1      32.356  22.209  24.848  1.00  0.00     0.134 A 
ATOM     14  C   UNL A   1      34.612  21.760  25.316  1.00  0.00     0.048 A 
ATOM     15  C   UNL A   1      33.611  22.689  25.152  1.00  0.00     0.071 A 
ATOM     16  N   UNL A   1      34.395  20.441  25.163  1.00  0.00    -0.218 NA
ATOM     17  C   UNL A   1      33.164  20.059  24.791  1.00  0.00     0.227 A 
ATOM     18  N   UNL A   1      32.137  20.905  24.637  1.00  0.00    -0.196 NA
BRANCH  14  19
ATOM     19  C   UNL A   1      36.010  22.200  25.655  1.00  0.00     0.053 C 
ATOM     20  C   UNL A   1      36.122  23.717  25.673  1.00  0.00     0.011 C 
ENDBRANCH  14  19
BRANCH  17  21
ATOM     21  N   UNL A   1      32.929  18.736  24.584  1.00  0.00    -0.336 N 
ATOM     22  C   UNL A   1      32.689  17.834  25.697  1.00  0.00     0.148 C 
ATOM     23  C   UNL A   1      32.838  18.191  23.245  1.00  0.00     0.148 C 
ATOM     24  C   UNL A   1      33.522  16.558  25.517  1.00  0.00     0.181 C 
ATOM     25  C   UNL A   1      33.713  16.926  23.188  1.00  0.00     0.181 C 
ATOM     26  O   UNL A   1      33.342  15.980  24.209  1.00  0.00    -0.378 OA
ENDBRANCH  17  21
ENDBRANCH   8  13
BRANCH   7  27
ATOM     27  O   UNL A   1      29.084  25.643  24.724  1.00  0.00    -0.380 OA
ATOM     28  H   UNL A   1      28.640  25.673  23.862  1.00  0.00     0.212 HD
ENDBRANCH   7  27
ENDBRANCH   4   7
ENDBRANCH   2   3
ENDBRANCH   1   2
BRANCH   1  29
ATOM     29  C   UNL A   1      33.707  28.407  27.250  1.00  0.00     0.118 C 
BRANCH  29  30
ATOM     30  N   UNL A   1      33.665  29.820  27.595  1.00  0.00    -0.352 N 
ATOM     31  C   UNL A   1      34.609  30.612  28.193  1.00  0.00     0.251 C 
ATOM     32  H   UNL A   1      32.825  30.278  27.363  1.00  0.00     0.163 HD
ATOM     33  O   UNL A   1      34.299  31.748  28.561  1.00  0.00    -0.269 OA
BRANCH  31  34
ATOM     34  C   UNL A   1      35.986  30.123  28.423  1.00  0.00     0.039 A 
ATOM     35  C   UNL A   1      36.909  30.203  27.376  1.00  0.00     0.014 A 
ATOM     36  C   UNL A   1      36.365  29.552  29.641  1.00  0.00     0.014 A 
ATOM     37  C   UNL A   1      38.221  29.763  27.566  1.00  0.00     0.010 A 
ATOM     38  C   UNL A   1      37.691  29.179  29.854  1.00  0.00     0.010 A 
ATOM     39  C   UNL A   1      38.631  29.276  28.817  1.00  0.00    -0.014 A 
BRANCH  39  40
ATOM     40  C   UNL A   1      40.036  28.859  29.055  1.00  0.00     0.031 A 
ATOM     41  C   UNL A   1      41.016  29.811  29.686  1.00  0.00     0.074 A 
ATOM     42  C   UNL A   1      40.448  27.643  28.648  1.00  0.00     0.049 A 
ATOM     43  N   UNL A   1      42.295  29.653  29.909  1.00  0.00    -0.248 NA
ATOM     44  C   UNL A   1      40.492  31.124  30.096  1.00  0.00     0.031 C 
ATOM     45  C   UNL A   1      39.610  26.645  27.982  1.00  0.00     0.029 A 
ATOM     46  N   UNL A   1      41.681  27.044  28.723  1.00  0.00    -0.354 N 
ATOM     47  C   UNL A   1      42.733  30.848  30.466  1.00  0.00     0.074 A 
ATOM     48  C   UNL A   1      41.592  31.738  30.507  1.00  0.00     0.031 C 
ATOM     49  C   UNL A   1      40.347  25.553  27.725  1.00  0.00     0.029 A 
ATOM     50  C   UNL A   1      41.715  25.784  28.177  1.00  0.00     0.049 A 
ATOM     51  H   UNL A   1      42.466  27.477  29.131  1.00  0.00     0.167 HD
ATOM     52  C   UNL A   1      43.968  31.169  30.920  1.00  0.00     0.037 A 
ATOM     53  C   UNL A   1      42.736  24.916  28.049  1.00  0.00     0.037 A 
ATOM     54  C   UNL A   1      45.095  30.274  30.910  1.00  0.00     0.049 A 
ATOM     55  C   UNL A   1      44.093  25.291  28.573  1.00  0.00     0.074 A 
ATOM     56  C   UNL A   1      46.368  30.485  31.408  1.00  0.00     0.029 A 
ATOM     57  N   UNL A   1      45.082  28.995  30.374  1.00  0.00    -0.354 N 
ATOM     58  N   UNL A   1      44.477  26.402  29.155  1.00  0.00    -0.248 NA
ATOM     59  C   UNL A   1      45.160  24.289  28.429  1.00  0.00     0.031 C 
ATOM     60  C   UNL A   1      47.137  29.347  31.141  1.00  0.00     0.029 A 
ATOM     61  C   UNL A   1      46.331  28.413  30.513  1.00  0.00     0.049 A 
ATOM     62  H   UNL A   1      44.301  28.566  29.955  1.00  0.00     0.167 HD
ATOM     63  C   UNL A   1      45.817  26.224  29.469  1.00  0.00     0.074 A 
ATOM     64  C   UNL A   1      46.179  24.893  29.024  1.00  0.00     0.031 C 
ATOM     65  C   UNL A   1      46.673  27.085  30.071  1.00  0.00     0.037 A 
BRANCH  52  66
ATOM     66  C   UNL A   1      44.164  32.550  31.473  1.00  0.00     0.057 A 
ATOM     67  C   UNL A   1      44.561  33.621  30.662  1.00  0.00     0.134 A 
ATOM     68  C   UNL A   1      43.917  32.821  32.825  1.00  0.00     0.134 A 
ATOM     69  F   UNL A   1      44.824  33.426  29.361  1.00  0.00    -0.206 F 
ATOM     70  C   UNL A   1      44.730  34.906  31.179  1.00  0.00     0.040 A 
ATOM     71  C   UNL A   1      44.058  34.107  33.350  1.00  0.00     0.040 A 
ATOM     72  F   UNL A   1      43.528  31.843  33.656  1.00  0.00    -0.206 F 
ATOM     73  C   UNL A   1      44.472  35.153  32.527  1.00  0.00     0.006 A 
ENDBRANCH  52  66
BRANCH  53  74
ATOM     74  C   UNL A   1      42.507  23.594  27.415  1.00  0.00     0.057 A 
ATOM     75  C   UNL A   1      42.673  23.419  26.037  1.00  0.00     0.134 A 
ATOM     76  C   UNL A   1      42.117  22.481  28.167  1.00  0.00     0.134 A 
ATOM     77  F   UNL A   1      43.029  24.455  25.262  1.00  0.00    -0.206 F 
ATOM     78  C   UNL A   1      42.444  22.186  25.424  1.00  0.00     0.040 A 
ATOM     79  C   UNL A   1      41.906  21.236  27.571  1.00  0.00     0.040 A 
ATOM     80  F   UNL A   1      41.949  22.583  29.493  1.00  0.00    -0.206 F 
ATOM     81  C   UNL A   1      42.063  21.088  26.194  1.00  0.00     0.006 A 
ENDBRANCH  53  74
BRANCH  65  82
ATOM     82  C   UNL A   1      48.073  26.604  30.311  1.00  0.00     0.057 A 
ATOM     83  C   UNL A   1      49.100  26.833  29.388  1.00  0.00     0.134 A 
ATOM     84  C   UNL A   1      48.403  25.936  31.497  1.00  0.00     0.134 A 
ATOM     85  F   UNL A   1      48.846  27.456  28.227  1.00  0.00    -0.206 F 
ATOM     86  C   UNL A   1      50.404  26.396  29.626  1.00  0.00     0.040 A 
ATOM     87  C   UNL A   1      49.707  25.515  31.758  1.00  0.00     0.040 A 
ATOM     88  F   UNL A   1      47.465  25.691  32.425  1.00  0.00    -0.206 F 
ATOM     89  C   UNL A   1      50.711  25.739  30.817  1.00  0.00     0.006 A 
ENDBRANCH  65  82
ENDBRANCH  39  40
ENDBRANCH  31  34
ENDBRANCH  29  30
ENDBRANCH   1  29
TORSDOF 14
ENDMDL
