MODEL 1
REMARK VINA RESULT:     -11.1      0.000      0.000
REMARK SMILES CCCCN(C)c1ccc([N+](=O)[O-])c(C(=O)NCCCNC(=O)c2ccc(-c3c4nc(c(-c5c(F)cccc5F)c5ccc([nH]5)c(-c5c(F)cccc5F)c5nc(c(-c6c(F)cccc6F)c6ccc3[nH]6)C=C5)C=C4)cc2)c1
REMARK SMILES IDX 18 1 17 2 15 3 16 4 14 6 7 7 8 8 78 9 9 10 10 11 5 12 6 13
REMARK SMILES IDX 4 14 3 15 2 16 1 17 11 18 12 19 13 20 19 21 20 22 21 23
REMARK SMILES IDX 22 24 23 26 24 27 25 28 77 29 26 30 76 31 27 32 28 33 29 34
REMARK SMILES IDX 70 35 30 36 75 37 69 38 71 39 31 40 74 41 68 42 67 43 32 45
REMARK SMILES IDX 58 46 41 47 57 48 42 49 45 50 56 51 72 52 43 53 44 54 55 56
REMARK SMILES IDX 73 57 46 58 33 59 34 60 39 61 35 62 36 63 38 64 40 65 37 66
REMARK SMILES IDX 59 67 60 68 65 69 61 70 62 71 64 72 66 73 63 74 47 75 48 76
REMARK SMILES IDX 53 77 49 78 50 79 52 80 54 81 51 82
REMARK H PARENT 17 5 21 25 71 44 45 55
REMARK Flexibility Score: inf
ROOT
ATOM      1  C   UNL A   1      36.796  21.268  25.000  1.00  0.00     0.118 C 
ENDROOT
BRANCH   1   2
ATOM      2  N   UNL A   1      35.897  21.217  26.138  1.00  0.00    -0.352 N 
ATOM      3  C   UNL A   1      34.535  21.369  26.200  1.00  0.00     0.258 C 
ATOM      4  O   UNL A   1      33.970  21.252  27.284  1.00  0.00    -0.269 OA
ATOM      5  H   UNL A   1      36.334  21.046  27.003  1.00  0.00     0.163 HD
BRANCH   3   6
ATOM      6  C   UNL A   1      33.710  21.655  25.002  1.00  0.00     0.119 A 
ATOM      7  C   UNL A   1      32.712  23.226  23.407  1.00  0.00     0.038 A 
ATOM      8  C   UNL A   1      32.051  22.161  22.782  1.00  0.00     0.033 A 
ATOM      9  C   UNL A   1      33.491  22.964  24.548  1.00  0.00     0.047 A 
ATOM     10  C   UNL A   1      32.201  20.857  23.250  1.00  0.00     0.088 A 
ATOM     11  C   UNL A   1      33.043  20.616  24.343  1.00  0.00     0.282 A 
BRANCH   7  12
ATOM     12  N   UNL A   1      32.640  24.532  22.914  1.00  0.00    -0.375 N 
ATOM     13  C   UNL A   1      33.643  25.448  23.459  1.00  0.00     0.143 C 
BRANCH  12  14
ATOM     14  C   UNL A   1      31.286  25.091  22.725  1.00  0.00     0.116 C 
BRANCH  14  15
ATOM     15  C   UNL A   1      30.612  25.446  24.057  1.00  0.00     0.021 C 
BRANCH  15  16
ATOM     16  C   UNL A   1      29.376  26.339  23.923  1.00  0.00    -0.002 C 
ATOM     17  C   UNL A   1      29.675  27.772  23.524  1.00  0.00     0.004 C 
ENDBRANCH  15  16
ENDBRANCH  14  15
ENDBRANCH  12  14
ENDBRANCH   7  12
BRANCH  11  18
ATOM     18  N   UNL A   1      33.276  19.235  24.709  1.00  0.00     0.063 N 
ATOM     19  O   UNL A   1      34.425  18.798  24.557  1.00  0.00    -0.258 OA
ATOM     20  O   UNL A   1      32.337  18.639  25.257  1.00  0.00    -0.258 OA
ENDBRANCH  11  18
ENDBRANCH   3   6
ENDBRANCH   1   2
BRANCH   1  21
ATOM     21  C   UNL A   1      37.780  20.102  25.016  1.00  0.00     0.042 C 
BRANCH  21  22
ATOM     22  C   UNL A   1      39.056  20.419  25.784  1.00  0.00     0.118 C 
BRANCH  22  23
ATOM     23  N   UNL A   1      39.985  19.297  25.809  1.00  0.00    -0.352 N 
ATOM     24  C   UNL A   1      41.341  19.299  26.058  1.00  0.00     0.251 C 
ATOM     25  H   UNL A   1      39.591  18.415  25.621  1.00  0.00     0.163 HD
ATOM     26  O   UNL A   1      42.001  18.285  25.887  1.00  0.00    -0.269 OA
BRANCH  24  27
ATOM     27  C   UNL A   1      42.001  20.552  26.496  1.00  0.00     0.039 A 
ATOM     28  C   UNL A   1      42.515  21.424  25.532  1.00  0.00     0.014 A 
ATOM     29  C   UNL A   1      42.082  20.879  27.850  1.00  0.00     0.014 A 
ATOM     30  C   UNL A   1      43.030  22.664  25.922  1.00  0.00     0.010 A 
ATOM     31  C   UNL A   1      42.513  22.144  28.229  1.00  0.00     0.010 A 
ATOM     32  C   UNL A   1      42.988  23.053  27.270  1.00  0.00    -0.014 A 
BRANCH  32  33
ATOM     33  C   UNL A   1      43.433  24.397  27.723  1.00  0.00     0.031 A 
ATOM     34  C   UNL A   1      42.404  25.429  28.100  1.00  0.00     0.074 A 
ATOM     35  C   UNL A   1      44.739  24.727  27.676  1.00  0.00     0.049 A 
ATOM     36  N   UNL A   1      42.558  26.707  28.330  1.00  0.00    -0.248 NA
ATOM     37  C   UNL A   1      41.009  24.966  28.191  1.00  0.00     0.031 C 
ATOM     38  C   UNL A   1      45.830  23.832  27.286  1.00  0.00     0.029 A 
ATOM     39  N   UNL A   1      45.368  25.922  27.930  1.00  0.00    -0.354 N 
ATOM     40  C   UNL A   1      41.281  27.207  28.545  1.00  0.00     0.074 A 
ATOM     41  C   UNL A   1      40.359  26.104  28.388  1.00  0.00     0.031 C 
ATOM     42  C   UNL A   1      46.992  24.505  27.334  1.00  0.00     0.029 A 
ATOM     43  C   UNL A   1      46.725  25.890  27.708  1.00  0.00     0.049 A 
ATOM     44  H   UNL A   1      44.892  26.726  28.241  1.00  0.00     0.167 HD
ATOM     45  C   UNL A   1      40.912  28.471  28.859  1.00  0.00     0.037 A 
ATOM     46  C   UNL A   1      47.645  26.873  27.775  1.00  0.00     0.037 A 
ATOM     47  C   UNL A   1      41.837  29.550  29.076  1.00  0.00     0.049 A 
ATOM     48  C   UNL A   1      47.206  28.264  28.144  1.00  0.00     0.074 A 
ATOM     49  C   UNL A   1      41.569  30.840  29.498  1.00  0.00     0.029 A 
ATOM     50  N   UNL A   1      43.208  29.461  28.892  1.00  0.00    -0.354 N 
ATOM     51  N   UNL A   1      46.003  28.706  28.420  1.00  0.00    -0.248 NA
ATOM     52  C   UNL A   1      48.252  29.296  28.210  1.00  0.00     0.031 C 
ATOM     53  C   UNL A   1      42.774  31.546  29.528  1.00  0.00     0.029 A 
ATOM     54  C   UNL A   1      43.798  30.682  29.170  1.00  0.00     0.049 A 
ATOM     55  H   UNL A   1      43.690  28.652  28.608  1.00  0.00     0.167 HD
ATOM     56  C   UNL A   1      46.153  30.052  28.729  1.00  0.00     0.074 A 
ATOM     57  C   UNL A   1      47.563  30.355  28.612  1.00  0.00     0.031 C 
ATOM     58  C   UNL A   1      45.207  30.956  29.079  1.00  0.00     0.037 A 
BRANCH  45  59
ATOM     59  C   UNL A   1      39.446  28.762  28.994  1.00  0.00     0.057 A 
ATOM     60  C   UNL A   1      38.768  28.608  30.210  1.00  0.00     0.134 A 
ATOM     61  C   UNL A   1      38.719  29.263  27.907  1.00  0.00     0.134 A 
ATOM     62  F   UNL A   1      39.405  28.124  31.288  1.00  0.00    -0.206 F 
ATOM     63  C   UNL A   1      37.415  28.925  30.335  1.00  0.00     0.040 A 
ATOM     64  C   UNL A   1      37.372  29.607  28.026  1.00  0.00     0.040 A 
ATOM     65  F   UNL A   1      39.310  29.440  26.716  1.00  0.00    -0.206 F 
ATOM     66  C   UNL A   1      36.715  29.435  29.242  1.00  0.00     0.006 A 
ENDBRANCH  45  59
BRANCH  46  67
ATOM     67  C   UNL A   1      49.075  26.588  27.489  1.00  0.00     0.057 A 
ATOM     68  C   UNL A   1      49.602  26.768  26.205  1.00  0.00     0.134 A 
ATOM     69  C   UNL A   1      49.937  26.094  28.476  1.00  0.00     0.134 A 
ATOM     70  F   UNL A   1      48.820  27.220  25.213  1.00  0.00    -0.206 F 
ATOM     71  C   UNL A   1      50.925  26.442  25.903  1.00  0.00     0.040 A 
ATOM     72  C   UNL A   1      51.270  25.788  28.194  1.00  0.00     0.040 A 
ATOM     73  F   UNL A   1      49.497  25.905  29.729  1.00  0.00    -0.206 F 
ATOM     74  C   UNL A   1      51.765  25.951  26.902  1.00  0.00     0.006 A 
ENDBRANCH  46  67
BRANCH  58  75
ATOM     75  C   UNL A   1      45.665  32.343  29.418  1.00  0.00     0.057 A 
ATOM     76  C   UNL A   1      45.710  33.362  28.461  1.00  0.00     0.134 A 
ATOM     77  C   UNL A   1      45.997  32.675  30.738  1.00  0.00     0.134 A 
ATOM     78  F   UNL A   1      45.416  33.104  27.178  1.00  0.00    -0.206 F 
ATOM     79  C   UNL A   1      46.077  34.665  28.803  1.00  0.00     0.040 A 
ATOM     80  C   UNL A   1      46.342  33.978  31.097  1.00  0.00     0.040 A 
ATOM     81  F   UNL A   1      45.965  31.744  31.704  1.00  0.00    -0.206 F 
ATOM     82  C   UNL A   1      46.385  34.977  30.127  1.00  0.00     0.006 A 
ENDBRANCH  58  75
ENDBRANCH  32  33
ENDBRANCH  24  27
ENDBRANCH  22  23
ENDBRANCH  21  22
ENDBRANCH   1  21
TORSDOF 15
ENDMDL
MODEL 2
REMARK VINA RESULT:     -10.9      5.657     10.370
REMARK SMILES CCCCN(C)c1ccc([N+](=O)[O-])c(C(=O)NCCCNC(=O)c2ccc(-c3c4nc(c(-c5c(F)cccc5F)c5ccc([nH]5)c(-c5c(F)cccc5F)c5nc(c(-c6c(F)cccc6F)c6ccc3[nH]6)C=C5)C=C4)cc2)c1
REMARK SMILES IDX 18 1 17 2 15 3 16 4 14 6 7 7 8 8 78 9 9 10 10 11 5 12 6 13
REMARK SMILES IDX 4 14 3 15 2 16 1 17 11 18 12 19 13 20 19 21 20 22 21 23
REMARK SMILES IDX 22 24 23 26 24 27 25 28 77 29 26 30 76 31 27 32 28 33 29 34
REMARK SMILES IDX 70 35 30 36 75 37 69 38 71 39 31 40 74 41 68 42 67 43 32 45
REMARK SMILES IDX 58 46 41 47 57 48 42 49 45 50 56 51 72 52 43 53 44 54 55 56
REMARK SMILES IDX 73 57 46 58 33 59 34 60 39 61 35 62 36 63 38 64 40 65 37 66
REMARK SMILES IDX 59 67 60 68 65 69 61 70 62 71 64 72 66 73 63 74 47 75 48 76
REMARK SMILES IDX 53 77 49 78 50 79 52 80 54 81 51 82
REMARK H PARENT 17 5 21 25 71 44 45 55
REMARK Flexibility Score: inf
ROOT
ATOM      1  C   UNL A   1      32.097  30.078  26.268  1.00  0.00     0.118 C 
ENDROOT
BRANCH   1   2
ATOM      2  N   UNL A   1      32.785  29.888  25.004  1.00  0.00    -0.352 N 
ATOM      3  C   UNL A   1      32.562  28.979  24.000  1.00  0.00     0.258 C 
ATOM      4  O   UNL A   1      33.257  29.024  22.989  1.00  0.00    -0.269 OA
ATOM      5  H   UNL A   1      33.530  30.510  24.841  1.00  0.00     0.163 HD
BRANCH   3   6
ATOM      6  C   UNL A   1      31.497  27.951  24.079  1.00  0.00     0.119 A 
ATOM      7  C   UNL A   1      30.712  25.719  24.720  1.00  0.00     0.038 A 
ATOM      8  C   UNL A   1      29.476  25.988  24.117  1.00  0.00     0.033 A 
ATOM      9  C   UNL A   1      31.728  26.687  24.643  1.00  0.00     0.047 A 
ATOM     10  C   UNL A   1      29.240  27.212  23.494  1.00  0.00     0.088 A 
ATOM     11  C   UNL A   1      30.247  28.186  23.499  1.00  0.00     0.282 A 
BRANCH   7  12
ATOM     12  N   UNL A   1      30.951  24.531  25.415  1.00  0.00    -0.375 N 
ATOM     13  C   UNL A   1      31.923  24.643  26.504  1.00  0.00     0.143 C 
BRANCH  12  14
ATOM     14  C   UNL A   1      31.022  23.297  24.607  1.00  0.00     0.116 C 
BRANCH  14  15
ATOM     15  C   UNL A   1      32.115  23.368  23.532  1.00  0.00     0.021 C 
BRANCH  15  16
ATOM     16  C   UNL A   1      33.126  22.221  23.580  1.00  0.00    -0.002 C 
ATOM     17  C   UNL A   1      32.538  20.879  23.975  1.00  0.00     0.004 C 
ENDBRANCH  15  16
ENDBRANCH  14  15
ENDBRANCH  12  14
ENDBRANCH   7  12
BRANCH  11  18
ATOM     18  N   UNL A   1      29.911  29.489  22.962  1.00  0.00     0.063 N 
ATOM     19  O   UNL A   1      29.839  29.588  21.730  1.00  0.00    -0.258 OA
ATOM     20  O   UNL A   1      29.605  30.367  23.783  1.00  0.00    -0.258 OA
ENDBRANCH  11  18
ENDBRANCH   3   6
ENDBRANCH   1   2
BRANCH   1  21
ATOM     21  C   UNL A   1      31.766  31.549  26.505  1.00  0.00     0.042 C 
BRANCH  21  22
ATOM     22  C   UNL A   1      32.861  32.283  27.265  1.00  0.00     0.118 C 
BRANCH  22  23
ATOM     23  N   UNL A   1      32.507  33.665  27.559  1.00  0.00    -0.352 N 
ATOM     24  C   UNL A   1      33.049  34.521  28.493  1.00  0.00     0.251 C 
ATOM     25  H   UNL A   1      31.778  34.041  27.014  1.00  0.00     0.163 HD
ATOM     26  O   UNL A   1      32.528  35.604  28.715  1.00  0.00    -0.269 OA
BRANCH  24  27
ATOM     27  C   UNL A   1      34.247  34.101  29.259  1.00  0.00     0.039 A 
ATOM     28  C   UNL A   1      34.082  33.325  30.411  1.00  0.00     0.014 A 
ATOM     29  C   UNL A   1      35.527  34.443  28.823  1.00  0.00     0.014 A 
ATOM     30  C   UNL A   1      35.205  32.820  31.073  1.00  0.00     0.010 A 
ATOM     31  C   UNL A   1      36.638  33.870  29.430  1.00  0.00     0.010 A 
ATOM     32  C   UNL A   1      36.490  33.050  30.560  1.00  0.00    -0.014 A 
BRANCH  32  33
ATOM     33  C   UNL A   1      37.708  32.455  31.170  1.00  0.00     0.031 A 
ATOM     34  C   UNL A   1      38.394  31.304  30.484  1.00  0.00     0.074 A 
ATOM     35  C   UNL A   1      38.119  32.860  32.389  1.00  0.00     0.049 A 
ATOM     36  N   UNL A   1      39.338  30.517  30.931  1.00  0.00    -0.248 NA
ATOM     37  C   UNL A   1      37.924  30.969  29.129  1.00  0.00     0.031 C 
ATOM     38  C   UNL A   1      37.514  33.935  33.177  1.00  0.00     0.029 A 
ATOM     39  N   UNL A   1      39.130  32.390  33.192  1.00  0.00    -0.354 N 
ATOM     40  C   UNL A   1      39.541  29.571  29.934  1.00  0.00     0.074 A 
ATOM     41  C   UNL A   1      38.602  29.861  28.873  1.00  0.00     0.031 C 
ATOM     42  C   UNL A   1      38.168  34.048  34.346  1.00  0.00     0.029 A 
ATOM     43  C   UNL A   1      39.205  33.022  34.412  1.00  0.00     0.049 A 
ATOM     44  H   UNL A   1      39.742  31.669  32.921  1.00  0.00     0.167 HD
ATOM     45  C   UNL A   1      40.441  28.560  29.902  1.00  0.00     0.037 A 
ATOM     46  C   UNL A   1      40.002  32.785  35.471  1.00  0.00     0.037 A 
ATOM     47  C   UNL A   1      41.414  28.315  30.931  1.00  0.00     0.049 A 
ATOM     48  C   UNL A   1      41.004  31.665  35.398  1.00  0.00     0.074 A 
ATOM     49  C   UNL A   1      42.435  27.380  30.944  1.00  0.00     0.029 A 
ATOM     50  N   UNL A   1      41.490  29.012  32.126  1.00  0.00    -0.354 N 
ATOM     51  N   UNL A   1      41.237  30.827  34.418  1.00  0.00    -0.248 NA
ATOM     52  C   UNL A   1      41.855  31.456  36.580  1.00  0.00     0.031 C 
ATOM     53  C   UNL A   1      43.102  27.483  32.168  1.00  0.00     0.029 A 
ATOM     54  C   UNL A   1      42.526  28.513  32.896  1.00  0.00     0.049 A 
ATOM     55  H   UNL A   1      40.896  29.752  32.389  1.00  0.00     0.167 HD
ATOM     56  C   UNL A   1      42.282  30.019  34.848  1.00  0.00     0.074 A 
ATOM     57  C   UNL A   1      42.643  30.470  36.176  1.00  0.00     0.031 C 
ATOM     58  C   UNL A   1      42.890  28.996  34.201  1.00  0.00     0.037 A 
BRANCH  45  59
ATOM     59  C   UNL A   1      40.423  27.641  28.716  1.00  0.00     0.057 A 
ATOM     60  C   UNL A   1      41.200  27.886  27.577  1.00  0.00     0.134 A 
ATOM     61  C   UNL A   1      39.666  26.464  28.742  1.00  0.00     0.134 A 
ATOM     62  F   UNL A   1      41.941  29.001  27.485  1.00  0.00    -0.206 F 
ATOM     63  C   UNL A   1      41.210  27.001  26.498  1.00  0.00     0.040 A 
ATOM     64  C   UNL A   1      39.688  25.558  27.680  1.00  0.00     0.040 A 
ATOM     65  F   UNL A   1      38.905  26.166  29.805  1.00  0.00    -0.206 F 
ATOM     66  C   UNL A   1      40.459  25.828  26.552  1.00  0.00     0.006 A 
ENDBRANCH  45  59
BRANCH  46  67
ATOM     67  C   UNL A   1      39.896  33.619  36.697  1.00  0.00     0.057 A 
ATOM     68  C   UNL A   1      39.035  33.258  37.740  1.00  0.00     0.134 A 
ATOM     69  C   UNL A   1      40.617  34.810  36.840  1.00  0.00     0.134 A 
ATOM     70  F   UNL A   1      38.303  32.138  37.653  1.00  0.00    -0.206 F 
ATOM     71  C   UNL A   1      38.873  34.064  38.868  1.00  0.00     0.040 A 
ATOM     72  C   UNL A   1      40.485  35.613  37.975  1.00  0.00     0.040 A 
ATOM     73  F   UNL A   1      41.465  35.210  35.880  1.00  0.00    -0.206 F 
ATOM     74  C   UNL A   1      39.602  35.246  38.988  1.00  0.00     0.006 A 
ENDBRANCH  46  67
BRANCH  58  75
ATOM     75  C   UNL A   1      44.044  28.329  34.888  1.00  0.00     0.057 A 
ATOM     76  C   UNL A   1      45.356  28.794  34.752  1.00  0.00     0.134 A 
ATOM     77  C   UNL A   1      43.823  27.250  35.754  1.00  0.00     0.134 A 
ATOM     78  F   UNL A   1      45.634  29.815  33.928  1.00  0.00    -0.206 F 
ATOM     79  C   UNL A   1      46.412  28.202  35.448  1.00  0.00     0.040 A 
ATOM     80  C   UNL A   1      44.866  26.667  36.473  1.00  0.00     0.040 A 
ATOM     81  F   UNL A   1      42.585  26.764  35.935  1.00  0.00    -0.206 F 
ATOM     82  C   UNL A   1      46.166  27.142  36.318  1.00  0.00     0.006 A 
ENDBRANCH  58  75
ENDBRANCH  32  33
ENDBRANCH  24  27
ENDBRANCH  22  23
ENDBRANCH  21  22
ENDBRANCH   1  21
TORSDOF 15
ENDMDL
MODEL 3
REMARK VINA RESULT:     -10.9      1.831      3.335
REMARK SMILES CCCCN(C)c1ccc([N+](=O)[O-])c(C(=O)NCCCNC(=O)c2ccc(-c3c4nc(c(-c5c(F)cccc5F)c5ccc([nH]5)c(-c5c(F)cccc5F)c5nc(c(-c6c(F)cccc6F)c6ccc3[nH]6)C=C5)C=C4)cc2)c1
REMARK SMILES IDX 18 1 17 2 15 3 16 4 14 6 7 7 8 8 78 9 9 10 10 11 5 12 6 13
REMARK SMILES IDX 4 14 3 15 2 16 1 17 11 18 12 19 13 20 19 21 20 22 21 23
REMARK SMILES IDX 22 24 23 26 24 27 25 28 77 29 26 30 76 31 27 32 28 33 29 34
REMARK SMILES IDX 70 35 30 36 75 37 69 38 71 39 31 40 74 41 68 42 67 43 32 45
REMARK SMILES IDX 58 46 41 47 57 48 42 49 45 50 56 51 72 52 43 53 44 54 55 56
REMARK SMILES IDX 73 57 46 58 33 59 34 60 39 61 35 62 36 63 38 64 40 65 37 66
REMARK SMILES IDX 59 67 60 68 65 69 61 70 62 71 64 72 66 73 63 74 47 75 48 76
REMARK SMILES IDX 53 77 49 78 50 79 52 80 54 81 51 82
REMARK H PARENT 17 5 21 25 71 44 45 55
REMARK Flexibility Score: inf
ROOT
ATOM      1  C   UNL A   1      36.999  22.279  24.133  1.00  0.00     0.118 C 
ENDROOT
BRANCH   1   2
ATOM      2  N   UNL A   1      36.212  22.967  25.141  1.00  0.00    -0.352 N 
ATOM      3  C   UNL A   1      34.866  22.916  25.403  1.00  0.00     0.258 C 
ATOM      4  O   UNL A   1      34.416  23.568  26.342  1.00  0.00    -0.269 OA
ATOM      5  H   UNL A   1      36.726  23.565  25.730  1.00  0.00     0.163 HD
BRANCH   3   6
ATOM      6  C   UNL A   1      33.930  22.088  24.607  1.00  0.00     0.119 A 
ATOM      7  C   UNL A   1      32.828  19.951  24.129  1.00  0.00     0.038 A 
ATOM      8  C   UNL A   1      32.222  20.523  23.004  1.00  0.00     0.033 A 
ATOM      9  C   UNL A   1      33.722  20.729  24.886  1.00  0.00     0.047 A 
ATOM     10  C   UNL A   1      32.460  21.854  22.666  1.00  0.00     0.088 A 
ATOM     11  C   UNL A   1      33.297  22.626  23.482  1.00  0.00     0.282 A 
BRANCH   7  12
ATOM     12  N   UNL A   1      32.550  18.642  24.533  1.00  0.00    -0.375 N 
ATOM     13  C   UNL A   1      32.582  18.429  25.981  1.00  0.00     0.143 C 
BRANCH  12  14
ATOM     14  C   UNL A   1      33.121  17.561  23.705  1.00  0.00     0.116 C 
BRANCH  14  15
ATOM     15  C   UNL A   1      34.553  17.202  24.124  1.00  0.00     0.021 C 
BRANCH  15  16
ATOM     16  C   UNL A   1      34.678  15.880  24.884  1.00  0.00    -0.002 C 
ATOM     17  C   UNL A   1      33.356  15.196  25.179  1.00  0.00     0.004 C 
ENDBRANCH  15  16
ENDBRANCH  14  15
ENDBRANCH  12  14
ENDBRANCH   7  12
BRANCH  11  18
ATOM     18  N   UNL A   1      33.407  24.037  23.172  1.00  0.00     0.063 N 
ATOM     19  O   UNL A   1      34.316  24.375  22.403  1.00  0.00    -0.258 OA
ATOM     20  O   UNL A   1      32.508  24.773  23.606  1.00  0.00    -0.258 OA
ENDBRANCH  11  18
ENDBRANCH   3   6
ENDBRANCH   1   2
BRANCH   1  21
ATOM     21  C   UNL A   1      37.445  20.903  24.620  1.00  0.00     0.042 C 
BRANCH  21  22
ATOM     22  C   UNL A   1      38.490  20.980  25.723  1.00  0.00     0.118 C 
BRANCH  22  23
ATOM     23  N   UNL A   1      39.422  19.861  25.687  1.00  0.00    -0.352 N 
ATOM     24  C   UNL A   1      40.763  19.837  26.008  1.00  0.00     0.251 C 
ATOM     25  H   UNL A   1      39.043  19.002  25.392  1.00  0.00     0.163 HD
ATOM     26  O   UNL A   1      41.436  18.845  25.774  1.00  0.00    -0.269 OA
BRANCH  24  27
ATOM     27  C   UNL A   1      41.392  21.040  26.602  1.00  0.00     0.039 A 
ATOM     28  C   UNL A   1      41.966  21.996  25.759  1.00  0.00     0.014 A 
ATOM     29  C   UNL A   1      41.386  21.239  27.984  1.00  0.00     0.014 A 
ATOM     30  C   UNL A   1      42.453  23.191  26.296  1.00  0.00     0.010 A 
ATOM     31  C   UNL A   1      41.790  22.461  28.506  1.00  0.00     0.010 A 
ATOM     32  C   UNL A   1      42.326  23.453  27.669  1.00  0.00    -0.014 A 
BRANCH  32  33
ATOM     33  C   UNL A   1      42.739  24.746  28.273  1.00  0.00     0.031 A 
ATOM     34  C   UNL A   1      41.705  25.812  28.521  1.00  0.00     0.074 A 
ATOM     35  C   UNL A   1      44.045  25.008  28.480  1.00  0.00     0.049 A 
ATOM     36  N   UNL A   1      41.871  27.067  28.849  1.00  0.00    -0.248 NA
ATOM     37  C   UNL A   1      40.298  25.422  28.332  1.00  0.00     0.031 C 
ATOM     38  C   UNL A   1      45.149  24.076  28.240  1.00  0.00     0.029 A 
ATOM     39  N   UNL A   1      44.669  26.153  28.913  1.00  0.00    -0.354 N 
ATOM     40  C   UNL A   1      40.599  27.624  28.862  1.00  0.00     0.074 A 
ATOM     41  C   UNL A   1      39.674  26.581  28.477  1.00  0.00     0.031 C 
ATOM     42  C   UNL A   1      46.311  24.682  28.535  1.00  0.00     0.029 A 
ATOM     43  C   UNL A   1      46.042  26.059  28.937  1.00  0.00     0.049 A 
ATOM     44  H   UNL A   1      44.180  26.964  29.181  1.00  0.00     0.167 HD
ATOM     45  C   UNL A   1      40.235  28.888  29.180  1.00  0.00     0.037 A 
ATOM     46  C   UNL A   1      46.976  26.986  29.226  1.00  0.00     0.037 A 
ATOM     47  C   UNL A   1      41.152  29.903  29.622  1.00  0.00     0.049 A 
ATOM     48  C   UNL A   1      46.539  28.379  29.592  1.00  0.00     0.074 A 
ATOM     49  C   UNL A   1      40.868  31.183  30.065  1.00  0.00     0.029 A 
ATOM     50  N   UNL A   1      42.528  29.750  29.682  1.00  0.00    -0.354 N 
ATOM     51  N   UNL A   1      45.326  28.870  29.674  1.00  0.00    -0.248 NA
ATOM     52  C   UNL A   1      47.600  29.348  29.906  1.00  0.00     0.031 C 
ATOM     53  C   UNL A   1      42.078  31.821  30.353  1.00  0.00     0.029 A 
ATOM     54  C   UNL A   1      43.111  30.922  30.133  1.00  0.00     0.049 A 
ATOM     55  H   UNL A   1      43.018  28.932  29.441  1.00  0.00     0.167 HD
ATOM     56  C   UNL A   1      45.477  30.188  30.084  1.00  0.00     0.074 A 
ATOM     57  C   UNL A   1      46.897  30.421  30.239  1.00  0.00     0.031 C 
ATOM     58  C   UNL A   1      44.524  31.124  30.312  1.00  0.00     0.037 A 
BRANCH  45  59
ATOM     59  C   UNL A   1      38.784  29.251  29.067  1.00  0.00     0.057 A 
ATOM     60  C   UNL A   1      38.205  29.625  27.848  1.00  0.00     0.134 A 
ATOM     61  C   UNL A   1      37.941  29.162  30.182  1.00  0.00     0.134 A 
ATOM     62  F   UNL A   1      38.959  29.738  26.743  1.00  0.00    -0.206 F 
ATOM     63  C   UNL A   1      36.844  29.917  27.746  1.00  0.00     0.040 A 
ATOM     64  C   UNL A   1      36.574  29.427  30.088  1.00  0.00     0.040 A 
ATOM     65  F   UNL A   1      38.430  28.803  31.379  1.00  0.00    -0.206 F 
ATOM     66  C   UNL A   1      36.022  29.809  28.867  1.00  0.00     0.006 A 
ENDBRANCH  45  59
BRANCH  46  67
ATOM     67  C   UNL A   1      48.420  26.639  29.184  1.00  0.00     0.057 A 
ATOM     68  C   UNL A   1      49.171  26.820  28.016  1.00  0.00     0.134 A 
ATOM     69  C   UNL A   1      49.075  26.085  30.290  1.00  0.00     0.134 A 
ATOM     70  F   UNL A   1      48.594  27.328  26.917  1.00  0.00    -0.206 F 
ATOM     71  C   UNL A   1      50.510  26.437  27.939  1.00  0.00     0.040 A 
ATOM     72  C   UNL A   1      50.422  25.722  30.236  1.00  0.00     0.040 A 
ATOM     73  F   UNL A   1      48.416  25.892  31.442  1.00  0.00    -0.206 F 
ATOM     74  C   UNL A   1      51.141  25.887  29.054  1.00  0.00     0.006 A 
ENDBRANCH  46  67
BRANCH  58  75
ATOM     75  C   UNL A   1      44.973  32.465  30.809  1.00  0.00     0.057 A 
ATOM     76  C   UNL A   1      45.237  33.527  29.937  1.00  0.00     0.134 A 
ATOM     77  C   UNL A   1      45.072  32.712  32.185  1.00  0.00     0.134 A 
ATOM     78  F   UNL A   1      45.171  33.349  28.610  1.00  0.00    -0.206 F 
ATOM     79  C   UNL A   1      45.593  34.789  30.417  1.00  0.00     0.040 A 
ATOM     80  C   UNL A   1      45.403  33.975  32.676  1.00  0.00     0.040 A 
ATOM     81  F   UNL A   1      44.823  31.737  33.072  1.00  0.00    -0.206 F 
ATOM     82  C   UNL A   1      45.667  35.017  31.790  1.00  0.00     0.006 A 
ENDBRANCH  58  75
ENDBRANCH  32  33
ENDBRANCH  24  27
ENDBRANCH  22  23
ENDBRANCH  21  22
ENDBRANCH   1  21
TORSDOF 15
ENDMDL
