MODEL 1
REMARK VINA RESULT:     -11.5      0.000      0.000
REMARK SMILES Cc1cccc(CN(C)c2ccc(C(=O)NCCCNC(=O)c3ccc(-c4c5nc(c(-c6c(F)cccc6F)c6ccc([nH]6)c(-c6c(F)cccc6F)c6nc(c(-c7c(F)cccc7F)c7ccc4[nH]7)C=C6)C=C5)cc3)cc2N)n1
REMARK SMILES IDX 17 1 16 2 14 3 15 4 13 6 10 7 11 8 78 9 12 10 77 11 8 12
REMARK SMILES IDX 9 13 7 14 6 15 1 16 2 17 3 18 80 19 4 20 5 21 79 22 18 25
REMARK SMILES IDX 19 26 20 27 21 28 22 30 23 31 24 32 76 33 25 34 75 35 26 36
REMARK SMILES IDX 27 37 28 38 69 39 29 40 74 41 68 42 70 43 30 44 73 45 67 46
REMARK SMILES IDX 66 47 31 49 57 50 40 51 56 52 41 53 44 54 55 55 71 56 42 57
REMARK SMILES IDX 43 58 54 60 72 61 45 62 32 63 33 64 38 65 34 66 35 67 37 68
REMARK SMILES IDX 39 69 36 70 58 71 59 72 64 73 60 74 61 75 63 76 65 77 62 78
REMARK SMILES IDX 46 79 47 80 52 81 48 82 49 83 51 84 53 85 50 86
REMARK H PARENT 16 5 79 23 79 24 20 29 70 48 44 59
REMARK Flexibility Score: inf
ROOT
ATOM      1  C   UNL A   1      36.340  20.593  24.868  1.00  0.00     0.118 C 
ENDROOT
BRANCH   1   2
ATOM      2  N   UNL A   1      35.111  19.927  25.264  1.00  0.00    -0.352 N 
ATOM      3  C   UNL A   1      33.785  20.287  25.206  1.00  0.00     0.251 C 
ATOM      4  O   UNL A   1      32.969  19.466  25.625  1.00  0.00    -0.269 OA
ATOM      5  H   UNL A   1      35.258  19.034  25.652  1.00  0.00     0.163 HD
BRANCH   3   6
ATOM      6  C   UNL A   1      33.292  21.572  24.630  1.00  0.00     0.041 A 
ATOM      7  C   UNL A   1      32.379  24.008  23.388  1.00  0.00     0.060 A 
ATOM      8  C   UNL A   1      32.314  22.757  22.742  1.00  0.00     0.029 A 
ATOM      9  C   UNL A   1      33.119  23.991  24.586  1.00  0.00     0.056 A 
ATOM     10  C   UNL A   1      32.800  21.571  23.327  1.00  0.00     0.016 A 
ATOM     11  C   UNL A   1      33.361  22.795  25.270  1.00  0.00     0.041 A 
BRANCH   7  12
ATOM     12  N   UNL A   1      31.690  25.130  22.921  1.00  0.00    -0.367 N 
ATOM     13  C   UNL A   1      32.040  25.752  21.642  1.00  0.00     0.144 C 
BRANCH  12  14
ATOM     14  C   UNL A   1      30.580  25.840  23.622  1.00  0.00     0.172 C 
BRANCH  14  15
ATOM     15  C   UNL A   1      30.841  27.167  24.336  1.00  0.00     0.060 A 
ATOM     16  C   UNL A   1      32.825  28.389  27.183  1.00  0.00     0.067 C 
ATOM     17  C   UNL A   1      31.952  28.398  25.964  1.00  0.00     0.038 A 
ATOM     18  C   UNL A   1      31.566  29.603  25.383  1.00  0.00     0.023 A 
ATOM     19  N   UNL A   1      31.578  27.190  25.476  1.00  0.00    -0.256 NA
ATOM     20  C   UNL A   1      30.739  29.573  24.268  1.00  0.00     0.004 A 
ATOM     21  C   UNL A   1      30.350  28.343  23.752  1.00  0.00     0.026 A 
ENDBRANCH  14  15
ENDBRANCH  12  14
ENDBRANCH   7  12
BRANCH   9  22
ATOM     22  N   UNL A   1      33.857  25.089  25.039  1.00  0.00    -0.397 N 
ATOM     23  H   UNL A   1      34.645  25.396  24.532  1.00  0.00     0.156 HD
ATOM     24  H   UNL A   1      33.591  25.554  25.865  1.00  0.00     0.156 HD
ENDBRANCH   9  22
ENDBRANCH   3   6
ENDBRANCH   1   2
BRANCH   1  25
ATOM     25  C   UNL A   1      37.538  19.644  24.969  1.00  0.00     0.042 C 
BRANCH  25  26
ATOM     26  C   UNL A   1      38.727  20.290  25.671  1.00  0.00     0.118 C 
BRANCH  26  27
ATOM     27  N   UNL A   1      39.853  19.370  25.760  1.00  0.00    -0.352 N 
ATOM     28  C   UNL A   1      41.165  19.604  26.079  1.00  0.00     0.251 C 
ATOM     29  H   UNL A   1      39.637  18.430  25.560  1.00  0.00     0.163 HD
ATOM     30  O   UNL A   1      41.999  18.726  25.883  1.00  0.00    -0.269 OA
BRANCH  28  31
ATOM     31  C   UNL A   1      41.587  20.906  26.638  1.00  0.00     0.039 A 
ATOM     32  C   UNL A   1      42.039  21.895  25.758  1.00  0.00     0.014 A 
ATOM     33  C   UNL A   1      41.589  21.142  28.016  1.00  0.00     0.014 A 
ATOM     34  C   UNL A   1      42.452  23.132  26.255  1.00  0.00     0.010 A 
ATOM     35  C   UNL A   1      41.934  22.400  28.505  1.00  0.00     0.010 A 
ATOM     36  C   UNL A   1      42.375  23.403  27.630  1.00  0.00    -0.014 A 
BRANCH  36  37
ATOM     37  C   UNL A   1      42.759  24.729  28.172  1.00  0.00     0.031 A 
ATOM     38  C   UNL A   1      41.718  25.789  28.392  1.00  0.00     0.074 A 
ATOM     39  C   UNL A   1      44.058  24.998  28.404  1.00  0.00     0.049 A 
ATOM     40  N   UNL A   1      41.867  27.025  28.795  1.00  0.00    -0.248 NA
ATOM     41  C   UNL A   1      40.325  25.417  28.094  1.00  0.00     0.031 C 
ATOM     42  C   UNL A   1      45.165  24.065  28.190  1.00  0.00     0.029 A 
ATOM     43  N   UNL A   1      44.666  26.138  28.863  1.00  0.00    -0.354 N 
ATOM     44  C   UNL A   1      40.596  27.583  28.782  1.00  0.00     0.074 A 
ATOM     45  C   UNL A   1      39.693  26.566  28.284  1.00  0.00     0.031 C 
ATOM     46  C   UNL A   1      46.315  24.661  28.540  1.00  0.00     0.029 A 
ATOM     47  C   UNL A   1      46.031  26.028  28.966  1.00  0.00     0.049 A 
ATOM     48  H   UNL A   1      44.172  26.957  29.096  1.00  0.00     0.167 HD
ATOM     49  C   UNL A   1      40.211  28.823  29.169  1.00  0.00     0.037 A 
ATOM     50  C   UNL A   1      46.950  26.931  29.355  1.00  0.00     0.037 A 
ATOM     51  C   UNL A   1      41.109  29.824  29.683  1.00  0.00     0.049 A 
ATOM     52  C   UNL A   1      46.502  28.303  29.770  1.00  0.00     0.074 A 
ATOM     53  C   UNL A   1      40.812  31.087  30.163  1.00  0.00     0.029 A 
ATOM     54  N   UNL A   1      42.486  29.674  29.777  1.00  0.00    -0.354 N 
ATOM     55  N   UNL A   1      45.288  28.798  29.817  1.00  0.00    -0.248 NA
ATOM     56  C   UNL A   1      47.551  29.243  30.188  1.00  0.00     0.031 C 
ATOM     57  C   UNL A   1      42.013  31.719  30.505  1.00  0.00     0.029 A 
ATOM     58  C   UNL A   1      43.054  30.832  30.284  1.00  0.00     0.049 A 
ATOM     59  H   UNL A   1      42.984  28.865  29.522  1.00  0.00     0.167 HD
ATOM     60  C   UNL A   1      45.424  30.095  30.292  1.00  0.00     0.074 A 
ATOM     61  C   UNL A   1      46.838  30.307  30.530  1.00  0.00     0.031 C 
ATOM     62  C   UNL A   1      44.464  31.026  30.513  1.00  0.00     0.037 A 
BRANCH  49  63
ATOM     63  C   UNL A   1      38.753  29.162  29.042  1.00  0.00     0.057 A 
ATOM     64  C   UNL A   1      38.190  29.569  27.824  1.00  0.00     0.134 A 
ATOM     65  C   UNL A   1      37.899  29.075  30.149  1.00  0.00     0.134 A 
ATOM     66  F   UNL A   1      38.955  29.684  26.728  1.00  0.00    -0.206 F 
ATOM     67  C   UNL A   1      36.841  29.912  27.720  1.00  0.00     0.040 A 
ATOM     68  C   UNL A   1      36.542  29.388  30.050  1.00  0.00     0.040 A 
ATOM     69  F   UNL A   1      38.368  28.685  31.343  1.00  0.00    -0.206 F 
ATOM     70  C   UNL A   1      36.011  29.818  28.835  1.00  0.00     0.006 A 
ENDBRANCH  49  63
BRANCH  50  71
ATOM     71  C   UNL A   1      48.382  26.548  29.404  1.00  0.00     0.057 A 
ATOM     72  C   UNL A   1      48.917  25.912  30.530  1.00  0.00     0.134 A 
ATOM     73  C   UNL A   1      49.243  26.788  28.327  1.00  0.00     0.134 A 
ATOM     74  F   UNL A   1      48.144  25.670  31.598  1.00  0.00    -0.206 F 
ATOM     75  C   UNL A   1      50.259  25.535  30.587  1.00  0.00     0.040 A 
ATOM     76  C   UNL A   1      50.583  26.397  28.362  1.00  0.00     0.040 A 
ATOM     77  F   UNL A   1      48.789  27.386  27.216  1.00  0.00    -0.206 F 
ATOM     78  C   UNL A   1      51.095  25.772  29.497  1.00  0.00     0.006 A 
ENDBRANCH  50  71
BRANCH  62  79
ATOM     79  C   UNL A   1      44.908  32.348  31.065  1.00  0.00     0.057 A 
ATOM     80  C   UNL A   1      45.231  33.426  30.233  1.00  0.00     0.134 A 
ATOM     81  C   UNL A   1      44.980  32.555  32.449  1.00  0.00     0.134 A 
ATOM     82  F   UNL A   1      45.197  33.289  28.899  1.00  0.00    -0.206 F 
ATOM     83  C   UNL A   1      45.629  34.658  30.756  1.00  0.00     0.040 A 
ATOM     84  C   UNL A   1      45.351  33.789  32.985  1.00  0.00     0.040 A 
ATOM     85  F   UNL A   1      44.676  31.565  33.302  1.00  0.00    -0.206 F 
ATOM     86  C   UNL A   1      45.682  34.843  32.137  1.00  0.00     0.006 A 
ENDBRANCH  62  79
ENDBRANCH  36  37
ENDBRANCH  28  31
ENDBRANCH  26  27
ENDBRANCH  25  26
ENDBRANCH   1  25
TORSDOF 14
ENDMDL
MODEL 2
REMARK VINA RESULT:     -11.4      4.428      9.404
REMARK SMILES Cc1cccc(CN(C)c2ccc(C(=O)NCCCNC(=O)c3ccc(-c4c5nc(c(-c6c(F)cccc6F)c6ccc([nH]6)c(-c6c(F)cccc6F)c6nc(c(-c7c(F)cccc7F)c7ccc4[nH]7)C=C6)C=C5)cc3)cc2N)n1
REMARK SMILES IDX 17 1 16 2 14 3 15 4 13 6 10 7 11 8 78 9 12 10 77 11 8 12
REMARK SMILES IDX 9 13 7 14 6 15 1 16 2 17 3 18 80 19 4 20 5 21 79 22 18 25
REMARK SMILES IDX 19 26 20 27 21 28 22 30 23 31 24 32 76 33 25 34 75 35 26 36
REMARK SMILES IDX 27 37 28 38 69 39 29 40 74 41 68 42 70 43 30 44 73 45 67 46
REMARK SMILES IDX 66 47 31 49 57 50 40 51 56 52 41 53 44 54 55 55 71 56 42 57
REMARK SMILES IDX 43 58 54 60 72 61 45 62 32 63 33 64 38 65 34 66 35 67 37 68
REMARK SMILES IDX 39 69 36 70 58 71 59 72 64 73 60 74 61 75 63 76 65 77 62 78
REMARK SMILES IDX 46 79 47 80 52 81 48 82 49 83 51 84 53 85 50 86
REMARK H PARENT 16 5 79 23 79 24 20 29 70 48 44 59
REMARK Flexibility Score: inf
ROOT
ATOM      1  C   UNL A   1      31.399  30.437  25.919  1.00  0.00     0.118 C 
ENDROOT
BRANCH   1   2
ATOM      2  N   UNL A   1      30.931  30.329  24.548  1.00  0.00    -0.352 N 
ATOM      3  C   UNL A   1      30.710  29.261  23.711  1.00  0.00     0.251 C 
ATOM      4  O   UNL A   1      30.290  29.519  22.582  1.00  0.00    -0.269 OA
ATOM      5  H   UNL A   1      30.731  31.200  24.133  1.00  0.00     0.163 HD
BRANCH   3   6
ATOM      6  C   UNL A   1      30.901  27.835  24.106  1.00  0.00     0.041 A 
ATOM      7  C   UNL A   1      31.144  25.084  24.934  1.00  0.00     0.060 A 
ATOM      8  C   UNL A   1      29.905  25.671  24.607  1.00  0.00     0.029 A 
ATOM      9  C   UNL A   1      32.202  26.008  25.029  1.00  0.00     0.056 A 
ATOM     10  C   UNL A   1      29.775  27.027  24.245  1.00  0.00     0.016 A 
ATOM     11  C   UNL A   1      32.120  27.268  24.426  1.00  0.00     0.041 A 
BRANCH   7  12
ATOM     12  N   UNL A   1      31.310  23.703  25.057  1.00  0.00    -0.367 N 
ATOM     13  C   UNL A   1      30.773  22.978  26.211  1.00  0.00     0.144 C 
BRANCH  12  14
ATOM     14  C   UNL A   1      32.039  22.813  24.106  1.00  0.00     0.172 C 
BRANCH  14  15
ATOM     15  C   UNL A   1      33.439  22.301  24.447  1.00  0.00     0.060 A 
ATOM     16  C   UNL A   1      36.645  23.687  25.605  1.00  0.00     0.067 C 
ATOM     17  C   UNL A   1      35.595  22.686  25.226  1.00  0.00     0.038 A 
ATOM     18  C   UNL A   1      35.832  21.323  25.383  1.00  0.00     0.023 A 
ATOM     19  N   UNL A   1      34.431  23.181  24.738  1.00  0.00    -0.256 NA
ATOM     20  C   UNL A   1      34.845  20.425  25.001  1.00  0.00     0.004 A 
ATOM     21  C   UNL A   1      33.644  20.915  24.503  1.00  0.00     0.026 A 
ENDBRANCH  14  15
ENDBRANCH  12  14
ENDBRANCH   7  12
BRANCH   9  22
ATOM     22  N   UNL A   1      33.277  25.846  25.910  1.00  0.00    -0.397 N 
ATOM     23  H   UNL A   1      33.126  25.462  26.805  1.00  0.00     0.156 HD
ATOM     24  H   UNL A   1      34.182  26.116  25.637  1.00  0.00     0.156 HD
ENDBRANCH   9  22
ENDBRANCH   3   6
ENDBRANCH   1   2
BRANCH   1  25
ATOM     25  C   UNL A   1      31.219  31.862  26.452  1.00  0.00     0.042 C 
BRANCH  25  26
ATOM     26  C   UNL A   1      32.533  32.465  26.938  1.00  0.00     0.118 C 
BRANCH  26  27
ATOM     27  N   UNL A   1      32.349  33.837  27.390  1.00  0.00    -0.352 N 
ATOM     28  C   UNL A   1      32.984  34.534  28.385  1.00  0.00     0.251 C 
ATOM     29  H   UNL A   1      31.659  34.346  26.904  1.00  0.00     0.163 HD
ATOM     30  O   UNL A   1      32.528  35.613  28.751  1.00  0.00    -0.269 OA
BRANCH  28  31
ATOM     31  C   UNL A   1      34.198  33.992  29.032  1.00  0.00     0.039 A 
ATOM     32  C   UNL A   1      34.044  33.109  30.105  1.00  0.00     0.014 A 
ATOM     33  C   UNL A   1      35.477  34.385  28.627  1.00  0.00     0.014 A 
ATOM     34  C   UNL A   1      35.170  32.586  30.742  1.00  0.00     0.010 A 
ATOM     35  C   UNL A   1      36.599  33.809  29.216  1.00  0.00     0.010 A 
ATOM     36  C   UNL A   1      36.456  32.911  30.284  1.00  0.00    -0.014 A 
BRANCH  36  37
ATOM     37  C   UNL A   1      37.664  32.324  30.913  1.00  0.00     0.031 A 
ATOM     38  C   UNL A   1      38.336  31.130  30.299  1.00  0.00     0.074 A 
ATOM     39  C   UNL A   1      38.117  32.832  32.076  1.00  0.00     0.049 A 
ATOM     40  N   UNL A   1      39.359  30.440  30.735  1.00  0.00    -0.248 NA
ATOM     41  C   UNL A   1      37.765  30.627  29.040  1.00  0.00     0.031 C 
ATOM     42  C   UNL A   1      37.525  33.964  32.791  1.00  0.00     0.029 A 
ATOM     43  N   UNL A   1      39.174  32.455  32.864  1.00  0.00    -0.354 N 
ATOM     44  C   UNL A   1      39.543  29.414  29.818  1.00  0.00     0.074 A 
ATOM     45  C   UNL A   1      38.495  29.542  28.827  1.00  0.00     0.031 C 
ATOM     46  C   UNL A   1      38.242  34.206  33.899  1.00  0.00     0.029 A 
ATOM     47  C   UNL A   1      39.318  33.224  33.993  1.00  0.00     0.049 A 
ATOM     48  H   UNL A   1      39.772  31.705  32.642  1.00  0.00     0.167 HD
ATOM     49  C   UNL A   1      40.508  28.465  29.791  1.00  0.00     0.037 A 
ATOM     50  C   UNL A   1      40.214  33.142  34.993  1.00  0.00     0.037 A 
ATOM     51  C   UNL A   1      41.560  28.354  30.768  1.00  0.00     0.049 A 
ATOM     52  C   UNL A   1      41.270  32.074  34.949  1.00  0.00     0.074 A 
ATOM     53  C   UNL A   1      42.624  27.469  30.796  1.00  0.00     0.029 A 
ATOM     54  N   UNL A   1      41.676  29.155  31.896  1.00  0.00    -0.354 N 
ATOM     55  N   UNL A   1      41.473  31.151  34.040  1.00  0.00    -0.248 NA
ATOM     56  C   UNL A   1      42.221  32.038  36.067  1.00  0.00     0.031 C 
ATOM     57  C   UNL A   1      43.358  27.705  31.964  1.00  0.00     0.029 A 
ATOM     58  C   UNL A   1      42.779  28.767  32.640  1.00  0.00     0.049 A 
ATOM     59  H   UNL A   1      41.065  29.889  32.131  1.00  0.00     0.167 HD
ATOM     60  C   UNL A   1      42.588  30.441  34.462  1.00  0.00     0.074 A 
ATOM     61  C   UNL A   1      43.024  31.048  35.704  1.00  0.00     0.031 C 
ATOM     62  C   UNL A   1      43.198  29.382  33.874  1.00  0.00     0.037 A 
BRANCH  49  63
ATOM     63  C   UNL A   1      40.461  27.467  28.668  1.00  0.00     0.057 A 
ATOM     64  C   UNL A   1      41.218  27.631  27.499  1.00  0.00     0.134 A 
ATOM     65  C   UNL A   1      39.655  26.326  28.759  1.00  0.00     0.134 A 
ATOM     66  F   UNL A   1      42.002  28.708  27.343  1.00  0.00    -0.206 F 
ATOM     67  C   UNL A   1      41.147  26.716  26.448  1.00  0.00     0.040 A 
ATOM     68  C   UNL A   1      39.597  25.388  27.726  1.00  0.00     0.040 A 
ATOM     69  F   UNL A   1      38.911  26.102  29.852  1.00  0.00    -0.206 F 
ATOM     70  C   UNL A   1      40.337  25.588  26.561  1.00  0.00     0.006 A 
ENDBRANCH  49  63
BRANCH  50  71
ATOM     71  C   UNL A   1      40.169  34.125  36.103  1.00  0.00     0.057 A 
ATOM     72  C   UNL A   1      40.895  35.320  36.033  1.00  0.00     0.134 A 
ATOM     73  C   UNL A   1      39.390  33.909  37.245  1.00  0.00     0.134 A 
ATOM     74  F   UNL A   1      41.672  35.575  34.970  1.00  0.00    -0.206 F 
ATOM     75  C   UNL A   1      40.856  36.260  37.063  1.00  0.00     0.040 A 
ATOM     76  C   UNL A   1      39.324  34.851  38.273  1.00  0.00     0.040 A 
ATOM     77  F   UNL A   1      38.664  32.788  37.368  1.00  0.00    -0.206 F 
ATOM     78  C   UNL A   1      40.062  36.029  38.185  1.00  0.00     0.006 A 
ENDBRANCH  50  71
BRANCH  62  79
ATOM     79  C   UNL A   1      44.418  28.832  34.552  1.00  0.00     0.057 A 
ATOM     80  C   UNL A   1      45.698  29.336  34.293  1.00  0.00     0.134 A 
ATOM     81  C   UNL A   1      44.305  27.809  35.503  1.00  0.00     0.134 A 
ATOM     82  F   UNL A   1      45.876  30.305  33.383  1.00  0.00    -0.206 F 
ATOM     83  C   UNL A   1      46.825  28.828  34.940  1.00  0.00     0.040 A 
ATOM     84  C   UNL A   1      45.421  27.311  36.175  1.00  0.00     0.040 A 
ATOM     85  F   UNL A   1      43.106  27.288  35.803  1.00  0.00    -0.206 F 
ATOM     86  C   UNL A   1      46.687  27.817  35.890  1.00  0.00     0.006 A 
ENDBRANCH  62  79
ENDBRANCH  36  37
ENDBRANCH  28  31
ENDBRANCH  26  27
ENDBRANCH  25  26
ENDBRANCH   1  25
TORSDOF 14
ENDMDL
MODEL 3
REMARK VINA RESULT:     -11.4      1.639      1.997
REMARK SMILES Cc1cccc(CN(C)c2ccc(C(=O)NCCCNC(=O)c3ccc(-c4c5nc(c(-c6c(F)cccc6F)c6ccc([nH]6)c(-c6c(F)cccc6F)c6nc(c(-c7c(F)cccc7F)c7ccc4[nH]7)C=C6)C=C5)cc3)cc2N)n1
REMARK SMILES IDX 17 1 16 2 14 3 15 4 13 6 10 7 11 8 78 9 12 10 77 11 8 12
REMARK SMILES IDX 9 13 7 14 6 15 1 16 2 17 3 18 80 19 4 20 5 21 79 22 18 25
REMARK SMILES IDX 19 26 20 27 21 28 22 30 23 31 24 32 76 33 25 34 75 35 26 36
REMARK SMILES IDX 27 37 28 38 69 39 29 40 74 41 68 42 70 43 30 44 73 45 67 46
REMARK SMILES IDX 66 47 31 49 57 50 40 51 56 52 41 53 44 54 55 55 71 56 42 57
REMARK SMILES IDX 43 58 54 60 72 61 45 62 32 63 33 64 38 65 34 66 35 67 37 68
REMARK SMILES IDX 39 69 36 70 58 71 59 72 64 73 60 74 61 75 63 76 65 77 62 78
REMARK SMILES IDX 46 79 47 80 52 81 48 82 49 83 51 84 53 85 50 86
REMARK H PARENT 16 5 79 23 79 24 20 29 70 48 44 59
REMARK Flexibility Score: inf
ROOT
ATOM      1  C   UNL A   1      37.383  20.918  24.573  1.00  0.00     0.118 C 
ENDROOT
BRANCH   1   2
ATOM      2  N   UNL A   1      37.952  22.123  25.152  1.00  0.00    -0.352 N 
ATOM      3  C   UNL A   1      37.401  23.293  25.618  1.00  0.00     0.251 C 
ATOM      4  O   UNL A   1      38.181  24.133  26.068  1.00  0.00    -0.269 OA
ATOM      5  H   UNL A   1      38.934  22.095  25.226  1.00  0.00     0.163 HD
BRANCH   3   6
ATOM      6  C   UNL A   1      35.936  23.573  25.651  1.00  0.00     0.041 A 
ATOM      7  C   UNL A   1      33.085  23.985  25.774  1.00  0.00     0.060 A 
ATOM      8  C   UNL A   1      33.787  23.244  26.746  1.00  0.00     0.029 A 
ATOM      9  C   UNL A   1      33.857  24.311  24.643  1.00  0.00     0.056 A 
ATOM     10  C   UNL A   1      35.173  23.002  26.667  1.00  0.00     0.016 A 
ATOM     11  C   UNL A   1      35.256  24.299  24.692  1.00  0.00     0.041 A 
BRANCH   7  12
ATOM     12  N   UNL A   1      31.774  24.426  25.969  1.00  0.00    -0.367 N 
ATOM     13  C   UNL A   1      30.657  23.481  26.005  1.00  0.00     0.144 C 
BRANCH  12  14
ATOM     14  C   UNL A   1      31.335  25.843  26.132  1.00  0.00     0.172 C 
BRANCH  14  15
ATOM     15  C   UNL A   1      31.181  26.749  24.909  1.00  0.00     0.060 A 
ATOM     16  C   UNL A   1      33.352  28.652  22.630  1.00  0.00     0.067 C 
ATOM     17  C   UNL A   1      32.122  28.017  23.204  1.00  0.00     0.038 A 
ATOM     18  C   UNL A   1      30.911  28.083  22.520  1.00  0.00     0.023 A 
ATOM     19  N   UNL A   1      32.262  27.389  24.397  1.00  0.00    -0.256 NA
ATOM     20  C   UNL A   1      29.788  27.502  23.093  1.00  0.00     0.004 A 
ATOM     21  C   UNL A   1      29.916  26.849  24.313  1.00  0.00     0.026 A 
ENDBRANCH  14  15
ENDBRANCH  12  14
ENDBRANCH   7  12
BRANCH   9  22
ATOM     22  N   UNL A   1      33.314  24.424  23.358  1.00  0.00    -0.397 N 
ATOM     23  H   UNL A   1      32.974  25.294  23.043  1.00  0.00     0.156 HD
ATOM     24  H   UNL A   1      33.273  23.637  22.770  1.00  0.00     0.156 HD
ENDBRANCH   9  22
ENDBRANCH   3   6
ENDBRANCH   1   2
BRANCH   1  25
ATOM     25  C   UNL A   1      38.233  19.689  24.912  1.00  0.00     0.042 C 
BRANCH  25  26
ATOM     26  C   UNL A   1      39.217  19.964  26.044  1.00  0.00     0.118 C 
BRANCH  26  27
ATOM     27  N   UNL A   1      40.386  19.100  25.949  1.00  0.00    -0.352 N 
ATOM     28  C   UNL A   1      41.720  19.405  26.031  1.00  0.00     0.251 C 
ATOM     29  H   UNL A   1      40.188  18.147  25.804  1.00  0.00     0.163 HD
ATOM     30  O   UNL A   1      42.551  18.562  25.706  1.00  0.00    -0.269 OA
BRANCH  28  31
ATOM     31  C   UNL A   1      42.165  20.738  26.488  1.00  0.00     0.039 A 
ATOM     32  C   UNL A   1      42.538  21.683  25.526  1.00  0.00     0.014 A 
ATOM     33  C   UNL A   1      42.267  21.047  27.848  1.00  0.00     0.014 A 
ATOM     34  C   UNL A   1      42.970  22.949  25.926  1.00  0.00     0.010 A 
ATOM     35  C   UNL A   1      42.631  22.331  28.243  1.00  0.00     0.010 A 
ATOM     36  C   UNL A   1      42.993  23.291  27.287  1.00  0.00    -0.014 A 
BRANCH  36  37
ATOM     37  C   UNL A   1      43.398  24.648  27.728  1.00  0.00     0.031 A 
ATOM     38  C   UNL A   1      42.359  25.673  28.082  1.00  0.00     0.074 A 
ATOM     39  C   UNL A   1      44.704  24.973  27.747  1.00  0.00     0.049 A 
ATOM     40  N   UNL A   1      42.516  26.925  28.426  1.00  0.00    -0.248 NA
ATOM     41  C   UNL A   1      40.955  25.238  28.016  1.00  0.00     0.031 C 
ATOM     42  C   UNL A   1      45.804  24.078  27.385  1.00  0.00     0.029 A 
ATOM     43  N   UNL A   1      45.327  26.151  28.076  1.00  0.00    -0.354 N 
ATOM     44  C   UNL A   1      41.235  27.433  28.598  1.00  0.00     0.074 A 
ATOM     45  C   UNL A   1      40.311  26.367  28.273  1.00  0.00     0.031 C 
ATOM     46  C   UNL A   1      46.968  24.730  27.536  1.00  0.00     0.029 A 
ATOM     47  C   UNL A   1      46.695  26.097  27.967  1.00  0.00     0.049 A 
ATOM     48  H   UNL A   1      44.840  26.956  28.363  1.00  0.00     0.167 HD
ATOM     49  C   UNL A   1      40.862  28.669  29.009  1.00  0.00     0.037 A 
ATOM     50  C   UNL A   1      47.623  27.046  28.184  1.00  0.00     0.037 A 
ATOM     51  C   UNL A   1      41.785  29.719  29.351  1.00  0.00     0.049 A 
ATOM     52  C   UNL A   1      47.186  28.413  28.630  1.00  0.00     0.074 A 
ATOM     53  C   UNL A   1      41.512  30.985  29.840  1.00  0.00     0.029 A 
ATOM     54  N   UNL A   1      43.164  29.626  29.232  1.00  0.00    -0.354 N 
ATOM     55  N   UNL A   1      45.974  28.861  28.854  1.00  0.00    -0.248 NA
ATOM     56  C   UNL A   1      48.246  29.405  28.854  1.00  0.00     0.031 C 
ATOM     57  C   UNL A   1      42.722  31.673  29.974  1.00  0.00     0.029 A 
ATOM     58  C   UNL A   1      43.754  30.821  29.614  1.00  0.00     0.049 A 
ATOM     59  H   UNL A   1      43.651  28.829  28.922  1.00  0.00     0.167 HD
ATOM     60  C   UNL A   1      46.126  30.177  29.269  1.00  0.00     0.074 A 
ATOM     61  C   UNL A   1      47.549  30.451  29.277  1.00  0.00     0.031 C 
ATOM     62  C   UNL A   1      45.173  31.077  29.615  1.00  0.00     0.037 A 
BRANCH  49  63
ATOM     63  C   UNL A   1      39.388  28.947  29.104  1.00  0.00     0.057 A 
ATOM     64  C   UNL A   1      38.652  29.421  28.010  1.00  0.00     0.134 A 
ATOM     65  C   UNL A   1      38.695  28.732  30.302  1.00  0.00     0.134 A 
ATOM     66  F   UNL A   1      39.257  29.660  26.836  1.00  0.00    -0.206 F 
ATOM     67  C   UNL A   1      37.290  29.706  28.113  1.00  0.00     0.040 A 
ATOM     68  C   UNL A   1      37.326  28.986  30.410  1.00  0.00     0.040 A 
ATOM     69  F   UNL A   1      39.335  28.272  31.387  1.00  0.00    -0.206 F 
ATOM     70  C   UNL A   1      36.622  29.485  29.315  1.00  0.00     0.006 A 
ENDBRANCH  49  63
BRANCH  50  71
ATOM     71  C   UNL A   1      49.060  26.721  28.017  1.00  0.00     0.057 A 
ATOM     72  C   UNL A   1      49.796  26.158  29.067  1.00  0.00     0.134 A 
ATOM     73  C   UNL A   1      49.728  26.944  26.807  1.00  0.00     0.134 A 
ATOM     74  F   UNL A   1      49.214  25.936  30.254  1.00  0.00    -0.206 F 
ATOM     75  C   UNL A   1      51.146  25.837  28.923  1.00  0.00     0.040 A 
ATOM     76  C   UNL A   1      51.072  26.607  26.643  1.00  0.00     0.040 A 
ATOM     77  F   UNL A   1      49.077  27.472  25.761  1.00  0.00    -0.206 F 
ATOM     78  C   UNL A   1      51.786  26.055  27.704  1.00  0.00     0.006 A 
ENDBRANCH  50  71
BRANCH  62  79
ATOM     79  C   UNL A   1      45.640  32.432  30.057  1.00  0.00     0.057 A 
ATOM     80  C   UNL A   1      45.770  33.498  29.160  1.00  0.00     0.134 A 
ATOM     81  C   UNL A   1      45.928  32.681  31.405  1.00  0.00     0.134 A 
ATOM     82  F   UNL A   1      45.524  33.321  27.853  1.00  0.00    -0.206 F 
ATOM     83  C   UNL A   1      46.191  34.760  29.583  1.00  0.00     0.040 A 
ATOM     84  C   UNL A   1      46.325  33.945  31.845  1.00  0.00     0.040 A 
ATOM     85  F   UNL A   1      45.816  31.705  32.318  1.00  0.00    -0.206 F 
ATOM     86  C   UNL A   1      46.462  34.987  30.932  1.00  0.00     0.006 A 
ENDBRANCH  62  79
ENDBRANCH  36  37
ENDBRANCH  28  31
ENDBRANCH  26  27
ENDBRANCH  25  26
ENDBRANCH   1  25
TORSDOF 14
ENDMDL
