MODEL 1
REMARK VINA RESULT:     -13.1      0.000      0.000
REMARK SMILES O=C(NCCCNC(=O)c1ccccc1/C=C1/SC(=S)N(C2CCCCC2)C1=O)c1ccc(-c2c3nc(c(-c4c(F)cccc4F)c4ccc([nH]4)c(-c4c(F)cccc4F)c4nc(c(-c5c(F)cccc5F)c5ccc2[nH]5)C=C4)C=C3)cc1
REMARK SMILES IDX 5 1 4 2 3 3 1 4 2 5 30 7 31 8 83 9 32 10 82 11 33 12 34 13
REMARK SMILES IDX 35 14 76 15 36 16 81 17 75 18 77 19 37 20 80 21 74 22 73 23
REMARK SMILES IDX 38 25 64 26 47 27 63 28 48 29 51 30 62 31 78 32 49 33 50 34
REMARK SMILES IDX 61 36 79 37 52 38 39 39 40 40 45 41 41 42 42 43 44 44 46 45
REMARK SMILES IDX 43 46 65 47 66 48 71 49 67 50 68 51 70 52 72 53 69 54 53 55
REMARK SMILES IDX 54 56 59 57 55 58 56 59 58 60 60 61 57 62 6 63 7 64 8 65
REMARK SMILES IDX 9 67 10 68 11 69 15 70 12 71 14 72 13 73 16 74 17 75 18 76
REMARK SMILES IDX 28 77 19 78 21 79 29 80 20 81 22 82 23 83 27 84 24 85 26 86
REMARK SMILES IDX 25 87
REMARK H PARENT 3 6 77 24 51 35 7 66
REMARK Flexibility Score: inf
ROOT
ATOM      1  C   UNL A   1      38.786  22.411  26.289  1.00  0.00     0.042 C 
ENDROOT
BRANCH   1   2
ATOM      2  C   UNL A   1      39.787  23.291  27.018  1.00  0.00     0.118 C 
BRANCH   2   3
ATOM      3  N   UNL A   1      40.872  23.767  26.165  1.00  0.00    -0.352 N 
ATOM      4  O   UNL A   1      42.296  25.254  25.235  1.00  0.00    -0.269 OA
ATOM      5  C   UNL A   1      41.500  24.991  26.131  1.00  0.00     0.251 C 
ATOM      6  H   UNL A   1      41.207  23.110  25.513  1.00  0.00     0.163 HD
BRANCH   5   7
ATOM      7  C   UNL A   1      41.184  26.002  27.160  1.00  0.00     0.039 A 
ATOM      8  C   UNL A   1      41.853  27.223  27.161  1.00  0.00     0.014 A 
ATOM      9  C   UNL A   1      40.236  25.723  28.149  1.00  0.00     0.014 A 
ATOM     10  C   UNL A   1      41.762  28.051  28.266  1.00  0.00     0.010 A 
ATOM     11  C   UNL A   1      40.025  26.641  29.184  1.00  0.00     0.010 A 
ATOM     12  C   UNL A   1      40.817  27.796  29.272  1.00  0.00    -0.014 A 
BRANCH  12  13
ATOM     13  C   UNL A   1      40.634  28.818  30.333  1.00  0.00     0.031 A 
ATOM     14  C   UNL A   1      39.546  29.851  30.261  1.00  0.00     0.074 A 
ATOM     15  C   UNL A   1      41.439  28.748  31.413  1.00  0.00     0.049 A 
ATOM     16  N   UNL A   1      39.237  30.776  31.136  1.00  0.00    -0.248 NA
ATOM     17  C   UNL A   1      38.700  29.861  29.058  1.00  0.00     0.031 C 
ATOM     18  C   UNL A   1      42.539  27.792  31.584  1.00  0.00     0.029 A 
ATOM     19  N   UNL A   1      41.439  29.459  32.585  1.00  0.00    -0.354 N 
ATOM     20  C   UNL A   1      38.178  31.486  30.586  1.00  0.00     0.074 A 
ATOM     21  C   UNL A   1      37.910  30.903  29.289  1.00  0.00     0.031 C 
ATOM     22  C   UNL A   1      43.053  27.921  32.812  1.00  0.00     0.029 A 
ATOM     23  C   UNL A   1      42.389  29.031  33.481  1.00  0.00     0.049 A 
ATOM     24  H   UNL A   1      40.820  30.202  32.767  1.00  0.00     0.167 HD
ATOM     25  C   UNL A   1      37.491  32.524  31.121  1.00  0.00     0.037 A 
ATOM     26  C   UNL A   1      42.714  29.495  34.700  1.00  0.00     0.037 A 
ATOM     27  C   UNL A   1      37.760  33.090  32.422  1.00  0.00     0.049 A 
ATOM     28  C   UNL A   1      41.954  30.663  35.248  1.00  0.00     0.074 A 
ATOM     29  C   UNL A   1      37.110  34.133  33.059  1.00  0.00     0.029 A 
ATOM     30  N   UNL A   1      38.761  32.660  33.280  1.00  0.00    -0.354 N 
ATOM     31  N   UNL A   1      40.943  31.311  34.721  1.00  0.00    -0.248 NA
ATOM     32  C   UNL A   1      42.383  31.172  36.556  1.00  0.00     0.031 C 
ATOM     33  C   UNL A   1      37.747  34.364  34.283  1.00  0.00     0.029 A 
ATOM     34  C   UNL A   1      38.759  33.431  34.434  1.00  0.00     0.049 A 
ATOM     35  H   UNL A   1      39.381  31.917  33.099  1.00  0.00     0.167 HD
ATOM     36  C   UNL A   1      40.610  32.297  35.636  1.00  0.00     0.074 A 
ATOM     37  C   UNL A   1      41.502  32.137  36.767  1.00  0.00     0.031 C 
ATOM     38  C   UNL A   1      39.658  33.257  35.546  1.00  0.00     0.037 A 
BRANCH  25  39
ATOM     39  C   UNL A   1      36.387  33.134  30.306  1.00  0.00     0.057 A 
ATOM     40  C   UNL A   1      36.646  34.027  29.258  1.00  0.00     0.134 A 
ATOM     41  C   UNL A   1      35.052  32.766  30.523  1.00  0.00     0.134 A 
ATOM     42  F   UNL A   1      37.900  34.428  29.001  1.00  0.00    -0.206 F 
ATOM     43  C   UNL A   1      35.618  34.538  28.462  1.00  0.00     0.040 A 
ATOM     44  C   UNL A   1      34.018  33.253  29.720  1.00  0.00     0.040 A 
ATOM     45  F   UNL A   1      34.732  31.911  31.506  1.00  0.00    -0.206 F 
ATOM     46  C   UNL A   1      34.301  34.143  28.686  1.00  0.00     0.006 A 
ENDBRANCH  25  39
BRANCH  26  47
ATOM     47  C   UNL A   1      43.832  28.879  35.458  1.00  0.00     0.057 A 
ATOM     48  C   UNL A   1      43.606  27.868  36.398  1.00  0.00     0.134 A 
ATOM     49  C   UNL A   1      45.157  29.296  35.265  1.00  0.00     0.134 A 
ATOM     50  F   UNL A   1      42.360  27.435  36.637  1.00  0.00    -0.206 F 
ATOM     51  C   UNL A   1      44.652  27.311  37.136  1.00  0.00     0.040 A 
ATOM     52  C   UNL A   1      46.215  28.724  35.970  1.00  0.00     0.040 A 
ATOM     53  F   UNL A   1      45.442  30.253  34.370  1.00  0.00    -0.206 F 
ATOM     54  C   UNL A   1      45.961  27.736  36.919  1.00  0.00     0.006 A 
ENDBRANCH  26  47
BRANCH  38  55
ATOM     55  C   UNL A   1      39.528  34.186  36.717  1.00  0.00     0.057 A 
ATOM     56  C   UNL A   1      38.800  33.834  37.861  1.00  0.00     0.134 A 
ATOM     57  C   UNL A   1      40.134  35.448  36.697  1.00  0.00     0.134 A 
ATOM     58  F   UNL A   1      38.181  32.646  37.934  1.00  0.00    -0.206 F 
ATOM     59  C   UNL A   1      38.649  34.719  38.929  1.00  0.00     0.040 A 
ATOM     60  C   UNL A   1      40.016  36.329  37.771  1.00  0.00     0.040 A 
ATOM     61  F   UNL A   1      40.850  35.844  35.634  1.00  0.00    -0.206 F 
ATOM     62  C   UNL A   1      39.262  35.970  38.887  1.00  0.00     0.006 A 
ENDBRANCH  38  55
ENDBRANCH  12  13
ENDBRANCH   5   7
ENDBRANCH   2   3
ENDBRANCH   1   2
BRANCH   1  63
ATOM     63  C   UNL A   1      37.533  23.150  25.871  1.00  0.00     0.118 C 
BRANCH  63  64
ATOM     64  N   UNL A   1      37.462  23.351  24.432  1.00  0.00    -0.352 N 
ATOM     65  C   UNL A   1      36.545  22.887  23.526  1.00  0.00     0.251 C 
ATOM     66  H   UNL A   1      38.181  23.904  24.052  1.00  0.00     0.163 HD
ATOM     67  O   UNL A   1      36.766  23.050  22.329  1.00  0.00    -0.269 OA
BRANCH  65  68
ATOM     68  C   UNL A   1      35.322  22.181  23.975  1.00  0.00     0.047 A 
ATOM     69  C   UNL A   1      35.525  21.103  24.849  1.00  0.00     0.014 A 
ATOM     70  C   UNL A   1      34.019  22.516  23.545  1.00  0.00    -0.012 A 
ATOM     71  C   UNL A   1      34.437  20.396  25.351  1.00  0.00     0.001 A 
ATOM     72  C   UNL A   1      32.935  21.810  24.084  1.00  0.00     0.009 A 
ATOM     73  C   UNL A   1      33.144  20.759  24.981  1.00  0.00     0.001 A 
BRANCH  70  74
ATOM     74  C   UNL A   1      33.716  23.611  22.605  1.00  0.00     0.030 C 
ATOM     75  C   UNL A   1      33.436  24.877  22.942  1.00  0.00     0.081 C 
ATOM     76  S   UNL A   1      32.766  26.010  21.840  1.00  0.00    -0.054 SA
ATOM     77  C   UNL A   1      33.556  25.495  24.285  1.00  0.00     0.266 C 
ATOM     78  C   UNL A   1      32.366  27.153  23.125  1.00  0.00     0.148 C 
ATOM     79  N   UNL A   1      32.864  26.700  24.334  1.00  0.00    -0.290 N 
ATOM     80  O   UNL A   1      34.255  25.027  25.171  1.00  0.00    -0.268 OA
ATOM     81  S   UNL A   1      31.521  28.545  22.763  1.00  0.00    -0.052 S 
BRANCH  79  82
ATOM     82  C   UNL A   1      32.905  27.435  25.616  1.00  0.00     0.092 C 
ATOM     83  C   UNL A   1      33.895  28.607  25.543  1.00  0.00     0.025 C 
ATOM     84  C   UNL A   1      31.537  27.834  26.193  1.00  0.00     0.025 C 
ATOM     85  C   UNL A   1      34.007  29.336  26.876  1.00  0.00     0.002 C 
ATOM     86  C   UNL A   1      31.692  28.578  27.521  1.00  0.00     0.002 C 
ATOM     87  C   UNL A   1      32.639  29.769  27.388  1.00  0.00     0.000 C 
ENDBRANCH  79  82
ENDBRANCH  70  74
ENDBRANCH  65  68
ENDBRANCH  63  64
ENDBRANCH   1  63
TORSDOF 12
ENDMDL
MODEL 2
REMARK VINA RESULT:     -13.0      0.323      6.171
REMARK SMILES O=C(NCCCNC(=O)c1ccccc1/C=C1/SC(=S)N(C2CCCCC2)C1=O)c1ccc(-c2c3nc(c(-c4c(F)cccc4F)c4ccc([nH]4)c(-c4c(F)cccc4F)c4nc(c(-c5c(F)cccc5F)c5ccc2[nH]5)C=C4)C=C3)cc1
REMARK SMILES IDX 5 1 4 2 3 3 1 4 2 5 30 7 31 8 83 9 32 10 82 11 33 12 34 13
REMARK SMILES IDX 35 14 76 15 36 16 81 17 75 18 77 19 37 20 80 21 74 22 73 23
REMARK SMILES IDX 38 25 64 26 47 27 63 28 48 29 51 30 62 31 78 32 49 33 50 34
REMARK SMILES IDX 61 36 79 37 52 38 39 39 40 40 45 41 41 42 42 43 44 44 46 45
REMARK SMILES IDX 43 46 65 47 66 48 71 49 67 50 68 51 70 52 72 53 69 54 53 55
REMARK SMILES IDX 54 56 59 57 55 58 56 59 58 60 60 61 57 62 6 63 7 64 8 65
REMARK SMILES IDX 9 67 10 68 11 69 15 70 12 71 14 72 13 73 16 74 17 75 18 76
REMARK SMILES IDX 28 77 19 78 21 79 29 80 20 81 22 82 23 83 27 84 24 85 26 86
REMARK SMILES IDX 25 87
REMARK H PARENT 3 6 77 24 51 35 7 66
REMARK Flexibility Score: inf
ROOT
ATOM      1  C   UNL A   1      38.664  22.488  26.342  1.00  0.00     0.042 C 
ENDROOT
BRANCH   1   2
ATOM      2  C   UNL A   1      39.769  23.298  26.998  1.00  0.00     0.118 C 
BRANCH   2   3
ATOM      3  N   UNL A   1      40.663  23.944  26.041  1.00  0.00    -0.352 N 
ATOM      4  O   UNL A   1      41.765  25.636  25.029  1.00  0.00    -0.269 OA
ATOM      5  C   UNL A   1      41.138  25.235  26.004  1.00  0.00     0.251 C 
ATOM      6  H   UNL A   1      40.974  23.365  25.308  1.00  0.00     0.163 HD
BRANCH   5   7
ATOM      7  C   UNL A   1      40.858  26.148  27.131  1.00  0.00     0.039 A 
ATOM      8  C   UNL A   1      41.545  27.354  27.233  1.00  0.00     0.014 A 
ATOM      9  C   UNL A   1      39.925  25.789  28.108  1.00  0.00     0.014 A 
ATOM     10  C   UNL A   1      41.488  28.074  28.413  1.00  0.00     0.010 A 
ATOM     11  C   UNL A   1      39.748  26.607  29.229  1.00  0.00     0.010 A 
ATOM     12  C   UNL A   1      40.559  27.737  29.410  1.00  0.00    -0.014 A 
BRANCH  12  13
ATOM     13  C   UNL A   1      40.413  28.656  30.567  1.00  0.00     0.031 A 
ATOM     14  C   UNL A   1      41.329  28.589  31.756  1.00  0.00     0.074 A 
ATOM     15  C   UNL A   1      39.466  29.613  30.488  1.00  0.00     0.049 A 
ATOM     16  N   UNL A   1      41.350  29.357  32.817  1.00  0.00    -0.248 NA
ATOM     17  C   UNL A   1      42.345  27.526  31.769  1.00  0.00     0.031 C 
ATOM     18  C   UNL A   1      38.511  29.765  29.384  1.00  0.00     0.029 A 
ATOM     19  N   UNL A   1      39.170  30.660  31.321  1.00  0.00    -0.354 N 
ATOM     20  C   UNL A   1      42.363  28.863  33.628  1.00  0.00     0.074 A 
ATOM     21  C   UNL A   1      42.920  27.712  32.950  1.00  0.00     0.031 C 
ATOM     22  C   UNL A   1      37.793  30.879  29.568  1.00  0.00     0.029 A 
ATOM     23  C   UNL A   1      38.166  31.468  30.846  1.00  0.00     0.049 A 
ATOM     24  H   UNL A   1      39.633  30.818  32.176  1.00  0.00     0.167 HD
ATOM     25  C   UNL A   1      42.790  29.335  34.824  1.00  0.00     0.037 A 
ATOM     26  C   UNL A   1      37.583  32.552  31.388  1.00  0.00     0.037 A 
ATOM     27  C   UNL A   1      42.234  30.491  35.485  1.00  0.00     0.049 A 
ATOM     28  C   UNL A   1      38.060  33.027  32.726  1.00  0.00     0.074 A 
ATOM     29  C   UNL A   1      42.608  31.058  36.692  1.00  0.00     0.029 A 
ATOM     30  N   UNL A   1      41.185  31.256  34.994  1.00  0.00    -0.354 N 
ATOM     31  N   UNL A   1      39.031  32.558  33.471  1.00  0.00    -0.248 NA
ATOM     32  C   UNL A   1      37.355  34.178  33.304  1.00  0.00     0.031 C 
ATOM     33  C   UNL A   1      41.756  32.136  36.953  1.00  0.00     0.029 A 
ATOM     34  C   UNL A   1      40.887  32.276  35.885  1.00  0.00     0.049 A 
ATOM     35  H   UNL A   1      40.722  31.098  34.140  1.00  0.00     0.167 HD
ATOM     36  C   UNL A   1      39.061  33.360  34.600  1.00  0.00     0.074 A 
ATOM     37  C   UNL A   1      38.034  34.368  34.424  1.00  0.00     0.031 C 
ATOM     38  C   UNL A   1      39.858  33.267  35.692  1.00  0.00     0.037 A 
BRANCH  25  39
ATOM     39  C   UNL A   1      43.905  28.602  35.514  1.00  0.00     0.057 A 
ATOM     40  C   UNL A   1      45.251  28.927  35.299  1.00  0.00     0.134 A 
ATOM     41  C   UNL A   1      43.626  27.607  36.461  1.00  0.00     0.134 A 
ATOM     42  F   UNL A   1      45.588  29.863  34.399  1.00  0.00    -0.206 F 
ATOM     43  C   UNL A   1      46.278  28.285  35.994  1.00  0.00     0.040 A 
ATOM     44  C   UNL A   1      44.644  26.974  37.179  1.00  0.00     0.040 A 
ATOM     45  F   UNL A   1      42.360  27.250  36.721  1.00  0.00    -0.206 F 
ATOM     46  C   UNL A   1      45.975  27.313  36.945  1.00  0.00     0.006 A 
ENDBRANCH  25  39
BRANCH  26  47
ATOM     47  C   UNL A   1      36.465  33.228  30.683  1.00  0.00     0.057 A 
ATOM     48  C   UNL A   1      36.692  34.042  29.569  1.00  0.00     0.134 A 
ATOM     49  C   UNL A   1      35.140  33.081  31.116  1.00  0.00     0.134 A 
ATOM     50  F   UNL A   1      37.939  34.232  29.114  1.00  0.00    -0.206 F 
ATOM     51  C   UNL A   1      35.646  34.706  28.925  1.00  0.00     0.040 A 
ATOM     52  C   UNL A   1      34.082  33.711  30.462  1.00  0.00     0.040 A 
ATOM     53  F   UNL A   1      34.853  32.305  32.172  1.00  0.00    -0.206 F 
ATOM     54  C   UNL A   1      34.336  34.537  29.369  1.00  0.00     0.006 A 
ENDBRANCH  26  47
BRANCH  38  55
ATOM     55  C   UNL A   1      39.657  34.300  36.761  1.00  0.00     0.057 A 
ATOM     56  C   UNL A   1      40.224  35.578  36.669  1.00  0.00     0.134 A 
ATOM     57  C   UNL A   1      38.891  34.011  37.897  1.00  0.00     0.134 A 
ATOM     58  F   UNL A   1      40.983  35.910  35.614  1.00  0.00    -0.206 F 
ATOM     59  C   UNL A   1      40.066  36.520  37.686  1.00  0.00     0.040 A 
ATOM     60  C   UNL A   1      38.701  34.954  38.906  1.00  0.00     0.040 A 
ATOM     61  F   UNL A   1      38.315  32.808  38.044  1.00  0.00    -0.206 F 
ATOM     62  C   UNL A   1      39.299  36.210  38.808  1.00  0.00     0.006 A 
ENDBRANCH  38  55
ENDBRANCH  12  13
ENDBRANCH   5   7
ENDBRANCH   2   3
ENDBRANCH   1   2
BRANCH   1  63
ATOM     63  C   UNL A   1      37.495  23.332  25.882  1.00  0.00     0.118 C 
BRANCH  63  64
ATOM     64  N   UNL A   1      37.425  23.439  24.434  1.00  0.00    -0.352 N 
ATOM     65  C   UNL A   1      36.531  22.886  23.556  1.00  0.00     0.251 C 
ATOM     66  H   UNL A   1      38.127  23.993  24.021  1.00  0.00     0.163 HD
ATOM     67  O   UNL A   1      36.753  22.981  22.351  1.00  0.00    -0.269 OA
BRANCH  65  68
ATOM     68  C   UNL A   1      35.332  22.166  24.044  1.00  0.00     0.047 A 
ATOM     69  C   UNL A   1      35.573  21.115  24.940  1.00  0.00     0.014 A 
ATOM     70  C   UNL A   1      34.014  22.462  23.630  1.00  0.00    -0.012 A 
ATOM     71  C   UNL A   1      34.509  20.398  25.481  1.00  0.00     0.001 A 
ATOM     72  C   UNL A   1      32.955  21.748  24.207  1.00  0.00     0.009 A 
ATOM     73  C   UNL A   1      33.202  20.725  25.125  1.00  0.00     0.001 A 
BRANCH  70  74
ATOM     74  C   UNL A   1      33.671  23.527  22.669  1.00  0.00     0.030 C 
ATOM     75  C   UNL A   1      33.377  24.796  22.978  1.00  0.00     0.081 C 
ATOM     76  S   UNL A   1      32.662  25.888  21.863  1.00  0.00    -0.054 SA
ATOM     77  C   UNL A   1      33.517  25.452  24.302  1.00  0.00     0.266 C 
ATOM     78  C   UNL A   1      32.272  27.059  23.126  1.00  0.00     0.148 C 
ATOM     79  N   UNL A   1      32.805  26.647  24.335  1.00  0.00    -0.290 N 
ATOM     80  O   UNL A   1      34.244  25.020  25.183  1.00  0.00    -0.268 OA
ATOM     81  S   UNL A   1      31.395  28.426  22.748  1.00  0.00    -0.052 S 
BRANCH  79  82
ATOM     82  C   UNL A   1      32.863  27.417  25.595  1.00  0.00     0.092 C 
ATOM     83  C   UNL A   1      33.787  28.636  25.451  1.00  0.00     0.025 C 
ATOM     84  C   UNL A   1      31.502  27.759  26.223  1.00  0.00     0.025 C 
ATOM     85  C   UNL A   1      33.918  29.404  26.760  1.00  0.00     0.002 C 
ATOM     86  C   UNL A   1      31.675  28.546  27.524  1.00  0.00     0.002 C 
ATOM     87  C   UNL A   1      32.552  29.780  27.321  1.00  0.00     0.000 C 
ENDBRANCH  79  82
ENDBRANCH  70  74
ENDBRANCH  65  68
ENDBRANCH  63  64
ENDBRANCH   1  63
TORSDOF 12
ENDMDL
MODEL 3
REMARK VINA RESULT:     -12.7      3.975      7.846
REMARK SMILES O=C(NCCCNC(=O)c1ccccc1/C=C1/SC(=S)N(C2CCCCC2)C1=O)c1ccc(-c2c3nc(c(-c4c(F)cccc4F)c4ccc([nH]4)c(-c4c(F)cccc4F)c4nc(c(-c5c(F)cccc5F)c5ccc2[nH]5)C=C4)C=C3)cc1
REMARK SMILES IDX 5 1 4 2 3 3 1 4 2 5 30 7 31 8 83 9 32 10 82 11 33 12 34 13
REMARK SMILES IDX 35 14 76 15 36 16 81 17 75 18 77 19 37 20 80 21 74 22 73 23
REMARK SMILES IDX 38 25 64 26 47 27 63 28 48 29 51 30 62 31 78 32 49 33 50 34
REMARK SMILES IDX 61 36 79 37 52 38 39 39 40 40 45 41 41 42 42 43 44 44 46 45
REMARK SMILES IDX 43 46 65 47 66 48 71 49 67 50 68 51 70 52 72 53 69 54 53 55
REMARK SMILES IDX 54 56 59 57 55 58 56 59 58 60 60 61 57 62 6 63 7 64 8 65
REMARK SMILES IDX 9 67 10 68 11 69 15 70 12 71 14 72 13 73 16 74 17 75 18 76
REMARK SMILES IDX 28 77 19 78 21 79 29 80 20 81 22 82 23 83 27 84 24 85 26 86
REMARK SMILES IDX 25 87
REMARK H PARENT 3 6 77 24 51 35 7 66
REMARK Flexibility Score: inf
ROOT
ATOM      1  C   UNL A   1      39.179  21.486  25.714  1.00  0.00     0.042 C 
ENDROOT
BRANCH   1   2
ATOM      2  C   UNL A   1      39.281  20.144  26.418  1.00  0.00     0.118 C 
BRANCH   2   3
ATOM      3  N   UNL A   1      40.445  19.360  26.012  1.00  0.00    -0.352 N 
ATOM      4  O   UNL A   1      42.595  18.956  25.452  1.00  0.00    -0.269 OA
ATOM      5  C   UNL A   1      41.775  19.708  25.970  1.00  0.00     0.251 C 
ATOM      6  H   UNL A   1      40.246  18.441  25.723  1.00  0.00     0.163 HD
BRANCH   5   7
ATOM      7  C   UNL A   1      42.208  21.009  26.519  1.00  0.00     0.039 A 
ATOM      8  C   UNL A   1      42.187  21.222  27.895  1.00  0.00     0.014 A 
ATOM      9  C   UNL A   1      42.611  22.034  25.659  1.00  0.00     0.014 A 
ATOM     10  C   UNL A   1      42.325  22.507  28.389  1.00  0.00     0.010 A 
ATOM     11  C   UNL A   1      42.911  23.297  26.180  1.00  0.00     0.010 A 
ATOM     12  C   UNL A   1      42.731  23.555  27.547  1.00  0.00    -0.014 A 
BRANCH  12  13
ATOM     13  C   UNL A   1      43.047  24.866  28.168  1.00  0.00     0.031 A 
ATOM     14  C   UNL A   1      44.456  25.273  28.490  1.00  0.00     0.074 A 
ATOM     15  C   UNL A   1      42.025  25.722  28.373  1.00  0.00     0.049 A 
ATOM     16  N   UNL A   1      44.886  26.405  28.989  1.00  0.00    -0.248 NA
ATOM     17  C   UNL A   1      45.521  24.293  28.230  1.00  0.00     0.031 C 
ATOM     18  C   UNL A   1      40.612  25.426  28.108  1.00  0.00     0.029 A 
ATOM     19  N   UNL A   1      42.010  27.021  28.809  1.00  0.00    -0.354 N 
ATOM     20  C   UNL A   1      46.262  26.269  29.120  1.00  0.00     0.074 A 
ATOM     21  C   UNL A   1      46.596  24.934  28.671  1.00  0.00     0.031 C 
ATOM     22  C   UNL A   1      39.882  26.529  28.310  1.00  0.00     0.029 A 
ATOM     23  C   UNL A   1      40.755  27.580  28.812  1.00  0.00     0.049 A 
ATOM     24  H   UNL A   1      42.819  27.505  29.092  1.00  0.00     0.167 HD
ATOM     25  C   UNL A   1      47.160  27.179  29.567  1.00  0.00     0.037 A 
ATOM     26  C   UNL A   1      40.341  28.799  29.201  1.00  0.00     0.037 A 
ATOM     27  C   UNL A   1      46.817  28.512  30.002  1.00  0.00     0.049 A 
ATOM     28  C   UNL A   1      41.357  29.769  29.719  1.00  0.00     0.074 A 
ATOM     29  C   UNL A   1      47.657  29.513  30.458  1.00  0.00     0.029 A 
ATOM     30  N   UNL A   1      45.529  29.026  30.035  1.00  0.00    -0.354 N 
ATOM     31  N   UNL A   1      42.657  29.629  29.819  1.00  0.00    -0.248 NA
ATOM     32  C   UNL A   1      40.850  31.065  30.187  1.00  0.00     0.031 C 
ATOM     33  C   UNL A   1      46.872  30.617  30.810  1.00  0.00     0.029 A 
ATOM     34  C   UNL A   1      45.550  30.324  30.523  1.00  0.00     0.049 A 
ATOM     35  H   UNL A   1      44.719  28.542  29.753  1.00  0.00     0.167 HD
ATOM     36  C   UNL A   1      43.125  30.820  30.352  1.00  0.00     0.074 A 
ATOM     37  C   UNL A   1      41.973  31.684  30.518  1.00  0.00     0.031 C 
ATOM     38  C   UNL A   1      44.392  31.166  30.684  1.00  0.00     0.037 A 
BRANCH  25  39
ATOM     39  C   UNL A   1      48.605  26.773  29.627  1.00  0.00     0.057 A 
ATOM     40  C   UNL A   1      49.149  26.130  30.748  1.00  0.00     0.134 A 
ATOM     41  C   UNL A   1      49.446  26.959  28.521  1.00  0.00     0.134 A 
ATOM     42  F   UNL A   1      48.402  25.929  31.844  1.00  0.00    -0.206 F 
ATOM     43  C   UNL A   1      50.476  25.696  30.769  1.00  0.00     0.040 A 
ATOM     44  C   UNL A   1      50.769  26.509  28.523  1.00  0.00     0.040 A 
ATOM     45  F   UNL A   1      48.990  27.561  27.413  1.00  0.00    -0.206 F 
ATOM     46  C   UNL A   1      51.287  25.877  29.650  1.00  0.00     0.006 A 
ENDBRANCH  25  39
BRANCH  26  47
ATOM     47  C   UNL A   1      38.898  29.147  29.151  1.00  0.00     0.057 A 
ATOM     48  C   UNL A   1      38.084  29.042  30.282  1.00  0.00     0.134 A 
ATOM     49  C   UNL A   1      38.298  29.582  27.961  1.00  0.00     0.134 A 
ATOM     50  F   UNL A   1      38.596  28.619  31.447  1.00  0.00    -0.206 F 
ATOM     51  C   UNL A   1      36.720  29.335  30.229  1.00  0.00     0.040 A 
ATOM     52  C   UNL A   1      36.944  29.911  27.902  1.00  0.00     0.040 A 
ATOM     53  F   UNL A   1      39.026  29.714  26.843  1.00  0.00    -0.206 F 
ATOM     54  C   UNL A   1      36.148  29.776  29.037  1.00  0.00     0.006 A 
ENDBRANCH  26  47
BRANCH  38  55
ATOM     55  C   UNL A   1      44.587  32.547  31.238  1.00  0.00     0.057 A 
ATOM     56  C   UNL A   1      44.544  32.803  32.614  1.00  0.00     0.134 A 
ATOM     57  C   UNL A   1      44.816  33.631  30.383  1.00  0.00     0.134 A 
ATOM     58  F   UNL A   1      44.311  31.809  33.484  1.00  0.00    -0.206 F 
ATOM     59  C   UNL A   1      44.685  34.097  33.119  1.00  0.00     0.040 A 
ATOM     60  C   UNL A   1      44.989  34.924  30.877  1.00  0.00     0.040 A 
ATOM     61  F   UNL A   1      44.875  33.453  29.054  1.00  0.00    -0.206 F 
ATOM     62  C   UNL A   1      44.913  35.161  32.248  1.00  0.00     0.006 A 
ENDBRANCH  38  55
ENDBRANCH  12  13
ENDBRANCH   5   7
ENDBRANCH   2   3
ENDBRANCH   1   2
BRANCH   1  63
ATOM     63  C   UNL A   1      37.760  22.002  25.612  1.00  0.00     0.118 C 
BRANCH  63  64
ATOM     64  N   UNL A   1      37.496  22.649  24.337  1.00  0.00    -0.352 N 
ATOM     65  C   UNL A   1      36.377  22.609  23.548  1.00  0.00     0.251 C 
ATOM     66  H   UNL A   1      38.234  23.200  23.988  1.00  0.00     0.163 HD
ATOM     67  O   UNL A   1      36.428  23.108  22.427  1.00  0.00    -0.269 OA
BRANCH  65  68
ATOM     68  C   UNL A   1      35.135  21.956  24.023  1.00  0.00     0.047 A 
ATOM     69  C   UNL A   1      35.308  20.894  24.923  1.00  0.00     0.014 A 
ATOM     70  C   UNL A   1      33.840  22.322  23.593  1.00  0.00    -0.012 A 
ATOM     71  C   UNL A   1      34.201  20.237  25.451  1.00  0.00     0.001 A 
ATOM     72  C   UNL A   1      32.737  21.668  24.158  1.00  0.00     0.009 A 
ATOM     73  C   UNL A   1      32.918  20.634  25.081  1.00  0.00     0.001 A 
BRANCH  70  74
ATOM     74  C   UNL A   1      33.567  23.402  22.628  1.00  0.00     0.030 C 
ATOM     75  C   UNL A   1      33.285  24.675  22.935  1.00  0.00     0.081 C 
ATOM     76  S   UNL A   1      32.649  25.793  21.798  1.00  0.00    -0.054 SA
ATOM     77  C   UNL A   1      33.376  25.317  24.270  1.00  0.00     0.266 C 
ATOM     78  C   UNL A   1      32.224  26.961  23.052  1.00  0.00     0.148 C 
ATOM     79  N   UNL A   1      32.689  26.526  24.281  1.00  0.00    -0.290 N 
ATOM     80  O   UNL A   1      34.051  24.861  25.181  1.00  0.00    -0.268 OA
ATOM     81  S   UNL A   1      31.396  28.350  22.646  1.00  0.00    -0.052 S 
BRANCH  79  82
ATOM     82  C   UNL A   1      32.703  27.283  25.550  1.00  0.00     0.092 C 
ATOM     83  C   UNL A   1      33.456  28.612  25.387  1.00  0.00     0.025 C 
ATOM     84  C   UNL A   1      31.338  27.442  26.240  1.00  0.00     0.025 C 
ATOM     85  C   UNL A   1      33.545  29.376  26.702  1.00  0.00     0.002 C 
ATOM     86  C   UNL A   1      31.465  28.230  27.545  1.00  0.00     0.002 C 
ATOM     87  C   UNL A   1      32.168  29.568  27.326  1.00  0.00     0.000 C 
ENDBRANCH  79  82
ENDBRANCH  70  74
ENDBRANCH  65  68
ENDBRANCH  63  64
ENDBRANCH   1  63
TORSDOF 12
ENDMDL
