MODEL 1
REMARK VINA RESULT:     -14.9      0.000      0.000
REMARK SMILES Cc1ccc(S(=O)(=O)n2cc(C(=O)C(=O)N[C@H](Cc3c[nH]c4ccccc34)C(=O)NCC(=O)NCCCNC(=O)c3ccc(-c4c5nc(c(-c6c(F)cccc6F)c6ccc([nH]6)c(-c6c(F)cccc6F)c6nc(c(-c7c(F)cccc7F)c7ccc4[nH]7)C=C6)C=C5)cc3)c3ccccc32)cc1
REMARK SMILES IDX 32 1 33 2 34 3 31 5 30 6 28 7 29 8 17 10 16 11 14 12 15 13
REMARK SMILES IDX 12 15 13 16 11 17 9 18 10 19 100 20 95 21 99 22 96 23 98 24
REMARK SMILES IDX 97 25 6 26 7 27 8 28 5 29 1 30 2 31 3 32 102 33 4 34 101 35
REMARK SMILES IDX 18 36 19 37 20 38 27 39 21 40 22 41 26 42 23 44 25 45 24 46
REMARK SMILES IDX 35 47 36 48 37 49 38 50 39 51 40 53 41 54 42 55 94 56 43 57
REMARK SMILES IDX 93 58 44 59 45 60 46 61 87 62 47 63 92 64 86 65 88 66 48 67
REMARK SMILES IDX 91 68 85 69 84 70 49 72 75 73 58 74 74 75 59 76 62 77 73 78
REMARK SMILES IDX 89 79 60 80 61 81 72 83 90 84 63 85 50 86 51 87 56 88 52 89
REMARK SMILES IDX 53 90 55 91 57 92 54 93 76 94 77 95 82 96 78 97 79 98 81 99
REMARK SMILES IDX 83 100 80 101 64 102 65 103 70 104 66 105 67 106 69 107
REMARK SMILES IDX 71 108 68 109
REMARK H PARENT 34 4 30 9 16 14 21 43 38 52 88 71 62 82
REMARK Flexibility Score: inf
ROOT
ATOM      1  C   UNL A   1      33.310  28.684  27.129  1.00  0.00     0.239 C 
ATOM      2  O   UNL A   1      34.007  27.734  26.767  1.00  0.00    -0.273 OA
ATOM      3  N   UNL A   1      33.942  29.868  27.386  1.00  0.00    -0.355 N 
ATOM      4  H   UNL A   1      34.926  29.830  27.375  1.00  0.00     0.163 HD
ENDROOT
BRANCH   1   5
ATOM      5  C   UNL A   1      31.780  28.575  27.127  1.00  0.00     0.216 C 
BRANCH   5   6
ATOM      6  N   UNL A   1      31.292  27.219  27.218  1.00  0.00    -0.345 N 
ATOM      7  C   UNL A   1      31.114  26.211  26.343  1.00  0.00     0.243 C 
ATOM      8  O   UNL A   1      30.682  25.184  26.883  1.00  0.00    -0.273 OA
ATOM      9  H   UNL A   1      31.026  26.976  28.134  1.00  0.00     0.164 HD
BRANCH   7  10
ATOM     10  C   UNL A   1      31.388  26.228  24.804  1.00  0.00     0.176 C 
BRANCH  10  11
ATOM     11  N   UNL A   1      32.468  27.108  24.221  1.00  0.00    -0.337 N 
ATOM     12  C   UNL A   1      33.483  26.954  23.280  1.00  0.00     0.293 C 
ATOM     13  O   UNL A   1      34.276  27.870  23.089  1.00  0.00    -0.265 OA
ATOM     14  H   UNL A   1      32.449  28.015  24.601  1.00  0.00     0.164 HD
BRANCH  12  15
ATOM     15  C   UNL A   1      33.596  25.678  22.453  1.00  0.00     0.252 C 
ATOM     16  O   UNL A   1      33.529  25.857  21.237  1.00  0.00    -0.283 OA
BRANCH  15  17
ATOM     17  C   UNL A   1      33.775  24.298  22.945  1.00  0.00     0.054 A 
ATOM     18  N   UNL A   1      33.867  22.093  23.458  1.00  0.00    -0.240 N 
ATOM     19  C   UNL A   1      33.158  23.065  22.714  1.00  0.00     0.117 A 
ATOM     20  C   UNL A   1      35.100  22.669  23.767  1.00  0.00     0.065 A 
ATOM     21  C   UNL A   1      34.759  24.003  23.937  1.00  0.00     0.012 A 
ATOM     22  C   UNL A   1      36.265  22.120  24.309  1.00  0.00     0.028 A 
ATOM     23  C   UNL A   1      35.412  24.740  24.934  1.00  0.00     0.011 A 
ATOM     24  C   UNL A   1      36.855  22.866  25.335  1.00  0.00     0.002 A 
ATOM     25  C   UNL A   1      36.412  24.137  25.682  1.00  0.00     0.001 A 
BRANCH  18  26
ATOM     26  S   UNL A   1      33.111  21.301  24.884  1.00  0.00     0.268 S 
ATOM     27  O   UNL A   1      31.682  21.391  24.649  1.00  0.00    -0.201 OA
ATOM     28  O   UNL A   1      33.727  21.937  26.038  1.00  0.00    -0.201 OA
BRANCH  26  29
ATOM     29  C   UNL A   1      33.526  19.592  25.065  1.00  0.00     0.088 A 
ATOM     30  C   UNL A   1      33.837  15.291  25.049  1.00  0.00     0.044 C 
ATOM     31  C   UNL A   1      33.754  16.791  25.053  1.00  0.00    -0.051 A 
ATOM     32  C   UNL A   1      32.609  17.389  25.572  1.00  0.00     0.005 A 
ATOM     33  C   UNL A   1      34.795  17.608  24.569  1.00  0.00     0.005 A 
ATOM     34  C   UNL A   1      32.495  18.773  25.572  1.00  0.00     0.022 A 
ATOM     35  C   UNL A   1      34.685  19.013  24.564  1.00  0.00     0.022 A 
ENDBRANCH  26  29
ENDBRANCH  18  26
ENDBRANCH  15  17
ENDBRANCH  12  15
ENDBRANCH  10  11
BRANCH  10  36
ATOM     36  C   UNL A   1      30.208  25.900  23.828  1.00  0.00     0.072 C 
BRANCH  36  37
ATOM     37  C   UNL A   1      29.092  26.886  23.555  1.00  0.00    -0.020 A 
ATOM     38  C   UNL A   1      27.776  26.704  23.955  1.00  0.00     0.087 A 
ATOM     39  C   UNL A   1      29.138  28.210  22.977  1.00  0.00     0.003 A 
ATOM     40  N   UNL A   1      27.052  27.826  23.640  1.00  0.00    -0.361 N 
ATOM     41  C   UNL A   1      27.832  28.703  22.934  1.00  0.00     0.046 A 
ATOM     42  C   UNL A   1      30.152  29.039  22.453  1.00  0.00     0.010 A 
ATOM     43  H   UNL A   1      26.111  27.978  23.886  1.00  0.00     0.166 HD
ATOM     44  C   UNL A   1      27.470  29.894  22.291  1.00  0.00     0.026 A 
ATOM     45  C   UNL A   1      29.815  30.248  21.824  1.00  0.00     0.001 A 
ATOM     46  C   UNL A   1      28.489  30.655  21.720  1.00  0.00     0.002 A 
ENDBRANCH  36  37
ENDBRANCH  10  36
ENDBRANCH   7  10
ENDBRANCH   5   6
ENDBRANCH   1   5
BRANCH   3  47
ATOM     47  C   UNL A   1      33.375  31.176  27.673  1.00  0.00     0.117 C 
BRANCH  47  48
ATOM     48  C   UNL A   1      34.281  31.994  28.571  1.00  0.00     0.042 C 
BRANCH  48  49
ATOM     49  C   UNL A   1      35.639  32.235  27.924  1.00  0.00     0.118 C 
BRANCH  49  50
ATOM     50  N   UNL A   1      36.708  32.283  28.915  1.00  0.00    -0.352 N 
ATOM     51  C   UNL A   1      37.382  31.301  29.631  1.00  0.00     0.251 C 
ATOM     52  H   UNL A   1      37.015  33.196  29.117  1.00  0.00     0.163 HD
ATOM     53  O   UNL A   1      38.115  31.611  30.538  1.00  0.00    -0.269 OA
BRANCH  51  54
ATOM     54  C   UNL A   1      37.377  29.910  29.091  1.00  0.00     0.039 A 
ATOM     55  C   UNL A   1      37.518  28.942  30.090  1.00  0.00     0.014 A 
ATOM     56  C   UNL A   1      37.862  29.681  27.815  1.00  0.00     0.014 A 
ATOM     57  C   UNL A   1      38.496  27.971  29.932  1.00  0.00     0.010 A 
ATOM     58  C   UNL A   1      38.933  28.817  27.707  1.00  0.00     0.010 A 
ATOM     59  C   UNL A   1      39.312  28.038  28.808  1.00  0.00    -0.014 A 
BRANCH  59  60
ATOM     60  C   UNL A   1      40.642  27.436  28.784  1.00  0.00     0.031 A 
ATOM     61  C   UNL A   1      40.782  25.997  28.483  1.00  0.00     0.074 A 
ATOM     62  C   UNL A   1      41.740  28.192  29.022  1.00  0.00     0.049 A 
ATOM     63  N   UNL A   1      41.781  25.266  28.841  1.00  0.00    -0.248 NA
ATOM     64  C   UNL A   1      39.737  25.247  27.796  1.00  0.00     0.031 C 
ATOM     65  C   UNL A   1      43.135  27.814  28.800  1.00  0.00     0.029 A 
ATOM     66  N   UNL A   1      41.817  29.405  29.729  1.00  0.00    -0.354 N 
ATOM     67  C   UNL A   1      41.644  24.038  28.232  1.00  0.00     0.074 A 
ATOM     68  C   UNL A   1      40.332  24.065  27.634  1.00  0.00     0.031 C 
ATOM     69  C   UNL A   1      43.920  28.585  29.568  1.00  0.00     0.029 A 
ATOM     70  C   UNL A   1      43.052  29.390  30.413  1.00  0.00     0.049 A 
ATOM     71  H   UNL A   1      41.144  30.123  29.743  1.00  0.00     0.167 HD
ATOM     72  C   UNL A   1      42.707  23.184  28.198  1.00  0.00     0.037 A 
ATOM     73  C   UNL A   1      43.128  29.444  31.775  1.00  0.00     0.037 A 
ATOM     74  C   UNL A   1      43.823  23.697  28.990  1.00  0.00     0.049 A 
ATOM     75  C   UNL A   1      43.796  28.245  32.401  1.00  0.00     0.074 A 
ATOM     76  C   UNL A   1      44.973  24.393  28.653  1.00  0.00     0.029 A 
ATOM     77  N   UNL A   1      43.692  23.805  30.372  1.00  0.00    -0.354 N 
ATOM     78  N   UNL A   1      43.990  27.112  31.784  1.00  0.00    -0.248 NA
ATOM     79  C   UNL A   1      44.253  28.215  33.787  1.00  0.00     0.031 C 
ATOM     80  C   UNL A   1      45.500  24.974  29.834  1.00  0.00     0.029 A 
ATOM     81  C   UNL A   1      44.684  24.614  30.892  1.00  0.00     0.049 A 
ATOM     82  H   UNL A   1      42.990  23.366  30.904  1.00  0.00     0.167 HD
ATOM     83  C   UNL A   1      44.521  26.205  32.663  1.00  0.00     0.074 A 
ATOM     84  C   UNL A   1      44.699  26.953  33.894  1.00  0.00     0.031 C 
ATOM     85  C   UNL A   1      44.743  24.903  32.316  1.00  0.00     0.037 A 
BRANCH  72  86
ATOM     86  C   UNL A   1      42.822  22.068  27.180  1.00  0.00     0.057 A 
ATOM     87  C   UNL A   1      42.047  20.899  27.299  1.00  0.00     0.134 A 
ATOM     88  C   UNL A   1      43.740  22.039  26.117  1.00  0.00     0.134 A 
ATOM     89  F   UNL A   1      41.031  20.810  28.167  1.00  0.00    -0.206 F 
ATOM     90  C   UNL A   1      42.276  19.749  26.531  1.00  0.00     0.040 A 
ATOM     91  C   UNL A   1      44.025  20.879  25.381  1.00  0.00     0.040 A 
ATOM     92  F   UNL A   1      44.361  23.149  25.699  1.00  0.00    -0.206 F 
ATOM     93  C   UNL A   1      43.303  19.717  25.602  1.00  0.00     0.006 A 
ENDBRANCH  72  86
BRANCH  73  94
ATOM     94  C   UNL A   1      42.055  30.243  32.421  1.00  0.00     0.057 A 
ATOM     95  C   UNL A   1      40.972  29.573  33.002  1.00  0.00     0.134 A 
ATOM     96  C   UNL A   1      42.250  31.568  32.804  1.00  0.00     0.134 A 
ATOM     97  F   UNL A   1      40.628  28.362  32.560  1.00  0.00    -0.206 F 
ATOM     98  C   UNL A   1      40.242  30.112  34.063  1.00  0.00     0.040 A 
ATOM     99  C   UNL A   1      41.497  32.141  33.836  1.00  0.00     0.040 A 
ATOM    100  F   UNL A   1      43.241  32.292  32.265  1.00  0.00    -0.206 F 
ATOM    101  C   UNL A   1      40.533  31.392  34.511  1.00  0.00     0.006 A 
ENDBRANCH  73  94
BRANCH  85 102
ATOM    102  C   UNL A   1      45.106  23.801  33.276  1.00  0.00     0.057 A 
ATOM    103  C   UNL A   1      46.374  23.655  33.858  1.00  0.00     0.134 A 
ATOM    104  C   UNL A   1      44.115  22.920  33.760  1.00  0.00     0.134 A 
ATOM    105  F   UNL A   1      47.377  24.497  33.571  1.00  0.00    -0.206 F 
ATOM    106  C   UNL A   1      46.652  22.666  34.811  1.00  0.00     0.040 A 
ATOM    107  C   UNL A   1      44.369  21.963  34.747  1.00  0.00     0.040 A 
ATOM    108  F   UNL A   1      42.853  22.968  33.309  1.00  0.00    -0.206 F 
ATOM    109  C   UNL A   1      45.647  21.823  35.266  1.00  0.00     0.006 A 
ENDBRANCH  85 102
ENDBRANCH  59  60
ENDBRANCH  51  54
ENDBRANCH  49  50
ENDBRANCH  48  49
ENDBRANCH  47  48
ENDBRANCH   3  47
TORSDOF 19
ENDMDL
MODEL 2
REMARK VINA RESULT:     -14.8      3.440      9.669
REMARK SMILES Cc1ccc(S(=O)(=O)n2cc(C(=O)C(=O)N[C@H](Cc3c[nH]c4ccccc34)C(=O)NCC(=O)NCCCNC(=O)c3ccc(-c4c5nc(c(-c6c(F)cccc6F)c6ccc([nH]6)c(-c6c(F)cccc6F)c6nc(c(-c7c(F)cccc7F)c7ccc4[nH]7)C=C6)C=C5)cc3)c3ccccc32)cc1
REMARK SMILES IDX 32 1 33 2 34 3 31 5 30 6 28 7 29 8 17 10 16 11 14 12 15 13
REMARK SMILES IDX 12 15 13 16 11 17 9 18 10 19 100 20 95 21 99 22 96 23 98 24
REMARK SMILES IDX 97 25 6 26 7 27 8 28 5 29 1 30 2 31 3 32 102 33 4 34 101 35
REMARK SMILES IDX 18 36 19 37 20 38 27 39 21 40 22 41 26 42 23 44 25 45 24 46
REMARK SMILES IDX 35 47 36 48 37 49 38 50 39 51 40 53 41 54 42 55 94 56 43 57
REMARK SMILES IDX 93 58 44 59 45 60 46 61 87 62 47 63 92 64 86 65 88 66 48 67
REMARK SMILES IDX 91 68 85 69 84 70 49 72 75 73 58 74 74 75 59 76 62 77 73 78
REMARK SMILES IDX 89 79 60 80 61 81 72 83 90 84 63 85 50 86 51 87 56 88 52 89
REMARK SMILES IDX 53 90 55 91 57 92 54 93 76 94 77 95 82 96 78 97 79 98 81 99
REMARK SMILES IDX 83 100 80 101 64 102 65 103 70 104 66 105 67 106 69 107
REMARK SMILES IDX 71 108 68 109
REMARK H PARENT 34 4 30 9 16 14 21 43 38 52 88 71 62 82
REMARK Flexibility Score: inf
ROOT
ATOM      1  C   UNL A   1      37.393  22.911  25.533  1.00  0.00     0.239 C 
ATOM      2  O   UNL A   1      37.120  24.112  25.481  1.00  0.00    -0.273 OA
ATOM      3  N   UNL A   1      38.713  22.566  25.592  1.00  0.00    -0.355 N 
ATOM      4  H   UNL A   1      39.347  23.308  25.467  1.00  0.00     0.163 HD
ENDROOT
BRANCH   1   5
ATOM      5  C   UNL A   1      36.281  21.865  25.692  1.00  0.00     0.216 C 
BRANCH   5   6
ATOM      6  N   UNL A   1      35.481  22.040  26.881  1.00  0.00    -0.345 N 
ATOM      7  C   UNL A   1      34.189  22.333  27.124  1.00  0.00     0.243 C 
ATOM      8  O   UNL A   1      33.928  22.356  28.334  1.00  0.00    -0.273 OA
ATOM      9  H   UNL A   1      36.002  21.916  27.706  1.00  0.00     0.164 HD
BRANCH   7  10
ATOM     10  C   UNL A   1      33.068  22.630  26.076  1.00  0.00     0.176 C 
BRANCH  10  11
ATOM     11  N   UNL A   1      31.612  22.425  26.423  1.00  0.00    -0.337 N 
ATOM     12  C   UNL A   1      30.503  23.247  26.602  1.00  0.00     0.293 C 
ATOM     13  O   UNL A   1      29.442  22.759  26.980  1.00  0.00    -0.265 OA
ATOM     14  H   UNL A   1      31.395  21.474  26.554  1.00  0.00     0.164 HD
BRANCH  12  15
ATOM     15  C   UNL A   1      30.576  24.739  26.296  1.00  0.00     0.252 C 
ATOM     16  O   UNL A   1      29.558  25.365  26.591  1.00  0.00    -0.283 OA
BRANCH  15  17
ATOM     17  C   UNL A   1      31.704  25.483  25.703  1.00  0.00     0.054 A 
ATOM     18  N   UNL A   1      33.566  26.614  25.081  1.00  0.00    -0.240 N 
ATOM     19  C   UNL A   1      32.801  26.196  26.195  1.00  0.00     0.117 A 
ATOM     20  C   UNL A   1      33.160  25.812  24.013  1.00  0.00     0.065 A 
ATOM     21  C   UNL A   1      31.812  25.631  24.287  1.00  0.00     0.012 A 
ATOM     22  C   UNL A   1      33.692  25.641  22.732  1.00  0.00     0.028 A 
ATOM     23  C   UNL A   1      30.909  25.597  23.216  1.00  0.00     0.011 A 
ATOM     24  C   UNL A   1      32.759  25.664  21.690  1.00  0.00     0.002 A 
ATOM     25  C   UNL A   1      31.388  25.689  21.918  1.00  0.00     0.001 A 
BRANCH  18  26
ATOM     26  S   UNL A   1      33.653  28.353  24.630  1.00  0.00     0.268 S 
ATOM     27  O   UNL A   1      34.669  28.421  23.597  1.00  0.00    -0.201 OA
ATOM     28  O   UNL A   1      33.810  29.060  25.891  1.00  0.00    -0.201 OA
BRANCH  26  29
ATOM     29  C   UNL A   1      32.150  29.000  23.960  1.00  0.00     0.088 A 
ATOM     30  C   UNL A   1      28.500  29.883  21.842  1.00  0.00     0.044 C 
ATOM     31  C   UNL A   1      29.761  29.586  22.600  1.00  0.00    -0.051 A 
ATOM     32  C   UNL A   1      30.941  29.411  21.882  1.00  0.00     0.005 A 
ATOM     33  C   UNL A   1      29.795  29.494  24.006  1.00  0.00     0.005 A 
ATOM     34  C   UNL A   1      32.120  29.116  22.555  1.00  0.00     0.022 A 
ATOM     35  C   UNL A   1      30.988  29.193  24.695  1.00  0.00     0.022 A 
ENDBRANCH  26  29
ENDBRANCH  18  26
ENDBRANCH  15  17
ENDBRANCH  12  15
ENDBRANCH  10  11
BRANCH  10  36
ATOM     36  C   UNL A   1      33.408  22.490  24.554  1.00  0.00     0.072 C 
BRANCH  36  37
ATOM     37  C   UNL A   1      32.871  21.354  23.710  1.00  0.00    -0.020 A 
ATOM     38  C   UNL A   1      32.034  21.523  22.617  1.00  0.00     0.087 A 
ATOM     39  C   UNL A   1      33.175  19.941  23.746  1.00  0.00     0.003 A 
ATOM     40  N   UNL A   1      31.823  20.307  22.021  1.00  0.00    -0.361 N 
ATOM     41  C   UNL A   1      32.405  19.314  22.764  1.00  0.00     0.046 A 
ATOM     42  C   UNL A   1      34.005  19.115  24.533  1.00  0.00     0.010 A 
ATOM     43  H   UNL A   1      31.325  20.167  21.183  1.00  0.00     0.166 HD
ATOM     44  C   UNL A   1      32.318  17.923  22.612  1.00  0.00     0.026 A 
ATOM     45  C   UNL A   1      33.951  17.720  24.384  1.00  0.00     0.001 A 
ATOM     46  C   UNL A   1      33.098  17.133  23.455  1.00  0.00     0.002 A 
ENDBRANCH  36  37
ENDBRANCH  10  36
ENDBRANCH   7  10
ENDBRANCH   5   6
ENDBRANCH   1   5
BRANCH   3  47
ATOM     47  C   UNL A   1      39.320  21.262  25.812  1.00  0.00     0.117 C 
BRANCH  47  48
ATOM     48  C   UNL A   1      40.612  21.372  26.596  1.00  0.00     0.042 C 
BRANCH  48  49
ATOM     49  C   UNL A   1      40.504  22.406  27.710  1.00  0.00     0.118 C 
BRANCH  49  50
ATOM     50  N   UNL A   1      41.630  23.333  27.696  1.00  0.00    -0.352 N 
ATOM     51  C   UNL A   1      41.772  24.647  27.264  1.00  0.00     0.251 C 
ATOM     52  H   UNL A   1      42.457  22.951  28.069  1.00  0.00     0.163 HD
ATOM     53  O   UNL A   1      42.869  25.143  27.193  1.00  0.00    -0.269 OA
BRANCH  51  54
ATOM     54  C   UNL A   1      40.542  25.483  27.145  1.00  0.00     0.039 A 
ATOM     55  C   UNL A   1      40.747  26.643  26.392  1.00  0.00     0.014 A 
ATOM     56  C   UNL A   1      39.614  25.466  28.172  1.00  0.00     0.014 A 
ATOM     57  C   UNL A   1      40.359  27.858  26.935  1.00  0.00     0.010 A 
ATOM     58  C   UNL A   1      39.355  26.672  28.790  1.00  0.00     0.010 A 
ATOM     59  C   UNL A   1      39.823  27.862  28.219  1.00  0.00    -0.014 A 
BRANCH  59  60
ATOM     60  C   UNL A   1      39.863  29.049  29.067  1.00  0.00     0.031 A 
ATOM     61  C   UNL A   1      38.827  30.090  28.908  1.00  0.00     0.074 A 
ATOM     62  C   UNL A   1      40.833  29.191  30.002  1.00  0.00     0.049 A 
ATOM     63  N   UNL A   1      38.970  31.325  29.247  1.00  0.00    -0.248 NA
ATOM     64  C   UNL A   1      37.546  29.813  28.272  1.00  0.00     0.031 C 
ATOM     65  C   UNL A   1      40.880  30.177  31.080  1.00  0.00     0.029 A 
ATOM     66  N   UNL A   1      42.103  28.587  30.028  1.00  0.00    -0.354 N 
ATOM     67  C   UNL A   1      37.745  31.942  29.116  1.00  0.00     0.074 A 
ATOM     68  C   UNL A   1      36.907  30.968  28.460  1.00  0.00     0.031 C 
ATOM     69  C   UNL A   1      42.153  30.323  31.479  1.00  0.00     0.029 A 
ATOM     70  C   UNL A   1      42.987  29.540  30.579  1.00  0.00     0.049 A 
ATOM     71  H   UNL A   1      42.330  27.680  29.722  1.00  0.00     0.167 HD
ATOM     72  C   UNL A   1      37.544  33.163  29.689  1.00  0.00     0.037 A 
ATOM     73  C   UNL A   1      44.049  30.033  29.880  1.00  0.00     0.037 A 
ATOM     74  C   UNL A   1      38.785  33.695  30.249  1.00  0.00     0.049 A 
ATOM     75  C   UNL A   1      44.008  31.527  29.672  1.00  0.00     0.074 A 
ATOM     76  C   UNL A   1      39.310  33.703  31.531  1.00  0.00     0.029 A 
ATOM     77  N   UNL A   1      39.830  34.040  29.396  1.00  0.00    -0.354 N 
ATOM     78  N   UNL A   1      42.938  32.256  29.826  1.00  0.00    -0.248 NA
ATOM     79  C   UNL A   1      45.160  32.306  29.225  1.00  0.00     0.031 C 
ATOM     80  C   UNL A   1      40.695  33.994  31.440  1.00  0.00     0.029 A 
ATOM     81  C   UNL A   1      41.008  34.184  30.106  1.00  0.00     0.049 A 
ATOM     82  H   UNL A   1      39.743  34.163  28.424  1.00  0.00     0.167 HD
ATOM     83  C   UNL A   1      43.215  33.547  29.458  1.00  0.00     0.074 A 
ATOM     84  C   UNL A   1      44.626  33.535  29.122  1.00  0.00     0.031 C 
ATOM     85  C   UNL A   1      42.252  34.515  29.429  1.00  0.00     0.037 A 
BRANCH  72  86
ATOM     86  C   UNL A   1      36.162  33.691  30.016  1.00  0.00     0.057 A 
ATOM     87  C   UNL A   1      35.312  34.171  29.001  1.00  0.00     0.134 A 
ATOM     88  C   UNL A   1      35.645  33.843  31.314  1.00  0.00     0.134 A 
ATOM     89  F   UNL A   1      35.586  33.981  27.704  1.00  0.00    -0.206 F 
ATOM     90  C   UNL A   1      34.131  34.878  29.264  1.00  0.00     0.040 A 
ATOM     91  C   UNL A   1      34.499  34.601  31.598  1.00  0.00     0.040 A 
ATOM     92  F   UNL A   1      36.189  33.213  32.362  1.00  0.00    -0.206 F 
ATOM     93  C   UNL A   1      33.745  35.141  30.568  1.00  0.00     0.006 A 
ENDBRANCH  72  86
BRANCH  73  94
ATOM     94  C   UNL A   1      44.668  29.068  28.935  1.00  0.00     0.057 A 
ATOM     95  C   UNL A   1      44.335  29.146  27.577  1.00  0.00     0.134 A 
ATOM     96  C   UNL A   1      45.819  28.353  29.257  1.00  0.00     0.134 A 
ATOM     97  F   UNL A   1      43.164  29.671  27.212  1.00  0.00    -0.206 F 
ATOM     98  C   UNL A   1      45.202  28.720  26.569  1.00  0.00     0.040 A 
ATOM     99  C   UNL A   1      46.679  27.879  28.259  1.00  0.00     0.040 A 
ATOM    100  F   UNL A   1      46.186  28.198  30.537  1.00  0.00    -0.206 F 
ATOM    101  C   UNL A   1      46.403  28.117  26.913  1.00  0.00     0.006 A 
ENDBRANCH  73  94
BRANCH  85 102
ATOM    102  C   UNL A   1      42.419  35.885  28.828  1.00  0.00     0.057 A 
ATOM    103  C   UNL A   1      41.824  36.290  27.624  1.00  0.00     0.134 A 
ATOM    104  C   UNL A   1      43.085  36.903  29.544  1.00  0.00     0.134 A 
ATOM    105  F   UNL A   1      41.069  35.452  26.900  1.00  0.00    -0.206 F 
ATOM    106  C   UNL A   1      41.934  37.600  27.136  1.00  0.00     0.040 A 
ATOM    107  C   UNL A   1      43.157  38.224  29.092  1.00  0.00     0.040 A 
ATOM    108  F   UNL A   1      43.675  36.661  30.724  1.00  0.00    -0.206 F 
ATOM    109  C   UNL A   1      42.593  38.574  27.875  1.00  0.00     0.006 A 
ENDBRANCH  85 102
ENDBRANCH  59  60
ENDBRANCH  51  54
ENDBRANCH  49  50
ENDBRANCH  48  49
ENDBRANCH  47  48
ENDBRANCH   3  47
TORSDOF 19
ENDMDL
MODEL 3
REMARK VINA RESULT:     -14.1      3.529      9.849
REMARK SMILES Cc1ccc(S(=O)(=O)n2cc(C(=O)C(=O)N[C@H](Cc3c[nH]c4ccccc34)C(=O)NCC(=O)NCCCNC(=O)c3ccc(-c4c5nc(c(-c6c(F)cccc6F)c6ccc([nH]6)c(-c6c(F)cccc6F)c6nc(c(-c7c(F)cccc7F)c7ccc4[nH]7)C=C6)C=C5)cc3)c3ccccc32)cc1
REMARK SMILES IDX 32 1 33 2 34 3 31 5 30 6 28 7 29 8 17 10 16 11 14 12 15 13
REMARK SMILES IDX 12 15 13 16 11 17 9 18 10 19 100 20 95 21 99 22 96 23 98 24
REMARK SMILES IDX 97 25 6 26 7 27 8 28 5 29 1 30 2 31 3 32 102 33 4 34 101 35
REMARK SMILES IDX 18 36 19 37 20 38 27 39 21 40 22 41 26 42 23 44 25 45 24 46
REMARK SMILES IDX 35 47 36 48 37 49 38 50 39 51 40 53 41 54 42 55 94 56 43 57
REMARK SMILES IDX 93 58 44 59 45 60 46 61 87 62 47 63 92 64 86 65 88 66 48 67
REMARK SMILES IDX 91 68 85 69 84 70 49 72 75 73 58 74 74 75 59 76 62 77 73 78
REMARK SMILES IDX 89 79 60 80 61 81 72 83 90 84 63 85 50 86 51 87 56 88 52 89
REMARK SMILES IDX 53 90 55 91 57 92 54 93 76 94 77 95 82 96 78 97 79 98 81 99
REMARK SMILES IDX 83 100 80 101 64 102 65 103 70 104 66 105 67 106 69 107
REMARK SMILES IDX 71 108 68 109
REMARK H PARENT 34 4 30 9 16 14 21 43 38 52 88 71 62 82
REMARK Flexibility Score: inf
ROOT
ATOM      1  C   UNL A   1      37.282  23.143  25.797  1.00  0.00     0.239 C 
ATOM      2  O   UNL A   1      36.944  24.318  25.958  1.00  0.00    -0.273 OA
ATOM      3  N   UNL A   1      38.620  22.868  25.778  1.00  0.00    -0.355 N 
ATOM      4  H   UNL A   1      39.210  23.656  25.776  1.00  0.00     0.163 HD
ENDROOT
BRANCH   1   5
ATOM      5  C   UNL A   1      36.231  22.025  25.786  1.00  0.00     0.216 C 
BRANCH   5   6
ATOM      6  N   UNL A   1      35.276  22.111  26.865  1.00  0.00    -0.345 N 
ATOM      7  C   UNL A   1      33.943  21.944  26.972  1.00  0.00     0.243 C 
ATOM      8  O   UNL A   1      33.538  22.097  28.131  1.00  0.00    -0.273 OA
ATOM      9  H   UNL A   1      35.696  22.349  27.722  1.00  0.00     0.164 HD
BRANCH   7  10
ATOM     10  C   UNL A   1      32.934  21.598  25.829  1.00  0.00     0.176 C 
BRANCH  10  11
ATOM     11  N   UNL A   1      31.466  21.407  26.127  1.00  0.00    -0.337 N 
ATOM     12  C   UNL A   1      30.354  22.237  26.243  1.00  0.00     0.293 C 
ATOM     13  O   UNL A   1      29.278  21.763  26.594  1.00  0.00    -0.265 OA
ATOM     14  H   UNL A   1      31.239  20.461  26.274  1.00  0.00     0.164 HD
BRANCH  12  15
ATOM     15  C   UNL A   1      30.445  23.720  25.901  1.00  0.00     0.252 C 
ATOM     16  O   UNL A   1      29.924  24.463  26.734  1.00  0.00    -0.283 OA
BRANCH  15  17
ATOM     17  C   UNL A   1      31.073  24.335  24.716  1.00  0.00     0.054 A 
ATOM     18  N   UNL A   1      32.107  24.985  22.807  1.00  0.00    -0.240 N 
ATOM     19  C   UNL A   1      31.948  23.909  23.712  1.00  0.00     0.117 A 
ATOM     20  C   UNL A   1      31.037  25.849  23.045  1.00  0.00     0.065 A 
ATOM     21  C   UNL A   1      30.858  25.715  24.414  1.00  0.00     0.012 A 
ATOM     22  C   UNL A   1      30.572  26.960  22.336  1.00  0.00     0.028 A 
ATOM     23  C   UNL A   1      30.501  26.847  25.158  1.00  0.00     0.011 A 
ATOM     24  C   UNL A   1      30.275  28.083  23.114  1.00  0.00     0.002 A 
ATOM     25  C   UNL A   1      30.283  28.050  24.504  1.00  0.00     0.001 A 
BRANCH  18  26
ATOM     26  S   UNL A   1      33.673  25.860  22.692  1.00  0.00     0.268 S 
ATOM     27  O   UNL A   1      33.617  26.564  21.424  1.00  0.00    -0.201 OA
ATOM     28  O   UNL A   1      34.688  24.850  22.949  1.00  0.00    -0.201 OA
BRANCH  26  29
ATOM     29  C   UNL A   1      33.927  27.056  23.968  1.00  0.00     0.088 A 
ATOM     30  C   UNL A   1      33.781  30.259  26.852  1.00  0.00     0.044 C 
ATOM     31  C   UNL A   1      33.844  29.129  25.864  1.00  0.00    -0.051 A 
ATOM     32  C   UNL A   1      33.726  29.427  24.510  1.00  0.00     0.005 A 
ATOM     33  C   UNL A   1      34.034  27.790  26.258  1.00  0.00     0.005 A 
ATOM     34  C   UNL A   1      33.761  28.400  23.574  1.00  0.00     0.022 A 
ATOM     35  C   UNL A   1      34.069  26.744  25.314  1.00  0.00     0.022 A 
ENDBRANCH  26  29
ENDBRANCH  18  26
ENDBRANCH  15  17
ENDBRANCH  12  15
ENDBRANCH  10  11
BRANCH  10  36
ATOM     36  C   UNL A   1      33.458  20.820  24.576  1.00  0.00     0.072 C 
BRANCH  36  37
ATOM     37  C   UNL A   1      34.146  19.476  24.692  1.00  0.00    -0.020 A 
ATOM     38  C   UNL A   1      35.520  19.296  24.637  1.00  0.00     0.087 A 
ATOM     39  C   UNL A   1      33.600  18.172  24.996  1.00  0.00     0.003 A 
ATOM     40  N   UNL A   1      35.810  17.978  24.878  1.00  0.00    -0.361 N 
ATOM     41  C   UNL A   1      34.652  17.254  24.975  1.00  0.00     0.046 A 
ATOM     42  C   UNL A   1      32.311  17.664  25.260  1.00  0.00     0.010 A 
ATOM     43  H   UNL A   1      36.718  17.607  24.967  1.00  0.00     0.166 HD
ATOM     44  C   UNL A   1      34.476  15.867  25.069  1.00  0.00     0.026 A 
ATOM     45  C   UNL A   1      32.114  16.278  25.379  1.00  0.00     0.001 A 
ATOM     46  C   UNL A   1      33.179  15.392  25.257  1.00  0.00     0.002 A 
ENDBRANCH  36  37
ENDBRANCH  10  36
ENDBRANCH   7  10
ENDBRANCH   5   6
ENDBRANCH   1   5
BRANCH   3  47
ATOM     47  C   UNL A   1      39.299  21.582  25.761  1.00  0.00     0.117 C 
BRANCH  47  48
ATOM     48  C   UNL A   1      40.610  21.632  26.521  1.00  0.00     0.042 C 
BRANCH  48  49
ATOM     49  C   UNL A   1      40.527  22.573  27.717  1.00  0.00     0.118 C 
BRANCH  49  50
ATOM     50  N   UNL A   1      41.649  23.503  27.751  1.00  0.00    -0.352 N 
ATOM     51  C   UNL A   1      41.805  24.818  27.330  1.00  0.00     0.251 C 
ATOM     52  H   UNL A   1      42.462  23.121  28.155  1.00  0.00     0.163 HD
ATOM     53  O   UNL A   1      42.902  25.318  27.304  1.00  0.00    -0.269 OA
BRANCH  51  54
ATOM     54  C   UNL A   1      40.578  25.652  27.165  1.00  0.00     0.039 A 
ATOM     55  C   UNL A   1      40.808  26.810  26.417  1.00  0.00     0.014 A 
ATOM     56  C   UNL A   1      39.615  25.636  28.159  1.00  0.00     0.014 A 
ATOM     57  C   UNL A   1      40.398  28.026  26.943  1.00  0.00     0.010 A 
ATOM     58  C   UNL A   1      39.332  26.843  28.765  1.00  0.00     0.010 A 
ATOM     59  C   UNL A   1      39.817  28.033  28.207  1.00  0.00    -0.014 A 
BRANCH  59  60
ATOM     60  C   UNL A   1      39.826  29.222  29.053  1.00  0.00     0.031 A 
ATOM     61  C   UNL A   1      38.777  30.246  28.874  1.00  0.00     0.074 A 
ATOM     62  C   UNL A   1      40.778  29.380  30.003  1.00  0.00     0.049 A 
ATOM     63  N   UNL A   1      38.896  31.485  29.212  1.00  0.00    -0.248 NA
ATOM     64  C   UNL A   1      37.511  29.949  28.218  1.00  0.00     0.031 C 
ATOM     65  C   UNL A   1      40.793  30.370  31.079  1.00  0.00     0.029 A 
ATOM     66  N   UNL A   1      42.056  28.796  30.051  1.00  0.00    -0.354 N 
ATOM     67  C   UNL A   1      37.664  32.082  29.060  1.00  0.00     0.074 A 
ATOM     68  C   UNL A   1      36.852  31.095  28.392  1.00  0.00     0.031 C 
ATOM     69  C   UNL A   1      42.057  30.536  31.499  1.00  0.00     0.029 A 
ATOM     70  C   UNL A   1      42.916  29.764  30.615  1.00  0.00     0.049 A 
ATOM     71  H   UNL A   1      42.302  27.891  29.752  1.00  0.00     0.167 HD
ATOM     72  C   UNL A   1      37.435  33.302  29.626  1.00  0.00     0.037 A 
ATOM     73  C   UNL A   1      43.983  30.271  29.932  1.00  0.00     0.037 A 
ATOM     74  C   UNL A   1      38.658  33.854  30.205  1.00  0.00     0.049 A 
ATOM     75  C   UNL A   1      43.923  31.763  29.719  1.00  0.00     0.074 A 
ATOM     76  C   UNL A   1      39.162  33.873  31.496  1.00  0.00     0.029 A 
ATOM     77  N   UNL A   1      39.712  34.212  29.369  1.00  0.00    -0.354 N 
ATOM     78  N   UNL A   1      42.839  32.477  29.854  1.00  0.00    -0.248 NA
ATOM     79  C   UNL A   1      45.070  32.559  29.289  1.00  0.00     0.031 C 
ATOM     80  C   UNL A   1      40.544  34.184  31.427  1.00  0.00     0.029 A 
ATOM     81  C   UNL A   1      40.876  34.375  30.097  1.00  0.00     0.049 A 
ATOM     82  H   UNL A   1      39.640  34.332  28.395  1.00  0.00     0.167 HD
ATOM     83  C   UNL A   1      43.102  33.771  29.488  1.00  0.00     0.074 A 
ATOM     84  C   UNL A   1      44.520  33.779  29.175  1.00  0.00     0.031 C 
ATOM     85  C   UNL A   1      42.126  34.724  29.441  1.00  0.00     0.037 A 
BRANCH  72  86
ATOM     86  C   UNL A   1      36.041  33.809  29.929  1.00  0.00     0.057 A 
ATOM     87  C   UNL A   1      35.193  34.256  28.897  1.00  0.00     0.134 A 
ATOM     88  C   UNL A   1      35.506  33.973  31.219  1.00  0.00     0.134 A 
ATOM     89  F   UNL A   1      35.485  34.050  27.606  1.00  0.00    -0.206 F 
ATOM     90  C   UNL A   1      33.996  34.946  29.135  1.00  0.00     0.040 A 
ATOM     91  C   UNL A   1      34.343  34.715  31.477  1.00  0.00     0.040 A 
ATOM     92  F   UNL A   1      36.050  33.371  32.283  1.00  0.00    -0.206 F 
ATOM     93  C   UNL A   1      33.591  35.224  30.431  1.00  0.00     0.006 A 
ENDBRANCH  72  86
BRANCH  73  94
ATOM     94  C   UNL A   1      44.631  29.313  28.999  1.00  0.00     0.057 A 
ATOM     95  C   UNL A   1      44.329  29.391  27.635  1.00  0.00     0.134 A 
ATOM     96  C   UNL A   1      45.781  28.608  29.346  1.00  0.00     0.134 A 
ATOM     97  F   UNL A   1      43.162  29.906  27.244  1.00  0.00    -0.206 F 
ATOM     98  C   UNL A   1      45.222  28.975  26.646  1.00  0.00     0.040 A 
ATOM     99  C   UNL A   1      46.669  28.143  28.367  1.00  0.00     0.040 A 
ATOM    100  F   UNL A   1      46.121  28.454  30.634  1.00  0.00    -0.206 F 
ATOM    101  C   UNL A   1      46.421  28.382  27.016  1.00  0.00     0.006 A 
ENDBRANCH  73  94
BRANCH  85 102
ATOM    102  C   UNL A   1      42.282  36.096  28.839  1.00  0.00     0.057 A 
ATOM    103  C   UNL A   1      42.933  37.162  29.477  1.00  0.00     0.134 A 
ATOM    104  C   UNL A   1      41.896  36.338  27.503  1.00  0.00     0.134 A 
ATOM    105  F   UNL A   1      43.449  37.032  30.708  1.00  0.00    -0.206 F 
ATOM    106  C   UNL A   1      43.133  38.400  28.853  1.00  0.00     0.040 A 
ATOM    107  C   UNL A   1      42.136  37.552  26.853  1.00  0.00     0.040 A 
ATOM    108  F   UNL A   1      41.290  35.395  26.766  1.00  0.00    -0.206 F 
ATOM    109  C   UNL A   1      42.743  38.596  27.534  1.00  0.00     0.006 A 
ENDBRANCH  85 102
ENDBRANCH  59  60
ENDBRANCH  51  54
ENDBRANCH  49  50
ENDBRANCH  48  49
ENDBRANCH  47  48
ENDBRANCH   3  47
TORSDOF 19
ENDMDL
