MODEL 1
REMARK VINA RESULT:     -11.5      0.000      0.000
REMARK SMILES N#Cc1cc([N+](=O)[O-])cnc1Oc1csc(C(=O)NCCCNC(=O)c2ccc(-c3c4nc(c(-c5c(F)cccc5F)c5ccc([nH]5)c(-c5c(F)cccc5F)c5nc(c(-c6c(F)cccc6F)c6ccc3[nH]6)C=C5)C=C4)cc2)c1
REMARK SMILES IDX 20 1 19 2 17 3 18 4 16 6 13 7 14 8 80 9 15 10 12 11 11 12
REMARK SMILES IDX 3 13 4 14 5 15 10 16 9 17 2 18 1 19 6 20 7 21 8 22 21 23
REMARK SMILES IDX 22 24 23 25 24 26 25 28 26 29 27 30 79 31 28 32 78 33 29 34
REMARK SMILES IDX 30 35 31 36 72 37 32 38 77 39 71 40 73 41 33 42 76 43 70 44
REMARK SMILES IDX 69 45 34 47 60 48 43 49 59 50 44 51 47 52 58 53 74 54 45 55
REMARK SMILES IDX 46 56 57 58 75 59 48 60 35 61 36 62 41 63 37 64 38 65 40 66
REMARK SMILES IDX 42 67 39 68 61 69 62 70 67 71 63 72 64 73 66 74 68 75 65 76
REMARK SMILES IDX 49 77 50 78 55 79 51 80 52 81 54 82 56 83 53 84
REMARK H PARENT 19 5 23 27 73 46 47 57
REMARK Flexibility Score: inf
ROOT
ATOM      1  C   UNL A   1      33.023  27.607  25.125  1.00  0.00     0.118 C 
ENDROOT
BRANCH   1   2
ATOM      2  N   UNL A   1      33.501  27.323  23.786  1.00  0.00    -0.351 N 
ATOM      3  C   UNL A   1      33.450  26.191  23.009  1.00  0.00     0.261 C 
ATOM      4  O   UNL A   1      33.863  26.331  21.855  1.00  0.00    -0.268 OA
ATOM      5  H   UNL A   1      33.946  28.087  23.351  1.00  0.00     0.163 HD
BRANCH   3   6
ATOM      6  C   UNL A   1      32.917  24.942  23.529  1.00  0.00     0.096 A 
ATOM      7  C   UNL A   1      32.556  22.929  24.646  1.00  0.00     0.141 A 
ATOM      8  C   UNL A   1      31.341  23.083  24.028  1.00  0.00     0.112 A 
ATOM      9  C   UNL A   1      33.467  23.976  24.353  1.00  0.00     0.072 A 
ATOM     10  S   UNL A   1      31.320  24.487  23.054  1.00  0.00    -0.135 S 
BRANCH   7  11
ATOM     11  O   UNL A   1      32.813  21.940  25.520  1.00  0.00    -0.437 OA
BRANCH  11  12
ATOM     12  C   UNL A   1      33.262  20.694  25.173  1.00  0.00     0.237 A 
ATOM     13  C   UNL A   1      34.583  20.263  25.044  1.00  0.00     0.121 A 
ATOM     14  C   UNL A   1      34.814  18.952  24.596  1.00  0.00     0.112 A 
ATOM     15  C   UNL A   1      33.732  18.112  24.330  1.00  0.00     0.289 A 
ATOM     16  N   UNL A   1      32.211  19.858  24.942  1.00  0.00    -0.213 NA
ATOM     17  C   UNL A   1      32.455  18.591  24.535  1.00  0.00     0.200 A 
BRANCH  13  18
ATOM     18  C   UNL A   1      35.735  21.048  25.360  1.00  0.00     0.105 C 
ATOM     19  N   UNL A   1      36.689  21.682  25.546  1.00  0.00    -0.192 NA
ENDBRANCH  13  18
BRANCH  15  20
ATOM     20  N   UNL A   1      33.934  16.760  23.835  1.00  0.00     0.064 N 
ATOM     21  O   UNL A   1      33.833  16.573  22.615  1.00  0.00    -0.258 OA
ATOM     22  O   UNL A   1      34.198  15.883  24.667  1.00  0.00    -0.258 OA
ENDBRANCH  15  20
ENDBRANCH  11  12
ENDBRANCH   7  11
ENDBRANCH   3   6
ENDBRANCH   1   2
BRANCH   1  23
ATOM     23  C   UNL A   1      33.708  28.842  25.702  1.00  0.00     0.042 C 
BRANCH  23  24
ATOM     24  C   UNL A   1      33.838  28.788  27.224  1.00  0.00     0.118 C 
BRANCH  24  25
ATOM     25  N   UNL A   1      33.858  30.122  27.816  1.00  0.00    -0.352 N 
ATOM     26  C   UNL A   1      34.798  30.730  28.606  1.00  0.00     0.251 C 
ATOM     27  H   UNL A   1      33.068  30.674  27.615  1.00  0.00     0.163 HD
ATOM     28  O   UNL A   1      34.508  31.751  29.222  1.00  0.00    -0.269 OA
BRANCH  26  29
ATOM     29  C   UNL A   1      36.154  30.160  28.723  1.00  0.00     0.039 A 
ATOM     30  C   UNL A   1      37.031  30.268  27.640  1.00  0.00     0.014 A 
ATOM     31  C   UNL A   1      36.552  29.500  29.887  1.00  0.00     0.014 A 
ATOM     32  C   UNL A   1      38.333  29.780  27.755  1.00  0.00     0.010 A 
ATOM     33  C   UNL A   1      37.872  29.088  30.031  1.00  0.00     0.010 A 
ATOM     34  C   UNL A   1      38.777  29.230  28.969  1.00  0.00    -0.014 A 
BRANCH  34  35
ATOM     35  C   UNL A   1      40.192  28.829  29.165  1.00  0.00     0.031 A 
ATOM     36  C   UNL A   1      41.191  29.814  29.701  1.00  0.00     0.074 A 
ATOM     37  C   UNL A   1      40.587  27.600  28.781  1.00  0.00     0.049 A 
ATOM     38  N   UNL A   1      42.486  29.684  29.837  1.00  0.00    -0.248 NA
ATOM     39  C   UNL A   1      40.671  31.125  30.119  1.00  0.00     0.031 C 
ATOM     40  C   UNL A   1      39.714  26.566  28.219  1.00  0.00     0.029 A 
ATOM     41  N   UNL A   1      41.828  27.015  28.789  1.00  0.00    -0.354 N 
ATOM     42  C   UNL A   1      42.935  30.894  30.349  1.00  0.00     0.074 A 
ATOM     43  C   UNL A   1      41.783  31.766  30.445  1.00  0.00     0.031 C 
ATOM     44  C   UNL A   1      40.441  25.470  27.956  1.00  0.00     0.029 A 
ATOM     45  C   UNL A   1      41.839  25.741  28.274  1.00  0.00     0.049 A 
ATOM     46  H   UNL A   1      42.634  27.465  29.130  1.00  0.00     0.167 HD
ATOM     47  C   UNL A   1      44.189  31.240  30.723  1.00  0.00     0.037 A 
ATOM     48  C   UNL A   1      42.864  24.895  28.057  1.00  0.00     0.037 A 
ATOM     49  C   UNL A   1      45.329  30.366  30.623  1.00  0.00     0.049 A 
ATOM     50  C   UNL A   1      44.258  25.331  28.420  1.00  0.00     0.074 A 
ATOM     51  C   UNL A   1      46.635  30.608  31.013  1.00  0.00     0.029 A 
ATOM     52  N   UNL A   1      45.303  29.088  30.085  1.00  0.00    -0.354 N 
ATOM     53  N   UNL A   1      44.659  26.454  28.965  1.00  0.00    -0.248 NA
ATOM     54  C   UNL A   1      45.343  24.381  28.135  1.00  0.00     0.031 C 
ATOM     55  C   UNL A   1      47.411  29.504  30.649  1.00  0.00     0.029 A 
ATOM     56  C   UNL A   1      46.577  28.545  30.097  1.00  0.00     0.049 A 
ATOM     57  H   UNL A   1      44.498  28.634  29.746  1.00  0.00     0.167 HD
ATOM     58  C   UNL A   1      46.034  26.334  29.115  1.00  0.00     0.074 A 
ATOM     59  C   UNL A   1      46.396  25.021  28.626  1.00  0.00     0.031 C 
ATOM     60  C   UNL A   1      46.921  27.233  29.610  1.00  0.00     0.037 A 
BRANCH  47  61
ATOM     61  C   UNL A   1      44.398  32.625  31.269  1.00  0.00     0.057 A 
ATOM     62  C   UNL A   1      44.646  33.721  30.432  1.00  0.00     0.134 A 
ATOM     63  C   UNL A   1      44.303  32.874  32.644  1.00  0.00     0.134 A 
ATOM     64  F   UNL A   1      44.758  33.553  29.105  1.00  0.00    -0.206 F 
ATOM     65  C   UNL A   1      44.818  35.008  30.944  1.00  0.00     0.040 A 
ATOM     66  C   UNL A   1      44.441  34.161  33.166  1.00  0.00     0.040 A 
ATOM     67  F   UNL A   1      44.059  31.872  33.503  1.00  0.00    -0.206 F 
ATOM     68  C   UNL A   1      44.706  35.232  32.315  1.00  0.00     0.006 A 
ENDBRANCH  47  61
BRANCH  48  69
ATOM     69  C   UNL A   1      42.621  23.555  27.461  1.00  0.00     0.057 A 
ATOM     70  C   UNL A   1      42.705  23.353  26.079  1.00  0.00     0.134 A 
ATOM     71  C   UNL A   1      42.269  22.452  28.251  1.00  0.00     0.134 A 
ATOM     72  F   UNL A   1      43.021  24.372  25.266  1.00  0.00    -0.206 F 
ATOM     73  C   UNL A   1      42.416  22.116  25.500  1.00  0.00     0.040 A 
ATOM     74  C   UNL A   1      42.011  21.202  27.689  1.00  0.00     0.040 A 
ATOM     75  F   UNL A   1      42.179  22.574  29.584  1.00  0.00    -0.206 F 
ATOM     76  C   UNL A   1      42.071  21.034  26.308  1.00  0.00     0.006 A 
ENDBRANCH  48  69
BRANCH  60  77
ATOM     77  C   UNL A   1      48.364  26.816  29.676  1.00  0.00     0.057 A 
ATOM     78  C   UNL A   1      48.885  26.123  30.776  1.00  0.00     0.134 A 
ATOM     79  C   UNL A   1      49.229  27.068  28.604  1.00  0.00     0.134 A 
ATOM     80  F   UNL A   1      48.114  25.860  31.843  1.00  0.00    -0.206 F 
ATOM     81  C   UNL A   1      50.220  25.718  30.817  1.00  0.00     0.040 A 
ATOM     82  C   UNL A   1      50.556  26.638  28.618  1.00  0.00     0.040 A 
ATOM     83  F   UNL A   1      48.793  27.719  27.514  1.00  0.00    -0.206 F 
ATOM     84  C   UNL A   1      51.057  25.967  29.731  1.00  0.00     0.006 A 
ENDBRANCH  60  77
ENDBRANCH  34  35
ENDBRANCH  26  29
ENDBRANCH  24  25
ENDBRANCH  23  24
ENDBRANCH   1  23
TORSDOF 14
ENDMDL
MODEL 2
REMARK VINA RESULT:     -11.4      2.625      7.749
REMARK SMILES N#Cc1cc([N+](=O)[O-])cnc1Oc1csc(C(=O)NCCCNC(=O)c2ccc(-c3c4nc(c(-c5c(F)cccc5F)c5ccc([nH]5)c(-c5c(F)cccc5F)c5nc(c(-c6c(F)cccc6F)c6ccc3[nH]6)C=C5)C=C4)cc2)c1
REMARK SMILES IDX 20 1 19 2 17 3 18 4 16 6 13 7 14 8 80 9 15 10 12 11 11 12
REMARK SMILES IDX 3 13 4 14 5 15 10 16 9 17 2 18 1 19 6 20 7 21 8 22 21 23
REMARK SMILES IDX 22 24 23 25 24 26 25 28 26 29 27 30 79 31 28 32 78 33 29 34
REMARK SMILES IDX 30 35 31 36 72 37 32 38 77 39 71 40 73 41 33 42 76 43 70 44
REMARK SMILES IDX 69 45 34 47 60 48 43 49 59 50 44 51 47 52 58 53 74 54 45 55
REMARK SMILES IDX 46 56 57 58 75 59 48 60 35 61 36 62 41 63 37 64 38 65 40 66
REMARK SMILES IDX 42 67 39 68 61 69 62 70 67 71 63 72 64 73 66 74 68 75 65 76
REMARK SMILES IDX 49 77 50 78 55 79 51 80 52 81 54 82 56 83 53 84
REMARK H PARENT 19 5 23 27 73 46 47 57
REMARK Flexibility Score: inf
ROOT
ATOM      1  C   UNL A   1      36.463  20.809  25.037  1.00  0.00     0.118 C 
ENDROOT
BRANCH   1   2
ATOM      2  N   UNL A   1      35.286  20.012  25.322  1.00  0.00    -0.351 N 
ATOM      3  C   UNL A   1      33.949  20.224  25.083  1.00  0.00     0.261 C 
ATOM      4  O   UNL A   1      33.212  19.275  25.362  1.00  0.00    -0.268 OA
ATOM      5  H   UNL A   1      35.481  19.158  25.771  1.00  0.00     0.163 HD
BRANCH   3   6
ATOM      6  C   UNL A   1      33.473  21.477  24.518  1.00  0.00     0.096 A 
ATOM      7  C   UNL A   1      32.997  23.708  24.045  1.00  0.00     0.141 A 
ATOM      8  C   UNL A   1      32.425  23.104  22.955  1.00  0.00     0.112 A 
ATOM      9  C   UNL A   1      33.582  22.786  24.951  1.00  0.00     0.072 A 
ATOM     10  S   UNL A   1      32.563  21.403  23.051  1.00  0.00    -0.135 S 
BRANCH   7  11
ATOM     11  O   UNL A   1      33.083  25.043  24.182  1.00  0.00    -0.437 OA
BRANCH  11  12
ATOM     12  C   UNL A   1      32.055  25.916  23.948  1.00  0.00     0.237 A 
ATOM     13  C   UNL A   1      30.834  26.005  24.619  1.00  0.00     0.121 A 
ATOM     14  C   UNL A   1      29.885  26.931  24.154  1.00  0.00     0.112 A 
ATOM     15  C   UNL A   1      30.196  27.753  23.071  1.00  0.00     0.289 A 
ATOM     16  N   UNL A   1      32.362  26.744  22.910  1.00  0.00    -0.213 NA
ATOM     17  C   UNL A   1      31.444  27.647  22.493  1.00  0.00     0.200 A 
BRANCH  13  18
ATOM     18  C   UNL A   1      30.476  25.240  25.772  1.00  0.00     0.105 C 
ATOM     19  N   UNL A   1      30.253  24.593  26.710  1.00  0.00    -0.192 NA
ENDBRANCH  13  18
BRANCH  15  20
ATOM     20  N   UNL A   1      29.227  28.699  22.543  1.00  0.00     0.064 N 
ATOM     21  O   UNL A   1      29.599  29.461  21.641  1.00  0.00    -0.258 OA
ATOM     22  O   UNL A   1      28.089  28.679  23.029  1.00  0.00    -0.258 OA
ENDBRANCH  15  20
ENDBRANCH  11  12
ENDBRANCH   7  11
ENDBRANCH   3   6
ENDBRANCH   1   2
BRANCH   1  23
ATOM     23  C   UNL A   1      37.691  19.924  24.844  1.00  0.00     0.042 C 
BRANCH  23  24
ATOM     24  C   UNL A   1      38.861  20.335  25.737  1.00  0.00     0.118 C 
BRANCH  24  25
ATOM     25  N   UNL A   1      39.856  19.274  25.853  1.00  0.00    -0.352 N 
ATOM     26  C   UNL A   1      41.217  19.343  25.999  1.00  0.00     0.251 C 
ATOM     27  H   UNL A   1      39.490  18.361  25.822  1.00  0.00     0.163 HD
ATOM     28  O   UNL A   1      41.902  18.343  25.807  1.00  0.00    -0.269 OA
BRANCH  26  29
ATOM     29  C   UNL A   1      41.862  20.614  26.380  1.00  0.00     0.039 A 
ATOM     30  C   UNL A   1      42.269  21.496  25.375  1.00  0.00     0.014 A 
ATOM     31  C   UNL A   1      42.085  20.926  27.723  1.00  0.00     0.014 A 
ATOM     32  C   UNL A   1      42.832  22.725  25.722  1.00  0.00     0.010 A 
ATOM     33  C   UNL A   1      42.570  22.182  28.069  1.00  0.00     0.010 A 
ATOM     34  C   UNL A   1      42.942  23.096  27.072  1.00  0.00    -0.014 A 
BRANCH  34  35
ATOM     35  C   UNL A   1      43.409  24.448  27.468  1.00  0.00     0.031 A 
ATOM     36  C   UNL A   1      42.419  25.498  27.886  1.00  0.00     0.074 A 
ATOM     37  C   UNL A   1      44.718  24.747  27.369  1.00  0.00     0.049 A 
ATOM     38  N   UNL A   1      42.624  26.761  28.159  1.00  0.00    -0.248 NA
ATOM     39  C   UNL A   1      41.013  25.080  27.990  1.00  0.00     0.031 C 
ATOM     40  C   UNL A   1      45.770  23.819  26.947  1.00  0.00     0.029 A 
ATOM     41  N   UNL A   1      45.388  25.922  27.602  1.00  0.00    -0.354 N 
ATOM     42  C   UNL A   1      41.375  27.289  28.461  1.00  0.00     0.074 A 
ATOM     43  C   UNL A   1      40.412  26.224  28.282  1.00  0.00     0.031 C 
ATOM     44  C   UNL A   1      46.952  24.453  26.969  1.00  0.00     0.029 A 
ATOM     45  C   UNL A   1      46.737  25.844  27.350  1.00  0.00     0.049 A 
ATOM     46  H   UNL A   1      44.945  26.741  27.918  1.00  0.00     0.167 HD
ATOM     47  C   UNL A   1      41.064  28.541  28.869  1.00  0.00     0.037 A 
ATOM     48  C   UNL A   1      47.690  26.795  27.396  1.00  0.00     0.037 A 
ATOM     49  C   UNL A   1      42.029  29.595  29.044  1.00  0.00     0.049 A 
ATOM     50  C   UNL A   1      47.304  28.196  27.788  1.00  0.00     0.074 A 
ATOM     51  C   UNL A   1      41.820  30.888  29.493  1.00  0.00     0.029 A 
ATOM     52  N   UNL A   1      43.384  29.482  28.768  1.00  0.00    -0.354 N 
ATOM     53  N   UNL A   1      46.130  28.665  28.135  1.00  0.00    -0.248 NA
ATOM     54  C   UNL A   1      48.377  29.200  27.793  1.00  0.00     0.031 C 
ATOM     55  C   UNL A   1      43.035  31.576  29.423  1.00  0.00     0.029 A 
ATOM     56  C   UNL A   1      44.015  30.693  28.999  1.00  0.00     0.049 A 
ATOM     57  H   UNL A   1      43.830  28.663  28.455  1.00  0.00     0.167 HD
ATOM     58  C   UNL A   1      46.328  30.008  28.427  1.00  0.00     0.074 A 
ATOM     59  C   UNL A   1      47.738  30.273  28.239  1.00  0.00     0.031 C 
ATOM     60  C   UNL A   1      45.422  30.941  28.812  1.00  0.00     0.037 A 
BRANCH  47  61
ATOM     61  C   UNL A   1      39.619  28.845  29.149  1.00  0.00     0.057 A 
ATOM     62  C   UNL A   1      38.743  29.269  28.141  1.00  0.00     0.134 A 
ATOM     63  C   UNL A   1      39.085  28.666  30.432  1.00  0.00     0.134 A 
ATOM     64  F   UNL A   1      39.189  29.469  26.891  1.00  0.00    -0.206 F 
ATOM     65  C   UNL A   1      37.397  29.530  28.403  1.00  0.00     0.040 A 
ATOM     66  C   UNL A   1      37.734  28.891  30.700  1.00  0.00     0.040 A 
ATOM     67  F   UNL A   1      39.864  28.254  31.443  1.00  0.00    -0.206 F 
ATOM     68  C   UNL A   1      36.887  29.332  29.685  1.00  0.00     0.006 A 
ENDBRANCH  47  61
BRANCH  48  69
ATOM     69  C   UNL A   1      49.098  26.465  27.056  1.00  0.00     0.057 A 
ATOM     70  C   UNL A   1      49.562  26.547  25.738  1.00  0.00     0.134 A 
ATOM     71  C   UNL A   1      50.007  26.030  28.030  1.00  0.00     0.134 A 
ATOM     72  F   UNL A   1      48.737  26.941  24.755  1.00  0.00    -0.206 F 
ATOM     73  C   UNL A   1      50.864  26.179  25.394  1.00  0.00     0.040 A 
ATOM     74  C   UNL A   1      51.321  25.692  27.705  1.00  0.00     0.040 A 
ATOM     75  F   UNL A   1      49.632  25.938  29.315  1.00  0.00    -0.206 F 
ATOM     76  C   UNL A   1      51.749  25.753  26.382  1.00  0.00     0.006 A 
ENDBRANCH  48  69
BRANCH  60  77
ATOM     77  C   UNL A   1      45.933  32.328  29.086  1.00  0.00     0.057 A 
ATOM     78  C   UNL A   1      46.378  32.716  30.356  1.00  0.00     0.134 A 
ATOM     79  C   UNL A   1      46.026  33.271  28.054  1.00  0.00     0.134 A 
ATOM     80  F   UNL A   1      46.305  31.866  31.393  1.00  0.00    -0.206 F 
ATOM     81  C   UNL A   1      46.874  33.999  30.595  1.00  0.00     0.040 A 
ATOM     82  C   UNL A   1      46.552  34.545  28.273  1.00  0.00     0.040 A 
ATOM     83  F   UNL A   1      45.627  32.962  26.810  1.00  0.00    -0.206 F 
ATOM     84  C   UNL A   1      46.971  34.914  29.548  1.00  0.00     0.006 A 
ENDBRANCH  60  77
ENDBRANCH  34  35
ENDBRANCH  26  29
ENDBRANCH  24  25
ENDBRANCH  23  24
ENDBRANCH   1  23
TORSDOF 14
ENDMDL
MODEL 3
REMARK VINA RESULT:     -11.4      2.563      7.880
REMARK SMILES N#Cc1cc([N+](=O)[O-])cnc1Oc1csc(C(=O)NCCCNC(=O)c2ccc(-c3c4nc(c(-c5c(F)cccc5F)c5ccc([nH]5)c(-c5c(F)cccc5F)c5nc(c(-c6c(F)cccc6F)c6ccc3[nH]6)C=C5)C=C4)cc2)c1
REMARK SMILES IDX 20 1 19 2 17 3 18 4 16 6 13 7 14 8 80 9 15 10 12 11 11 12
REMARK SMILES IDX 3 13 4 14 5 15 10 16 9 17 2 18 1 19 6 20 7 21 8 22 21 23
REMARK SMILES IDX 22 24 23 25 24 26 25 28 26 29 27 30 79 31 28 32 78 33 29 34
REMARK SMILES IDX 30 35 31 36 72 37 32 38 77 39 71 40 73 41 33 42 76 43 70 44
REMARK SMILES IDX 69 45 34 47 60 48 43 49 59 50 44 51 47 52 58 53 74 54 45 55
REMARK SMILES IDX 46 56 57 58 75 59 48 60 35 61 36 62 41 63 37 64 38 65 40 66
REMARK SMILES IDX 42 67 39 68 61 69 62 70 67 71 63 72 64 73 66 74 68 75 65 76
REMARK SMILES IDX 49 77 50 78 55 79 51 80 52 81 54 82 56 83 53 84
REMARK H PARENT 19 5 23 27 73 46 47 57
REMARK Flexibility Score: inf
ROOT
ATOM      1  C   UNL A   1      36.686  20.761  24.972  1.00  0.00     0.118 C 
ENDROOT
BRANCH   1   2
ATOM      2  N   UNL A   1      35.380  20.133  25.003  1.00  0.00    -0.351 N 
ATOM      3  C   UNL A   1      34.110  20.649  25.105  1.00  0.00     0.261 C 
ATOM      4  O   UNL A   1      33.200  19.825  24.988  1.00  0.00    -0.268 OA
ATOM      5  H   UNL A   1      35.407  19.151  24.937  1.00  0.00     0.163 HD
BRANCH   3   6
ATOM      6  C   UNL A   1      33.888  22.072  25.309  1.00  0.00     0.096 A 
ATOM      7  C   UNL A   1      33.749  24.390  25.114  1.00  0.00     0.141 A 
ATOM      8  C   UNL A   1      33.122  24.212  26.320  1.00  0.00     0.112 A 
ATOM      9  C   UNL A   1      34.205  23.176  24.538  1.00  0.00     0.072 A 
ATOM     10  S   UNL A   1      33.122  22.565  26.777  1.00  0.00    -0.135 S 
BRANCH   7  11
ATOM     11  O   UNL A   1      33.827  25.583  24.497  1.00  0.00    -0.437 OA
BRANCH  11  12
ATOM     12  C   UNL A   1      32.780  26.206  23.875  1.00  0.00     0.237 A 
ATOM     13  C   UNL A   1      32.317  26.013  22.572  1.00  0.00     0.121 A 
ATOM     14  C   UNL A   1      31.268  26.826  22.112  1.00  0.00     0.112 A 
ATOM     15  C   UNL A   1      30.698  27.768  22.968  1.00  0.00     0.289 A 
ATOM     16  N   UNL A   1      32.197  27.107  24.715  1.00  0.00    -0.213 NA
ATOM     17  C   UNL A   1      31.171  27.863  24.260  1.00  0.00     0.200 A 
BRANCH  13  18
ATOM     18  C   UNL A   1      32.811  25.024  21.666  1.00  0.00     0.105 C 
ATOM     19  N   UNL A   1      33.278  24.252  20.936  1.00  0.00    -0.192 NA
ENDBRANCH  13  18
BRANCH  15  20
ATOM     20  N   UNL A   1      29.633  28.648  22.514  1.00  0.00     0.064 N 
ATOM     21  O   UNL A   1      29.902  29.468  21.626  1.00  0.00    -0.258 OA
ATOM     22  O   UNL A   1      28.523  28.517  23.044  1.00  0.00    -0.258 OA
ENDBRANCH  15  20
ENDBRANCH  11  12
ENDBRANCH   7  11
ENDBRANCH   3   6
ENDBRANCH   1   2
BRANCH   1  23
ATOM     23  C   UNL A   1      37.798  19.717  25.001  1.00  0.00     0.042 C 
BRANCH  23  24
ATOM     24  C   UNL A   1      39.041  20.200  25.749  1.00  0.00     0.118 C 
BRANCH  24  25
ATOM     25  N   UNL A   1      40.057  19.157  25.844  1.00  0.00    -0.352 N 
ATOM     26  C   UNL A   1      41.418  19.251  25.981  1.00  0.00     0.251 C 
ATOM     27  H   UNL A   1      39.709  18.237  25.805  1.00  0.00     0.163 HD
ATOM     28  O   UNL A   1      42.120  18.266  25.772  1.00  0.00    -0.269 OA
BRANCH  26  29
ATOM     29  C   UNL A   1      42.040  20.530  26.372  1.00  0.00     0.039 A 
ATOM     30  C   UNL A   1      42.507  21.390  25.375  1.00  0.00     0.014 A 
ATOM     31  C   UNL A   1      42.185  20.869  27.719  1.00  0.00     0.014 A 
ATOM     32  C   UNL A   1      43.050  22.626  25.729  1.00  0.00     0.010 A 
ATOM     33  C   UNL A   1      42.650  22.132  28.067  1.00  0.00     0.010 A 
ATOM     34  C   UNL A   1      43.081  23.025  27.075  1.00  0.00    -0.014 A 
BRANCH  34  35
ATOM     35  C   UNL A   1      43.525  24.385  27.469  1.00  0.00     0.031 A 
ATOM     36  C   UNL A   1      42.519  25.419  27.889  1.00  0.00     0.074 A 
ATOM     37  C   UNL A   1      44.829  24.707  27.368  1.00  0.00     0.049 A 
ATOM     38  N   UNL A   1      42.703  26.685  28.161  1.00  0.00    -0.248 NA
ATOM     39  C   UNL A   1      41.120  24.976  27.996  1.00  0.00     0.031 C 
ATOM     40  C   UNL A   1      45.896  23.796  26.943  1.00  0.00     0.029 A 
ATOM     41  N   UNL A   1      45.480  25.893  27.598  1.00  0.00    -0.354 N 
ATOM     42  C   UNL A   1      41.446  27.192  28.465  1.00  0.00     0.074 A 
ATOM     43  C   UNL A   1      40.500  26.110  28.288  1.00  0.00     0.031 C 
ATOM     44  C   UNL A   1      47.067  24.451  26.964  1.00  0.00     0.029 A 
ATOM     45  C   UNL A   1      46.829  25.838  27.344  1.00  0.00     0.049 A 
ATOM     46  H   UNL A   1      45.023  26.705  27.916  1.00  0.00     0.167 HD
ATOM     47  C   UNL A   1      41.114  28.438  28.874  1.00  0.00     0.037 A 
ATOM     48  C   UNL A   1      47.766  26.805  27.388  1.00  0.00     0.037 A 
ATOM     49  C   UNL A   1      42.061  29.509  29.046  1.00  0.00     0.049 A 
ATOM     50  C   UNL A   1      47.357  28.200  27.780  1.00  0.00     0.074 A 
ATOM     51  C   UNL A   1      41.831  30.798  29.495  1.00  0.00     0.029 A 
ATOM     52  N   UNL A   1      43.417  29.419  28.767  1.00  0.00    -0.354 N 
ATOM     53  N   UNL A   1      46.175  28.649  28.129  1.00  0.00    -0.248 NA
ATOM     54  C   UNL A   1      48.412  29.222  27.782  1.00  0.00     0.031 C 
ATOM     55  C   UNL A   1      43.034  31.507  29.422  1.00  0.00     0.029 A 
ATOM     56  C   UNL A   1      44.028  30.641  28.996  1.00  0.00     0.049 A 
ATOM     57  H   UNL A   1      43.877  28.607  28.453  1.00  0.00     0.167 HD
ATOM     58  C   UNL A   1      46.351  29.995  28.420  1.00  0.00     0.074 A 
ATOM     59  C   UNL A   1      47.756  30.284  28.229  1.00  0.00     0.031 C 
ATOM     60  C   UNL A   1      45.430  30.913  28.806  1.00  0.00     0.037 A 
BRANCH  47  61
ATOM     61  C   UNL A   1      39.664  28.718  29.156  1.00  0.00     0.057 A 
ATOM     62  C   UNL A   1      39.117  28.565  30.437  1.00  0.00     0.134 A 
ATOM     63  C   UNL A   1      38.817  29.193  28.147  1.00  0.00     0.134 A 
ATOM     64  F   UNL A   1      39.870  28.107  31.449  1.00  0.00    -0.206 F 
ATOM     65  C   UNL A   1      37.775  28.847  30.698  1.00  0.00     0.040 A 
ATOM     66  C   UNL A   1      37.481  29.510  28.401  1.00  0.00     0.040 A 
ATOM     67  F   UNL A   1      39.276  29.371  26.899  1.00  0.00    -0.206 F 
ATOM     68  C   UNL A   1      36.955  29.330  29.679  1.00  0.00     0.006 A 
ENDBRANCH  47  61
BRANCH  48  69
ATOM     69  C   UNL A   1      49.179  26.499  27.045  1.00  0.00     0.057 A 
ATOM     70  C   UNL A   1      49.635  26.575  25.724  1.00  0.00     0.134 A 
ATOM     71  C   UNL A   1      50.101  26.094  28.020  1.00  0.00     0.134 A 
ATOM     72  F   UNL A   1      48.798  26.940  24.741  1.00  0.00    -0.206 F 
ATOM     73  C   UNL A   1      50.942  26.228  25.378  1.00  0.00     0.040 A 
ATOM     74  C   UNL A   1      51.420  25.778  27.693  1.00  0.00     0.040 A 
ATOM     75  F   UNL A   1      49.733  26.009  29.307  1.00  0.00    -0.206 F 
ATOM     76  C   UNL A   1      51.840  25.831  26.367  1.00  0.00     0.006 A 
ENDBRANCH  48  69
BRANCH  60  77
ATOM     77  C   UNL A   1      45.918  32.308  29.079  1.00  0.00     0.057 A 
ATOM     78  C   UNL A   1      45.889  33.308  28.099  1.00  0.00     0.134 A 
ATOM     79  C   UNL A   1      46.377  32.666  30.353  1.00  0.00     0.134 A 
ATOM     80  F   UNL A   1      45.474  33.029  26.853  1.00  0.00    -0.206 F 
ATOM     81  C   UNL A   1      46.322  34.607  28.370  1.00  0.00     0.040 A 
ATOM     82  C   UNL A   1      46.779  33.971  30.645  1.00  0.00     0.040 A 
ATOM     83  F   UNL A   1      46.421  31.761  31.343  1.00  0.00    -0.206 F 
ATOM     84  C   UNL A   1      46.758  34.944  29.649  1.00  0.00     0.006 A 
ENDBRANCH  60  77
ENDBRANCH  34  35
ENDBRANCH  26  29
ENDBRANCH  24  25
ENDBRANCH  23  24
ENDBRANCH   1  23
TORSDOF 14
ENDMDL
