MODEL 1
REMARK VINA RESULT:     -13.0      0.000      0.000
REMARK SMILES O=C1NC(=O)/C(=C/c2ccc(OCc3cn(-c4ccc(C(=O)NCCCNC(=O)c5ccc(-c6c7nc(c(-c8c(F)cccc8F)c8ccc([nH]8)c(-c8c(F)cccc8F)c8nc(c(-c9c(F)cccc9F)c9ccc6[nH]9)C=C8)C=C7)cc5)cc4)nn3)cc2)S1
REMARK SMILES IDX 21 1 22 2 23 3 20 5 17 6 18 7 85 8 19 9 84 10 16 11 14 12
REMARK SMILES IDX 15 13 87 14 86 15 13 16 12 17 11 18 8 19 9 20 89 21 10 22
REMARK SMILES IDX 88 23 7 24 1 25 2 26 3 27 90 28 4 29 6 31 5 32 24 33 25 34
REMARK SMILES IDX 26 35 27 36 28 37 29 39 30 40 31 41 83 42 32 43 82 44 33 45
REMARK SMILES IDX 34 46 35 47 76 48 36 49 81 50 75 51 77 52 37 53 80 54 74 55
REMARK SMILES IDX 73 56 38 58 64 59 47 60 63 61 48 62 51 63 62 64 78 65 49 66
REMARK SMILES IDX 50 67 61 69 79 70 52 71 39 72 40 73 45 74 41 75 42 76 44 77
REMARK SMILES IDX 46 78 43 79 65 80 66 81 71 82 67 83 68 84 70 85 72 86 69 87
REMARK SMILES IDX 53 88 54 89 59 90 55 91 56 92 58 93 60 94 57 95
REMARK H PARENT 23 4 3 30 27 38 77 57 51 68
REMARK Flexibility Score: inf
ROOT
ATOM      1  C   UNL A   1      35.160  34.239  28.948  1.00  0.00     0.251 C 
ATOM      2  O   UNL A   1      36.384  34.156  29.031  1.00  0.00    -0.269 OA
ATOM      3  N   UNL A   1      34.567  35.417  29.339  1.00  0.00    -0.352 N 
ATOM      4  H   UNL A   1      35.194  36.080  29.709  1.00  0.00     0.163 HD
ENDROOT
BRANCH   1   5
ATOM      5  C   UNL A   1      34.387  33.099  28.380  1.00  0.00     0.039 A 
ATOM      6  C   UNL A   1      33.103  30.944  27.135  1.00  0.00     0.066 A 
ATOM      7  C   UNL A   1      34.373  30.766  27.697  1.00  0.00     0.029 A 
ATOM      8  C   UNL A   1      32.441  32.160  27.262  1.00  0.00     0.029 A 
ATOM      9  C   UNL A   1      35.023  31.853  28.288  1.00  0.00     0.016 A 
ATOM     10  C   UNL A   1      33.066  33.201  27.936  1.00  0.00     0.016 A 
BRANCH   6  11
ATOM     11  N   UNL A   1      32.474  29.890  26.454  1.00  0.00    -0.220 N 
ATOM     12  C   UNL A   1      31.640  28.542  24.961  1.00  0.00     0.120 A 
ATOM     13  C   UNL A   1      32.411  29.675  25.096  1.00  0.00     0.144 A 
ATOM     14  N   UNL A   1      31.307  28.095  26.214  1.00  0.00    -0.131 NA
ATOM     15  N   UNL A   1      31.847  28.899  27.112  1.00  0.00    -0.062 NA
BRANCH  12  16
ATOM     16  C   UNL A   1      31.267  27.756  23.747  1.00  0.00     0.289 C 
BRANCH  16  17
ATOM     17  O   UNL A   1      32.366  27.249  22.969  1.00  0.00    -0.487 OA
BRANCH  17  18
ATOM     18  C   UNL A   1      32.812  25.980  23.218  1.00  0.00     0.119 A 
ATOM     19  C   UNL A   1      34.082  23.564  23.885  1.00  0.00    -0.024 A 
ATOM     20  C   UNL A   1      33.884  24.544  24.859  1.00  0.00     0.012 A 
ATOM     21  C   UNL A   1      33.552  23.759  22.608  1.00  0.00     0.012 A 
ATOM     22  C   UNL A   1      33.258  25.750  24.522  1.00  0.00     0.047 A 
ATOM     23  C   UNL A   1      32.887  24.944  22.292  1.00  0.00     0.047 A 
BRANCH  19  24
ATOM     24  C   UNL A   1      34.815  22.332  24.190  1.00  0.00     0.029 C 
ATOM     25  O   UNL A   1      32.077  18.281  25.394  1.00  0.00    -0.261 OA
ATOM     26  C   UNL A   1      32.922  19.116  25.145  1.00  0.00     0.290 C 
ATOM     27  N   UNL A   1      34.267  18.939  25.235  1.00  0.00    -0.282 N 
ATOM     28  S   UNL A   1      32.582  20.750  24.606  1.00  0.00    -0.022 SA
ATOM     29  C   UNL A   1      35.077  19.983  24.908  1.00  0.00     0.265 C 
ATOM     30  H   UNL A   1      34.646  18.079  25.528  1.00  0.00     0.174 HD
ATOM     31  C   UNL A   1      34.257  21.161  24.522  1.00  0.00     0.083 C 
ATOM     32  O   UNL A   1      36.298  19.953  24.943  1.00  0.00    -0.268 OA
ENDBRANCH  19  24
ENDBRANCH  17  18
ENDBRANCH  16  17
ENDBRANCH  12  16
ENDBRANCH   6  11
ENDBRANCH   1   5
BRANCH   3  33
ATOM     33  C   UNL A   1      33.180  35.863  29.305  1.00  0.00     0.118 C 
BRANCH  33  34
ATOM     34  C   UNL A   1      32.721  36.415  30.667  1.00  0.00     0.042 C 
BRANCH  34  35
ATOM     35  C   UNL A   1      33.677  36.041  31.775  1.00  0.00     0.118 C 
BRANCH  35  36
ATOM     36  N   UNL A   1      33.117  35.041  32.697  1.00  0.00    -0.352 N 
ATOM     37  C   UNL A   1      33.569  33.755  32.957  1.00  0.00     0.251 C 
ATOM     38  H   UNL A   1      32.315  35.322  33.196  1.00  0.00     0.163 HD
ATOM     39  O   UNL A   1      32.845  32.917  33.479  1.00  0.00    -0.269 OA
BRANCH  37  40
ATOM     40  C   UNL A   1      34.956  33.434  32.599  1.00  0.00     0.039 A 
ATOM     41  C   UNL A   1      36.052  34.259  32.862  1.00  0.00     0.014 A 
ATOM     42  C   UNL A   1      35.138  32.176  32.058  1.00  0.00     0.014 A 
ATOM     43  C   UNL A   1      37.325  33.753  32.601  1.00  0.00     0.010 A 
ATOM     44  C   UNL A   1      36.336  31.574  32.240  1.00  0.00     0.010 A 
ATOM     45  C   UNL A   1      37.442  32.394  32.280  1.00  0.00    -0.014 A 
BRANCH  45  46
ATOM     46  C   UNL A   1      38.688  31.721  31.975  1.00  0.00     0.031 A 
ATOM     47  C   UNL A   1      39.479  31.334  33.160  1.00  0.00     0.074 A 
ATOM     48  C   UNL A   1      38.938  31.233  30.736  1.00  0.00     0.049 A 
ATOM     49  N   UNL A   1      40.595  31.843  33.555  1.00  0.00    -0.248 NA
ATOM     50  C   UNL A   1      38.883  30.380  34.109  1.00  0.00     0.031 C 
ATOM     51  C   UNL A   1      38.083  31.231  29.535  1.00  0.00     0.029 A 
ATOM     52  N   UNL A   1      40.007  30.505  30.326  1.00  0.00    -0.354 N 
ATOM     53  C   UNL A   1      40.962  31.114  34.678  1.00  0.00     0.074 A 
ATOM     54  C   UNL A   1      39.787  30.393  35.092  1.00  0.00     0.031 C 
ATOM     55  C   UNL A   1      38.556  30.341  28.635  1.00  0.00     0.029 A 
ATOM     56  C   UNL A   1      39.832  29.850  29.110  1.00  0.00     0.049 A 
ATOM     57  H   UNL A   1      40.840  30.445  30.847  1.00  0.00     0.167 HD
ATOM     58  C   UNL A   1      42.271  30.957  35.013  1.00  0.00     0.037 A 
ATOM     59  C   UNL A   1      40.682  28.931  28.588  1.00  0.00     0.037 A 
ATOM     60  C   UNL A   1      43.112  31.875  34.281  1.00  0.00     0.049 A 
ATOM     61  C   UNL A   1      41.994  29.138  29.265  1.00  0.00     0.074 A 
ATOM     62  C   UNL A   1      43.155  33.251  34.151  1.00  0.00     0.029 A 
ATOM     63  N   UNL A   1      43.805  31.384  33.198  1.00  0.00    -0.354 N 
ATOM     64  N   UNL A   1      42.713  30.221  29.117  1.00  0.00    -0.248 NA
ATOM     65  C   UNL A   1      42.232  28.395  30.496  1.00  0.00     0.031 C 
ATOM     66  C   UNL A   1      43.385  33.478  32.761  1.00  0.00     0.029 A 
ATOM     67  C   UNL A   1      43.559  32.237  32.148  1.00  0.00     0.049 A 
ATOM     68  H   UNL A   1      44.367  30.577  33.177  1.00  0.00     0.167 HD
ATOM     69  C   UNL A   1      43.177  30.521  30.392  1.00  0.00     0.074 A 
ATOM     70  C   UNL A   1      42.889  29.329  31.191  1.00  0.00     0.031 C 
ATOM     71  C   UNL A   1      43.463  31.804  30.772  1.00  0.00     0.037 A 
BRANCH  58  72
ATOM     72  C   UNL A   1      42.831  29.738  35.696  1.00  0.00     0.057 A 
ATOM     73  C   UNL A   1      43.720  29.907  36.771  1.00  0.00     0.134 A 
ATOM     74  C   UNL A   1      42.764  28.434  35.168  1.00  0.00     0.134 A 
ATOM     75  F   UNL A   1      43.880  31.108  37.347  1.00  0.00    -0.206 F 
ATOM     76  C   UNL A   1      44.537  28.871  37.234  1.00  0.00     0.040 A 
ATOM     77  C   UNL A   1      43.535  27.378  35.659  1.00  0.00     0.040 A 
ATOM     78  F   UNL A   1      42.036  28.130  34.087  1.00  0.00    -0.206 F 
ATOM     79  C   UNL A   1      44.451  27.602  36.673  1.00  0.00     0.006 A 
ENDBRANCH  58  72
BRANCH  59  80
ATOM     80  C   UNL A   1      40.329  27.692  27.855  1.00  0.00     0.057 A 
ATOM     81  C   UNL A   1      40.867  27.410  26.592  1.00  0.00     0.134 A 
ATOM     82  C   UNL A   1      39.660  26.627  28.488  1.00  0.00     0.134 A 
ATOM     83  F   UNL A   1      41.560  28.345  25.925  1.00  0.00    -0.206 F 
ATOM     84  C   UNL A   1      40.763  26.141  26.002  1.00  0.00     0.040 A 
ATOM     85  C   UNL A   1      39.545  25.358  27.910  1.00  0.00     0.040 A 
ATOM     86  F   UNL A   1      39.170  26.757  29.729  1.00  0.00    -0.206 F 
ATOM     87  C   UNL A   1      40.109  25.107  26.666  1.00  0.00     0.006 A 
ENDBRANCH  59  80
BRANCH  71  88
ATOM     88  C   UNL A   1      43.433  32.889  29.725  1.00  0.00     0.057 A 
ATOM     89  C   UNL A   1      42.338  33.740  29.504  1.00  0.00     0.134 A 
ATOM     90  C   UNL A   1      44.615  33.208  29.048  1.00  0.00     0.134 A 
ATOM     91  F   UNL A   1      41.196  33.588  30.180  1.00  0.00    -0.206 F 
ATOM     92  C   UNL A   1      42.402  34.828  28.625  1.00  0.00     0.040 A 
ATOM     93  C   UNL A   1      44.703  34.309  28.191  1.00  0.00     0.040 A 
ATOM     94  F   UNL A   1      45.726  32.483  29.254  1.00  0.00    -0.206 F 
ATOM     95  C   UNL A   1      43.592  35.119  27.969  1.00  0.00     0.006 A 
ENDBRANCH  71  88
ENDBRANCH  45  46
ENDBRANCH  37  40
ENDBRANCH  35  36
ENDBRANCH  34  35
ENDBRANCH  33  34
ENDBRANCH   3  33
TORSDOF 15
ENDMDL
MODEL 2
REMARK VINA RESULT:     -12.2      5.925     12.334
REMARK SMILES O=C1NC(=O)/C(=C/c2ccc(OCc3cn(-c4ccc(C(=O)NCCCNC(=O)c5ccc(-c6c7nc(c(-c8c(F)cccc8F)c8ccc([nH]8)c(-c8c(F)cccc8F)c8nc(c(-c9c(F)cccc9F)c9ccc6[nH]9)C=C8)C=C7)cc5)cc4)nn3)cc2)S1
REMARK SMILES IDX 21 1 22 2 23 3 20 5 17 6 18 7 85 8 19 9 84 10 16 11 14 12
REMARK SMILES IDX 15 13 87 14 86 15 13 16 12 17 11 18 8 19 9 20 89 21 10 22
REMARK SMILES IDX 88 23 7 24 1 25 2 26 3 27 90 28 4 29 6 31 5 32 24 33 25 34
REMARK SMILES IDX 26 35 27 36 28 37 29 39 30 40 31 41 83 42 32 43 82 44 33 45
REMARK SMILES IDX 34 46 35 47 76 48 36 49 81 50 75 51 77 52 37 53 80 54 74 55
REMARK SMILES IDX 73 56 38 58 64 59 47 60 63 61 48 62 51 63 62 64 78 65 49 66
REMARK SMILES IDX 50 67 61 69 79 70 52 71 39 72 40 73 45 74 41 75 42 76 44 77
REMARK SMILES IDX 46 78 43 79 65 80 66 81 71 82 67 83 68 84 70 85 72 86 69 87
REMARK SMILES IDX 53 88 54 89 59 90 55 91 56 92 58 93 60 94 57 95
REMARK H PARENT 23 4 3 30 27 38 77 57 51 68
REMARK Flexibility Score: inf
ROOT
ATOM      1  C   UNL A   1      46.072  25.297  25.218  1.00  0.00     0.251 C 
ATOM      2  O   UNL A   1      46.332  26.248  24.482  1.00  0.00    -0.269 OA
ATOM      3  N   UNL A   1      45.837  24.075  24.632  1.00  0.00    -0.352 N 
ATOM      4  H   UNL A   1      45.846  24.092  23.648  1.00  0.00     0.163 HD
ENDROOT
BRANCH   1   5
ATOM      5  C   UNL A   1      46.082  25.492  26.695  1.00  0.00     0.039 A 
ATOM      6  C   UNL A   1      46.129  25.617  29.492  1.00  0.00     0.066 A 
ATOM      7  C   UNL A   1      47.270  25.200  28.796  1.00  0.00     0.029 A 
ATOM      8  C   UNL A   1      45.001  26.044  28.803  1.00  0.00     0.029 A 
ATOM      9  C   UNL A   1      47.231  25.109  27.401  1.00  0.00     0.016 A 
ATOM     10  C   UNL A   1      45.014  26.036  27.414  1.00  0.00     0.016 A 
BRANCH   6  11
ATOM     11  N   UNL A   1      46.118  25.625  30.896  1.00  0.00    -0.220 N 
ATOM     12  C   UNL A   1      45.594  25.456  33.004  1.00  0.00     0.120 A 
ATOM     13  C   UNL A   1      45.130  25.168  31.740  1.00  0.00     0.144 A 
ATOM     14  N   UNL A   1      46.837  26.024  32.887  1.00  0.00    -0.131 NA
ATOM     15  N   UNL A   1      47.160  26.088  31.608  1.00  0.00    -0.062 NA
BRANCH  12  16
ATOM     16  C   UNL A   1      45.021  25.146  34.347  1.00  0.00     0.289 C 
BRANCH  16  17
ATOM     17  O   UNL A   1      44.934  23.749  34.680  1.00  0.00    -0.487 OA
BRANCH  17  18
ATOM     18  C   UNL A   1      46.094  23.048  34.863  1.00  0.00     0.119 A 
ATOM     19  C   UNL A   1      48.227  21.303  35.415  1.00  0.00    -0.024 A 
ATOM     20  C   UNL A   1      47.146  20.868  34.645  1.00  0.00     0.012 A 
ATOM     21  C   UNL A   1      48.279  22.638  35.817  1.00  0.00     0.012 A 
ATOM     22  C   UNL A   1      46.081  21.738  34.379  1.00  0.00     0.047 A 
ATOM     23  C   UNL A   1      47.237  23.513  35.508  1.00  0.00     0.047 A 
BRANCH  19  24
ATOM     24  C   UNL A   1      49.309  20.387  35.784  1.00  0.00     0.029 C 
ATOM     25  O   UNL A   1      53.306  20.220  32.727  1.00  0.00    -0.261 OA
ATOM     26  C   UNL A   1      52.456  20.091  33.584  1.00  0.00     0.290 C 
ATOM     27  N   UNL A   1      52.489  19.199  34.610  1.00  0.00    -0.282 N 
ATOM     28  S   UNL A   1      50.988  21.043  33.683  1.00  0.00    -0.022 SA
ATOM     29  C   UNL A   1      51.452  19.194  35.492  1.00  0.00     0.265 C 
ATOM     30  H   UNL A   1      53.243  18.574  34.714  1.00  0.00     0.174 HD
ATOM     31  C   UNL A   1      50.446  20.214  35.098  1.00  0.00     0.083 C 
ATOM     32  O   UNL A   1      51.362  18.448  36.455  1.00  0.00    -0.268 OA
ENDBRANCH  19  24
ENDBRANCH  17  18
ENDBRANCH  16  17
ENDBRANCH  12  16
ENDBRANCH   6  11
ENDBRANCH   1   5
BRANCH   3  33
ATOM     33  C   UNL A   1      45.577  22.759  25.202  1.00  0.00     0.118 C 
BRANCH  33  34
ATOM     34  C   UNL A   1      44.234  22.715  25.952  1.00  0.00     0.042 C 
BRANCH  34  35
ATOM     35  C   UNL A   1      43.066  22.969  25.030  1.00  0.00     0.118 C 
BRANCH  35  36
ATOM     36  N   UNL A   1      41.817  22.359  25.511  1.00  0.00    -0.352 N 
ATOM     37  C   UNL A   1      40.965  22.805  26.512  1.00  0.00     0.251 C 
ATOM     38  H   UNL A   1      41.548  21.524  25.063  1.00  0.00     0.163 HD
ATOM     39  O   UNL A   1      40.154  22.057  27.042  1.00  0.00    -0.269 OA
BRANCH  37  40
ATOM     40  C   UNL A   1      41.059  24.217  26.909  1.00  0.00     0.039 A 
ATOM     41  C   UNL A   1      40.422  25.268  26.247  1.00  0.00     0.014 A 
ATOM     42  C   UNL A   1      41.757  24.444  28.080  1.00  0.00     0.014 A 
ATOM     43  C   UNL A   1      40.479  26.534  26.830  1.00  0.00     0.010 A 
ATOM     44  C   UNL A   1      41.422  25.527  28.818  1.00  0.00     0.010 A 
ATOM     45  C   UNL A   1      40.998  26.640  28.127  1.00  0.00    -0.014 A 
BRANCH  45  46
ATOM     46  C   UNL A   1      41.133  27.880  28.864  1.00  0.00     0.031 A 
ATOM     47  C   UNL A   1      42.282  28.713  28.455  1.00  0.00     0.074 A 
ATOM     48  C   UNL A   1      40.124  28.352  29.635  1.00  0.00     0.049 A 
ATOM     49  N   UNL A   1      43.358  28.944  29.125  1.00  0.00    -0.248 NA
ATOM     50  C   UNL A   1      42.314  29.217  27.073  1.00  0.00     0.031 C 
ATOM     51  C   UNL A   1      38.774  27.804  29.859  1.00  0.00     0.029 A 
ATOM     52  N   UNL A   1      40.068  29.531  30.305  1.00  0.00    -0.354 N 
ATOM     53  C   UNL A   1      44.105  29.815  28.345  1.00  0.00     0.074 A 
ATOM     54  C   UNL A   1      43.528  29.771  27.026  1.00  0.00     0.031 C 
ATOM     55  C   UNL A   1      37.975  28.753  30.394  1.00  0.00     0.029 A 
ATOM     56  C   UNL A   1      38.791  29.903  30.718  1.00  0.00     0.049 A 
ATOM     57  H   UNL A   1      40.865  30.080  30.483  1.00  0.00     0.167 HD
ATOM     58  C   UNL A   1      44.966  30.702  28.914  1.00  0.00     0.037 A 
ATOM     59  C   UNL A   1      38.460  31.110  31.242  1.00  0.00     0.037 A 
ATOM     60  C   UNL A   1      45.210  30.377  30.300  1.00  0.00     0.049 A 
ATOM     61  C   UNL A   1      39.729  31.717  31.736  1.00  0.00     0.074 A 
ATOM     62  C   UNL A   1      45.687  29.260  30.961  1.00  0.00     0.029 A 
ATOM     63  N   UNL A   1      44.544  31.110  31.256  1.00  0.00    -0.354 N 
ATOM     64  N   UNL A   1      40.420  31.222  32.730  1.00  0.00    -0.248 NA
ATOM     65  C   UNL A   1      40.486  32.534  30.796  1.00  0.00     0.031 C 
ATOM     66  C   UNL A   1      44.840  29.123  32.102  1.00  0.00     0.029 A 
ATOM     67  C   UNL A   1      43.965  30.209  32.117  1.00  0.00     0.049 A 
ATOM     68  H   UNL A   1      44.492  32.092  31.312  1.00  0.00     0.167 HD
ATOM     69  C   UNL A   1      41.745  31.308  32.324  1.00  0.00     0.074 A 
ATOM     70  C   UNL A   1      41.726  32.174  31.144  1.00  0.00     0.031 C 
ATOM     71  C   UNL A   1      42.696  30.433  32.775  1.00  0.00     0.037 A 
BRANCH  58  72
ATOM     72  C   UNL A   1      45.280  32.060  28.349  1.00  0.00     0.057 A 
ATOM     73  C   UNL A   1      46.624  32.427  28.163  1.00  0.00     0.134 A 
ATOM     74  C   UNL A   1      44.349  33.114  28.253  1.00  0.00     0.134 A 
ATOM     75  F   UNL A   1      47.603  31.514  28.245  1.00  0.00    -0.206 F 
ATOM     76  C   UNL A   1      47.016  33.757  27.973  1.00  0.00     0.040 A 
ATOM     77  C   UNL A   1      44.725  34.436  28.008  1.00  0.00     0.040 A 
ATOM     78  F   UNL A   1      43.043  32.945  28.494  1.00  0.00    -0.206 F 
ATOM     79  C   UNL A   1      46.065  34.767  27.902  1.00  0.00     0.006 A 
ENDBRANCH  58  72
BRANCH  59  80
ATOM     80  C   UNL A   1      37.224  31.890  30.995  1.00  0.00     0.057 A 
ATOM     81  C   UNL A   1      36.913  32.383  29.720  1.00  0.00     0.134 A 
ATOM     82  C   UNL A   1      36.187  31.947  31.944  1.00  0.00     0.134 A 
ATOM     83  F   UNL A   1      37.820  32.335  28.734  1.00  0.00    -0.206 F 
ATOM     84  C   UNL A   1      35.642  32.885  29.403  1.00  0.00     0.040 A 
ATOM     85  C   UNL A   1      34.915  32.449  31.644  1.00  0.00     0.040 A 
ATOM     86  F   UNL A   1      36.344  31.436  33.174  1.00  0.00    -0.206 F 
ATOM     87  C   UNL A   1      34.635  32.910  30.364  1.00  0.00     0.006 A 
ENDBRANCH  59  80
BRANCH  71  88
ATOM     88  C   UNL A   1      42.323  29.463  33.866  1.00  0.00     0.057 A 
ATOM     89  C   UNL A   1      41.852  28.160  33.636  1.00  0.00     0.134 A 
ATOM     90  C   UNL A   1      42.628  29.787  35.193  1.00  0.00     0.134 A 
ATOM     91  F   UNL A   1      41.632  27.714  32.395  1.00  0.00    -0.206 F 
ATOM     92  C   UNL A   1      41.656  27.241  34.673  1.00  0.00     0.040 A 
ATOM     93  C   UNL A   1      42.466  28.869  36.236  1.00  0.00     0.040 A 
ATOM     94  F   UNL A   1      43.145  30.989  35.490  1.00  0.00    -0.206 F 
ATOM     95  C   UNL A   1      41.970  27.594  35.979  1.00  0.00     0.006 A 
ENDBRANCH  71  88
ENDBRANCH  45  46
ENDBRANCH  37  40
ENDBRANCH  35  36
ENDBRANCH  34  35
ENDBRANCH  33  34
ENDBRANCH   3  33
TORSDOF 15
ENDMDL
MODEL 3
REMARK VINA RESULT:     -12.0      1.676      2.108
REMARK SMILES O=C1NC(=O)/C(=C/c2ccc(OCc3cn(-c4ccc(C(=O)NCCCNC(=O)c5ccc(-c6c7nc(c(-c8c(F)cccc8F)c8ccc([nH]8)c(-c8c(F)cccc8F)c8nc(c(-c9c(F)cccc9F)c9ccc6[nH]9)C=C8)C=C7)cc5)cc4)nn3)cc2)S1
REMARK SMILES IDX 21 1 22 2 23 3 20 5 17 6 18 7 85 8 19 9 84 10 16 11 14 12
REMARK SMILES IDX 15 13 87 14 86 15 13 16 12 17 11 18 8 19 9 20 89 21 10 22
REMARK SMILES IDX 88 23 7 24 1 25 2 26 3 27 90 28 4 29 6 31 5 32 24 33 25 34
REMARK SMILES IDX 26 35 27 36 28 37 29 39 30 40 31 41 83 42 32 43 82 44 33 45
REMARK SMILES IDX 34 46 35 47 76 48 36 49 81 50 75 51 77 52 37 53 80 54 74 55
REMARK SMILES IDX 73 56 38 58 64 59 47 60 63 61 48 62 51 63 62 64 78 65 49 66
REMARK SMILES IDX 50 67 61 69 79 70 52 71 39 72 40 73 45 74 41 75 42 76 44 77
REMARK SMILES IDX 46 78 43 79 65 80 66 81 71 82 67 83 68 84 70 85 72 86 69 87
REMARK SMILES IDX 53 88 54 89 59 90 55 91 56 92 58 93 60 94 57 95
REMARK H PARENT 23 4 3 30 27 38 77 57 51 68
REMARK Flexibility Score: inf
ROOT
ATOM      1  C   UNL A   1      36.101  33.691  29.326  1.00  0.00     0.251 C 
ATOM      2  O   UNL A   1      37.311  33.833  29.150  1.00  0.00    -0.269 OA
ATOM      3  N   UNL A   1      35.467  34.570  30.174  1.00  0.00    -0.352 N 
ATOM      4  H   UNL A   1      36.071  35.211  30.614  1.00  0.00     0.163 HD
ENDROOT
BRANCH   1   5
ATOM      5  C   UNL A   1      35.373  32.629  28.576  1.00  0.00     0.039 A 
ATOM      6  C   UNL A   1      33.853  30.617  27.360  1.00  0.00     0.066 A 
ATOM      7  C   UNL A   1      33.272  31.865  27.622  1.00  0.00     0.029 A 
ATOM      8  C   UNL A   1      35.199  30.398  27.625  1.00  0.00     0.029 A 
ATOM      9  C   UNL A   1      34.026  32.855  28.259  1.00  0.00     0.016 A 
ATOM     10  C   UNL A   1      35.956  31.426  28.172  1.00  0.00     0.016 A 
BRANCH   6  11
ATOM     11  N   UNL A   1      33.086  29.580  26.807  1.00  0.00    -0.220 N 
ATOM     12  C   UNL A   1      32.296  27.661  26.144  1.00  0.00     0.120 A 
ATOM     13  C   UNL A   1      33.299  28.223  26.902  1.00  0.00     0.144 A 
ATOM     14  N   UNL A   1      31.502  28.671  25.663  1.00  0.00    -0.131 NA
ATOM     15  N   UNL A   1      31.968  29.827  26.100  1.00  0.00    -0.062 NA
BRANCH  12  16
ATOM     16  C   UNL A   1      31.935  26.232  25.910  1.00  0.00     0.289 C 
BRANCH  16  17
ATOM     17  O   UNL A   1      33.021  25.292  25.995  1.00  0.00    -0.487 OA
BRANCH  17  18
ATOM     18  C   UNL A   1      33.000  24.194  25.179  1.00  0.00     0.119 A 
ATOM     19  C   UNL A   1      32.649  21.789  23.768  1.00  0.00    -0.024 A 
ATOM     20  C   UNL A   1      31.560  22.633  23.997  1.00  0.00     0.012 A 
ATOM     21  C   UNL A   1      33.923  22.205  24.157  1.00  0.00     0.012 A 
ATOM     22  C   UNL A   1      31.737  23.826  24.708  1.00  0.00     0.047 A 
ATOM     23  C   UNL A   1      34.099  23.419  24.823  1.00  0.00     0.047 A 
BRANCH  19  24
ATOM     24  C   UNL A   1      32.475  20.493  23.107  1.00  0.00     0.029 C 
ATOM     25  O   UNL A   1      33.004  16.381  25.964  1.00  0.00    -0.261 OA
ATOM     26  C   UNL A   1      32.845  17.218  25.100  1.00  0.00     0.290 C 
ATOM     27  N   UNL A   1      32.643  16.968  23.778  1.00  0.00    -0.282 N 
ATOM     28  S   UNL A   1      32.837  18.949  25.376  1.00  0.00    -0.022 SA
ATOM     29  C   UNL A   1      32.472  18.029  22.942  1.00  0.00     0.265 C 
ATOM     30  H   UNL A   1      32.620  16.046  23.435  1.00  0.00     0.174 HD
ATOM     31  C   UNL A   1      32.571  19.299  23.706  1.00  0.00     0.083 C 
ATOM     32  O   UNL A   1      32.281  17.941  21.739  1.00  0.00    -0.268 OA
ENDBRANCH  19  24
ENDBRANCH  17  18
ENDBRANCH  16  17
ENDBRANCH  12  16
ENDBRANCH   6  11
ENDBRANCH   1   5
BRANCH   3  33
ATOM     33  C   UNL A   1      34.065  34.723  30.541  1.00  0.00     0.118 C 
BRANCH  33  34
ATOM     34  C   UNL A   1      33.892  34.993  32.046  1.00  0.00     0.042 C 
BRANCH  34  35
ATOM     35  C   UNL A   1      34.228  33.778  32.877  1.00  0.00     0.118 C 
BRANCH  35  36
ATOM     36  N   UNL A   1      34.670  34.123  34.237  1.00  0.00    -0.352 N 
ATOM     37  C   UNL A   1      35.834  33.746  34.891  1.00  0.00     0.251 C 
ATOM     38  H   UNL A   1      34.057  34.697  34.752  1.00  0.00     0.163 HD
ATOM     39  O   UNL A   1      35.934  33.815  36.109  1.00  0.00    -0.269 OA
BRANCH  37  40
ATOM     40  C   UNL A   1      36.956  33.275  34.069  1.00  0.00     0.039 A 
ATOM     41  C   UNL A   1      37.943  34.102  33.529  1.00  0.00     0.014 A 
ATOM     42  C   UNL A   1      37.043  31.902  33.940  1.00  0.00     0.014 A 
ATOM     43  C   UNL A   1      39.029  33.495  32.899  1.00  0.00     0.010 A 
ATOM     44  C   UNL A   1      38.266  31.359  33.743  1.00  0.00     0.010 A 
ATOM     45  C   UNL A   1      39.165  32.105  33.014  1.00  0.00    -0.014 A 
BRANCH  45  46
ATOM     46  C   UNL A   1      40.229  31.326  32.414  1.00  0.00     0.031 A 
ATOM     47  C   UNL A   1      41.223  30.805  33.375  1.00  0.00     0.074 A 
ATOM     48  C   UNL A   1      40.137  30.875  31.140  1.00  0.00     0.049 A 
ATOM     49  N   UNL A   1      42.447  31.181  33.513  1.00  0.00    -0.248 NA
ATOM     50  C   UNL A   1      40.759  29.872  34.413  1.00  0.00     0.031 C 
ATOM     51  C   UNL A   1      39.036  31.017  30.169  1.00  0.00     0.029 A 
ATOM     52  N   UNL A   1      41.000  30.065  30.477  1.00  0.00    -0.354 N 
ATOM     53  C   UNL A   1      42.979  30.366  34.503  1.00  0.00     0.074 A 
ATOM     54  C   UNL A   1      41.858  29.747  35.161  1.00  0.00     0.031 C 
ATOM     55  C   UNL A   1      39.193  30.128  29.163  1.00  0.00     0.029 A 
ATOM     56  C   UNL A   1      40.483  29.490  29.319  1.00  0.00     0.049 A 
ATOM     57  H   UNL A   1      41.918  29.897  30.789  1.00  0.00     0.167 HD
ATOM     58  C   UNL A   1      44.305  30.064  34.523  1.00  0.00     0.037 A 
ATOM     59  C   UNL A   1      41.088  28.517  28.593  1.00  0.00     0.037 A 
ATOM     60  C   UNL A   1      45.052  30.927  33.638  1.00  0.00     0.049 A 
ATOM     61  C   UNL A   1      42.534  28.559  28.953  1.00  0.00     0.074 A 
ATOM     62  C   UNL A   1      45.213  32.297  33.535  1.00  0.00     0.029 A 
ATOM     63  N   UNL A   1      45.423  30.422  32.413  1.00  0.00    -0.354 N 
ATOM     64  N   UNL A   1      43.313  29.570  28.669  1.00  0.00    -0.248 NA
ATOM     65  C   UNL A   1      42.963  27.737  30.078  1.00  0.00     0.031 C 
ATOM     66  C   UNL A   1      45.144  32.566  32.135  1.00  0.00     0.029 A 
ATOM     67  C   UNL A   1      45.039  31.344  31.469  1.00  0.00     0.049 A 
ATOM     68  H   UNL A   1      45.875  29.564  32.244  1.00  0.00     0.167 HD
ATOM     69  C   UNL A   1      44.084  29.761  29.809  1.00  0.00     0.074 A 
ATOM     70  C   UNL A   1      43.858  28.567  30.624  1.00  0.00     0.031 C 
ATOM     71  C   UNL A   1      44.586  30.990  30.142  1.00  0.00     0.037 A 
BRANCH  58  72
ATOM     72  C   UNL A   1      44.870  28.764  35.029  1.00  0.00     0.057 A 
ATOM     73  C   UNL A   1      45.976  28.793  35.895  1.00  0.00     0.134 A 
ATOM     74  C   UNL A   1      44.565  27.501  34.483  1.00  0.00     0.134 A 
ATOM     75  F   UNL A   1      46.372  29.940  36.466  1.00  0.00    -0.206 F 
ATOM     76  C   UNL A   1      46.764  27.663  36.139  1.00  0.00     0.040 A 
ATOM     77  C   UNL A   1      45.312  26.355  34.762  1.00  0.00     0.040 A 
ATOM     78  F   UNL A   1      43.601  27.324  33.572  1.00  0.00    -0.206 F 
ATOM     79  C   UNL A   1      46.437  26.440  35.565  1.00  0.00     0.006 A 
ENDBRANCH  58  72
BRANCH  59  80
ATOM     80  C   UNL A   1      40.445  27.355  27.932  1.00  0.00     0.057 A 
ATOM     81  C   UNL A   1      40.812  26.953  26.641  1.00  0.00     0.134 A 
ATOM     82  C   UNL A   1      39.642  26.451  28.651  1.00  0.00     0.134 A 
ATOM     83  F   UNL A   1      41.611  27.725  25.890  1.00  0.00    -0.206 F 
ATOM     84  C   UNL A   1      40.420  25.717  26.104  1.00  0.00     0.040 A 
ATOM     85  C   UNL A   1      39.239  25.217  28.127  1.00  0.00     0.040 A 
ATOM     86  F   UNL A   1      39.292  26.695  29.923  1.00  0.00    -0.206 F 
ATOM     87  C   UNL A   1      39.639  24.841  26.852  1.00  0.00     0.006 A 
ENDBRANCH  59  80
BRANCH  71  88
ATOM     88  C   UNL A   1      44.436  32.121  29.157  1.00  0.00     0.057 A 
ATOM     89  C   UNL A   1      43.388  33.054  29.182  1.00  0.00     0.134 A 
ATOM     90  C   UNL A   1      45.486  32.390  28.272  1.00  0.00     0.134 A 
ATOM     91  F   UNL A   1      42.389  32.950  30.064  1.00  0.00    -0.206 F 
ATOM     92  C   UNL A   1      43.363  34.174  28.342  1.00  0.00     0.040 A 
ATOM     93  C   UNL A   1      45.490  33.520  27.449  1.00  0.00     0.040 A 
ATOM     94  F   UNL A   1      46.557  31.582  28.233  1.00  0.00    -0.206 F 
ATOM     95  C   UNL A   1      44.422  34.413  27.476  1.00  0.00     0.006 A 
ENDBRANCH  71  88
ENDBRANCH  45  46
ENDBRANCH  37  40
ENDBRANCH  35  36
ENDBRANCH  34  35
ENDBRANCH  33  34
ENDBRANCH   3  33
TORSDOF 15
ENDMDL
