MODEL 1
REMARK VINA RESULT:     -11.8      0.000      0.000
REMARK SMILES Cc1cc(C(=O)Nc2ccn(C)n2)sc1/C=C/C(=O)NCCCNC(=O)c1ccc(-c2c3nc(c(-c4c(F)cccc4F)c4ccc([nH]4)c(-c4c(F)cccc4F)c4nc(c(-c5c(F)cccc5F)c5ccc2[nH]5)C=C4)C=C3)cc1
REMARK SMILES IDX 21 1 20 2 18 3 19 4 17 6 16 7 15 8 1 9 2 10 3 11 4 12 14 13
REMARK SMILES IDX 5 14 6 15 7 16 8 18 9 19 13 20 10 21 11 22 12 23 22 24 23 25
REMARK SMILES IDX 24 26 25 27 26 29 27 30 28 31 80 32 29 33 79 34 30 35 31 36
REMARK SMILES IDX 32 37 73 38 33 39 78 40 72 41 74 42 34 43 77 44 71 45 70 46
REMARK SMILES IDX 35 48 61 49 44 50 60 51 45 52 48 53 59 54 75 55 46 56 47 57
REMARK SMILES IDX 58 59 76 60 49 61 36 62 37 63 42 64 38 65 39 66 41 67 43 68
REMARK SMILES IDX 40 69 62 70 63 71 68 72 64 73 65 74 67 75 69 76 66 77 50 78
REMARK SMILES IDX 51 79 56 80 52 81 53 82 55 83 57 84 54 85
REMARK H PARENT 20 5 7 17 24 28 74 47 48 58
REMARK Flexibility Score: inf
ROOT
ATOM      1  C   UNL A   1      36.398  20.244  24.923  1.00  0.00     0.118 C 
ENDROOT
BRANCH   1   2
ATOM      2  N   UNL A   1      35.268  19.333  24.924  1.00  0.00    -0.352 N 
ATOM      3  C   UNL A   1      33.935  19.589  24.868  1.00  0.00     0.244 C 
ATOM      4  O   UNL A   1      33.137  18.659  24.782  1.00  0.00    -0.270 OA
ATOM      5  H   UNL A   1      35.506  18.378  24.976  1.00  0.00     0.163 HD
BRANCH   3   6
ATOM      6  C   UNL A   1      33.440  20.981  24.821  1.00  0.00     0.072 C 
ATOM      7  C   UNL A   1      32.876  21.529  23.735  1.00  0.00     0.025 C 
BRANCH   7   8
ATOM      8  C   UNL A   1      32.458  22.890  23.642  1.00  0.00     0.031 A 
ATOM      9  C   UNL A   1      30.709  23.037  25.528  1.00  0.00     0.046 C 
ATOM     10  C   UNL A   1      31.429  23.539  24.319  1.00  0.00    -0.032 A 
ATOM     11  C   UNL A   1      31.083  24.770  23.655  1.00  0.00     0.029 A 
ATOM     12  C   UNL A   1      31.901  25.056  22.575  1.00  0.00     0.093 A 
ATOM     13  S   UNL A   1      33.268  24.034  22.651  1.00  0.00    -0.130 S 
BRANCH  12  14
ATOM     14  C   UNL A   1      31.789  26.186  21.654  1.00  0.00     0.266 C 
ATOM     15  O   UNL A   1      31.565  26.006  20.455  1.00  0.00    -0.268 OA
ATOM     16  N   UNL A   1      31.839  27.491  22.095  1.00  0.00    -0.304 N 
ATOM     17  H   UNL A   1      31.420  28.148  21.494  1.00  0.00     0.171 HD
BRANCH  16  18
ATOM     18  C   UNL A   1      32.381  28.017  23.238  1.00  0.00     0.154 A 
ATOM     19  C   UNL A   1      33.739  28.175  23.608  1.00  0.00     0.068 A 
ATOM     20  N   UNL A   1      31.569  28.476  24.192  1.00  0.00    -0.155 NA
ATOM     21  C   UNL A   1      33.707  28.588  24.921  1.00  0.00     0.110 A 
ATOM     22  N   UNL A   1      32.386  28.671  25.243  1.00  0.00    -0.274 N 
ATOM     23  C   UNL A   1      31.821  28.833  26.561  1.00  0.00     0.173 C 
ENDBRANCH  16  18
ENDBRANCH  12  14
ENDBRANCH   7   8
ENDBRANCH   3   6
ENDBRANCH   1   2
BRANCH   1  24
ATOM     24  C   UNL A   1      37.720  19.483  24.846  1.00  0.00     0.042 C 
BRANCH  24  25
ATOM     25  C   UNL A   1      38.818  20.113  25.696  1.00  0.00     0.118 C 
BRANCH  25  26
ATOM     26  N   UNL A   1      39.991  19.255  25.779  1.00  0.00    -0.352 N 
ATOM     27  C   UNL A   1      41.300  19.571  26.036  1.00  0.00     0.251 C 
ATOM     28  H   UNL A   1      39.817  18.299  25.627  1.00  0.00     0.163 HD
ATOM     29  O   UNL A   1      42.175  18.737  25.821  1.00  0.00    -0.269 OA
BRANCH  27  30
ATOM     30  C   UNL A   1      41.668  20.902  26.563  1.00  0.00     0.039 A 
ATOM     31  C   UNL A   1      41.553  21.132  27.938  1.00  0.00     0.014 A 
ATOM     32  C   UNL A   1      42.066  21.936  25.712  1.00  0.00     0.014 A 
ATOM     33  C   UNL A   1      41.877  22.386  28.461  1.00  0.00     0.010 A 
ATOM     34  C   UNL A   1      42.454  23.163  26.242  1.00  0.00     0.010 A 
ATOM     35  C   UNL A   1      42.354  23.404  27.620  1.00  0.00    -0.014 A 
BRANCH  35  36
ATOM     36  C   UNL A   1      42.741  24.728  28.163  1.00  0.00     0.031 A 
ATOM     37  C   UNL A   1      41.701  25.790  28.384  1.00  0.00     0.074 A 
ATOM     38  C   UNL A   1      44.039  24.992  28.402  1.00  0.00     0.049 A 
ATOM     39  N   UNL A   1      41.852  27.027  28.785  1.00  0.00    -0.248 NA
ATOM     40  C   UNL A   1      40.306  25.421  28.093  1.00  0.00     0.031 C 
ATOM     41  C   UNL A   1      45.146  24.059  28.186  1.00  0.00     0.029 A 
ATOM     42  N   UNL A   1      44.649  26.129  28.870  1.00  0.00    -0.354 N 
ATOM     43  C   UNL A   1      40.582  27.586  28.777  1.00  0.00     0.074 A 
ATOM     44  C   UNL A   1      39.676  26.570  28.287  1.00  0.00     0.031 C 
ATOM     45  C   UNL A   1      46.297  24.655  28.537  1.00  0.00     0.029 A 
ATOM     46  C   UNL A   1      46.014  26.020  28.970  1.00  0.00     0.049 A 
ATOM     47  H   UNL A   1      44.154  26.946  29.111  1.00  0.00     0.167 HD
ATOM     48  C   UNL A   1      40.200  28.828  29.164  1.00  0.00     0.037 A 
ATOM     49  C   UNL A   1      46.934  26.921  29.362  1.00  0.00     0.037 A 
ATOM     50  C   UNL A   1      41.101  29.827  29.674  1.00  0.00     0.049 A 
ATOM     51  C   UNL A   1      46.485  28.289  29.792  1.00  0.00     0.074 A 
ATOM     52  C   UNL A   1      40.805  31.095  30.144  1.00  0.00     0.029 A 
ATOM     53  N   UNL A   1      42.475  29.670  29.784  1.00  0.00    -0.354 N 
ATOM     54  N   UNL A   1      45.273  28.785  29.834  1.00  0.00    -0.248 NA
ATOM     55  C   UNL A   1      47.533  29.219  30.236  1.00  0.00     0.031 C 
ATOM     56  C   UNL A   1      42.006  31.719  30.504  1.00  0.00     0.029 A 
ATOM     57  C   UNL A   1      43.042  30.823  30.298  1.00  0.00     0.049 A 
ATOM     58  H   UNL A   1      42.971  28.858  29.533  1.00  0.00     0.167 HD
ATOM     59  C   UNL A   1      45.407  30.074  30.331  1.00  0.00     0.074 A 
ATOM     60  C   UNL A   1      46.818  30.278  30.589  1.00  0.00     0.031 C 
ATOM     61  C   UNL A   1      44.449  31.007  30.554  1.00  0.00     0.037 A 
BRANCH  48  62
ATOM     62  C   UNL A   1      38.743  29.168  29.051  1.00  0.00     0.057 A 
ATOM     63  C   UNL A   1      37.879  29.089  30.153  1.00  0.00     0.134 A 
ATOM     64  C   UNL A   1      38.202  29.610  27.837  1.00  0.00     0.134 A 
ATOM     65  F   UNL A   1      38.332  28.662  31.341  1.00  0.00    -0.206 F 
ATOM     66  C   UNL A   1      36.525  29.411  30.044  1.00  0.00     0.040 A 
ATOM     67  C   UNL A   1      36.854  29.960  27.723  1.00  0.00     0.040 A 
ATOM     68  F   UNL A   1      38.974  29.716  26.745  1.00  0.00    -0.206 F 
ATOM     69  C   UNL A   1      36.011  29.854  28.827  1.00  0.00     0.006 A 
ENDBRANCH  48  62
BRANCH  49  70
ATOM     70  C   UNL A   1      48.369  26.547  29.390  1.00  0.00     0.057 A 
ATOM     71  C   UNL A   1      48.924  25.896  30.497  1.00  0.00     0.134 A 
ATOM     72  C   UNL A   1      49.219  26.826  28.313  1.00  0.00     0.134 A 
ATOM     73  F   UNL A   1      48.162  25.617  31.566  1.00  0.00    -0.206 F 
ATOM     74  C   UNL A   1      50.274  25.550  30.542  1.00  0.00     0.040 A 
ATOM     75  C   UNL A   1      50.567  26.465  28.333  1.00  0.00     0.040 A 
ATOM     76  F   UNL A   1      48.746  27.440  27.218  1.00  0.00    -0.206 F 
ATOM     77  C   UNL A   1      51.099  25.830  29.454  1.00  0.00     0.006 A 
ENDBRANCH  49  70
BRANCH  61  78
ATOM     78  C   UNL A   1      44.892  32.318  31.132  1.00  0.00     0.057 A 
ATOM     79  C   UNL A   1      45.241  33.403  30.318  1.00  0.00     0.134 A 
ATOM     80  C   UNL A   1      44.936  32.506  32.519  1.00  0.00     0.134 A 
ATOM     81  F   UNL A   1      45.233  33.282  28.982  1.00  0.00    -0.206 F 
ATOM     82  C   UNL A   1      45.639  34.624  30.866  1.00  0.00     0.040 A 
ATOM     83  C   UNL A   1      45.308  33.729  33.077  1.00  0.00     0.040 A 
ATOM     84  F   UNL A   1      44.605  31.508  33.353  1.00  0.00    -0.206 F 
ATOM     85  C   UNL A   1      45.667  34.790  32.249  1.00  0.00     0.006 A 
ENDBRANCH  61  78
ENDBRANCH  35  36
ENDBRANCH  27  30
ENDBRANCH  25  26
ENDBRANCH  24  25
ENDBRANCH   1  24
TORSDOF 13
ENDMDL
MODEL 2
REMARK VINA RESULT:     -11.8      2.048      2.891
REMARK SMILES Cc1cc(C(=O)Nc2ccn(C)n2)sc1/C=C/C(=O)NCCCNC(=O)c1ccc(-c2c3nc(c(-c4c(F)cccc4F)c4ccc([nH]4)c(-c4c(F)cccc4F)c4nc(c(-c5c(F)cccc5F)c5ccc2[nH]5)C=C4)C=C3)cc1
REMARK SMILES IDX 21 1 20 2 18 3 19 4 17 6 16 7 15 8 1 9 2 10 3 11 4 12 14 13
REMARK SMILES IDX 5 14 6 15 7 16 8 18 9 19 13 20 10 21 11 22 12 23 22 24 23 25
REMARK SMILES IDX 24 26 25 27 26 29 27 30 28 31 80 32 29 33 79 34 30 35 31 36
REMARK SMILES IDX 32 37 73 38 33 39 78 40 72 41 74 42 34 43 77 44 71 45 70 46
REMARK SMILES IDX 35 48 61 49 44 50 60 51 45 52 48 53 59 54 75 55 46 56 47 57
REMARK SMILES IDX 58 59 76 60 49 61 36 62 37 63 42 64 38 65 39 66 41 67 43 68
REMARK SMILES IDX 40 69 62 70 63 71 68 72 64 73 65 74 67 75 69 76 66 77 50 78
REMARK SMILES IDX 51 79 56 80 52 81 53 82 55 83 57 84 54 85
REMARK H PARENT 20 5 7 17 24 28 74 47 48 58
REMARK Flexibility Score: inf
ROOT
ATOM      1  C   UNL A   1      37.432  20.921  24.427  1.00  0.00     0.118 C 
ENDROOT
BRANCH   1   2
ATOM      2  N   UNL A   1      37.910  22.139  25.055  1.00  0.00    -0.352 N 
ATOM      3  C   UNL A   1      37.221  23.156  25.636  1.00  0.00     0.244 C 
ATOM      4  O   UNL A   1      37.828  24.061  26.202  1.00  0.00    -0.270 OA
ATOM      5  H   UNL A   1      38.890  22.246  25.061  1.00  0.00     0.163 HD
BRANCH   3   6
ATOM      6  C   UNL A   1      35.743  23.139  25.667  1.00  0.00     0.072 C 
ATOM      7  C   UNL A   1      35.027  22.170  26.257  1.00  0.00     0.025 C 
BRANCH   7   8
ATOM      8  C   UNL A   1      33.603  22.094  26.237  1.00  0.00     0.031 A 
ATOM      9  C   UNL A   1      33.185  20.509  24.249  1.00  0.00     0.046 C 
ATOM     10  C   UNL A   1      32.771  21.486  25.300  1.00  0.00    -0.032 A 
ATOM     11  C   UNL A   1      31.422  21.977  25.427  1.00  0.00     0.029 A 
ATOM     12  C   UNL A   1      31.257  22.849  26.488  1.00  0.00     0.093 A 
ATOM     13  S   UNL A   1      32.630  22.735  27.498  1.00  0.00    -0.130 S 
BRANCH  12  14
ATOM     14  C   UNL A   1      30.040  23.570  26.861  1.00  0.00     0.266 C 
ATOM     15  O   UNL A   1      29.203  23.057  27.608  1.00  0.00    -0.268 OA
ATOM     16  N   UNL A   1      29.819  24.874  26.472  1.00  0.00    -0.304 N 
ATOM     17  H   UNL A   1      29.182  25.372  27.033  1.00  0.00     0.171 HD
BRANCH  16  18
ATOM     18  C   UNL A   1      30.347  25.586  25.427  1.00  0.00     0.154 A 
ATOM     19  C   UNL A   1      29.843  25.782  24.118  1.00  0.00     0.068 A 
ATOM     20  N   UNL A   1      31.508  26.222  25.594  1.00  0.00    -0.155 NA
ATOM     21  C   UNL A   1      30.853  26.423  23.438  1.00  0.00     0.110 A 
ATOM     22  N   UNL A   1      31.856  26.587  24.346  1.00  0.00    -0.274 N 
ATOM     23  C   UNL A   1      33.214  26.993  24.078  1.00  0.00     0.173 C 
ENDBRANCH  16  18
ENDBRANCH  12  14
ENDBRANCH   7   8
ENDBRANCH   3   6
ENDBRANCH   1   2
BRANCH   1  24
ATOM     24  C   UNL A   1      38.179  19.699  24.956  1.00  0.00     0.042 C 
BRANCH  24  25
ATOM     25  C   UNL A   1      39.168  20.041  26.064  1.00  0.00     0.118 C 
BRANCH  25  26
ATOM     26  N   UNL A   1      40.351  19.193  26.009  1.00  0.00    -0.352 N 
ATOM     27  C   UNL A   1      41.680  19.527  26.035  1.00  0.00     0.251 C 
ATOM     28  H   UNL A   1      40.166  18.228  25.941  1.00  0.00     0.163 HD
ATOM     29  O   UNL A   1      42.519  18.685  25.732  1.00  0.00    -0.269 OA
BRANCH  27  30
ATOM     30  C   UNL A   1      42.110  20.887  26.420  1.00  0.00     0.039 A 
ATOM     31  C   UNL A   1      42.336  21.828  25.410  1.00  0.00     0.014 A 
ATOM     32  C   UNL A   1      42.349  21.224  27.755  1.00  0.00     0.014 A 
ATOM     33  C   UNL A   1      42.760  23.116  25.743  1.00  0.00     0.010 A 
ATOM     34  C   UNL A   1      42.704  22.527  28.091  1.00  0.00     0.010 A 
ATOM     35  C   UNL A   1      42.924  23.483  27.088  1.00  0.00    -0.014 A 
BRANCH  35  36
ATOM     36  C   UNL A   1      43.335  24.858  27.463  1.00  0.00     0.031 A 
ATOM     37  C   UNL A   1      42.317  25.841  27.968  1.00  0.00     0.074 A 
ATOM     38  C   UNL A   1      44.616  25.237  27.293  1.00  0.00     0.049 A 
ATOM     39  N   UNL A   1      42.469  27.103  28.280  1.00  0.00    -0.248 NA
ATOM     40  C   UNL A   1      40.938  25.347  28.120  1.00  0.00     0.031 C 
ATOM     41  C   UNL A   1      45.687  24.387  26.769  1.00  0.00     0.029 A 
ATOM     42  N   UNL A   1      45.232  26.439  27.533  1.00  0.00    -0.354 N 
ATOM     43  C   UNL A   1      41.209  27.557  28.647  1.00  0.00     0.074 A 
ATOM     44  C   UNL A   1      40.293  26.450  28.473  1.00  0.00     0.031 C 
ATOM     45  C   UNL A   1      46.831  25.089  26.744  1.00  0.00     0.029 A 
ATOM     46  C   UNL A   1      46.568  26.445  27.217  1.00  0.00     0.049 A 
ATOM     47  H   UNL A   1      44.760  27.223  27.896  1.00  0.00     0.167 HD
ATOM     48  C   UNL A   1      40.850  28.780  29.107  1.00  0.00     0.037 A 
ATOM     49  C   UNL A   1      47.477  27.434  27.294  1.00  0.00     0.037 A 
ATOM     50  C   UNL A   1      41.768  29.871  29.302  1.00  0.00     0.049 A 
ATOM     51  C   UNL A   1      47.056  28.780  27.814  1.00  0.00     0.074 A 
ATOM     52  C   UNL A   1      41.513  31.131  29.815  1.00  0.00     0.029 A 
ATOM     53  N   UNL A   1      43.119  29.830  28.994  1.00  0.00    -0.354 N 
ATOM     54  N   UNL A   1      45.872  29.178  28.211  1.00  0.00    -0.248 NA
ATOM     55  C   UNL A   1      48.099  29.811  27.902  1.00  0.00     0.031 C 
ATOM     56  C   UNL A   1      42.704  31.865  29.783  1.00  0.00     0.029 A 
ATOM     57  C   UNL A   1      43.708  31.048  29.290  1.00  0.00     0.049 A 
ATOM     58  H   UNL A   1      43.589  29.051  28.620  1.00  0.00     0.167 HD
ATOM     59  C   UNL A   1      46.032  30.495  28.619  1.00  0.00     0.074 A 
ATOM     60  C   UNL A   1      47.430  30.824  28.434  1.00  0.00     0.031 C 
ATOM     61  C   UNL A   1      45.104  31.356  29.104  1.00  0.00     0.037 A 
BRANCH  48  62
ATOM     62  C   UNL A   1      39.401  28.996  29.435  1.00  0.00     0.057 A 
ATOM     63  C   UNL A   1      38.893  28.765  30.720  1.00  0.00     0.134 A 
ATOM     64  C   UNL A   1      38.510  29.471  28.464  1.00  0.00     0.134 A 
ATOM     65  F   UNL A   1      39.691  28.298  31.692  1.00  0.00    -0.206 F 
ATOM     66  C   UNL A   1      37.545  28.971  31.021  1.00  0.00     0.040 A 
ATOM     67  C   UNL A   1      37.166  29.706  28.760  1.00  0.00     0.040 A 
ATOM     68  F   UNL A   1      38.932  29.720  27.215  1.00  0.00    -0.206 F 
ATOM     69  C   UNL A   1      36.679  29.449  30.040  1.00  0.00     0.006 A 
ENDBRANCH  48  62
BRANCH  49  70
ATOM     70  C   UNL A   1      48.882  27.179  26.893  1.00  0.00     0.057 A 
ATOM     71  C   UNL A   1      49.294  27.335  25.565  1.00  0.00     0.134 A 
ATOM     72  C   UNL A   1      49.847  26.779  27.825  1.00  0.00     0.134 A 
ATOM     73  F   UNL A   1      48.410  27.701  24.624  1.00  0.00    -0.206 F 
ATOM     74  C   UNL A   1      50.609  27.086  25.172  1.00  0.00     0.040 A 
ATOM     75  C   UNL A   1      51.172  26.549  27.451  1.00  0.00     0.040 A 
ATOM     76  F   UNL A   1      49.518  26.621  29.116  1.00  0.00    -0.206 F 
ATOM     77  C   UNL A   1      51.555  26.697  26.119  1.00  0.00     0.006 A 
ENDBRANCH  49  70
BRANCH  61  78
ATOM     78  C   UNL A   1      45.578  32.724  29.496  1.00  0.00     0.057 A 
ATOM     79  C   UNL A   1      45.530  33.804  28.607  1.00  0.00     0.134 A 
ATOM     80  C   UNL A   1      46.056  32.968  30.789  1.00  0.00     0.134 A 
ATOM     81  F   UNL A   1      45.096  33.632  27.349  1.00  0.00    -0.206 F 
ATOM     82  C   UNL A   1      45.963  35.077  28.985  1.00  0.00     0.040 A 
ATOM     83  C   UNL A   1      46.468  34.241  31.186  1.00  0.00     0.040 A 
ATOM     84  F   UNL A   1      46.120  31.977  31.691  1.00  0.00    -0.206 F 
ATOM     85  C   UNL A   1      46.427  35.298  30.280  1.00  0.00     0.006 A 
ENDBRANCH  61  78
ENDBRANCH  35  36
ENDBRANCH  27  30
ENDBRANCH  25  26
ENDBRANCH  24  25
ENDBRANCH   1  24
TORSDOF 13
ENDMDL
MODEL 3
REMARK VINA RESULT:     -11.8      1.712      6.672
REMARK SMILES Cc1cc(C(=O)Nc2ccn(C)n2)sc1/C=C/C(=O)NCCCNC(=O)c1ccc(-c2c3nc(c(-c4c(F)cccc4F)c4ccc([nH]4)c(-c4c(F)cccc4F)c4nc(c(-c5c(F)cccc5F)c5ccc2[nH]5)C=C4)C=C3)cc1
REMARK SMILES IDX 21 1 20 2 18 3 19 4 17 6 16 7 15 8 1 9 2 10 3 11 4 12 14 13
REMARK SMILES IDX 5 14 6 15 7 16 8 18 9 19 13 20 10 21 11 22 12 23 22 24 23 25
REMARK SMILES IDX 24 26 25 27 26 29 27 30 28 31 80 32 29 33 79 34 30 35 31 36
REMARK SMILES IDX 32 37 73 38 33 39 78 40 72 41 74 42 34 43 77 44 71 45 70 46
REMARK SMILES IDX 35 48 61 49 44 50 60 51 45 52 48 53 59 54 75 55 46 56 47 57
REMARK SMILES IDX 58 59 76 60 49 61 36 62 37 63 42 64 38 65 39 66 41 67 43 68
REMARK SMILES IDX 40 69 62 70 63 71 68 72 64 73 65 74 67 75 69 76 66 77 50 78
REMARK SMILES IDX 51 79 56 80 52 81 53 82 55 83 57 84 54 85
REMARK H PARENT 20 5 7 17 24 28 74 47 48 58
REMARK Flexibility Score: inf
ROOT
ATOM      1  C   UNL A   1      37.490  20.668  24.582  1.00  0.00     0.118 C 
ENDROOT
BRANCH   1   2
ATOM      2  N   UNL A   1      37.995  21.902  25.157  1.00  0.00    -0.352 N 
ATOM      3  C   UNL A   1      37.327  22.959  25.688  1.00  0.00     0.244 C 
ATOM      4  O   UNL A   1      37.953  23.875  26.215  1.00  0.00    -0.270 OA
ATOM      5  H   UNL A   1      38.976  21.987  25.161  1.00  0.00     0.163 HD
BRANCH   3   6
ATOM      6  C   UNL A   1      35.849  22.977  25.714  1.00  0.00     0.072 C 
ATOM      7  C   UNL A   1      35.108  22.016  26.284  1.00  0.00     0.025 C 
BRANCH   7   8
ATOM      8  C   UNL A   1      33.683  21.974  26.257  1.00  0.00     0.031 A 
ATOM      9  C   UNL A   1      33.235  20.408  24.261  1.00  0.00     0.046 C 
ATOM     10  C   UNL A   1      32.839  21.391  25.315  1.00  0.00    -0.032 A 
ATOM     11  C   UNL A   1      31.503  21.914  25.438  1.00  0.00     0.029 A 
ATOM     12  C   UNL A   1      31.354  22.786  26.502  1.00  0.00     0.093 A 
ATOM     13  S   UNL A   1      32.720  22.634  27.517  1.00  0.00    -0.130 S 
BRANCH  12  14
ATOM     14  C   UNL A   1      30.154  23.535  26.873  1.00  0.00     0.266 C 
ATOM     15  O   UNL A   1      29.307  23.043  27.623  1.00  0.00    -0.268 OA
ATOM     16  N   UNL A   1      29.960  24.841  26.477  1.00  0.00    -0.304 N 
ATOM     17  H   UNL A   1      29.335  25.355  27.036  1.00  0.00     0.171 HD
BRANCH  16  18
ATOM     18  C   UNL A   1      30.502  25.536  25.428  1.00  0.00     0.154 A 
ATOM     19  C   UNL A   1      31.854  25.851  25.151  1.00  0.00     0.068 A 
ATOM     20  N   UNL A   1      29.694  26.018  24.481  1.00  0.00    -0.155 NA
ATOM     21  C   UNL A   1      31.809  26.709  24.076  1.00  0.00     0.110 A 
ATOM     22  N   UNL A   1      30.488  26.838  23.769  1.00  0.00    -0.274 N 
ATOM     23  C   UNL A   1      29.893  27.803  22.876  1.00  0.00     0.173 C 
ENDBRANCH  16  18
ENDBRANCH  12  14
ENDBRANCH   7   8
ENDBRANCH   3   6
ENDBRANCH   1   2
BRANCH   1  24
ATOM     24  C   UNL A   1      38.427  19.499  24.879  1.00  0.00     0.042 C 
BRANCH  24  25
ATOM     25  C   UNL A   1      39.357  19.768  26.057  1.00  0.00     0.118 C 
BRANCH  25  26
ATOM     26  N   UNL A   1      40.643  19.106  25.888  1.00  0.00    -0.352 N 
ATOM     27  C   UNL A   1      41.913  19.620  25.924  1.00  0.00     0.251 C 
ATOM     28  H   UNL A   1      40.592  18.137  25.720  1.00  0.00     0.163 HD
ATOM     29  O   UNL A   1      42.850  18.940  25.516  1.00  0.00    -0.269 OA
BRANCH  27  30
ATOM     30  C   UNL A   1      42.164  20.980  26.444  1.00  0.00     0.039 A 
ATOM     31  C   UNL A   1      42.118  21.187  27.827  1.00  0.00     0.014 A 
ATOM     32  C   UNL A   1      42.384  22.058  25.583  1.00  0.00     0.014 A 
ATOM     33  C   UNL A   1      42.333  22.466  28.345  1.00  0.00     0.010 A 
ATOM     34  C   UNL A   1      42.667  23.318  26.103  1.00  0.00     0.010 A 
ATOM     35  C   UNL A   1      42.634  23.537  27.488  1.00  0.00    -0.014 A 
BRANCH  35  36
ATOM     36  C   UNL A   1      42.906  24.893  28.023  1.00  0.00     0.031 A 
ATOM     37  C   UNL A   1      44.301  25.283  28.425  1.00  0.00     0.074 A 
ATOM     38  C   UNL A   1      41.885  25.753  28.200  1.00  0.00     0.049 A 
ATOM     39  N   UNL A   1      44.724  26.393  28.975  1.00  0.00    -0.248 NA
ATOM     40  C   UNL A   1      45.357  24.282  28.204  1.00  0.00     0.031 C 
ATOM     41  C   UNL A   1      40.482  25.475  27.889  1.00  0.00     0.029 A 
ATOM     42  N   UNL A   1      41.869  27.032  28.695  1.00  0.00    -0.354 N 
ATOM     43  C   UNL A   1      46.086  26.219  29.179  1.00  0.00     0.074 A 
ATOM     44  C   UNL A   1      46.412  24.880  28.740  1.00  0.00     0.031 C 
ATOM     45  C   UNL A   1      39.745  26.558  28.183  1.00  0.00     0.029 A 
ATOM     46  C   UNL A   1      40.616  27.591  28.734  1.00  0.00     0.049 A 
ATOM     47  H   UNL A   1      42.680  27.504  28.994  1.00  0.00     0.167 HD
ATOM     48  C   UNL A   1      46.988  27.103  29.669  1.00  0.00     0.037 A 
ATOM     49  C   UNL A   1      40.213  28.799  29.172  1.00  0.00     0.037 A 
ATOM     50  C   UNL A   1      46.665  28.443  30.081  1.00  0.00     0.049 A 
ATOM     51  C   UNL A   1      41.235  29.765  29.704  1.00  0.00     0.074 A 
ATOM     52  C   UNL A   1      47.516  29.434  30.539  1.00  0.00     0.029 A 
ATOM     53  N   UNL A   1      45.387  28.982  30.082  1.00  0.00    -0.354 N 
ATOM     54  N   UNL A   1      42.529  29.607  29.838  1.00  0.00    -0.248 NA
ATOM     55  C   UNL A   1      40.739  31.078  30.139  1.00  0.00     0.031 C 
ATOM     56  C   UNL A   1      46.747  30.561  30.853  1.00  0.00     0.029 A 
ATOM     57  C   UNL A   1      45.424  30.285  30.549  1.00  0.00     0.049 A 
ATOM     58  H   UNL A   1      44.574  28.507  29.795  1.00  0.00     0.167 HD
ATOM     59  C   UNL A   1      43.006  30.806  30.349  1.00  0.00     0.074 A 
ATOM     60  C   UNL A   1      41.865  31.686  30.487  1.00  0.00     0.031 C 
ATOM     61  C   UNL A   1      44.277  31.149  30.675  1.00  0.00     0.037 A 
BRANCH  48  62
ATOM     62  C   UNL A   1      48.413  26.645  29.780  1.00  0.00     0.057 A 
ATOM     63  C   UNL A   1      49.354  26.908  28.774  1.00  0.00     0.134 A 
ATOM     64  C   UNL A   1      48.860  25.961  30.917  1.00  0.00     0.134 A 
ATOM     65  F   UNL A   1      48.988  27.550  27.654  1.00  0.00    -0.206 F 
ATOM     66  C   UNL A   1      50.679  26.483  28.883  1.00  0.00     0.040 A 
ATOM     67  C   UNL A   1      50.189  25.553  31.049  1.00  0.00     0.040 A 
ATOM     68  F   UNL A   1      48.014  25.682  31.921  1.00  0.00    -0.206 F 
ATOM     69  C   UNL A   1      51.101  25.809  30.027  1.00  0.00     0.006 A 
ENDBRANCH  48  62
BRANCH  49  70
ATOM     70  C   UNL A   1      38.780  29.172  29.098  1.00  0.00     0.057 A 
ATOM     71  C   UNL A   1      38.210  29.611  27.898  1.00  0.00     0.134 A 
ATOM     72  C   UNL A   1      37.946  29.094  30.219  1.00  0.00     0.134 A 
ATOM     73  F   UNL A   1      38.964  29.722  26.794  1.00  0.00    -0.206 F 
ATOM     74  C   UNL A   1      36.866  29.978  27.817  1.00  0.00     0.040 A 
ATOM     75  C   UNL A   1      36.594  29.435  30.148  1.00  0.00     0.040 A 
ATOM     76  F   UNL A   1      38.430  28.671  31.396  1.00  0.00    -0.206 F 
ATOM     77  C   UNL A   1      36.052  29.884  28.945  1.00  0.00     0.006 A 
ENDBRANCH  49  70
BRANCH  61  78
ATOM     78  C   UNL A   1      44.501  32.542  31.183  1.00  0.00     0.057 A 
ATOM     79  C   UNL A   1      44.753  33.612  30.317  1.00  0.00     0.134 A 
ATOM     80  C   UNL A   1      44.428  32.819  32.554  1.00  0.00     0.134 A 
ATOM     81  F   UNL A   1      44.848  33.409  28.995  1.00  0.00    -0.206 F 
ATOM     82  C   UNL A   1      44.948  34.908  30.799  1.00  0.00     0.040 A 
ATOM     83  C   UNL A   1      44.596  34.115  33.046  1.00  0.00     0.040 A 
ATOM     84  F   UNL A   1      44.181  31.839  33.436  1.00  0.00    -0.206 F 
ATOM     85  C   UNL A   1      44.863  35.162  32.167  1.00  0.00     0.006 A 
ENDBRANCH  61  78
ENDBRANCH  35  36
ENDBRANCH  27  30
ENDBRANCH  25  26
ENDBRANCH  24  25
ENDBRANCH   1  24
TORSDOF 13
ENDMDL
