MODEL 1
REMARK VINA RESULT:     -11.4      0.000      0.000
REMARK SMILES COCCn1cc(NC(=O)N[C@H]2C=C[C@H](C(=O)NCCCNC(=O)c3ccc(-c4c5nc(c(-c6c(F)cccc6F)c6ccc([nH]6)c(-c6c(F)cccc6F)c6nc(c(-c7c(F)cccc7F)c7ccc4[nH]7)C=C6)C=C5)cc3)C2)cn1
REMARK SMILES IDX 16 1 17 2 18 3 15 5 12 6 13 7 79 8 14 9 11 10 8 11 9 12
REMARK SMILES IDX 10 14 7 16 5 17 6 18 81 19 80 20 4 21 3 22 2 23 1 24 19 25
REMARK SMILES IDX 20 26 21 27 22 28 23 29 24 31 25 32 26 33 78 34 27 35 77 36
REMARK SMILES IDX 28 37 29 38 30 39 71 40 31 41 76 42 70 43 72 44 32 45 75 46
REMARK SMILES IDX 69 47 68 48 33 50 59 51 42 52 58 53 43 54 46 55 57 56 73 57
REMARK SMILES IDX 44 58 45 59 56 61 74 62 47 63 34 64 35 65 40 66 36 67 37 68
REMARK SMILES IDX 39 69 41 70 38 71 60 72 61 73 66 74 62 75 63 76 65 77 67 78
REMARK SMILES IDX 64 79 48 80 49 81 54 82 50 83 51 84 53 85 55 86 52 87
REMARK H PARENT 18 4 8 13 11 15 22 30 72 49 46 60
REMARK Flexibility Score: inf
ROOT
ATOM      1  C   UNL A   1      32.454  28.539  24.466  1.00  0.00     0.227 C 
ATOM      2  O   UNL A   1      32.716  28.204  23.311  1.00  0.00    -0.274 OA
ATOM      3  N   UNL A   1      33.079  29.658  24.958  1.00  0.00    -0.356 N 
ATOM      4  H   UNL A   1      33.782  30.030  24.379  1.00  0.00     0.163 HD
ENDROOT
BRANCH   1   5
ATOM      5  C   UNL A   1      31.480  27.755  25.359  1.00  0.00     0.103 C 
ATOM      6  C   UNL A   1      31.694  25.358  25.988  1.00  0.00     0.107 C 
ATOM      7  C   UNL A   1      30.717  25.567  24.881  1.00  0.00    -0.006 C 
ATOM      8  C   UNL A   1      32.179  26.775  26.337  1.00  0.00     0.047 C 
ATOM      9  C   UNL A   1      30.611  26.851  24.531  1.00  0.00    -0.016 C 
BRANCH   6  10
ATOM     10  N   UNL A   1      31.099  24.460  26.974  1.00  0.00    -0.332 N 
ATOM     11  N   UNL A   1      31.270  22.218  26.243  1.00  0.00    -0.305 N 
ATOM     12  C   UNL A   1      30.637  23.191  26.934  1.00  0.00     0.319 C 
ATOM     13  H   UNL A   1      30.708  21.560  25.775  1.00  0.00     0.171 HD
ATOM     14  O   UNL A   1      29.606  22.925  27.555  1.00  0.00    -0.248 OA
ATOM     15  H   UNL A   1      31.015  24.871  27.866  1.00  0.00     0.165 HD
BRANCH  11  16
ATOM     16  C   UNL A   1      32.635  22.068  26.134  1.00  0.00     0.081 A 
ATOM     17  N   UNL A   1      34.680  22.104  25.364  1.00  0.00    -0.268 N 
ATOM     18  C   UNL A   1      33.369  22.201  24.976  1.00  0.00     0.135 A 
ATOM     19  N   UNL A   1      34.816  21.739  26.646  1.00  0.00    -0.179 NA
ATOM     20  C   UNL A   1      33.575  21.729  27.118  1.00  0.00     0.161 A 
BRANCH  17  21
ATOM     21  C   UNL A   1      35.863  22.410  24.576  1.00  0.00     0.172 C 
BRANCH  21  22
ATOM     22  C   UNL A   1      37.078  21.543  24.922  1.00  0.00     0.183 C 
BRANCH  22  23
ATOM     23  O   UNL A   1      38.109  22.175  25.685  1.00  0.00    -0.383 OA
ATOM     24  C   UNL A   1      37.885  23.555  25.964  1.00  0.00     0.194 C 
ENDBRANCH  22  23
ENDBRANCH  21  22
ENDBRANCH  17  21
ENDBRANCH  11  16
ENDBRANCH   6  10
ENDBRANCH   1   5
BRANCH   3  25
ATOM     25  C   UNL A   1      32.861  30.378  26.205  1.00  0.00     0.117 C 
BRANCH  25  26
ATOM     26  C   UNL A   1      33.842  30.005  27.319  1.00  0.00     0.042 C 
BRANCH  26  27
ATOM     27  C   UNL A   1      34.909  31.050  27.582  1.00  0.00     0.118 C 
BRANCH  27  28
ATOM     28  N   UNL A   1      34.582  31.970  28.670  1.00  0.00    -0.352 N 
ATOM     29  C   UNL A   1      35.085  31.967  29.964  1.00  0.00     0.251 C 
ATOM     30  H   UNL A   1      33.929  32.676  28.461  1.00  0.00     0.163 HD
ATOM     31  O   UNL A   1      34.517  32.555  30.865  1.00  0.00    -0.269 OA
BRANCH  29  32
ATOM     32  C   UNL A   1      36.331  31.218  30.223  1.00  0.00     0.039 A 
ATOM     33  C   UNL A   1      36.323  29.842  30.461  1.00  0.00     0.014 A 
ATOM     34  C   UNL A   1      37.527  31.923  30.161  1.00  0.00     0.014 A 
ATOM     35  C   UNL A   1      37.542  29.170  30.540  1.00  0.00     0.010 A 
ATOM     36  C   UNL A   1      38.706  31.240  30.040  1.00  0.00     0.010 A 
ATOM     37  C   UNL A   1      38.733  29.876  30.300  1.00  0.00    -0.014 A 
BRANCH  37  38
ATOM     38  C   UNL A   1      40.016  29.190  30.205  1.00  0.00     0.031 A 
ATOM     39  C   UNL A   1      40.707  28.991  31.510  1.00  0.00     0.074 A 
ATOM     40  C   UNL A   1      40.427  28.575  29.072  1.00  0.00     0.049 A 
ATOM     41  N   UNL A   1      41.833  29.495  31.893  1.00  0.00    -0.248 NA
ATOM     42  C   UNL A   1      39.999  28.250  32.569  1.00  0.00     0.031 C 
ATOM     43  C   UNL A   1      39.705  28.413  27.803  1.00  0.00     0.029 A 
ATOM     44  N   UNL A   1      41.562  27.858  28.852  1.00  0.00    -0.354 N 
ATOM     45  C   UNL A   1      42.082  28.967  33.157  1.00  0.00     0.074 A 
ATOM     46  C   UNL A   1      40.849  28.363  33.591  1.00  0.00     0.031 C 
ATOM     47  C   UNL A   1      40.298  27.458  27.055  1.00  0.00     0.029 A 
ATOM     48  C   UNL A   1      41.538  27.076  27.701  1.00  0.00     0.049 A 
ATOM     49  H   UNL A   1      42.337  27.889  29.457  1.00  0.00     0.167 HD
ATOM     50  C   UNL A   1      43.353  28.852  33.631  1.00  0.00     0.037 A 
ATOM     51  C   UNL A   1      42.469  26.165  27.320  1.00  0.00     0.037 A 
ATOM     52  C   UNL A   1      44.263  29.680  32.880  1.00  0.00     0.049 A 
ATOM     53  C   UNL A   1      43.710  26.467  28.072  1.00  0.00     0.074 A 
ATOM     54  C   UNL A   1      44.354  31.035  32.619  1.00  0.00     0.029 A 
ATOM     55  N   UNL A   1      45.049  29.069  31.933  1.00  0.00    -0.354 N 
ATOM     56  N   UNL A   1      44.422  27.544  27.889  1.00  0.00    -0.248 NA
ATOM     57  C   UNL A   1      43.890  25.808  29.356  1.00  0.00     0.031 C 
ATOM     58  C   UNL A   1      44.758  31.116  31.253  1.00  0.00     0.029 A 
ATOM     59  C   UNL A   1      44.968  29.818  30.788  1.00  0.00     0.049 A 
ATOM     60  H   UNL A   1      45.572  28.244  32.055  1.00  0.00     0.167 HD
ATOM     61  C   UNL A   1      44.791  27.943  29.166  1.00  0.00     0.074 A 
ATOM     62  C   UNL A   1      44.501  26.791  30.021  1.00  0.00     0.031 C 
ATOM     63  C   UNL A   1      45.016  29.258  29.458  1.00  0.00     0.037 A 
BRANCH  50  64
ATOM     64  C   UNL A   1      43.840  27.716  34.501  1.00  0.00     0.057 A 
ATOM     65  C   UNL A   1      43.777  26.400  34.007  1.00  0.00     0.134 A 
ATOM     66  C   UNL A   1      44.078  27.823  35.886  1.00  0.00     0.134 A 
ATOM     67  F   UNL A   1      43.544  26.162  32.708  1.00  0.00    -0.206 F 
ATOM     68  C   UNL A   1      43.863  25.278  34.842  1.00  0.00     0.040 A 
ATOM     69  C   UNL A   1      44.217  26.709  36.720  1.00  0.00     0.040 A 
ATOM     70  F   UNL A   1      44.089  28.996  36.528  1.00  0.00    -0.206 F 
ATOM     71  C   UNL A   1      44.075  25.432  36.206  1.00  0.00     0.006 A 
ENDBRANCH  50  64
BRANCH  51  72
ATOM     72  C   UNL A   1      42.273  24.884  26.603  1.00  0.00     0.057 A 
ATOM     73  C   UNL A   1      43.056  24.549  25.489  1.00  0.00     0.134 A 
ATOM     74  C   UNL A   1      41.521  23.837  27.166  1.00  0.00     0.134 A 
ATOM     75  F   UNL A   1      43.838  25.469  24.908  1.00  0.00    -0.206 F 
ATOM     76  C   UNL A   1      43.111  23.244  24.981  1.00  0.00     0.040 A 
ATOM     77  C   UNL A   1      41.564  22.530  26.665  1.00  0.00     0.040 A 
ATOM     78  F   UNL A   1      40.794  24.026  28.277  1.00  0.00    -0.206 F 
ATOM     79  C   UNL A   1      42.374  22.226  25.579  1.00  0.00     0.006 A 
ENDBRANCH  51  72
BRANCH  63  80
ATOM     80  C   UNL A   1      45.090  30.233  28.313  1.00  0.00     0.057 A 
ATOM     81  C   UNL A   1      43.994  30.953  27.809  1.00  0.00     0.134 A 
ATOM     82  C   UNL A   1      46.348  30.570  27.803  1.00  0.00     0.134 A 
ATOM     83  F   UNL A   1      42.762  30.775  28.299  1.00  0.00    -0.206 F 
ATOM     84  C   UNL A   1      44.141  31.929  26.819  1.00  0.00     0.040 A 
ATOM     85  C   UNL A   1      46.513  31.567  26.838  1.00  0.00     0.040 A 
ATOM     86  F   UNL A   1      47.451  29.966  28.272  1.00  0.00    -0.206 F 
ATOM     87  C   UNL A   1      45.405  32.244  26.334  1.00  0.00     0.006 A 
ENDBRANCH  63  80
ENDBRANCH  37  38
ENDBRANCH  29  32
ENDBRANCH  27  28
ENDBRANCH  26  27
ENDBRANCH  25  26
ENDBRANCH   3  25
TORSDOF 15
ENDMDL
MODEL 2
REMARK VINA RESULT:     -11.3      2.726      7.464
REMARK SMILES COCCn1cc(NC(=O)N[C@H]2C=C[C@H](C(=O)NCCCNC(=O)c3ccc(-c4c5nc(c(-c6c(F)cccc6F)c6ccc([nH]6)c(-c6c(F)cccc6F)c6nc(c(-c7c(F)cccc7F)c7ccc4[nH]7)C=C6)C=C5)cc3)C2)cn1
REMARK SMILES IDX 16 1 17 2 18 3 15 5 12 6 13 7 79 8 14 9 11 10 8 11 9 12
REMARK SMILES IDX 10 14 7 16 5 17 6 18 81 19 80 20 4 21 3 22 2 23 1 24 19 25
REMARK SMILES IDX 20 26 21 27 22 28 23 29 24 31 25 32 26 33 78 34 27 35 77 36
REMARK SMILES IDX 28 37 29 38 30 39 71 40 31 41 76 42 70 43 72 44 32 45 75 46
REMARK SMILES IDX 69 47 68 48 33 50 59 51 42 52 58 53 43 54 46 55 57 56 73 57
REMARK SMILES IDX 44 58 45 59 56 61 74 62 47 63 34 64 35 65 40 66 36 67 37 68
REMARK SMILES IDX 39 69 41 70 38 71 60 72 61 73 66 74 62 75 63 76 65 77 67 78
REMARK SMILES IDX 64 79 48 80 49 81 54 82 50 83 51 84 53 85 55 86 52 87
REMARK H PARENT 18 4 8 13 11 15 22 30 72 49 46 60
REMARK Flexibility Score: inf
ROOT
ATOM      1  C   UNL A   1      36.904  23.133  25.359  1.00  0.00     0.227 C 
ATOM      2  O   UNL A   1      37.482  24.105  25.846  1.00  0.00    -0.274 OA
ATOM      3  N   UNL A   1      37.646  21.999  25.142  1.00  0.00    -0.356 N 
ATOM      4  H   UNL A   1      38.615  22.101  25.285  1.00  0.00     0.163 HD
ENDROOT
BRANCH   1   5
ATOM      5  C   UNL A   1      35.415  23.153  24.983  1.00  0.00     0.103 C 
ATOM      6  C   UNL A   1      34.106  25.166  24.334  1.00  0.00     0.107 C 
ATOM      7  C   UNL A   1      33.876  24.776  25.755  1.00  0.00    -0.006 C 
ATOM      8  C   UNL A   1      35.080  24.102  23.802  1.00  0.00     0.047 C 
ATOM      9  C   UNL A   1      34.590  23.704  26.111  1.00  0.00    -0.016 C 
BRANCH   6  10
ATOM     10  N   UNL A   1      32.814  25.440  23.710  1.00  0.00    -0.332 N 
ATOM     11  N   UNL A   1      32.036  23.519  22.571  1.00  0.00    -0.305 N 
ATOM     12  C   UNL A   1      32.108  24.861  22.714  1.00  0.00     0.319 C 
ATOM     13  H   UNL A   1      32.043  23.164  21.654  1.00  0.00     0.171 HD
ATOM     14  O   UNL A   1      31.514  25.592  21.918  1.00  0.00    -0.248 OA
ATOM     15  H   UNL A   1      32.357  26.220  24.101  1.00  0.00     0.165 HD
BRANCH  11  16
ATOM     16  C   UNL A   1      31.953  22.606  23.599  1.00  0.00     0.081 A 
ATOM     17  N   UNL A   1      32.334  20.889  24.895  1.00  0.00    -0.268 N 
ATOM     18  C   UNL A   1      32.594  21.388  23.646  1.00  0.00     0.135 A 
ATOM     19  N   UNL A   1      31.430  21.616  25.567  1.00  0.00    -0.179 NA
ATOM     20  C   UNL A   1      31.207  22.666  24.785  1.00  0.00     0.161 A 
BRANCH  17  21
ATOM     21  C   UNL A   1      32.963  19.750  25.545  1.00  0.00     0.172 C 
BRANCH  21  22
ATOM     22  C   UNL A   1      32.908  18.460  24.721  1.00  0.00     0.183 C 
BRANCH  22  23
ATOM     23  O   UNL A   1      34.132  18.054  24.100  1.00  0.00    -0.383 OA
ATOM     24  C   UNL A   1      34.017  16.925  23.238  1.00  0.00     0.194 C 
ENDBRANCH  22  23
ENDBRANCH  21  22
ENDBRANCH  17  21
ENDBRANCH  11  16
ENDBRANCH   6  10
ENDBRANCH   1   5
BRANCH   3  25
ATOM     25  C   UNL A   1      37.222  20.667  24.734  1.00  0.00     0.117 C 
BRANCH  25  26
ATOM     26  C   UNL A   1      38.189  19.553  25.140  1.00  0.00     0.042 C 
BRANCH  26  27
ATOM     27  C   UNL A   1      39.416  20.037  25.887  1.00  0.00     0.118 C 
BRANCH  27  28
ATOM     28  N   UNL A   1      40.579  19.162  25.749  1.00  0.00    -0.352 N 
ATOM     29  C   UNL A   1      41.920  19.513  25.827  1.00  0.00     0.251 C 
ATOM     30  H   UNL A   1      40.389  18.211  25.582  1.00  0.00     0.163 HD
ATOM     31  O   UNL A   1      42.790  18.790  25.380  1.00  0.00    -0.269 OA
BRANCH  29  32
ATOM     32  C   UNL A   1      42.265  20.801  26.461  1.00  0.00     0.039 A 
ATOM     33  C   UNL A   1      42.532  21.943  25.702  1.00  0.00     0.014 A 
ATOM     34  C   UNL A   1      42.253  20.855  27.849  1.00  0.00     0.014 A 
ATOM     35  C   UNL A   1      42.694  23.160  26.362  1.00  0.00     0.010 A 
ATOM     36  C   UNL A   1      42.213  22.070  28.476  1.00  0.00     0.010 A 
ATOM     37  C   UNL A   1      42.505  23.220  27.753  1.00  0.00    -0.014 A 
BRANCH  37  38
ATOM     38  C   UNL A   1      42.497  24.493  28.465  1.00  0.00     0.031 A 
ATOM     39  C   UNL A   1      41.253  25.293  28.285  1.00  0.00     0.074 A 
ATOM     40  C   UNL A   1      43.426  24.808  29.395  1.00  0.00     0.049 A 
ATOM     41  N   UNL A   1      41.130  26.445  27.715  1.00  0.00    -0.248 NA
ATOM     42  C   UNL A   1      39.967  24.680  28.663  1.00  0.00     0.031 C 
ATOM     43  C   UNL A   1      44.527  23.981  29.909  1.00  0.00     0.029 A 
ATOM     44  N   UNL A   1      43.517  25.922  30.170  1.00  0.00    -0.354 N 
ATOM     45  C   UNL A   1      39.791  26.803  27.851  1.00  0.00     0.074 A 
ATOM     46  C   UNL A   1      39.098  25.613  28.272  1.00  0.00     0.031 C 
ATOM     47  C   UNL A   1      45.004  24.512  31.055  1.00  0.00     0.029 A 
ATOM     48  C   UNL A   1      44.379  25.803  31.257  1.00  0.00     0.049 A 
ATOM     49  H   UNL A   1      43.014  26.745  29.979  1.00  0.00     0.167 HD
ATOM     50  C   UNL A   1      39.410  28.110  27.849  1.00  0.00     0.037 A 
ATOM     51  C   UNL A   1      44.548  26.701  32.260  1.00  0.00     0.037 A 
ATOM     52  C   UNL A   1      40.445  28.950  27.300  1.00  0.00     0.049 A 
ATOM     53  C   UNL A   1      44.023  28.001  31.777  1.00  0.00     0.074 A 
ATOM     54  C   UNL A   1      41.102  29.014  26.086  1.00  0.00     0.029 A 
ATOM     55  N   UNL A   1      41.229  29.654  28.181  1.00  0.00    -0.354 N 
ATOM     56  N   UNL A   1      44.575  28.691  30.818  1.00  0.00    -0.248 NA
ATOM     57  C   UNL A   1      42.622  28.291  32.032  1.00  0.00     0.031 C 
ATOM     58  C   UNL A   1      42.459  29.300  26.420  1.00  0.00     0.029 A 
ATOM     59  C   UNL A   1      42.534  29.474  27.802  1.00  0.00     0.049 A 
ATOM     60  H   UNL A   1      40.912  30.188  28.945  1.00  0.00     0.167 HD
ATOM     61  C   UNL A   1      43.508  29.166  30.069  1.00  0.00     0.074 A 
ATOM     62  C   UNL A   1      42.330  28.953  30.909  1.00  0.00     0.031 C 
ATOM     63  C   UNL A   1      43.638  29.411  28.731  1.00  0.00     0.037 A 
BRANCH  50  64
ATOM     64  C   UNL A   1      38.286  28.672  28.688  1.00  0.00     0.057 A 
ATOM     65  C   UNL A   1      37.423  29.630  28.124  1.00  0.00     0.134 A 
ATOM     66  C   UNL A   1      38.201  28.545  30.089  1.00  0.00     0.134 A 
ATOM     67  F   UNL A   1      37.415  29.857  26.802  1.00  0.00    -0.206 F 
ATOM     68  C   UNL A   1      36.600  30.453  28.904  1.00  0.00     0.040 A 
ATOM     69  C   UNL A   1      37.346  29.327  30.872  1.00  0.00     0.040 A 
ATOM     70  F   UNL A   1      39.006  27.739  30.790  1.00  0.00    -0.206 F 
ATOM     71  C   UNL A   1      36.567  30.308  30.284  1.00  0.00     0.006 A 
ENDBRANCH  50  64
BRANCH  51  72
ATOM     72  C   UNL A   1      44.834  26.449  33.691  1.00  0.00     0.057 A 
ATOM     73  C   UNL A   1      43.888  25.833  34.522  1.00  0.00     0.134 A 
ATOM     74  C   UNL A   1      46.140  26.538  34.204  1.00  0.00     0.134 A 
ATOM     75  F   UNL A   1      42.625  25.664  34.105  1.00  0.00    -0.206 F 
ATOM     76  C   UNL A   1      44.226  25.309  35.778  1.00  0.00     0.040 A 
ATOM     77  C   UNL A   1      46.490  26.024  35.458  1.00  0.00     0.040 A 
ATOM     78  F   UNL A   1      47.141  27.043  33.467  1.00  0.00    -0.206 F 
ATOM     79  C   UNL A   1      45.535  25.392  36.243  1.00  0.00     0.006 A 
ENDBRANCH  51  72
BRANCH  63  80
ATOM     80  C   UNL A   1      45.023  29.384  28.140  1.00  0.00     0.057 A 
ATOM     81  C   UNL A   1      45.632  28.243  27.593  1.00  0.00     0.134 A 
ATOM     82  C   UNL A   1      45.704  30.595  27.978  1.00  0.00     0.134 A 
ATOM     83  F   UNL A   1      45.019  27.054  27.608  1.00  0.00    -0.206 F 
ATOM     84  C   UNL A   1      46.875  28.300  26.955  1.00  0.00     0.040 A 
ATOM     85  C   UNL A   1      46.930  30.672  27.313  1.00  0.00     0.040 A 
ATOM     86  F   UNL A   1      45.161  31.739  28.425  1.00  0.00    -0.206 F 
ATOM     87  C   UNL A   1      47.526  29.520  26.807  1.00  0.00     0.006 A 
ENDBRANCH  63  80
ENDBRANCH  37  38
ENDBRANCH  29  32
ENDBRANCH  27  28
ENDBRANCH  26  27
ENDBRANCH  25  26
ENDBRANCH   3  25
TORSDOF 15
ENDMDL
MODEL 3
REMARK VINA RESULT:     -11.2      2.505      7.714
REMARK SMILES COCCn1cc(NC(=O)N[C@H]2C=C[C@H](C(=O)NCCCNC(=O)c3ccc(-c4c5nc(c(-c6c(F)cccc6F)c6ccc([nH]6)c(-c6c(F)cccc6F)c6nc(c(-c7c(F)cccc7F)c7ccc4[nH]7)C=C6)C=C5)cc3)C2)cn1
REMARK SMILES IDX 16 1 17 2 18 3 15 5 12 6 13 7 79 8 14 9 11 10 8 11 9 12
REMARK SMILES IDX 10 14 7 16 5 17 6 18 81 19 80 20 4 21 3 22 2 23 1 24 19 25
REMARK SMILES IDX 20 26 21 27 22 28 23 29 24 31 25 32 26 33 78 34 27 35 77 36
REMARK SMILES IDX 28 37 29 38 30 39 71 40 31 41 76 42 70 43 72 44 32 45 75 46
REMARK SMILES IDX 69 47 68 48 33 50 59 51 42 52 58 53 43 54 46 55 57 56 73 57
REMARK SMILES IDX 44 58 45 59 56 61 74 62 47 63 34 64 35 65 40 66 36 67 37 68
REMARK SMILES IDX 39 69 41 70 38 71 60 72 61 73 66 74 62 75 63 76 65 77 67 78
REMARK SMILES IDX 64 79 48 80 49 81 54 82 50 83 51 84 53 85 55 86 52 87
REMARK H PARENT 18 4 8 13 11 15 22 30 72 49 46 60
REMARK Flexibility Score: inf
ROOT
ATOM      1  C   UNL A   1      36.205  22.748  25.838  1.00  0.00     0.227 C 
ATOM      2  O   UNL A   1      36.473  23.796  26.426  1.00  0.00    -0.274 OA
ATOM      3  N   UNL A   1      37.147  22.247  24.975  1.00  0.00    -0.356 N 
ATOM      4  H   UNL A   1      37.915  22.840  24.808  1.00  0.00     0.163 HD
ENDROOT
BRANCH   1   5
ATOM      5  C   UNL A   1      34.873  22.006  26.026  1.00  0.00     0.103 C 
ATOM      6  C   UNL A   1      32.707  23.047  26.669  1.00  0.00     0.107 C 
ATOM      7  C   UNL A   1      33.385  22.393  27.825  1.00  0.00    -0.006 C 
ATOM      8  C   UNL A   1      33.643  22.778  25.480  1.00  0.00     0.047 C 
ATOM      9  C   UNL A   1      34.555  21.846  27.486  1.00  0.00    -0.016 C 
BRANCH   6  10
ATOM     10  N   UNL A   1      31.299  22.659  26.672  1.00  0.00    -0.332 N 
ATOM     11  N   UNL A   1      29.928  24.563  26.384  1.00  0.00    -0.305 N 
ATOM     12  C   UNL A   1      30.140  23.322  26.874  1.00  0.00     0.319 C 
ATOM     13  H   UNL A   1      29.425  25.191  26.951  1.00  0.00     0.171 HD
ATOM     14  O   UNL A   1      29.254  22.766  27.527  1.00  0.00    -0.248 OA
ATOM     15  H   UNL A   1      31.165  21.701  26.485  1.00  0.00     0.165 HD
BRANCH  11  16
ATOM     16  C   UNL A   1      30.355  25.026  25.159  1.00  0.00     0.081 A 
ATOM     17  N   UNL A   1      31.125  26.318  23.573  1.00  0.00    -0.268 N 
ATOM     18  C   UNL A   1      30.591  26.344  24.835  1.00  0.00     0.135 A 
ATOM     19  N   UNL A   1      31.072  25.102  23.013  1.00  0.00    -0.179 NA
ATOM     20  C   UNL A   1      30.615  24.314  23.979  1.00  0.00     0.161 A 
BRANCH  17  21
ATOM     21  C   UNL A   1      31.767  27.409  22.859  1.00  0.00     0.172 C 
BRANCH  21  22
ATOM     22  C   UNL A   1      30.953  28.706  22.849  1.00  0.00     0.183 C 
BRANCH  22  23
ATOM     23  O   UNL A   1      29.826  28.739  21.969  1.00  0.00    -0.383 OA
ATOM     24  C   UNL A   1      29.103  29.968  21.970  1.00  0.00     0.194 C 
ENDBRANCH  22  23
ENDBRANCH  21  22
ENDBRANCH  17  21
ENDBRANCH  11  16
ENDBRANCH   6  10
ENDBRANCH   1   5
BRANCH   3  25
ATOM     25  C   UNL A   1      37.185  20.975  24.268  1.00  0.00     0.117 C 
BRANCH  25  26
ATOM     26  C   UNL A   1      37.851  19.844  25.056  1.00  0.00     0.042 C 
BRANCH  26  27
ATOM     27  C   UNL A   1      39.107  20.260  25.795  1.00  0.00     0.118 C 
BRANCH  27  28
ATOM     28  N   UNL A   1      40.173  19.259  25.763  1.00  0.00    -0.352 N 
ATOM     29  C   UNL A   1      41.537  19.467  25.920  1.00  0.00     0.251 C 
ATOM     30  H   UNL A   1      39.891  18.328  25.613  1.00  0.00     0.163 HD
ATOM     31  O   UNL A   1      42.348  18.637  25.556  1.00  0.00    -0.269 OA
BRANCH  29  32
ATOM     32  C   UNL A   1      41.980  20.733  26.536  1.00  0.00     0.039 A 
ATOM     33  C   UNL A   1      42.369  21.828  25.761  1.00  0.00     0.014 A 
ATOM     34  C   UNL A   1      41.939  20.821  27.922  1.00  0.00     0.014 A 
ATOM     35  C   UNL A   1      42.623  23.041  26.399  1.00  0.00     0.010 A 
ATOM     36  C   UNL A   1      41.994  22.049  28.522  1.00  0.00     0.010 A 
ATOM     37  C   UNL A   1      42.405  23.150  27.782  1.00  0.00    -0.014 A 
BRANCH  37  38
ATOM     38  C   UNL A   1      42.495  24.435  28.467  1.00  0.00     0.031 A 
ATOM     39  C   UNL A   1      41.344  25.348  28.218  1.00  0.00     0.074 A 
ATOM     40  C   UNL A   1      43.413  24.681  29.428  1.00  0.00     0.049 A 
ATOM     41  N   UNL A   1      41.358  26.492  27.620  1.00  0.00    -0.248 NA
ATOM     42  C   UNL A   1      39.990  24.873  28.555  1.00  0.00     0.031 C 
ATOM     43  C   UNL A   1      44.405  23.763  30.005  1.00  0.00     0.029 A 
ATOM     44  N   UNL A   1      43.582  25.800  30.183  1.00  0.00    -0.354 N 
ATOM     45  C   UNL A   1      40.056  26.982  27.693  1.00  0.00     0.074 A 
ATOM     46  C   UNL A   1      39.233  25.876  28.109  1.00  0.00     0.031 C 
ATOM     47  C   UNL A   1      44.887  24.274  31.159  1.00  0.00     0.029 A 
ATOM     48  C   UNL A   1      44.384  25.624  31.308  1.00  0.00     0.049 A 
ATOM     49  H   UNL A   1      43.170  26.663  29.954  1.00  0.00     0.167 HD
ATOM     50  C   UNL A   1      39.806  28.319  27.647  1.00  0.00     0.037 A 
ATOM     51  C   UNL A   1      44.601  26.526  32.298  1.00  0.00     0.037 A 
ATOM     52  C   UNL A   1      40.939  29.040  27.125  1.00  0.00     0.049 A 
ATOM     53  C   UNL A   1      44.226  27.858  31.766  1.00  0.00     0.074 A 
ATOM     54  C   UNL A   1      41.647  29.010  25.938  1.00  0.00     0.029 A 
ATOM     55  N   UNL A   1      41.753  29.687  28.023  1.00  0.00    -0.354 N 
ATOM     56  N   UNL A   1      44.881  28.468  30.817  1.00  0.00    -0.248 NA
ATOM     57  C   UNL A   1      42.851  28.290  31.956  1.00  0.00     0.031 C 
ATOM     58  C   UNL A   1      43.011  29.171  26.323  1.00  0.00     0.029 A 
ATOM     59  C   UNL A   1      43.048  29.371  27.703  1.00  0.00     0.049 A 
ATOM     60  H   UNL A   1      41.460  30.268  28.761  1.00  0.00     0.167 HD
ATOM     61  C   UNL A   1      43.897  29.025  30.014  1.00  0.00     0.074 A 
ATOM     62  C   UNL A   1      42.670  28.950  30.809  1.00  0.00     0.031 C 
ATOM     63  C   UNL A   1      44.103  29.223  28.678  1.00  0.00     0.037 A 
BRANCH  50  64
ATOM     64  C   UNL A   1      38.710  29.009  28.426  1.00  0.00     0.057 A 
ATOM     65  C   UNL A   1      38.596  28.767  29.808  1.00  0.00     0.134 A 
ATOM     66  C   UNL A   1      37.600  29.649  27.839  1.00  0.00     0.134 A 
ATOM     67  F   UNL A   1      39.579  28.154  30.484  1.00  0.00    -0.206 F 
ATOM     68  C   UNL A   1      37.432  29.064  30.529  1.00  0.00     0.040 A 
ATOM     69  C   UNL A   1      36.454  29.996  28.561  1.00  0.00     0.040 A 
ATOM     70  F   UNL A   1      37.514  29.880  26.525  1.00  0.00    -0.206 F 
ATOM     71  C   UNL A   1      36.352  29.673  29.904  1.00  0.00     0.006 A 
ENDBRANCH  50  64
BRANCH  51  72
ATOM     72  C   UNL A   1      44.804  26.283  33.745  1.00  0.00     0.057 A 
ATOM     73  C   UNL A   1      43.730  25.947  34.581  1.00  0.00     0.134 A 
ATOM     74  C   UNL A   1      46.089  26.087  34.282  1.00  0.00     0.134 A 
ATOM     75  F   UNL A   1      42.468  26.061  34.144  1.00  0.00    -0.206 F 
ATOM     76  C   UNL A   1      43.921  25.420  35.866  1.00  0.00     0.040 A 
ATOM     77  C   UNL A   1      46.294  25.566  35.565  1.00  0.00     0.040 A 
ATOM     78  F   UNL A   1      47.188  26.306  33.545  1.00  0.00    -0.206 F 
ATOM     79  C   UNL A   1      45.207  25.215  36.356  1.00  0.00     0.006 A 
ENDBRANCH  51  72
BRANCH  63  80
ATOM     80  C   UNL A   1      45.501  29.047  28.146  1.00  0.00     0.057 A 
ATOM     81  C   UNL A   1      46.509  30.022  28.222  1.00  0.00     0.134 A 
ATOM     82  C   UNL A   1      45.884  27.786  27.679  1.00  0.00     0.134 A 
ATOM     83  F   UNL A   1      46.270  31.230  28.745  1.00  0.00    -0.206 F 
ATOM     84  C   UNL A   1      47.822  29.764  27.813  1.00  0.00     0.040 A 
ATOM     85  C   UNL A   1      47.198  27.505  27.298  1.00  0.00     0.040 A 
ATOM     86  F   UNL A   1      44.990  26.785  27.628  1.00  0.00    -0.206 F 
ATOM     87  C   UNL A   1      48.172  28.499  27.355  1.00  0.00     0.006 A 
ENDBRANCH  63  80
ENDBRANCH  37  38
ENDBRANCH  29  32
ENDBRANCH  27  28
ENDBRANCH  26  27
ENDBRANCH  25  26
ENDBRANCH   3  25
TORSDOF 15
ENDMDL
