MODEL 1
REMARK VINA RESULT:     -12.9      0.000      0.000
REMARK SMILES O=C(NCCCNC(=O)[C@H]1CC2(CCN(C(=O)C3CC3)CC2)CN1C(=O)CCn1cccn1)c1ccc(-c2c3nc(c(-c4c(F)cccc4F)c4ccc([nH]4)c(-c4c(F)cccc4F)c4nc(c(-c5c(F)cccc5F)c5ccc2[nH]5)C=C4)C=C3)cc1
REMARK SMILES IDX 6 1 5 2 4 3 3 4 1 5 2 6 34 8 35 9 87 10 36 11 86 12 37 13
REMARK SMILES IDX 38 14 39 15 80 16 40 17 85 18 79 19 81 20 41 21 84 22 78 23
REMARK SMILES IDX 77 24 42 26 68 27 51 28 67 29 52 30 55 31 66 32 82 33 53 34
REMARK SMILES IDX 54 35 65 37 83 38 56 39 43 40 44 41 49 42 45 43 46 44 48 45
REMARK SMILES IDX 50 46 47 47 69 48 70 49 75 50 71 51 72 52 74 53 76 54 73 55
REMARK SMILES IDX 57 56 58 57 63 58 59 59 60 60 62 61 64 62 61 63 7 64 8 65
REMARK SMILES IDX 9 67 10 68 11 69 24 70 12 71 23 72 13 73 22 74 14 75 21 76
REMARK SMILES IDX 15 77 16 78 17 79 25 80 26 81 27 82 28 83 29 84 30 85 33 86
REMARK SMILES IDX 31 87 32 88 18 89 19 90 20 91
REMARK H PARENT 3 7 81 25 55 36 7 66
REMARK Flexibility Score: inf
ROOT
ATOM      1  C   UNL A   1      32.806  30.686  26.791  1.00  0.00     0.117 C 
ENDROOT
BRANCH   1   2
ATOM      2  C   UNL A   1      34.193  30.553  27.425  1.00  0.00     0.042 C 
BRANCH   2   3
ATOM      3  C   UNL A   1      34.766  31.805  28.099  1.00  0.00     0.118 C 
BRANCH   3   4
ATOM      4  N   UNL A   1      34.689  31.861  29.543  1.00  0.00    -0.352 N 
ATOM      5  O   UNL A   1      35.319  31.850  31.689  1.00  0.00    -0.269 OA
ATOM      6  C   UNL A   1      35.584  31.542  30.528  1.00  0.00     0.251 C 
ATOM      7  H   UNL A   1      33.826  32.191  29.883  1.00  0.00     0.163 HD
BRANCH   6   8
ATOM      8  C   UNL A   1      36.785  30.723  30.259  1.00  0.00     0.039 A 
ATOM      9  C   UNL A   1      36.810  29.325  30.260  1.00  0.00     0.014 A 
ATOM     10  C   UNL A   1      37.968  31.442  30.059  1.00  0.00     0.014 A 
ATOM     11  C   UNL A   1      38.024  28.654  30.262  1.00  0.00     0.010 A 
ATOM     12  C   UNL A   1      39.175  30.777  29.999  1.00  0.00     0.010 A 
ATOM     13  C   UNL A   1      39.204  29.391  30.178  1.00  0.00    -0.014 A 
BRANCH  13  14
ATOM     14  C   UNL A   1      40.482  28.690  30.134  1.00  0.00     0.031 A 
ATOM     15  C   UNL A   1      41.167  28.544  31.461  1.00  0.00     0.074 A 
ATOM     16  C   UNL A   1      40.831  28.022  29.013  1.00  0.00     0.049 A 
ATOM     17  N   UNL A   1      42.416  28.714  31.764  1.00  0.00    -0.248 NA
ATOM     18  C   UNL A   1      40.315  28.246  32.630  1.00  0.00     0.031 C 
ATOM     19  C   UNL A   1      40.062  27.900  27.767  1.00  0.00     0.029 A 
ATOM     20  N   UNL A   1      41.875  27.178  28.797  1.00  0.00    -0.354 N 
ATOM     21  C   UNL A   1      42.535  28.364  33.112  1.00  0.00     0.074 A 
ATOM     22  C   UNL A   1      41.201  28.217  33.624  1.00  0.00     0.031 C 
ATOM     23  C   UNL A   1      40.523  26.847  27.057  1.00  0.00     0.029 A 
ATOM     24  C   UNL A   1      41.687  26.306  27.731  1.00  0.00     0.049 A 
ATOM     25  H   UNL A   1      42.692  27.185  29.346  1.00  0.00     0.167 HD
ATOM     26  C   UNL A   1      43.722  28.001  33.669  1.00  0.00     0.037 A 
ATOM     27  C   UNL A   1      42.376  25.161  27.500  1.00  0.00     0.037 A 
ATOM     28  C   UNL A   1      44.839  28.502  32.922  1.00  0.00     0.049 A 
ATOM     29  C   UNL A   1      43.617  25.219  28.314  1.00  0.00     0.074 A 
ATOM     30  C   UNL A   1      45.309  29.762  32.608  1.00  0.00     0.029 A 
ATOM     31  N   UNL A   1      45.494  27.645  32.075  1.00  0.00    -0.354 N 
ATOM     32  N   UNL A   1      44.577  26.076  28.106  1.00  0.00    -0.248 NA
ATOM     33  C   UNL A   1      43.563  24.647  29.652  1.00  0.00     0.031 C 
ATOM     34  C   UNL A   1      45.803  29.645  31.276  1.00  0.00     0.029 A 
ATOM     35  C   UNL A   1      45.654  28.313  30.889  1.00  0.00     0.049 A 
ATOM     36  H   UNL A   1      45.790  26.729  32.280  1.00  0.00     0.167 HD
ATOM     37  C   UNL A   1      44.992  26.459  29.374  1.00  0.00     0.074 A 
ATOM     38  C   UNL A   1      44.368  25.503  30.287  1.00  0.00     0.031 C 
ATOM     39  C   UNL A   1      45.564  27.679  29.598  1.00  0.00     0.037 A 
BRANCH  26  40
ATOM     40  C   UNL A   1      43.862  26.890  34.684  1.00  0.00     0.057 A 
ATOM     41  C   UNL A   1      44.266  27.195  35.996  1.00  0.00     0.134 A 
ATOM     42  C   UNL A   1      43.915  25.523  34.342  1.00  0.00     0.134 A 
ATOM     43  F   UNL A   1      44.273  28.461  36.439  1.00  0.00    -0.206 F 
ATOM     44  C   UNL A   1      44.758  26.220  36.874  1.00  0.00     0.040 A 
ATOM     45  C   UNL A   1      44.359  24.536  35.225  1.00  0.00     0.040 A 
ATOM     46  F   UNL A   1      43.641  25.082  33.108  1.00  0.00    -0.206 F 
ATOM     47  C   UNL A   1      44.816  24.886  36.486  1.00  0.00     0.006 A 
ENDBRANCH  26  40
BRANCH  27  48
ATOM     48  C   UNL A   1      41.835  23.892  26.955  1.00  0.00     0.057 A 
ATOM     49  C   UNL A   1      42.601  23.059  26.129  1.00  0.00     0.134 A 
ATOM     50  C   UNL A   1      40.631  23.341  27.436  1.00  0.00     0.134 A 
ATOM     51  F   UNL A   1      43.791  23.472  25.667  1.00  0.00    -0.206 F 
ATOM     52  C   UNL A   1      42.194  21.758  25.799  1.00  0.00     0.040 A 
ATOM     53  C   UNL A   1      40.210  22.049  27.108  1.00  0.00     0.040 A 
ATOM     54  F   UNL A   1      39.864  24.008  28.310  1.00  0.00    -0.206 F 
ATOM     55  C   UNL A   1      40.996  21.248  26.293  1.00  0.00     0.006 A 
ENDBRANCH  27  48
BRANCH  39  56
ATOM     56  C   UNL A   1      45.880  28.538  28.404  1.00  0.00     0.057 A 
ATOM     57  C   UNL A   1      44.984  29.473  27.863  1.00  0.00     0.134 A 
ATOM     58  C   UNL A   1      47.184  28.555  27.905  1.00  0.00     0.134 A 
ATOM     59  F   UNL A   1      43.748  29.609  28.352  1.00  0.00    -0.206 F 
ATOM     60  C   UNL A   1      45.356  30.355  26.844  1.00  0.00     0.040 A 
ATOM     61  C   UNL A   1      47.579  29.454  26.909  1.00  0.00     0.040 A 
ATOM     62  F   UNL A   1      48.116  27.738  28.421  1.00  0.00    -0.206 F 
ATOM     63  C   UNL A   1      46.662  30.353  26.369  1.00  0.00     0.006 A 
ENDBRANCH  39  56
ENDBRANCH  13  14
ENDBRANCH   6   8
ENDBRANCH   3   4
ENDBRANCH   2   3
ENDBRANCH   1   2
BRANCH   1  64
ATOM     64  N   UNL A   1      31.817  29.734  27.245  1.00  0.00    -0.354 N 
ATOM     65  C   UNL A   1      31.743  28.387  27.072  1.00  0.00     0.242 C 
ATOM     66  H   UNL A   1      31.077  30.122  27.764  1.00  0.00     0.163 HD
ATOM     67  O   UNL A   1      31.297  27.746  28.032  1.00  0.00    -0.273 OA
BRANCH  65  68
ATOM     68  C   UNL A   1      32.401  27.648  25.887  1.00  0.00     0.175 C 
ATOM     69  C   UNL A   1      32.280  26.122  26.013  1.00  0.00     0.044 C 
ATOM     70  N   UNL A   1      32.276  27.784  24.429  1.00  0.00    -0.330 N 
ATOM     71  C   UNL A   1      33.116  25.574  24.822  1.00  0.00    -0.006 C 
ATOM     72  C   UNL A   1      33.242  26.816  23.883  1.00  0.00     0.127 C 
ATOM     73  C   UNL A   1      32.418  24.419  24.074  1.00  0.00     0.030 C 
ATOM     74  C   UNL A   1      34.475  25.063  25.344  1.00  0.00     0.030 C 
ATOM     75  C   UNL A   1      32.330  23.132  24.891  1.00  0.00     0.120 C 
ATOM     76  C   UNL A   1      34.317  23.777  26.171  1.00  0.00     0.120 C 
ATOM     77  N   UNL A   1      33.638  22.732  25.400  1.00  0.00    -0.342 N 
ATOM     78  C   UNL A   1      34.249  21.480  25.347  1.00  0.00     0.225 C 
ATOM     79  O   UNL A   1      35.286  21.265  25.990  1.00  0.00    -0.275 OA
BRANCH  70  80
ATOM     80  C   UNL A   1      31.062  27.884  23.741  1.00  0.00     0.225 C 
ATOM     81  O   UNL A   1      30.536  26.922  23.174  1.00  0.00    -0.275 OA
BRANCH  80  82
ATOM     82  C   UNL A   1      30.435  29.243  23.576  1.00  0.00     0.124 C 
BRANCH  82  83
ATOM     83  C   UNL A   1      28.992  29.226  23.105  1.00  0.00     0.154 C 
BRANCH  83  84
ATOM     84  N   UNL A   1      28.613  30.431  22.394  1.00  0.00    -0.272 N 
ATOM     85  C   UNL A   1      28.475  31.681  22.918  1.00  0.00     0.108 A 
ATOM     86  N   UNL A   1      28.370  30.375  21.071  1.00  0.00    -0.182 NA
ATOM     87  C   UNL A   1      28.196  32.509  21.855  1.00  0.00     0.042 A 
ATOM     88  C   UNL A   1      28.141  31.651  20.741  1.00  0.00     0.135 A 
ENDBRANCH  83  84
ENDBRANCH  82  83
ENDBRANCH  80  82
ENDBRANCH  70  80
BRANCH  78  89
ATOM     89  C   UNL A   1      33.799  20.332  24.504  1.00  0.00     0.079 C 
ATOM     90  C   UNL A   1      33.901  18.852  24.723  1.00  0.00     0.014 C 
ATOM     91  C   UNL A   1      32.566  19.537  24.852  1.00  0.00     0.014 C 
ENDBRANCH  78  89
ENDBRANCH  65  68
ENDBRANCH   1  64
TORSDOF 15
ENDMDL
MODEL 2
REMARK VINA RESULT:     -12.6      3.199      9.110
REMARK SMILES O=C(NCCCNC(=O)[C@H]1CC2(CCN(C(=O)C3CC3)CC2)CN1C(=O)CCn1cccn1)c1ccc(-c2c3nc(c(-c4c(F)cccc4F)c4ccc([nH]4)c(-c4c(F)cccc4F)c4nc(c(-c5c(F)cccc5F)c5ccc2[nH]5)C=C4)C=C3)cc1
REMARK SMILES IDX 6 1 5 2 4 3 3 4 1 5 2 6 34 8 35 9 87 10 36 11 86 12 37 13
REMARK SMILES IDX 38 14 39 15 80 16 40 17 85 18 79 19 81 20 41 21 84 22 78 23
REMARK SMILES IDX 77 24 42 26 68 27 51 28 67 29 52 30 55 31 66 32 82 33 53 34
REMARK SMILES IDX 54 35 65 37 83 38 56 39 43 40 44 41 49 42 45 43 46 44 48 45
REMARK SMILES IDX 50 46 47 47 69 48 70 49 75 50 71 51 72 52 74 53 76 54 73 55
REMARK SMILES IDX 57 56 58 57 63 58 59 59 60 60 62 61 64 62 61 63 7 64 8 65
REMARK SMILES IDX 9 67 10 68 11 69 24 70 12 71 23 72 13 73 22 74 14 75 21 76
REMARK SMILES IDX 15 77 16 78 17 79 25 80 26 81 27 82 28 83 29 84 30 85 33 86
REMARK SMILES IDX 31 87 32 88 18 89 19 90 20 91
REMARK H PARENT 3 7 81 25 55 36 7 66
REMARK Flexibility Score: inf
ROOT
ATOM      1  C   UNL A   1      38.137  22.484  25.784  1.00  0.00     0.117 C 
ENDROOT
BRANCH   1   2
ATOM      2  C   UNL A   1      39.291  21.538  26.129  1.00  0.00     0.042 C 
BRANCH   2   3
ATOM      3  C   UNL A   1      40.540  22.173  26.751  1.00  0.00     0.118 C 
BRANCH   3   4
ATOM      4  N   UNL A   1      41.553  22.653  25.834  1.00  0.00    -0.352 N 
ATOM      5  O   UNL A   1      43.207  23.893  24.983  1.00  0.00    -0.269 OA
ATOM      6  C   UNL A   1      42.277  23.812  25.784  1.00  0.00     0.251 C 
ATOM      7  H   UNL A   1      41.761  22.023  25.106  1.00  0.00     0.163 HD
BRANCH   6   8
ATOM      8  C   UNL A   1      41.890  25.011  26.558  1.00  0.00     0.039 A 
ATOM      9  C   UNL A   1      40.987  25.984  26.118  1.00  0.00     0.014 A 
ATOM     10  C   UNL A   1      42.549  25.172  27.782  1.00  0.00     0.014 A 
ATOM     11  C   UNL A   1      40.891  27.194  26.789  1.00  0.00     0.010 A 
ATOM     12  C   UNL A   1      42.411  26.350  28.486  1.00  0.00     0.010 A 
ATOM     13  C   UNL A   1      41.643  27.386  27.948  1.00  0.00    -0.014 A 
BRANCH  13  14
ATOM     14  C   UNL A   1      41.513  28.638  28.683  1.00  0.00     0.031 A 
ATOM     15  C   UNL A   1      42.562  29.664  28.372  1.00  0.00     0.074 A 
ATOM     16  C   UNL A   1      40.375  28.889  29.366  1.00  0.00     0.049 A 
ATOM     17  N   UNL A   1      43.230  30.428  29.179  1.00  0.00    -0.248 NA
ATOM     18  C   UNL A   1      42.982  29.793  26.962  1.00  0.00     0.031 C 
ATOM     19  C   UNL A   1      39.189  28.027  29.478  1.00  0.00     0.029 A 
ATOM     20  N   UNL A   1      39.966  30.031  29.980  1.00  0.00    -0.354 N 
ATOM     21  C   UNL A   1      44.010  31.256  28.367  1.00  0.00     0.074 A 
ATOM     22  C   UNL A   1      43.921  30.734  27.032  1.00  0.00     0.031 C 
ATOM     23  C   UNL A   1      38.132  28.769  29.876  1.00  0.00     0.029 A 
ATOM     24  C   UNL A   1      38.591  30.113  30.164  1.00  0.00     0.049 A 
ATOM     25  H   UNL A   1      40.589  30.736  30.269  1.00  0.00     0.167 HD
ATOM     26  C   UNL A   1      44.504  32.448  28.801  1.00  0.00     0.037 A 
ATOM     27  C   UNL A   1      37.882  31.241  30.422  1.00  0.00     0.037 A 
ATOM     28  C   UNL A   1      44.591  32.502  30.231  1.00  0.00     0.049 A 
ATOM     29  C   UNL A   1      38.844  32.271  30.889  1.00  0.00     0.074 A 
ATOM     30  C   UNL A   1      45.296  31.798  31.187  1.00  0.00     0.029 A 
ATOM     31  N   UNL A   1      43.613  33.174  30.918  1.00  0.00    -0.354 N 
ATOM     32  N   UNL A   1      39.503  32.189  32.011  1.00  0.00    -0.248 NA
ATOM     33  C   UNL A   1      39.428  33.143  29.880  1.00  0.00     0.031 C 
ATOM     34  C   UNL A   1      44.397  31.676  32.286  1.00  0.00     0.029 A 
ATOM     35  C   UNL A   1      43.228  32.359  31.950  1.00  0.00     0.049 A 
ATOM     36  H   UNL A   1      43.257  34.068  30.709  1.00  0.00     0.167 HD
ATOM     37  C   UNL A   1      40.774  32.660  31.712  1.00  0.00     0.074 A 
ATOM     38  C   UNL A   1      40.651  33.286  30.397  1.00  0.00     0.031 C 
ATOM     39  C   UNL A   1      41.869  32.251  32.419  1.00  0.00     0.037 A 
BRANCH  26  40
ATOM     40  C   UNL A   1      44.565  33.688  27.940  1.00  0.00     0.057 A 
ATOM     41  C   UNL A   1      45.805  34.133  27.450  1.00  0.00     0.134 A 
ATOM     42  C   UNL A   1      43.510  34.618  27.837  1.00  0.00     0.134 A 
ATOM     43  F   UNL A   1      46.890  33.346  27.503  1.00  0.00    -0.206 F 
ATOM     44  C   UNL A   1      45.996  35.434  26.965  1.00  0.00     0.040 A 
ATOM     45  C   UNL A   1      43.678  35.901  27.311  1.00  0.00     0.040 A 
ATOM     46  F   UNL A   1      42.290  34.376  28.331  1.00  0.00    -0.206 F 
ATOM     47  C   UNL A   1      44.932  36.326  26.904  1.00  0.00     0.006 A 
ENDBRANCH  26  40
BRANCH  27  48
ATOM     48  C   UNL A   1      36.533  31.580  29.908  1.00  0.00     0.057 A 
ATOM     49  C   UNL A   1      35.586  32.239  30.703  1.00  0.00     0.134 A 
ATOM     50  C   UNL A   1      36.224  31.485  28.537  1.00  0.00     0.134 A 
ATOM     51  F   UNL A   1      35.814  32.431  32.011  1.00  0.00    -0.206 F 
ATOM     52  C   UNL A   1      34.403  32.770  30.168  1.00  0.00     0.040 A 
ATOM     53  C   UNL A   1      35.045  32.003  27.992  1.00  0.00     0.040 A 
ATOM     54  F   UNL A   1      37.097  30.962  27.664  1.00  0.00    -0.206 F 
ATOM     55  C   UNL A   1      34.132  32.657  28.807  1.00  0.00     0.006 A 
ENDBRANCH  27  48
BRANCH  39  56
ATOM     56  C   UNL A   1      41.644  31.397  33.636  1.00  0.00     0.057 A 
ATOM     57  C   UNL A   1      41.598  29.995  33.601  1.00  0.00     0.134 A 
ATOM     58  C   UNL A   1      41.658  31.994  34.899  1.00  0.00     0.134 A 
ATOM     59  F   UNL A   1      41.693  29.329  32.446  1.00  0.00    -0.206 F 
ATOM     60  C   UNL A   1      41.529  29.224  34.765  1.00  0.00     0.040 A 
ATOM     61  C   UNL A   1      41.622  31.235  36.072  1.00  0.00     0.040 A 
ATOM     62  F   UNL A   1      41.770  33.327  35.014  1.00  0.00    -0.206 F 
ATOM     63  C   UNL A   1      41.549  29.845  36.008  1.00  0.00     0.006 A 
ENDBRANCH  39  56
ENDBRANCH  13  14
ENDBRANCH   6   8
ENDBRANCH   3   4
ENDBRANCH   2   3
ENDBRANCH   1   2
BRANCH   1  64
ATOM     64  N   UNL A   1      37.547  22.299  24.477  1.00  0.00    -0.354 N 
ATOM     65  C   UNL A   1      36.422  22.833  23.932  1.00  0.00     0.242 C 
ATOM     66  H   UNL A   1      38.040  21.687  23.884  1.00  0.00     0.163 HD
ATOM     67  O   UNL A   1      36.486  23.106  22.726  1.00  0.00    -0.273 OA
BRANCH  65  68
ATOM     68  C   UNL A   1      35.224  23.323  24.774  1.00  0.00     0.175 C 
ATOM     69  C   UNL A   1      34.409  24.406  24.050  1.00  0.00     0.044 C 
ATOM     70  N   UNL A   1      34.137  22.623  25.471  1.00  0.00    -0.330 N 
ATOM     71  C   UNL A   1      33.360  24.860  25.105  1.00  0.00    -0.006 C 
ATOM     72  C   UNL A   1      33.378  23.691  26.142  1.00  0.00     0.127 C 
ATOM     73  C   UNL A   1      31.941  25.018  24.517  1.00  0.00     0.030 C 
ATOM     74  C   UNL A   1      33.791  26.214  25.704  1.00  0.00     0.030 C 
ATOM     75  C   UNL A   1      31.811  26.197  23.556  1.00  0.00     0.120 C 
ATOM     76  C   UNL A   1      33.653  27.355  24.683  1.00  0.00     0.120 C 
ATOM     77  N   UNL A   1      32.285  27.437  24.163  1.00  0.00    -0.342 N 
ATOM     78  C   UNL A   1      31.661  28.684  24.200  1.00  0.00     0.225 C 
ATOM     79  O   UNL A   1      32.282  29.679  24.597  1.00  0.00    -0.275 OA
BRANCH  70  80
ATOM     80  C   UNL A   1      33.372  21.591  24.917  1.00  0.00     0.225 C 
ATOM     81  O   UNL A   1      32.226  21.764  24.493  1.00  0.00    -0.275 OA
BRANCH  80  82
ATOM     82  C   UNL A   1      33.916  20.187  24.955  1.00  0.00     0.124 C 
BRANCH  82  83
ATOM     83  C   UNL A   1      32.905  19.102  24.633  1.00  0.00     0.154 C 
BRANCH  83  84
ATOM     84  N   UNL A   1      33.432  17.764  24.813  1.00  0.00    -0.272 N 
ATOM     85  C   UNL A   1      34.713  17.353  24.599  1.00  0.00     0.108 A 
ATOM     86  N   UNL A   1      32.621  16.781  25.248  1.00  0.00    -0.182 NA
ATOM     87  C   UNL A   1      34.760  16.035  24.990  1.00  0.00     0.042 A 
ATOM     88  C   UNL A   1      33.441  15.733  25.378  1.00  0.00     0.135 A 
ENDBRANCH  83  84
ENDBRANCH  82  83
ENDBRANCH  80  82
ENDBRANCH  70  80
BRANCH  78  89
ATOM     89  C   UNL A   1      30.233  28.948  23.857  1.00  0.00     0.079 C 
ATOM     90  C   UNL A   1      29.527  30.221  23.496  1.00  0.00     0.014 C 
ATOM     91  C   UNL A   1      29.798  29.189  22.433  1.00  0.00     0.014 C 
ENDBRANCH  78  89
ENDBRANCH  65  68
ENDBRANCH   1  64
TORSDOF 15
ENDMDL
MODEL 3
REMARK VINA RESULT:     -12.3      1.837      5.771
REMARK SMILES O=C(NCCCNC(=O)[C@H]1CC2(CCN(C(=O)C3CC3)CC2)CN1C(=O)CCn1cccn1)c1ccc(-c2c3nc(c(-c4c(F)cccc4F)c4ccc([nH]4)c(-c4c(F)cccc4F)c4nc(c(-c5c(F)cccc5F)c5ccc2[nH]5)C=C4)C=C3)cc1
REMARK SMILES IDX 6 1 5 2 4 3 3 4 1 5 2 6 34 8 35 9 87 10 36 11 86 12 37 13
REMARK SMILES IDX 38 14 39 15 80 16 40 17 85 18 79 19 81 20 41 21 84 22 78 23
REMARK SMILES IDX 77 24 42 26 68 27 51 28 67 29 52 30 55 31 66 32 82 33 53 34
REMARK SMILES IDX 54 35 65 37 83 38 56 39 43 40 44 41 49 42 45 43 46 44 48 45
REMARK SMILES IDX 50 46 47 47 69 48 70 49 75 50 71 51 72 52 74 53 76 54 73 55
REMARK SMILES IDX 57 56 58 57 63 58 59 59 60 60 62 61 64 62 61 63 7 64 8 65
REMARK SMILES IDX 9 67 10 68 11 69 24 70 12 71 23 72 13 73 22 74 14 75 21 76
REMARK SMILES IDX 15 77 16 78 17 79 25 80 26 81 27 82 28 83 29 84 30 85 33 86
REMARK SMILES IDX 31 87 32 88 18 89 19 90 20 91
REMARK H PARENT 3 7 81 25 55 36 7 66
REMARK Flexibility Score: inf
ROOT
ATOM      1  C   UNL A   1      32.805  30.236  26.191  1.00  0.00     0.117 C 
ENDROOT
BRANCH   1   2
ATOM      2  C   UNL A   1      34.122  29.481  25.995  1.00  0.00     0.042 C 
BRANCH   2   3
ATOM      3  C   UNL A   1      34.809  28.952  27.259  1.00  0.00     0.118 C 
BRANCH   3   4
ATOM      4  N   UNL A   1      34.950  29.881  28.361  1.00  0.00    -0.352 N 
ATOM      5  O   UNL A   1      35.899  31.229  29.872  1.00  0.00    -0.269 OA
ATOM      6  C   UNL A   1      36.033  30.286  29.093  1.00  0.00     0.251 C 
ATOM      7  H   UNL A   1      34.104  30.303  28.636  1.00  0.00     0.163 HD
BRANCH   6   8
ATOM      8  C   UNL A   1      37.310  29.544  29.079  1.00  0.00     0.039 A 
ATOM      9  C   UNL A   1      37.727  28.659  30.079  1.00  0.00     0.014 A 
ATOM     10  C   UNL A   1      38.155  29.827  28.000  1.00  0.00     0.014 A 
ATOM     11  C   UNL A   1      39.042  28.219  30.110  1.00  0.00     0.010 A 
ATOM     12  C   UNL A   1      39.448  29.342  27.995  1.00  0.00     0.010 A 
ATOM     13  C   UNL A   1      39.908  28.604  29.088  1.00  0.00    -0.014 A 
BRANCH  13  14
ATOM     14  C   UNL A   1      41.280  28.108  29.091  1.00  0.00     0.031 A 
ATOM     15  C   UNL A   1      41.471  26.776  28.430  1.00  0.00     0.074 A 
ATOM     16  C   UNL A   1      42.284  28.945  29.435  1.00  0.00     0.049 A 
ATOM     17  N   UNL A   1      42.169  25.756  28.822  1.00  0.00    -0.248 NA
ATOM     18  C   UNL A   1      40.703  26.520  27.194  1.00  0.00     0.031 C 
ATOM     19  C   UNL A   1      42.178  30.357  29.829  1.00  0.00     0.029 A 
ATOM     20  N   UNL A   1      43.628  28.762  29.358  1.00  0.00    -0.354 N 
ATOM     21  C   UNL A   1      42.077  24.811  27.796  1.00  0.00     0.074 A 
ATOM     22  C   UNL A   1      41.062  25.275  26.891  1.00  0.00     0.031 C 
ATOM     23  C   UNL A   1      43.384  30.951  29.693  1.00  0.00     0.029 A 
ATOM     24  C   UNL A   1      44.359  29.944  29.328  1.00  0.00     0.049 A 
ATOM     25  H   UNL A   1      44.047  27.872  29.327  1.00  0.00     0.167 HD
ATOM     26  C   UNL A   1      42.993  23.817  27.636  1.00  0.00     0.037 A 
ATOM     27  C   UNL A   1      45.646  30.082  28.918  1.00  0.00     0.037 A 
ATOM     28  C   UNL A   1      43.697  23.537  28.854  1.00  0.00     0.049 A 
ATOM     29  C   UNL A   1      46.257  28.729  28.917  1.00  0.00     0.074 A 
ATOM     30  C   UNL A   1      43.330  23.075  30.102  1.00  0.00     0.029 A 
ATOM     31  N   UNL A   1      44.958  24.053  29.010  1.00  0.00    -0.354 N 
ATOM     32  N   UNL A   1      46.466  28.029  29.997  1.00  0.00    -0.248 NA
ATOM     33  C   UNL A   1      46.184  27.966  27.679  1.00  0.00     0.031 C 
ATOM     34  C   UNL A   1      44.152  23.798  31.015  1.00  0.00     0.029 A 
ATOM     35  C   UNL A   1      45.001  24.610  30.262  1.00  0.00     0.049 A 
ATOM     36  H   UNL A   1      45.689  24.029  28.351  1.00  0.00     0.167 HD
ATOM     37  C   UNL A   1      46.146  26.725  29.643  1.00  0.00     0.074 A 
ATOM     38  C   UNL A   1      46.033  26.741  28.186  1.00  0.00     0.031 C 
ATOM     39  C   UNL A   1      45.719  25.820  30.573  1.00  0.00     0.037 A 
BRANCH  26  40
ATOM     40  C   UNL A   1      43.494  23.354  26.289  1.00  0.00     0.057 A 
ATOM     41  C   UNL A   1      43.510  21.981  25.987  1.00  0.00     0.134 A 
ATOM     42  C   UNL A   1      44.239  24.169  25.412  1.00  0.00     0.134 A 
ATOM     43  F   UNL A   1      42.851  21.099  26.753  1.00  0.00    -0.206 F 
ATOM     44  C   UNL A   1      44.273  21.453  24.937  1.00  0.00     0.040 A 
ATOM     45  C   UNL A   1      44.965  23.659  24.333  1.00  0.00     0.040 A 
ATOM     46  F   UNL A   1      44.389  25.485  25.610  1.00  0.00    -0.206 F 
ATOM     47  C   UNL A   1      45.013  22.292  24.112  1.00  0.00     0.006 A 
ENDBRANCH  26  40
BRANCH  27  48
ATOM     48  C   UNL A   1      46.220  31.221  28.162  1.00  0.00     0.057 A 
ATOM     49  C   UNL A   1      45.638  31.685  26.975  1.00  0.00     0.134 A 
ATOM     50  C   UNL A   1      47.216  32.045  28.720  1.00  0.00     0.134 A 
ATOM     51  F   UNL A   1      44.640  31.000  26.397  1.00  0.00    -0.206 F 
ATOM     52  C   UNL A   1      46.025  32.893  26.377  1.00  0.00     0.040 A 
ATOM     53  C   UNL A   1      47.617  33.248  28.130  1.00  0.00     0.040 A 
ATOM     54  F   UNL A   1      47.775  31.753  29.903  1.00  0.00    -0.206 F 
ATOM     55  C   UNL A   1      47.015  33.682  26.958  1.00  0.00     0.006 A 
ENDBRANCH  27  48
BRANCH  39  56
ATOM     56  C   UNL A   1      45.756  26.226  32.021  1.00  0.00     0.057 A 
ATOM     57  C   UNL A   1      44.650  26.753  32.706  1.00  0.00     0.134 A 
ATOM     58  C   UNL A   1      46.877  25.906  32.789  1.00  0.00     0.134 A 
ATOM     59  F   UNL A   1      43.494  26.987  32.077  1.00  0.00    -0.206 F 
ATOM     60  C   UNL A   1      44.673  26.989  34.084  1.00  0.00     0.040 A 
ATOM     61  C   UNL A   1      46.903  26.105  34.172  1.00  0.00     0.040 A 
ATOM     62  F   UNL A   1      47.948  25.334  32.215  1.00  0.00    -0.206 F 
ATOM     63  C   UNL A   1      45.802  26.656  34.824  1.00  0.00     0.006 A 
ENDBRANCH  39  56
ENDBRANCH  13  14
ENDBRANCH   6   8
ENDBRANCH   3   4
ENDBRANCH   2   3
ENDBRANCH   1   2
BRANCH   1  64
ATOM     64  N   UNL A   1      31.761  29.505  26.873  1.00  0.00    -0.354 N 
ATOM     65  C   UNL A   1      31.469  28.176  26.875  1.00  0.00     0.242 C 
ATOM     66  H   UNL A   1      31.164  30.057  27.427  1.00  0.00     0.163 HD
ATOM     67  O   UNL A   1      31.072  27.715  27.952  1.00  0.00    -0.273 OA
BRANCH  65  68
ATOM     68  C   UNL A   1      31.843  27.227  25.716  1.00  0.00     0.175 C 
ATOM     69  C   UNL A   1      31.970  25.767  26.180  1.00  0.00     0.044 C 
ATOM     70  N   UNL A   1      31.277  27.010  24.378  1.00  0.00    -0.330 N 
ATOM     71  C   UNL A   1      32.485  25.013  24.921  1.00  0.00    -0.006 C 
ATOM     72  C   UNL A   1      32.161  26.007  23.760  1.00  0.00     0.127 C 
ATOM     73  C   UNL A   1      31.759  23.672  24.681  1.00  0.00     0.030 C 
ATOM     74  C   UNL A   1      33.992  24.728  25.077  1.00  0.00     0.030 C 
ATOM     75  C   UNL A   1      32.089  22.608  25.725  1.00  0.00     0.120 C 
ATOM     76  C   UNL A   1      34.259  23.663  26.153  1.00  0.00     0.120 C 
ATOM     77  N   UNL A   1      33.531  22.424  25.864  1.00  0.00    -0.342 N 
ATOM     78  C   UNL A   1      34.262  21.237  25.874  1.00  0.00     0.225 C 
ATOM     79  O   UNL A   1      35.461  21.246  26.184  1.00  0.00    -0.275 OA
BRANCH  70  80
ATOM     80  C   UNL A   1      29.913  26.867  24.104  1.00  0.00     0.225 C 
ATOM     81  O   UNL A   1      29.252  25.901  24.495  1.00  0.00    -0.275 OA
BRANCH  80  82
ATOM     82  C   UNL A   1      29.251  27.864  23.191  1.00  0.00     0.124 C 
BRANCH  82  83
ATOM     83  C   UNL A   1      30.037  29.143  22.965  1.00  0.00     0.154 C 
BRANCH  83  84
ATOM     84  N   UNL A   1      29.215  30.239  22.490  1.00  0.00    -0.272 N 
ATOM     85  C   UNL A   1      28.803  31.322  23.207  1.00  0.00     0.108 A 
ATOM     86  N   UNL A   1      28.793  30.250  21.212  1.00  0.00    -0.182 NA
ATOM     87  C   UNL A   1      28.129  32.130  22.319  1.00  0.00     0.042 A 
ATOM     88  C   UNL A   1      28.151  31.418  21.105  1.00  0.00     0.135 A 
ENDBRANCH  83  84
ENDBRANCH  82  83
ENDBRANCH  80  82
ENDBRANCH  70  80
BRANCH  78  89
ATOM     89  C   UNL A   1      33.743  19.897  25.466  1.00  0.00     0.079 C 
ATOM     90  C   UNL A   1      32.369  19.458  25.054  1.00  0.00     0.014 C 
ATOM     91  C   UNL A   1      33.460  19.570  24.021  1.00  0.00     0.014 C 
ENDBRANCH  78  89
ENDBRANCH  65  68
ENDBRANCH   1  64
TORSDOF 15
ENDMDL
