MODEL 1
REMARK VINA RESULT:     -11.6      0.000      0.000
REMARK SMILES O=C(C[C@H]1C(=O)NCC[N@@H+]1Cc1ccc(Cl)c(F)c1)NCCCNC(=O)c1ccc(-c2c3nc(c(-c4c(F)cccc4F)c4ccc([nH]4)c(-c4c(F)cccc4F)c4nc(c(-c5c(F)cccc5F)c5ccc2[nH]5)C=C4)C=C3)cc1
REMARK SMILES IDX 21 1 20 2 1 3 2 4 3 6 4 7 5 8 10 9 6 10 7 11 9 12 8 14 11 16
REMARK SMILES IDX 12 17 13 18 19 19 14 20 17 21 15 22 18 23 16 24 22 25 23 26
REMARK SMILES IDX 24 27 25 28 26 30 27 31 28 32 80 33 29 34 79 35 30 36 31 37
REMARK SMILES IDX 32 38 73 39 33 40 78 41 72 42 74 43 34 44 77 45 71 46 70 47
REMARK SMILES IDX 35 49 61 50 44 51 60 52 45 53 48 54 59 55 75 56 46 57 47 58
REMARK SMILES IDX 58 60 76 61 49 62 36 63 37 64 42 65 38 66 39 67 41 68 43 69
REMARK SMILES IDX 40 70 62 71 63 72 68 73 64 74 65 75 67 76 69 77 66 78 50 79
REMARK SMILES IDX 51 80 56 81 52 82 53 83 55 84 57 85 54 86
REMARK H PARENT 20 5 10 13 7 15 24 29 74 48 48 59
REMARK Flexibility Score: inf
ROOT
ATOM      1  C   UNL A   1      37.524  21.028  24.526  1.00  0.00     0.117 C 
ENDROOT
BRANCH   1   2
ATOM      2  N   UNL A   1      36.630  21.510  25.555  1.00  0.00    -0.356 N 
ATOM      3  O   UNL A   1      35.869  23.322  24.377  1.00  0.00    -0.275 OA
ATOM      4  C   UNL A   1      35.801  22.590  25.362  1.00  0.00     0.226 C 
ATOM      5  H   UNL A   1      36.613  21.049  26.424  1.00  0.00     0.163 HD
BRANCH   4   6
ATOM      6  C   UNL A   1      34.816  22.856  26.480  1.00  0.00     0.175 C 
BRANCH   6   7
ATOM      7  C   UNL A   1      33.529  22.003  26.474  1.00  0.00     0.283 C 
ATOM      8  C   UNL A   1      32.540  22.683  27.434  1.00  0.00     0.279 C 
ATOM      9  N   UNL A   1      32.942  21.774  25.135  1.00  0.00    -0.319 N 
ATOM     10  O   UNL A   1      32.579  22.491  28.649  1.00  0.00    -0.268 OA
ATOM     11  N   UNL A   1      31.674  23.604  26.914  1.00  0.00    -0.345 N 
ATOM     12  C   UNL A   1      32.350  22.990  24.565  1.00  0.00     0.284 C 
ATOM     13  H   UNL A   1      33.735  21.565  24.527  1.00  0.00     0.349 HD
ATOM     14  C   UNL A   1      31.434  23.799  25.501  1.00  0.00     0.177 C 
ATOM     15  H   UNL A   1      31.179  24.174  27.545  1.00  0.00     0.163 HD
BRANCH   9  16
ATOM     16  C   UNL A   1      32.169  20.538  24.977  1.00  0.00     0.299 C 
BRANCH  16  17
ATOM     17  C   UNL A   1      32.948  19.248  24.919  1.00  0.00     0.009 A 
ATOM     18  C   UNL A   1      34.239  19.210  24.368  1.00  0.00     0.011 A 
ATOM     19  C   UNL A   1      32.410  18.071  25.458  1.00  0.00     0.050 A 
ATOM     20  C   UNL A   1      35.002  18.039  24.424  1.00  0.00     0.024 A 
ATOM     21  C   UNL A   1      33.182  16.917  25.532  1.00  0.00     0.142 A 
ATOM     22  C   UNL A   1      34.479  16.898  25.030  1.00  0.00     0.076 A 
ATOM     23  F   UNL A   1      32.659  15.838  26.132  1.00  0.00    -0.205 F 
ATOM     24  Cl  UNL A   1      35.453  15.486  25.166  1.00  0.00    -0.081 Cl
ENDBRANCH  16  17
ENDBRANCH   9  16
ENDBRANCH   6   7
ENDBRANCH   4   6
ENDBRANCH   1   2
BRANCH   1  25
ATOM     25  C   UNL A   1      38.234  19.744  24.923  1.00  0.00     0.042 C 
BRANCH  25  26
ATOM     26  C   UNL A   1      39.253  19.909  26.045  1.00  0.00     0.118 C 
BRANCH  26  27
ATOM     27  N   UNL A   1      40.438  19.079  25.880  1.00  0.00    -0.352 N 
ATOM     28  C   UNL A   1      41.766  19.388  26.026  1.00  0.00     0.251 C 
ATOM     29  H   UNL A   1      40.256  18.146  25.621  1.00  0.00     0.163 HD
ATOM     30  O   UNL A   1      42.614  18.549  25.716  1.00  0.00    -0.269 OA
BRANCH  28  31
ATOM     31  C   UNL A   1      42.196  20.715  26.521  1.00  0.00     0.039 A 
ATOM     32  C   UNL A   1      42.612  21.669  25.586  1.00  0.00     0.014 A 
ATOM     33  C   UNL A   1      42.221  21.025  27.883  1.00  0.00     0.014 A 
ATOM     34  C   UNL A   1      42.996  22.942  26.013  1.00  0.00     0.010 A 
ATOM     35  C   UNL A   1      42.523  22.321  28.300  1.00  0.00     0.010 A 
ATOM     36  C   UNL A   1      42.921  23.293  27.372  1.00  0.00    -0.014 A 
BRANCH  36  37
ATOM     37  C   UNL A   1      43.250  24.674  27.815  1.00  0.00     0.031 A 
ATOM     38  C   UNL A   1      44.678  25.144  27.881  1.00  0.00     0.074 A 
ATOM     39  C   UNL A   1      42.255  25.504  28.186  1.00  0.00     0.049 A 
ATOM     40  N   UNL A   1      45.147  26.319  28.220  1.00  0.00    -0.248 NA
ATOM     41  C   UNL A   1      45.719  24.159  27.548  1.00  0.00     0.031 C 
ATOM     42  C   UNL A   1      40.833  25.153  28.229  1.00  0.00     0.029 A 
ATOM     43  N   UNL A   1      42.286  26.814  28.595  1.00  0.00    -0.354 N 
ATOM     44  C   UNL A   1      46.530  26.214  28.145  1.00  0.00     0.074 A 
ATOM     45  C   UNL A   1      46.828  24.844  27.789  1.00  0.00     0.031 C 
ATOM     46  C   UNL A   1      40.126  26.232  28.602  1.00  0.00     0.029 A 
ATOM     47  C   UNL A   1      41.043  27.338  28.856  1.00  0.00     0.049 A 
ATOM     48  H   UNL A   1      43.120  27.328  28.693  1.00  0.00     0.167 HD
ATOM     49  C   UNL A   1      47.466  27.176  28.328  1.00  0.00     0.037 A 
ATOM     50  C   UNL A   1      40.680  28.573  29.251  1.00  0.00     0.037 A 
ATOM     51  C   UNL A   1      47.169  28.544  28.668  1.00  0.00     0.049 A 
ATOM     52  C   UNL A   1      41.739  29.625  29.441  1.00  0.00     0.074 A 
ATOM     53  C   UNL A   1      48.045  29.605  28.821  1.00  0.00     0.029 A 
ATOM     54  N   UNL A   1      45.897  29.039  28.915  1.00  0.00    -0.354 N 
ATOM     55  N   UNL A   1      43.036  29.531  29.286  1.00  0.00    -0.248 NA
ATOM     56  C   UNL A   1      41.277  30.959  29.849  1.00  0.00     0.031 C 
ATOM     57  C   UNL A   1      47.308  30.730  29.206  1.00  0.00     0.029 A 
ATOM     58  C   UNL A   1      45.968  30.384  29.239  1.00  0.00     0.049 A 
ATOM     59  H   UNL A   1      45.067  28.512  28.866  1.00  0.00     0.167 HD
ATOM     60  C   UNL A   1      43.543  30.797  29.548  1.00  0.00     0.074 A 
ATOM     61  C   UNL A   1      42.410  31.646  29.850  1.00  0.00     0.031 C 
ATOM     62  C   UNL A   1      44.832  31.220  29.538  1.00  0.00     0.037 A 
BRANCH  49  63
ATOM     63  C   UNL A   1      48.906  26.782  28.158  1.00  0.00     0.057 A 
ATOM     64  C   UNL A   1      49.675  26.308  29.231  1.00  0.00     0.134 A 
ATOM     65  C   UNL A   1      49.523  26.841  26.902  1.00  0.00     0.134 A 
ATOM     66  F   UNL A   1      49.150  26.237  30.463  1.00  0.00    -0.206 F 
ATOM     67  C   UNL A   1      51.010  25.934  29.066  1.00  0.00     0.040 A 
ATOM     68  C   UNL A   1      50.849  26.442  26.719  1.00  0.00     0.040 A 
ATOM     69  F   UNL A   1      48.846  27.276  25.829  1.00  0.00    -0.206 F 
ATOM     70  C   UNL A   1      51.598  25.994  27.805  1.00  0.00     0.006 A 
ENDBRANCH  49  63
BRANCH  50  71
ATOM     71  C   UNL A   1      39.246  28.898  29.457  1.00  0.00     0.057 A 
ATOM     72  C   UNL A   1      38.647  28.767  30.716  1.00  0.00     0.134 A 
ATOM     73  C   UNL A   1      38.436  29.334  28.400  1.00  0.00     0.134 A 
ATOM     74  F   UNL A   1      39.365  28.337  31.763  1.00  0.00    -0.206 F 
ATOM     75  C   UNL A   1      37.291  29.032  30.913  1.00  0.00     0.040 A 
ATOM     76  C   UNL A   1      37.085  29.630  28.590  1.00  0.00     0.040 A 
ATOM     77  F   UNL A   1      38.951  29.489  27.172  1.00  0.00    -0.206 F 
ATOM     78  C   UNL A   1      36.508  29.470  29.847  1.00  0.00     0.006 A 
ENDBRANCH  50  71
BRANCH  62  79
ATOM     79  C   UNL A   1      45.077  32.673  29.831  1.00  0.00     0.057 A 
ATOM     80  C   UNL A   1      45.077  33.645  28.822  1.00  0.00     0.134 A 
ATOM     81  C   UNL A   1      45.307  33.106  31.143  1.00  0.00     0.134 A 
ATOM     82  F   UNL A   1      44.875  33.297  27.542  1.00  0.00    -0.206 F 
ATOM     83  C   UNL A   1      45.335  34.988  29.103  1.00  0.00     0.040 A 
ATOM     84  C   UNL A   1      45.535  34.450  31.440  1.00  0.00     0.040 A 
ATOM     85  F   UNL A   1      45.310  32.231  32.160  1.00  0.00    -0.206 F 
ATOM     86  C   UNL A   1      45.560  35.395  30.415  1.00  0.00     0.006 A 
ENDBRANCH  62  79
ENDBRANCH  36  37
ENDBRANCH  28  31
ENDBRANCH  26  27
ENDBRANCH  25  26
ENDBRANCH   1  25
TORSDOF 13
ENDMDL
MODEL 2
REMARK VINA RESULT:     -11.5      0.698      6.148
REMARK SMILES O=C(C[C@H]1C(=O)NCC[N@@H+]1Cc1ccc(Cl)c(F)c1)NCCCNC(=O)c1ccc(-c2c3nc(c(-c4c(F)cccc4F)c4ccc([nH]4)c(-c4c(F)cccc4F)c4nc(c(-c5c(F)cccc5F)c5ccc2[nH]5)C=C4)C=C3)cc1
REMARK SMILES IDX 21 1 20 2 1 3 2 4 3 6 4 7 5 8 10 9 6 10 7 11 9 12 8 14 11 16
REMARK SMILES IDX 12 17 13 18 19 19 14 20 17 21 15 22 18 23 16 24 22 25 23 26
REMARK SMILES IDX 24 27 25 28 26 30 27 31 28 32 80 33 29 34 79 35 30 36 31 37
REMARK SMILES IDX 32 38 73 39 33 40 78 41 72 42 74 43 34 44 77 45 71 46 70 47
REMARK SMILES IDX 35 49 61 50 44 51 60 52 45 53 48 54 59 55 75 56 46 57 47 58
REMARK SMILES IDX 58 60 76 61 49 62 36 63 37 64 42 65 38 66 39 67 41 68 43 69
REMARK SMILES IDX 40 70 62 71 63 72 68 73 64 74 65 75 67 76 69 77 66 78 50 79
REMARK SMILES IDX 51 80 56 81 52 82 53 83 55 84 57 85 54 86
REMARK H PARENT 20 5 10 13 7 15 24 29 74 48 48 59
REMARK Flexibility Score: inf
ROOT
ATOM      1  C   UNL A   1      37.648  21.215  24.543  1.00  0.00     0.117 C 
ENDROOT
BRANCH   1   2
ATOM      2  N   UNL A   1      36.712  21.728  25.518  1.00  0.00    -0.356 N 
ATOM      3  O   UNL A   1      35.630  23.148  24.083  1.00  0.00    -0.275 OA
ATOM      4  C   UNL A   1      35.710  22.608  25.183  1.00  0.00     0.226 C 
ATOM      5  H   UNL A   1      36.794  21.438  26.455  1.00  0.00     0.163 HD
BRANCH   4   6
ATOM      6  C   UNL A   1      34.723  22.914  26.289  1.00  0.00     0.175 C 
BRANCH   6   7
ATOM      7  C   UNL A   1      33.472  22.011  26.358  1.00  0.00     0.283 C 
ATOM      8  C   UNL A   1      32.485  22.688  27.322  1.00  0.00     0.279 C 
ATOM      9  N   UNL A   1      32.855  21.705  25.047  1.00  0.00    -0.319 N 
ATOM     10  O   UNL A   1      32.570  22.546  28.542  1.00  0.00    -0.268 OA
ATOM     11  N   UNL A   1      31.567  23.552  26.795  1.00  0.00    -0.345 N 
ATOM     12  C   UNL A   1      32.196  22.874  24.451  1.00  0.00     0.284 C 
ATOM     13  H   UNL A   1      33.636  21.505  24.423  1.00  0.00     0.349 HD
ATOM     14  C   UNL A   1      31.277  23.681  25.383  1.00  0.00     0.177 C 
ATOM     15  H   UNL A   1      31.069  24.127  27.419  1.00  0.00     0.163 HD
BRANCH   9  16
ATOM     16  C   UNL A   1      32.128  20.434  24.962  1.00  0.00     0.299 C 
BRANCH  16  17
ATOM     17  C   UNL A   1      32.958  19.176  24.921  1.00  0.00     0.009 A 
ATOM     18  C   UNL A   1      34.283  19.200  24.457  1.00  0.00     0.011 A 
ATOM     19  C   UNL A   1      32.430  17.965  25.389  1.00  0.00     0.050 A 
ATOM     20  C   UNL A   1      35.084  18.057  24.532  1.00  0.00     0.024 A 
ATOM     21  C   UNL A   1      33.239  16.837  25.483  1.00  0.00     0.142 A 
ATOM     22  C   UNL A   1      34.566  16.880  25.069  1.00  0.00     0.076 A 
ATOM     23  F   UNL A   1      32.719  15.722  26.016  1.00  0.00    -0.205 F 
ATOM     24  Cl  UNL A   1      35.581  15.500  25.231  1.00  0.00    -0.081 Cl
ENDBRANCH  16  17
ENDBRANCH   9  16
ENDBRANCH   6   7
ENDBRANCH   4   6
ENDBRANCH   1   2
BRANCH   1  25
ATOM     25  C   UNL A   1      38.272  19.895  24.969  1.00  0.00     0.042 C 
BRANCH  25  26
ATOM     26  C   UNL A   1      39.237  20.006  26.144  1.00  0.00     0.118 C 
BRANCH  26  27
ATOM     27  N   UNL A   1      40.396  19.130  26.027  1.00  0.00    -0.352 N 
ATOM     28  C   UNL A   1      41.735  19.416  26.092  1.00  0.00     0.251 C 
ATOM     29  H   UNL A   1      40.182  18.180  25.878  1.00  0.00     0.163 HD
ATOM     30  O   UNL A   1      42.550  18.527  25.844  1.00  0.00    -0.269 OA
BRANCH  28  31
ATOM     31  C   UNL A   1      42.214  20.777  26.424  1.00  0.00     0.039 A 
ATOM     32  C   UNL A   1      42.446  21.674  25.376  1.00  0.00     0.014 A 
ATOM     33  C   UNL A   1      42.463  21.173  27.741  1.00  0.00     0.014 A 
ATOM     34  C   UNL A   1      42.870  22.975  25.652  1.00  0.00     0.010 A 
ATOM     35  C   UNL A   1      42.805  22.497  28.020  1.00  0.00     0.010 A 
ATOM     36  C   UNL A   1      43.019  23.411  26.980  1.00  0.00    -0.014 A 
BRANCH  36  37
ATOM     37  C   UNL A   1      43.389  24.821  27.276  1.00  0.00     0.031 A 
ATOM     38  C   UNL A   1      42.364  25.796  27.788  1.00  0.00     0.074 A 
ATOM     39  C   UNL A   1      44.653  25.233  27.057  1.00  0.00     0.049 A 
ATOM     40  N   UNL A   1      42.515  27.054  28.122  1.00  0.00    -0.248 NA
ATOM     41  C   UNL A   1      40.984  25.305  27.920  1.00  0.00     0.031 C 
ATOM     42  C   UNL A   1      45.728  24.405  26.503  1.00  0.00     0.029 A 
ATOM     43  N   UNL A   1      45.251  26.449  27.274  1.00  0.00    -0.354 N 
ATOM     44  C   UNL A   1      41.255  27.502  28.496  1.00  0.00     0.074 A 
ATOM     45  C   UNL A   1      40.339  26.402  28.291  1.00  0.00     0.031 C 
ATOM     46  C   UNL A   1      46.860  25.125  26.463  1.00  0.00     0.029 A 
ATOM     47  C   UNL A   1      46.587  26.471  26.955  1.00  0.00     0.049 A 
ATOM     48  H   UNL A   1      44.767  27.231  27.626  1.00  0.00     0.167 HD
ATOM     49  C   UNL A   1      40.895  28.711  28.993  1.00  0.00     0.037 A 
ATOM     50  C   UNL A   1      47.493  27.462  27.052  1.00  0.00     0.037 A 
ATOM     51  C   UNL A   1      41.810  29.803  29.211  1.00  0.00     0.049 A 
ATOM     52  C   UNL A   1      47.070  28.792  27.613  1.00  0.00     0.074 A 
ATOM     53  C   UNL A   1      41.552  31.047  29.761  1.00  0.00     0.029 A 
ATOM     54  N   UNL A   1      43.157  29.783  28.884  1.00  0.00    -0.354 N 
ATOM     55  N   UNL A   1      45.892  29.174  28.040  1.00  0.00    -0.248 NA
ATOM     56  C   UNL A   1      48.111  29.825  27.716  1.00  0.00     0.031 C 
ATOM     57  C   UNL A   1      42.733  31.797  29.723  1.00  0.00     0.029 A 
ATOM     58  C   UNL A   1      43.738  31.001  29.202  1.00  0.00     0.049 A 
ATOM     59  H   UNL A   1      43.631  29.018  28.486  1.00  0.00     0.167 HD
ATOM     60  C   UNL A   1      46.055  30.478  28.489  1.00  0.00     0.074 A 
ATOM     61  C   UNL A   1      47.451  30.813  28.302  1.00  0.00     0.031 C 
ATOM     62  C   UNL A   1      45.130  31.323  29.010  1.00  0.00     0.037 A 
BRANCH  49  63
ATOM     63  C   UNL A   1      39.448  28.915  29.340  1.00  0.00     0.057 A 
ATOM     64  C   UNL A   1      38.951  28.648  30.625  1.00  0.00     0.134 A 
ATOM     65  C   UNL A   1      38.546  29.418  28.394  1.00  0.00     0.134 A 
ATOM     66  F   UNL A   1      39.757  28.154  31.576  1.00  0.00    -0.206 F 
ATOM     67  C   UNL A   1      37.607  28.848  30.946  1.00  0.00     0.040 A 
ATOM     68  C   UNL A   1      37.207  29.650  28.712  1.00  0.00     0.040 A 
ATOM     69  F   UNL A   1      38.953  29.703  27.149  1.00  0.00    -0.206 F 
ATOM     70  C   UNL A   1      36.732  29.358  29.989  1.00  0.00     0.006 A 
ENDBRANCH  49  63
BRANCH  50  71
ATOM     71  C   UNL A   1      48.902  27.226  26.645  1.00  0.00     0.057 A 
ATOM     72  C   UNL A   1      49.878  26.873  27.584  1.00  0.00     0.134 A 
ATOM     73  C   UNL A   1      49.309  27.363  25.312  1.00  0.00     0.134 A 
ATOM     74  F   UNL A   1      49.553  26.745  28.879  1.00  0.00    -0.206 F 
ATOM     75  C   UNL A   1      51.212  26.686  27.219  1.00  0.00     0.040 A 
ATOM     76  C   UNL A   1      50.635  27.151  24.928  1.00  0.00     0.040 A 
ATOM     77  F   UNL A   1      48.421  27.690  24.362  1.00  0.00    -0.206 F 
ATOM     78  C   UNL A   1      51.592  26.821  25.885  1.00  0.00     0.006 A 
ENDBRANCH  50  71
BRANCH  62  79
ATOM     79  C   UNL A   1      45.612  32.678  29.446  1.00  0.00     0.057 A 
ATOM     80  C   UNL A   1      45.589  33.787  28.589  1.00  0.00     0.134 A 
ATOM     81  C   UNL A   1      46.100  32.877  30.744  1.00  0.00     0.134 A 
ATOM     82  F   UNL A   1      45.145  33.663  27.329  1.00  0.00    -0.206 F 
ATOM     83  C   UNL A   1      46.067  35.034  28.996  1.00  0.00     0.040 A 
ATOM     84  C   UNL A   1      46.551  34.126  31.172  1.00  0.00     0.040 A 
ATOM     85  F   UNL A   1      46.141  31.862  31.620  1.00  0.00    -0.206 F 
ATOM     86  C   UNL A   1      46.545  35.207  30.293  1.00  0.00     0.006 A 
ENDBRANCH  62  79
ENDBRANCH  36  37
ENDBRANCH  28  31
ENDBRANCH  26  27
ENDBRANCH  25  26
ENDBRANCH   1  25
TORSDOF 13
ENDMDL
MODEL 3
REMARK VINA RESULT:     -11.5      2.726      4.188
REMARK SMILES O=C(C[C@H]1C(=O)NCC[N@@H+]1Cc1ccc(Cl)c(F)c1)NCCCNC(=O)c1ccc(-c2c3nc(c(-c4c(F)cccc4F)c4ccc([nH]4)c(-c4c(F)cccc4F)c4nc(c(-c5c(F)cccc5F)c5ccc2[nH]5)C=C4)C=C3)cc1
REMARK SMILES IDX 21 1 20 2 1 3 2 4 3 6 4 7 5 8 10 9 6 10 7 11 9 12 8 14 11 16
REMARK SMILES IDX 12 17 13 18 19 19 14 20 17 21 15 22 18 23 16 24 22 25 23 26
REMARK SMILES IDX 24 27 25 28 26 30 27 31 28 32 80 33 29 34 79 35 30 36 31 37
REMARK SMILES IDX 32 38 73 39 33 40 78 41 72 42 74 43 34 44 77 45 71 46 70 47
REMARK SMILES IDX 35 49 61 50 44 51 60 52 45 53 48 54 59 55 75 56 46 57 47 58
REMARK SMILES IDX 58 60 76 61 49 62 36 63 37 64 42 65 38 66 39 67 41 68 43 69
REMARK SMILES IDX 40 70 62 71 63 72 68 73 64 74 65 75 67 76 69 77 66 78 50 79
REMARK SMILES IDX 51 80 56 81 52 82 53 83 55 84 57 85 54 86
REMARK H PARENT 20 5 10 13 7 15 24 29 74 48 48 59
REMARK Flexibility Score: inf
ROOT
ATOM      1  C   UNL A   1      37.446  21.398  24.569  1.00  0.00     0.117 C 
ENDROOT
BRANCH   1   2
ATOM      2  N   UNL A   1      36.209  21.637  25.279  1.00  0.00    -0.356 N 
ATOM      3  O   UNL A   1      36.772  23.722  26.041  1.00  0.00    -0.275 OA
ATOM      4  C   UNL A   1      35.937  22.833  25.900  1.00  0.00     0.226 C 
ATOM      5  H   UNL A   1      35.537  20.918  25.320  1.00  0.00     0.163 HD
BRANCH   4   6
ATOM      6  C   UNL A   1      34.534  22.969  26.452  1.00  0.00     0.175 C 
BRANCH   6   7
ATOM      7  C   UNL A   1      33.500  23.651  25.531  1.00  0.00     0.283 C 
ATOM      8  C   UNL A   1      32.958  22.565  24.587  1.00  0.00     0.279 C 
ATOM      9  N   UNL A   1      32.416  24.370  26.238  1.00  0.00    -0.319 N 
ATOM     10  O   UNL A   1      33.556  22.240  23.562  1.00  0.00    -0.268 OA
ATOM     11  N   UNL A   1      31.841  21.881  24.975  1.00  0.00    -0.345 N 
ATOM     12  C   UNL A   1      31.481  23.458  26.907  1.00  0.00     0.284 C 
ATOM     13  H   UNL A   1      32.878  24.868  26.999  1.00  0.00     0.349 HD
ATOM     14  C   UNL A   1      30.977  22.271  26.068  1.00  0.00     0.177 C 
ATOM     15  H   UNL A   1      31.606  21.066  24.475  1.00  0.00     0.163 HD
BRANCH   9  16
ATOM     16  C   UNL A   1      31.821  25.500  25.519  1.00  0.00     0.299 C 
BRANCH  16  17
ATOM     17  C   UNL A   1      32.203  26.883  25.984  1.00  0.00     0.009 A 
ATOM     18  C   UNL A   1      31.322  27.651  26.762  1.00  0.00     0.011 A 
ATOM     19  C   UNL A   1      33.467  27.408  25.680  1.00  0.00     0.050 A 
ATOM     20  C   UNL A   1      31.727  28.882  27.289  1.00  0.00     0.024 A 
ATOM     21  C   UNL A   1      33.872  28.621  26.227  1.00  0.00     0.142 A 
ATOM     22  C   UNL A   1      33.013  29.355  27.039  1.00  0.00     0.076 A 
ATOM     23  F   UNL A   1      35.120  29.046  25.981  1.00  0.00    -0.205 F 
ATOM     24  Cl  UNL A   1      33.531  30.831  27.755  1.00  0.00    -0.081 Cl
ENDBRANCH  16  17
ENDBRANCH   9  16
ENDBRANCH   6   7
ENDBRANCH   4   6
ENDBRANCH   1   2
BRANCH   1  25
ATOM     25  C   UNL A   1      38.046  20.037  24.881  1.00  0.00     0.042 C 
BRANCH  25  26
ATOM     26  C   UNL A   1      39.009  20.029  26.063  1.00  0.00     0.118 C 
BRANCH  26  27
ATOM     27  N   UNL A   1      40.193  19.208  25.841  1.00  0.00    -0.352 N 
ATOM     28  C   UNL A   1      41.522  19.515  25.971  1.00  0.00     0.251 C 
ATOM     29  H   UNL A   1      40.007  18.286  25.552  1.00  0.00     0.163 HD
ATOM     30  O   UNL A   1      42.365  18.692  25.612  1.00  0.00    -0.269 OA
BRANCH  28  31
ATOM     31  C   UNL A   1      41.960  20.824  26.504  1.00  0.00     0.039 A 
ATOM     32  C   UNL A   1      42.273  21.841  25.596  1.00  0.00     0.014 A 
ATOM     33  C   UNL A   1      42.093  21.058  27.876  1.00  0.00     0.014 A 
ATOM     34  C   UNL A   1      42.661  23.099  26.062  1.00  0.00     0.010 A 
ATOM     35  C   UNL A   1      42.398  22.338  28.340  1.00  0.00     0.010 A 
ATOM     36  C   UNL A   1      42.692  23.371  27.441  1.00  0.00    -0.014 A 
BRANCH  36  37
ATOM     37  C   UNL A   1      43.024  24.734  27.935  1.00  0.00     0.031 A 
ATOM     38  C   UNL A   1      44.455  25.168  28.100  1.00  0.00     0.074 A 
ATOM     39  C   UNL A   1      42.027  25.580  28.262  1.00  0.00     0.049 A 
ATOM     40  N   UNL A   1      44.928  26.324  28.494  1.00  0.00    -0.248 NA
ATOM     41  C   UNL A   1      45.493  24.166  27.810  1.00  0.00     0.031 C 
ATOM     42  C   UNL A   1      40.598  25.263  28.209  1.00  0.00     0.029 A 
ATOM     43  N   UNL A   1      42.062  26.879  28.702  1.00  0.00    -0.354 N 
ATOM     44  C   UNL A   1      46.310  26.187  28.503  1.00  0.00     0.074 A 
ATOM     45  C   UNL A   1      46.599  24.818  28.136  1.00  0.00     0.031 C 
ATOM     46  C   UNL A   1      39.893  26.349  28.561  1.00  0.00     0.029 A 
ATOM     47  C   UNL A   1      40.817  27.428  28.897  1.00  0.00     0.049 A 
ATOM     48  H   UNL A   1      42.899  27.371  28.863  1.00  0.00     0.167 HD
ATOM     49  C   UNL A   1      47.255  27.122  28.766  1.00  0.00     0.037 A 
ATOM     50  C   UNL A   1      40.458  28.663  29.296  1.00  0.00     0.037 A 
ATOM     51  C   UNL A   1      46.968  28.489  29.118  1.00  0.00     0.049 A 
ATOM     52  C   UNL A   1      41.526  29.684  29.575  1.00  0.00     0.074 A 
ATOM     53  C   UNL A   1      47.857  29.526  29.349  1.00  0.00     0.029 A 
ATOM     54  N   UNL A   1      45.695  29.009  29.296  1.00  0.00    -0.354 N 
ATOM     55  N   UNL A   1      42.828  29.563  29.499  1.00  0.00    -0.248 NA
ATOM     56  C   UNL A   1      41.070  31.020  29.984  1.00  0.00     0.031 C 
ATOM     57  C   UNL A   1      47.123  30.660  29.713  1.00  0.00     0.029 A 
ATOM     58  C   UNL A   1      45.776  30.346  29.654  1.00  0.00     0.049 A 
ATOM     59  H   UNL A   1      44.857  28.504  29.184  1.00  0.00     0.167 HD
ATOM     60  C   UNL A   1      43.347  30.810  29.821  1.00  0.00     0.074 A 
ATOM     61  C   UNL A   1      42.216  31.680  30.071  1.00  0.00     0.031 C 
ATOM     62  C   UNL A   1      44.643  31.202  29.902  1.00  0.00     0.037 A 
BRANCH  49  63
ATOM     63  C   UNL A   1      48.694  26.698  28.677  1.00  0.00     0.057 A 
ATOM     64  C   UNL A   1      49.437  26.845  27.496  1.00  0.00     0.134 A 
ATOM     65  C   UNL A   1      49.357  26.170  29.792  1.00  0.00     0.134 A 
ATOM     66  F   UNL A   1      48.861  27.332  26.388  1.00  0.00    -0.206 F 
ATOM     67  C   UNL A   1      50.776  26.457  27.421  1.00  0.00     0.040 A 
ATOM     68  C   UNL A   1      50.704  25.807  29.738  1.00  0.00     0.040 A 
ATOM     69  F   UNL A   1      48.711  26.009  30.956  1.00  0.00    -0.206 F 
ATOM     70  C   UNL A   1      51.415  25.943  28.547  1.00  0.00     0.006 A 
ENDBRANCH  49  63
BRANCH  50  71
ATOM     71  C   UNL A   1      39.021  29.018  29.420  1.00  0.00     0.057 A 
ATOM     72  C   UNL A   1      38.297  29.500  28.324  1.00  0.00     0.134 A 
ATOM     73  C   UNL A   1      38.342  28.897  30.639  1.00  0.00     0.134 A 
ATOM     74  F   UNL A   1      38.897  29.654  27.135  1.00  0.00    -0.206 F 
ATOM     75  C   UNL A   1      36.957  29.873  28.438  1.00  0.00     0.040 A 
ATOM     76  C   UNL A   1      36.994  29.239  30.761  1.00  0.00     0.040 A 
ATOM     77  F   UNL A   1      38.976  28.433  31.725  1.00  0.00    -0.206 F 
ATOM     78  C   UNL A   1      36.301  29.738  29.659  1.00  0.00     0.006 A 
ENDBRANCH  50  71
BRANCH  62  79
ATOM     79  C   UNL A   1      44.901  32.642  30.242  1.00  0.00     0.057 A 
ATOM     80  C   UNL A   1      45.082  33.074  31.563  1.00  0.00     0.134 A 
ATOM     81  C   UNL A   1      44.977  33.610  29.231  1.00  0.00     0.134 A 
ATOM     82  F   UNL A   1      45.010  32.201  32.579  1.00  0.00    -0.206 F 
ATOM     83  C   UNL A   1      45.292  34.420  31.868  1.00  0.00     0.040 A 
ATOM     84  C   UNL A   1      45.219  34.953  29.523  1.00  0.00     0.040 A 
ATOM     85  F   UNL A   1      44.824  33.265  27.944  1.00  0.00    -0.206 F 
ATOM     86  C   UNL A   1      45.366  35.363  30.846  1.00  0.00     0.006 A 
ENDBRANCH  62  79
ENDBRANCH  36  37
ENDBRANCH  28  31
ENDBRANCH  26  27
ENDBRANCH  25  26
ENDBRANCH   1  25
TORSDOF 13
ENDMDL
