MODEL 1
REMARK VINA RESULT:      -9.9      0.000      0.000
REMARK SMILES [NH3+][C@@]1(C(=O)NCCCNC(=O)c2ccc(-c3c4nc(c(-c5c(F)cccc5F)c5ccc([nH]5)c(-c5c(F)cccc5F)c5nc(c(-c6c(F)cccc6F)c6ccc3[nH]6)C=C5)C=C4)cc2)CC[C@H](SC2CCOCC2)C1
REMARK SMILES IDX 7 1 6 2 5 3 3 4 4 5 2 7 66 8 76 9 67 10 68 11 1 12 69 16
REMARK SMILES IDX 70 17 71 18 75 19 72 20 74 21 73 22 8 23 9 24 10 25 11 27
REMARK SMILES IDX 12 28 13 29 65 30 14 31 64 32 15 33 16 34 17 35 58 36 18 37
REMARK SMILES IDX 63 38 57 39 59 40 19 41 62 42 56 43 55 44 20 46 46 47 29 48
REMARK SMILES IDX 45 49 30 50 33 51 44 52 60 53 31 54 32 55 43 57 61 58 34 59
REMARK SMILES IDX 21 60 22 61 27 62 23 63 24 64 26 65 28 66 25 67 47 68 48 69
REMARK SMILES IDX 53 70 49 71 50 72 52 73 54 74 51 75 35 76 36 77 41 78 37 79
REMARK SMILES IDX 38 80 40 81 42 82 39 83
REMARK H PARENT 5 6 1 13 1 14 1 15 9 26 59 45 33 56
REMARK Flexibility Score: inf
ROOT
ATOM      1  C   UNL A   1      32.683  36.455  31.259  1.00  0.00     0.042 C 
ENDROOT
BRANCH   1   2
ATOM      2  C   UNL A   1      33.363  35.463  32.188  1.00  0.00     0.118 C 
BRANCH   2   3
ATOM      3  N   UNL A   1      34.798  35.539  32.142  1.00  0.00    -0.351 N 
ATOM      4  C   UNL A   1      35.752  34.911  32.875  1.00  0.00     0.281 C 
ATOM      5  O   UNL A   1      36.905  35.328  32.683  1.00  0.00    -0.268 OA
ATOM      6  H   UNL A   1      35.150  36.154  31.459  1.00  0.00     0.163 HD
BRANCH   4   7
ATOM      7  C   UNL A   1      35.486  33.771  33.951  1.00  0.00     0.175 C 
ATOM      8  C   UNL A   1      35.739  34.140  35.410  1.00  0.00     0.080 C 
ATOM      9  C   UNL A   1      36.299  32.494  33.696  1.00  0.00     0.093 C 
ATOM     10  C   UNL A   1      37.033  33.453  35.842  1.00  0.00     0.022 C 
ATOM     11  C   UNL A   1      37.304  32.308  34.866  1.00  0.00     0.054 C 
BRANCH   7  12
ATOM     12  N   UNL A   1      34.028  33.480  33.856  1.00  0.00    -0.345 N 
ATOM     13  H   UNL A   1      33.737  33.516  32.878  1.00  0.00     0.345 HD
ATOM     14  H   UNL A   1      33.507  34.175  34.391  1.00  0.00     0.345 HD
ATOM     15  H   UNL A   1      33.841  32.551  34.232  1.00  0.00     0.345 HD
ENDBRANCH   7  12
BRANCH  11  16
ATOM     16  S   UNL A   1      38.958  32.062  34.081  1.00  0.00    -0.155 SA
BRANCH  16  17
ATOM     17  C   UNL A   1      39.121  30.326  33.513  1.00  0.00     0.051 C 
ATOM     18  C   UNL A   1      40.513  29.978  32.997  1.00  0.00     0.043 C 
ATOM     19  C   UNL A   1      38.044  29.764  32.588  1.00  0.00     0.043 C 
ATOM     20  C   UNL A   1      40.592  28.469  32.760  1.00  0.00     0.161 C 
ATOM     21  C   UNL A   1      38.252  28.266  32.410  1.00  0.00     0.161 C 
ATOM     22  O   UNL A   1      39.557  28.024  31.884  1.00  0.00    -0.381 OA
ENDBRANCH  16  17
ENDBRANCH  11  16
ENDBRANCH   4   7
ENDBRANCH   2   3
ENDBRANCH   1   2
BRANCH   1  23
ATOM     23  C   UNL A   1      33.236  36.421  29.848  1.00  0.00     0.118 C 
BRANCH  23  24
ATOM     24  N   UNL A   1      32.617  35.374  29.038  1.00  0.00    -0.352 N 
ATOM     25  C   UNL A   1      33.115  34.227  28.464  1.00  0.00     0.251 C 
ATOM     26  H   UNL A   1      31.657  35.516  28.871  1.00  0.00     0.163 HD
ATOM     27  O   UNL A   1      32.435  33.644  27.626  1.00  0.00    -0.269 OA
BRANCH  25  28
ATOM     28  C   UNL A   1      34.455  33.702  28.812  1.00  0.00     0.039 A 
ATOM     29  C   UNL A   1      34.585  32.828  29.898  1.00  0.00     0.014 A 
ATOM     30  C   UNL A   1      35.595  34.090  28.113  1.00  0.00     0.014 A 
ATOM     31  C   UNL A   1      35.836  32.288  30.216  1.00  0.00     0.010 A 
ATOM     32  C   UNL A   1      36.804  33.443  28.333  1.00  0.00     0.010 A 
ATOM     33  C   UNL A   1      36.948  32.549  29.401  1.00  0.00    -0.014 A 
BRANCH  33  34
ATOM     34  C   UNL A   1      38.279  31.937  29.654  1.00  0.00     0.031 A 
ATOM     35  C   UNL A   1      39.349  32.729  30.364  1.00  0.00     0.074 A 
ATOM     36  C   UNL A   1      38.554  30.707  29.176  1.00  0.00     0.049 A 
ATOM     37  N   UNL A   1      40.605  32.424  30.571  1.00  0.00    -0.248 NA
ATOM     38  C   UNL A   1      38.968  34.059  30.871  1.00  0.00     0.031 C 
ATOM     39  C   UNL A   1      37.625  29.860  28.423  1.00  0.00     0.029 A 
ATOM     40  N   UNL A   1      39.701  29.959  29.242  1.00  0.00    -0.354 N 
ATOM     41  C   UNL A   1      41.162  33.528  31.204  1.00  0.00     0.074 A 
ATOM     42  C   UNL A   1      40.132  34.538  31.282  1.00  0.00     0.031 C 
ATOM     43  C   UNL A   1      38.226  28.696  28.131  1.00  0.00     0.029 A 
ATOM     44  C   UNL A   1      39.597  28.733  28.628  1.00  0.00     0.049 A 
ATOM     45  H   UNL A   1      40.522  30.270  29.687  1.00  0.00     0.167 HD
ATOM     46  C   UNL A   1      42.410  33.679  31.709  1.00  0.00     0.037 A 
ATOM     47  C   UNL A   1      40.508  27.753  28.475  1.00  0.00     0.037 A 
ATOM     48  C   UNL A   1      43.421  32.656  31.668  1.00  0.00     0.049 A 
ATOM     49  C   UNL A   1      41.888  27.946  29.042  1.00  0.00     0.074 A 
ATOM     50  C   UNL A   1      44.697  32.683  32.200  1.00  0.00     0.029 A 
ATOM     51  N   UNL A   1      43.265  31.419  31.060  1.00  0.00    -0.354 N 
ATOM     52  N   UNL A   1      42.380  28.972  29.694  1.00  0.00    -0.248 NA
ATOM     53  C   UNL A   1      42.839  26.841  28.857  1.00  0.00     0.031 C 
ATOM     54  C   UNL A   1      45.329  31.479  31.878  1.00  0.00     0.029 A 
ATOM     55  C   UNL A   1      44.429  30.680  31.192  1.00  0.00     0.049 A 
ATOM     56  H   UNL A   1      42.448  31.111  30.605  1.00  0.00     0.167 HD
ATOM     57  C   UNL A   1      43.682  28.622  30.027  1.00  0.00     0.074 A 
ATOM     58  C   UNL A   1      43.898  27.284  29.517  1.00  0.00     0.031 C 
ATOM     59  C   UNL A   1      44.617  29.343  30.692  1.00  0.00     0.037 A 
BRANCH  46  60
ATOM     60  C   UNL A   1      42.743  34.987  32.367  1.00  0.00     0.057 A 
ATOM     61  C   UNL A   1      42.417  35.246  33.706  1.00  0.00     0.134 A 
ATOM     62  C   UNL A   1      43.427  35.989  31.667  1.00  0.00     0.134 A 
ATOM     63  F   UNL A   1      41.748  34.336  34.431  1.00  0.00    -0.206 F 
ATOM     64  C   UNL A   1      42.734  36.461  34.315  1.00  0.00     0.040 A 
ATOM     65  C   UNL A   1      43.777  37.196  32.275  1.00  0.00     0.040 A 
ATOM     66  F   UNL A   1      43.775  35.808  30.384  1.00  0.00    -0.206 F 
ATOM     67  C   UNL A   1      43.425  37.437  33.601  1.00  0.00     0.006 A 
ENDBRANCH  46  60
BRANCH  47  68
ATOM     68  C   UNL A   1      40.145  26.492  27.778  1.00  0.00     0.057 A 
ATOM     69  C   UNL A   1      39.353  25.524  28.407  1.00  0.00     0.134 A 
ATOM     70  C   UNL A   1      40.597  26.211  26.483  1.00  0.00     0.134 A 
ATOM     71  F   UNL A   1      38.903  25.727  29.654  1.00  0.00    -0.206 F 
ATOM     72  C   UNL A   1      39.050  24.310  27.789  1.00  0.00     0.040 A 
ATOM     73  C   UNL A   1      40.278  25.013  25.841  1.00  0.00     0.040 A 
ATOM     74  F   UNL A   1      41.351  27.100  25.819  1.00  0.00    -0.206 F 
ATOM     75  C   UNL A   1      39.510  24.053  26.499  1.00  0.00     0.006 A 
ENDBRANCH  47  68
BRANCH  59  76
ATOM     76  C   UNL A   1      45.939  28.681  30.951  1.00  0.00     0.057 A 
ATOM     77  C   UNL A   1      46.166  27.896  32.088  1.00  0.00     0.134 A 
ATOM     78  C   UNL A   1      46.985  28.799  30.027  1.00  0.00     0.134 A 
ATOM     79  F   UNL A   1      45.209  27.752  33.018  1.00  0.00    -0.206 F 
ATOM     80  C   UNL A   1      47.396  27.275  32.312  1.00  0.00     0.040 A 
ATOM     81  C   UNL A   1      48.208  28.159  30.223  1.00  0.00     0.040 A 
ATOM     82  F   UNL A   1      46.830  29.527  28.910  1.00  0.00    -0.206 F 
ATOM     83  C   UNL A   1      48.418  27.400  31.372  1.00  0.00     0.006 A 
ENDBRANCH  59  76
ENDBRANCH  33  34
ENDBRANCH  25  28
ENDBRANCH  23  24
ENDBRANCH   1  23
TORSDOF 13
ENDMDL
MODEL 2
REMARK VINA RESULT:      -9.9      4.478      9.210
REMARK SMILES [NH3+][C@@]1(C(=O)NCCCNC(=O)c2ccc(-c3c4nc(c(-c5c(F)cccc5F)c5ccc([nH]5)c(-c5c(F)cccc5F)c5nc(c(-c6c(F)cccc6F)c6ccc3[nH]6)C=C5)C=C4)cc2)CC[C@H](SC2CCOCC2)C1
REMARK SMILES IDX 7 1 6 2 5 3 3 4 4 5 2 7 66 8 76 9 67 10 68 11 1 12 69 16
REMARK SMILES IDX 70 17 71 18 75 19 72 20 74 21 73 22 8 23 9 24 10 25 11 27
REMARK SMILES IDX 12 28 13 29 65 30 14 31 64 32 15 33 16 34 17 35 58 36 18 37
REMARK SMILES IDX 63 38 57 39 59 40 19 41 62 42 56 43 55 44 20 46 46 47 29 48
REMARK SMILES IDX 45 49 30 50 33 51 44 52 60 53 31 54 32 55 43 57 61 58 34 59
REMARK SMILES IDX 21 60 22 61 27 62 23 63 24 64 26 65 28 66 25 67 47 68 48 69
REMARK SMILES IDX 53 70 49 71 50 72 52 73 54 74 51 75 35 76 36 77 41 78 37 79
REMARK SMILES IDX 38 80 40 81 42 82 39 83
REMARK H PARENT 5 6 1 13 1 14 1 15 9 26 59 45 33 56
REMARK Flexibility Score: inf
ROOT
ATOM      1  C   UNL A   1      31.238  31.869  26.383  1.00  0.00     0.042 C 
ENDROOT
BRANCH   1   2
ATOM      2  C   UNL A   1      31.407  30.578  25.600  1.00  0.00     0.118 C 
BRANCH   2   3
ATOM      3  N   UNL A   1      31.785  29.462  26.425  1.00  0.00    -0.351 N 
ATOM      4  C   UNL A   1      32.075  28.174  26.111  1.00  0.00     0.281 C 
ATOM      5  O   UNL A   1      32.208  27.424  27.091  1.00  0.00    -0.268 OA
ATOM      6  H   UNL A   1      31.844  29.669  27.386  1.00  0.00     0.163 HD
BRANCH   4   7
ATOM      7  C   UNL A   1      32.192  27.588  24.638  1.00  0.00     0.175 C 
ATOM      8  C   UNL A   1      32.888  28.472  23.607  1.00  0.00     0.080 C 
ATOM      9  C   UNL A   1      30.835  27.217  24.023  1.00  0.00     0.093 C 
ATOM     10  C   UNL A   1      31.812  29.038  22.683  1.00  0.00     0.022 C 
ATOM     11  C   UNL A   1      30.571  28.154  22.812  1.00  0.00     0.054 C 
BRANCH   7  12
ATOM     12  N   UNL A   1      33.044  26.373  24.770  1.00  0.00    -0.345 N 
ATOM     13  H   UNL A   1      32.940  25.984  25.708  1.00  0.00     0.345 HD
ATOM     14  H   UNL A   1      34.021  26.625  24.614  1.00  0.00     0.345 HD
ATOM     15  H   UNL A   1      32.758  25.679  24.080  1.00  0.00     0.345 HD
ENDBRANCH   7  12
BRANCH  11  16
ATOM     16  S   UNL A   1      28.886  28.865  23.078  1.00  0.00    -0.155 SA
BRANCH  16  17
ATOM     17  C   UNL A   1      28.822  30.571  22.406  1.00  0.00     0.051 C 
ATOM     18  C   UNL A   1      28.568  31.637  23.465  1.00  0.00     0.043 C 
ATOM     19  C   UNL A   1      27.972  30.826  21.163  1.00  0.00     0.043 C 
ATOM     20  C   UNL A   1      28.751  33.018  22.833  1.00  0.00     0.161 C 
ATOM     21  C   UNL A   1      28.223  32.239  20.653  1.00  0.00     0.161 C 
ATOM     22  O   UNL A   1      27.921  33.180  21.683  1.00  0.00    -0.381 OA
ENDBRANCH  16  17
ENDBRANCH  11  16
ENDBRANCH   4   7
ENDBRANCH   2   3
ENDBRANCH   1   2
BRANCH   1  23
ATOM     23  C   UNL A   1      32.531  32.357  27.007  1.00  0.00     0.118 C 
BRANCH  23  24
ATOM     24  N   UNL A   1      32.446  33.753  27.431  1.00  0.00    -0.352 N 
ATOM     25  C   UNL A   1      33.091  34.465  28.415  1.00  0.00     0.251 C 
ATOM     26  H   UNL A   1      31.804  34.288  26.911  1.00  0.00     0.163 HD
ATOM     27  O   UNL A   1      32.657  35.570  28.724  1.00  0.00    -0.269 OA
BRANCH  25  28
ATOM     28  C   UNL A   1      34.270  33.918  29.124  1.00  0.00     0.039 A 
ATOM     29  C   UNL A   1      34.081  32.953  30.120  1.00  0.00     0.014 A 
ATOM     30  C   UNL A   1      35.559  34.370  28.854  1.00  0.00     0.014 A 
ATOM     31  C   UNL A   1      35.186  32.393  30.772  1.00  0.00     0.010 A 
ATOM     32  C   UNL A   1      36.658  33.713  29.391  1.00  0.00     0.010 A 
ATOM     33  C   UNL A   1      36.488  32.730  30.374  1.00  0.00    -0.014 A 
BRANCH  33  34
ATOM     34  C   UNL A   1      37.691  32.104  30.983  1.00  0.00     0.031 A 
ATOM     35  C   UNL A   1      38.422  31.007  30.250  1.00  0.00     0.074 A 
ATOM     36  C   UNL A   1      38.075  32.458  32.225  1.00  0.00     0.049 A 
ATOM     37  N   UNL A   1      39.411  30.253  30.658  1.00  0.00    -0.248 NA
ATOM     38  C   UNL A   1      37.952  30.686  28.890  1.00  0.00     0.031 C 
ATOM     39  C   UNL A   1      37.419  33.464  33.065  1.00  0.00     0.029 A 
ATOM     40  N   UNL A   1      39.107  32.001  33.005  1.00  0.00    -0.354 N 
ATOM     41  C   UNL A   1      39.658  29.360  29.622  1.00  0.00     0.074 A 
ATOM     42  C   UNL A   1      38.672  29.615  28.597  1.00  0.00     0.031 C 
ATOM     43  C   UNL A   1      38.086  33.575  34.224  1.00  0.00     0.029 A 
ATOM     44  C   UNL A   1      39.183  32.614  34.234  1.00  0.00     0.049 A 
ATOM     45  H   UNL A   1      39.735  31.302  32.713  1.00  0.00     0.167 HD
ATOM     46  C   UNL A   1      40.640  28.434  29.515  1.00  0.00     0.037 A 
ATOM     47  C   UNL A   1      40.036  32.416  35.256  1.00  0.00     0.037 A 
ATOM     48  C   UNL A   1      41.646  28.211  30.519  1.00  0.00     0.049 A 
ATOM     49  C   UNL A   1      41.116  31.378  35.115  1.00  0.00     0.074 A 
ATOM     50  C   UNL A   1      42.719  27.339  30.485  1.00  0.00     0.029 A 
ATOM     51  N   UNL A   1      41.702  28.872  31.737  1.00  0.00    -0.354 N 
ATOM     52  N   UNL A   1      41.376  30.586  34.102  1.00  0.00    -0.248 NA
ATOM     53  C   UNL A   1      42.027  31.211  36.256  1.00  0.00     0.031 C 
ATOM     54  C   UNL A   1      43.401  27.440  31.702  1.00  0.00     0.029 A 
ATOM     55  C   UNL A   1      42.784  28.415  32.471  1.00  0.00     0.049 A 
ATOM     56  H   UNL A   1      41.069  29.564  32.035  1.00  0.00     0.167 HD
ATOM     57  C   UNL A   1      42.498  29.854  34.470  1.00  0.00     0.074 A 
ATOM     58  C   UNL A   1      42.877  30.307  35.791  1.00  0.00     0.031 C 
ATOM     59  C   UNL A   1      43.155  28.891  33.778  1.00  0.00     0.037 A 
BRANCH  46  60
ATOM     60  C   UNL A   1      40.685  27.608  28.261  1.00  0.00     0.057 A 
ATOM     61  C   UNL A   1      41.416  28.012  27.135  1.00  0.00     0.134 A 
ATOM     62  C   UNL A   1      40.020  26.378  28.188  1.00  0.00     0.134 A 
ATOM     63  F   UNL A   1      42.064  29.187  27.131  1.00  0.00    -0.206 F 
ATOM     64  C   UNL A   1      41.460  27.238  25.975  1.00  0.00     0.040 A 
ATOM     65  C   UNL A   1      40.083  25.580  27.045  1.00  0.00     0.040 A 
ATOM     66  F   UNL A   1      39.305  25.925  29.230  1.00  0.00    -0.206 F 
ATOM     67  C   UNL A   1      40.800  26.012  25.930  1.00  0.00     0.006 A 
ENDBRANCH  46  60
BRANCH  47  68
ATOM     68  C   UNL A   1      39.926  33.228  36.496  1.00  0.00     0.057 A 
ATOM     69  C   UNL A   1      39.066  32.845  37.533  1.00  0.00     0.134 A 
ATOM     70  C   UNL A   1      40.650  34.414  36.666  1.00  0.00     0.134 A 
ATOM     71  F   UNL A   1      38.333  31.728  37.423  1.00  0.00    -0.206 F 
ATOM     72  C   UNL A   1      38.908  33.625  38.679  1.00  0.00     0.040 A 
ATOM     73  C   UNL A   1      40.523  35.189  37.820  1.00  0.00     0.040 A 
ATOM     74  F   UNL A   1      41.499  34.833  35.716  1.00  0.00    -0.206 F 
ATOM     75  C   UNL A   1      39.641  34.801  38.827  1.00  0.00     0.006 A 
ENDBRANCH  47  68
BRANCH  59  76
ATOM     76  C   UNL A   1      44.379  28.302  34.415  1.00  0.00     0.057 A 
ATOM     77  C   UNL A   1      44.326  27.134  35.185  1.00  0.00     0.134 A 
ATOM     78  C   UNL A   1      45.634  28.892  34.220  1.00  0.00     0.134 A 
ATOM     79  F   UNL A   1      43.152  26.526  35.420  1.00  0.00    -0.206 F 
ATOM     80  C   UNL A   1      45.474  26.589  35.762  1.00  0.00     0.040 A 
ATOM     81  C   UNL A   1      46.793  28.340  34.766  1.00  0.00     0.040 A 
ATOM     82  F   UNL A   1      45.757  30.007  33.483  1.00  0.00    -0.206 F 
ATOM     83  C   UNL A   1      46.713  27.189  35.546  1.00  0.00     0.006 A 
ENDBRANCH  59  76
ENDBRANCH  33  34
ENDBRANCH  25  28
ENDBRANCH  23  24
ENDBRANCH   1  23
TORSDOF 13
ENDMDL
MODEL 3
REMARK VINA RESULT:      -9.8      4.065      6.516
REMARK SMILES [NH3+][C@@]1(C(=O)NCCCNC(=O)c2ccc(-c3c4nc(c(-c5c(F)cccc5F)c5ccc([nH]5)c(-c5c(F)cccc5F)c5nc(c(-c6c(F)cccc6F)c6ccc3[nH]6)C=C5)C=C4)cc2)CC[C@H](SC2CCOCC2)C1
REMARK SMILES IDX 7 1 6 2 5 3 3 4 4 5 2 7 66 8 76 9 67 10 68 11 1 12 69 16
REMARK SMILES IDX 70 17 71 18 75 19 72 20 74 21 73 22 8 23 9 24 10 25 11 27
REMARK SMILES IDX 12 28 13 29 65 30 14 31 64 32 15 33 16 34 17 35 58 36 18 37
REMARK SMILES IDX 63 38 57 39 59 40 19 41 62 42 56 43 55 44 20 46 46 47 29 48
REMARK SMILES IDX 45 49 30 50 33 51 44 52 60 53 31 54 32 55 43 57 61 58 34 59
REMARK SMILES IDX 21 60 22 61 27 62 23 63 24 64 26 65 28 66 25 67 47 68 48 69
REMARK SMILES IDX 53 70 49 71 50 72 52 73 54 74 51 75 35 76 36 77 41 78 37 79
REMARK SMILES IDX 38 80 40 81 42 82 39 83
REMARK H PARENT 5 6 1 13 1 14 1 15 9 26 59 45 33 56
REMARK Flexibility Score: inf
ROOT
ATOM      1  C   UNL A   1      31.218  32.154  26.421  1.00  0.00     0.042 C 
ENDROOT
BRANCH   1   2
ATOM      2  C   UNL A   1      31.302  30.802  25.733  1.00  0.00     0.118 C 
BRANCH   2   3
ATOM      3  N   UNL A   1      31.471  29.710  26.654  1.00  0.00    -0.351 N 
ATOM      4  C   UNL A   1      31.692  28.387  26.444  1.00  0.00     0.281 C 
ATOM      5  O   UNL A   1      31.630  27.687  27.467  1.00  0.00    -0.268 OA
ATOM      6  H   UNL A   1      31.417  29.967  27.602  1.00  0.00     0.163 HD
BRANCH   4   7
ATOM      7  C   UNL A   1      31.957  27.710  25.030  1.00  0.00     0.175 C 
ATOM      8  C   UNL A   1      32.728  28.543  24.010  1.00  0.00     0.080 C 
ATOM      9  C   UNL A   1      30.670  27.266  24.320  1.00  0.00     0.093 C 
ATOM     10  C   UNL A   1      31.731  29.020  22.956  1.00  0.00     0.022 C 
ATOM     11  C   UNL A   1      30.501  28.116  23.030  1.00  0.00     0.054 C 
BRANCH   7  12
ATOM     12  N   UNL A   1      32.817  26.529  25.320  1.00  0.00    -0.345 N 
ATOM     13  H   UNL A   1      32.612  26.181  26.257  1.00  0.00     0.345 HD
ATOM     14  H   UNL A   1      33.798  26.802  25.266  1.00  0.00     0.345 HD
ATOM     15  H   UNL A   1      32.630  25.795  24.636  1.00  0.00     0.345 HD
ENDBRANCH   7  12
BRANCH  11  16
ATOM     16  S   UNL A   1      28.786  28.800  23.093  1.00  0.00    -0.155 SA
BRANCH  16  17
ATOM     17  C   UNL A   1      28.774  30.504  22.413  1.00  0.00     0.051 C 
ATOM     18  C   UNL A   1      28.527  31.580  23.463  1.00  0.00     0.043 C 
ATOM     19  C   UNL A   1      27.953  30.774  21.154  1.00  0.00     0.043 C 
ATOM     20  C   UNL A   1      28.754  32.954  22.830  1.00  0.00     0.161 C 
ATOM     21  C   UNL A   1      28.247  32.178  20.644  1.00  0.00     0.161 C 
ATOM     22  O   UNL A   1      27.949  33.130  21.665  1.00  0.00    -0.381 OA
ENDBRANCH  16  17
ENDBRANCH  11  16
ENDBRANCH   4   7
ENDBRANCH   2   3
ENDBRANCH   1   2
BRANCH   1  23
ATOM     23  C   UNL A   1      32.519  32.566  27.080  1.00  0.00     0.118 C 
BRANCH  23  24
ATOM     24  N   UNL A   1      32.432  33.890  27.691  1.00  0.00    -0.352 N 
ATOM     25  C   UNL A   1      33.174  34.512  28.669  1.00  0.00     0.251 C 
ATOM     26  H   UNL A   1      31.702  34.446  27.334  1.00  0.00     0.163 HD
ATOM     27  O   UNL A   1      32.739  35.542  29.174  1.00  0.00    -0.269 OA
BRANCH  25  28
ATOM     28  C   UNL A   1      34.462  33.953  29.141  1.00  0.00     0.039 A 
ATOM     29  C   UNL A   1      34.473  33.119  30.264  1.00  0.00     0.014 A 
ATOM     30  C   UNL A   1      35.667  34.271  28.520  1.00  0.00     0.014 A 
ATOM     31  C   UNL A   1      35.674  32.547  30.700  1.00  0.00     0.010 A 
ATOM     32  C   UNL A   1      36.829  33.590  28.858  1.00  0.00     0.010 A 
ATOM     33  C   UNL A   1      36.855  32.735  29.966  1.00  0.00    -0.014 A 
BRANCH  33  34
ATOM     34  C   UNL A   1      38.137  32.086  30.347  1.00  0.00     0.031 A 
ATOM     35  C   UNL A   1      39.074  32.775  31.307  1.00  0.00     0.074 A 
ATOM     36  C   UNL A   1      38.498  30.923  29.769  1.00  0.00     0.049 A 
ATOM     37  N   UNL A   1      40.286  32.437  31.669  1.00  0.00    -0.248 NA
ATOM     38  C   UNL A   1      38.603  34.035  31.910  1.00  0.00     0.031 C 
ATOM     39  C   UNL A   1      37.707  30.183  28.780  1.00  0.00     0.029 A 
ATOM     40  N   UNL A   1      39.630  30.164  29.919  1.00  0.00    -0.354 N 
ATOM     41  C   UNL A   1      40.724  33.450  32.514  1.00  0.00     0.074 A 
ATOM     42  C   UNL A   1      39.683  34.450  32.554  1.00  0.00     0.031 C 
ATOM     43  C   UNL A   1      38.361  29.061  28.444  1.00  0.00     0.029 A 
ATOM     44  C   UNL A   1      39.637  29.025  29.149  1.00  0.00     0.049 A 
ATOM     45  H   UNL A   1      40.367  30.411  30.522  1.00  0.00     0.167 HD
ATOM     46  C   UNL A   1      41.876  33.527  33.222  1.00  0.00     0.037 A 
ATOM     47  C   UNL A   1      40.572  28.065  29.020  1.00  0.00     0.037 A 
ATOM     48  C   UNL A   1      42.893  32.509  33.212  1.00  0.00     0.049 A 
ATOM     49  C   UNL A   1      41.845  28.175  29.815  1.00  0.00     0.074 A 
ATOM     50  C   UNL A   1      44.070  32.461  33.937  1.00  0.00     0.029 A 
ATOM     51  N   UNL A   1      42.849  31.359  32.439  1.00  0.00    -0.354 N 
ATOM     52  N   UNL A   1      42.217  29.108  30.659  1.00  0.00    -0.248 NA
ATOM     53  C   UNL A   1      42.826  27.094  29.645  1.00  0.00     0.031 C 
ATOM     54  C   UNL A   1      44.759  31.301  33.570  1.00  0.00     0.029 A 
ATOM     55  C   UNL A   1      43.986  30.600  32.658  1.00  0.00     0.049 A 
ATOM     56  H   UNL A   1      42.117  31.116  31.828  1.00  0.00     0.167 HD
ATOM     57  C   UNL A   1      43.455  28.709  31.145  1.00  0.00     0.074 A 
ATOM     58  C   UNL A   1      43.764  27.443  30.513  1.00  0.00     0.031 C 
ATOM     59  C   UNL A   1      44.266  29.334  32.032  1.00  0.00     0.037 A 
BRANCH  46  60
ATOM     60  C   UNL A   1      42.086  34.741  34.081  1.00  0.00     0.057 A 
ATOM     61  C   UNL A   1      41.709  34.766  35.431  1.00  0.00     0.134 A 
ATOM     62  C   UNL A   1      42.704  35.887  33.565  1.00  0.00     0.134 A 
ATOM     63  F   UNL A   1      41.098  33.708  35.986  1.00  0.00    -0.206 F 
ATOM     64  C   UNL A   1      41.913  35.894  36.227  1.00  0.00     0.040 A 
ATOM     65  C   UNL A   1      42.942  37.009  34.359  1.00  0.00     0.040 A 
ATOM     66  F   UNL A   1      43.097  35.931  32.282  1.00  0.00    -0.206 F 
ATOM     67  C   UNL A   1      42.540  37.018  35.694  1.00  0.00     0.006 A 
ENDBRANCH  46  60
BRANCH  47  68
ATOM     68  C   UNL A   1      40.337  26.903  28.124  1.00  0.00     0.057 A 
ATOM     69  C   UNL A   1      39.551  25.821  28.538  1.00  0.00     0.134 A 
ATOM     70  C   UNL A   1      40.909  26.830  26.849  1.00  0.00     0.134 A 
ATOM     71  F   UNL A   1      38.989  25.823  29.756  1.00  0.00    -0.206 F 
ATOM     72  C   UNL A   1      39.367  24.698  27.732  1.00  0.00     0.040 A 
ATOM     73  C   UNL A   1      40.710  25.725  26.019  1.00  0.00     0.040 A 
ATOM     74  F   UNL A   1      41.666  27.837  26.385  1.00  0.00    -0.206 F 
ATOM     75  C   UNL A   1      39.945  24.649  26.465  1.00  0.00     0.006 A 
ENDBRANCH  47  68
BRANCH  59  76
ATOM     76  C   UNL A   1      45.539  28.634  32.411  1.00  0.00     0.057 A 
ATOM     77  C   UNL A   1      45.596  27.715  33.465  1.00  0.00     0.134 A 
ATOM     78  C   UNL A   1      46.714  28.857  31.681  1.00  0.00     0.134 A 
ATOM     79  F   UNL A   1      44.508  27.466  34.210  1.00  0.00    -0.206 F 
ATOM     80  C   UNL A   1      46.783  27.062  33.798  1.00  0.00     0.040 A 
ATOM     81  C   UNL A   1      47.899  28.188  31.985  1.00  0.00     0.040 A 
ATOM     82  F   UNL A   1      46.726  29.717  30.652  1.00  0.00    -0.206 F 
ATOM     83  C   UNL A   1      47.938  27.292  33.052  1.00  0.00     0.006 A 
ENDBRANCH  59  76
ENDBRANCH  33  34
ENDBRANCH  25  28
ENDBRANCH  23  24
ENDBRANCH   1  23
TORSDOF 13
ENDMDL
