MODEL 1
REMARK VINA RESULT:     -11.5      0.000      0.000
REMARK SMILES CC(C)[C@@H](CNC(=O)Cc1ccc(F)cc1F)C(=O)NCCCNC(=O)c1ccc(-c2c3nc(c(-c4c(F)cccc4F)c4ccc([nH]4)c(-c4c(F)cccc4F)c4nc(c(-c5c(F)cccc5F)c5ccc2[nH]5)C=C4)C=C3)cc1
REMARK SMILES IDX 21 1 20 2 18 3 19 4 4 6 2 7 1 8 3 9 5 10 6 11 7 12 8 14 9 15
REMARK SMILES IDX 10 16 11 17 16 18 12 19 15 20 17 21 13 22 14 23 22 24 23 25
REMARK SMILES IDX 24 26 25 27 26 29 27 30 28 31 80 32 29 33 79 34 30 35 31 36
REMARK SMILES IDX 32 37 73 38 33 39 78 40 72 41 74 42 34 43 77 44 71 45 70 46
REMARK SMILES IDX 35 48 61 49 44 50 60 51 45 52 48 53 59 54 75 55 46 56 47 57
REMARK SMILES IDX 58 59 76 60 49 61 36 62 37 63 42 64 38 65 39 66 41 67 43 68
REMARK SMILES IDX 40 69 62 70 63 71 68 72 64 73 65 74 67 75 69 76 66 77 50 78
REMARK SMILES IDX 51 79 56 80 52 81 53 82 55 83 57 84 54 85
REMARK H PARENT 20 5 6 13 24 28 74 47 48 58
REMARK Flexibility Score: inf
ROOT
ATOM      1  C   UNL A   1      36.966  20.845  24.854  1.00  0.00     0.117 C 
ENDROOT
BRANCH   1   2
ATOM      2  N   UNL A   1      35.685  20.382  25.348  1.00  0.00    -0.356 N 
ATOM      3  C   UNL A   1      34.552  21.060  25.659  1.00  0.00     0.225 C 
ATOM      4  O   UNL A   1      33.617  20.407  26.130  1.00  0.00    -0.275 OA
ATOM      5  H   UNL A   1      35.628  19.408  25.482  1.00  0.00     0.163 HD
BRANCH   3   6
ATOM      6  C   UNL A   1      34.432  22.573  25.528  1.00  0.00     0.100 C 
BRANCH   6   7
ATOM      7  C   UNL A   1      33.896  22.974  24.123  1.00  0.00    -0.003 C 
ATOM      8  C   UNL A   1      35.022  23.210  23.114  1.00  0.00     0.008 C 
ATOM      9  C   UNL A   1      32.967  21.877  23.564  1.00  0.00     0.008 C 
ENDBRANCH   6   7
BRANCH   6  10
ATOM     10  C   UNL A   1      33.861  23.286  26.783  1.00  0.00     0.129 C 
BRANCH  10  11
ATOM     11  N   UNL A   1      32.436  23.188  27.037  1.00  0.00    -0.355 N 
ATOM     12  C   UNL A   1      31.408  24.015  26.682  1.00  0.00     0.224 C 
ATOM     13  H   UNL A   1      32.165  22.393  27.551  1.00  0.00     0.163 HD
ATOM     14  O   UNL A   1      30.299  23.776  27.171  1.00  0.00    -0.275 OA
BRANCH  12  15
ATOM     15  C   UNL A   1      31.581  25.136  25.674  1.00  0.00     0.138 C 
BRANCH  15  16
ATOM     16  C   UNL A   1      32.085  26.453  26.207  1.00  0.00    -0.003 A 
ATOM     17  C   UNL A   1      31.270  27.299  26.974  1.00  0.00     0.010 A 
ATOM     18  C   UNL A   1      33.391  26.871  25.913  1.00  0.00     0.129 A 
ATOM     19  C   UNL A   1      31.780  28.507  27.464  1.00  0.00     0.040 A 
ATOM     20  C   UNL A   1      33.910  28.059  26.410  1.00  0.00     0.078 A 
ATOM     21  F   UNL A   1      34.178  26.103  25.145  1.00  0.00    -0.207 F 
ATOM     22  C   UNL A   1      33.098  28.866  27.190  1.00  0.00     0.126 A 
ATOM     23  F   UNL A   1      33.588  30.009  27.688  1.00  0.00    -0.207 F 
ENDBRANCH  15  16
ENDBRANCH  12  15
ENDBRANCH  10  11
ENDBRANCH   6  10
ENDBRANCH   3   6
ENDBRANCH   1   2
BRANCH   1  24
ATOM     24  C   UNL A   1      38.041  19.782  24.930  1.00  0.00     0.042 C 
BRANCH  24  25
ATOM     25  C   UNL A   1      39.109  20.109  25.959  1.00  0.00     0.118 C 
BRANCH  25  26
ATOM     26  N   UNL A   1      40.215  19.156  25.946  1.00  0.00    -0.352 N 
ATOM     27  C   UNL A   1      41.567  19.353  26.105  1.00  0.00     0.251 C 
ATOM     28  H   UNL A   1      39.949  18.219  25.798  1.00  0.00     0.163 HD
ATOM     29  O   UNL A   1      42.354  18.445  25.878  1.00  0.00    -0.269 OA
BRANCH  27  30
ATOM     30  C   UNL A   1      42.066  20.677  26.527  1.00  0.00     0.039 A 
ATOM     31  C   UNL A   1      42.492  21.586  25.556  1.00  0.00     0.014 A 
ATOM     32  C   UNL A   1      42.095  21.026  27.876  1.00  0.00     0.014 A 
ATOM     33  C   UNL A   1      42.864  22.875  25.938  1.00  0.00     0.010 A 
ATOM     34  C   UNL A   1      42.342  22.340  28.242  1.00  0.00     0.010 A 
ATOM     35  C   UNL A   1      42.744  23.277  27.279  1.00  0.00    -0.014 A 
BRANCH  35  36
ATOM     36  C   UNL A   1      43.048  24.661  27.710  1.00  0.00     0.031 A 
ATOM     37  C   UNL A   1      44.479  25.088  27.892  1.00  0.00     0.074 A 
ATOM     38  C   UNL A   1      42.041  25.506  28.009  1.00  0.00     0.049 A 
ATOM     39  N   UNL A   1      44.952  26.216  28.356  1.00  0.00    -0.248 NA
ATOM     40  C   UNL A   1      45.518  24.103  27.542  1.00  0.00     0.031 C 
ATOM     41  C   UNL A   1      40.615  25.188  27.920  1.00  0.00     0.029 A 
ATOM     42  N   UNL A   1      42.064  26.803  28.453  1.00  0.00    -0.354 N 
ATOM     43  C   UNL A   1      46.333  26.067  28.369  1.00  0.00     0.074 A 
ATOM     44  C   UNL A   1      46.622  24.720  27.934  1.00  0.00     0.031 C 
ATOM     45  C   UNL A   1      39.901  26.274  28.259  1.00  0.00     0.029 A 
ATOM     46  C   UNL A   1      40.815  27.346  28.635  1.00  0.00     0.049 A 
ATOM     47  H   UNL A   1      42.897  27.299  28.624  1.00  0.00     0.167 HD
ATOM     48  C   UNL A   1      47.277  26.984  28.682  1.00  0.00     0.037 A 
ATOM     49  C   UNL A   1      40.450  28.570  29.060  1.00  0.00     0.037 A 
ATOM     50  C   UNL A   1      46.983  28.335  29.075  1.00  0.00     0.049 A 
ATOM     51  C   UNL A   1      41.517  29.570  29.407  1.00  0.00     0.074 A 
ATOM     52  C   UNL A   1      47.867  29.359  29.357  1.00  0.00     0.029 A 
ATOM     53  N   UNL A   1      45.705  28.849  29.235  1.00  0.00    -0.354 N 
ATOM     54  N   UNL A   1      42.821  29.435  29.360  1.00  0.00    -0.248 NA
ATOM     55  C   UNL A   1      41.068  30.892  29.862  1.00  0.00     0.031 C 
ATOM     56  C   UNL A   1      47.125  30.482  29.733  1.00  0.00     0.029 A 
ATOM     57  C   UNL A   1      45.778  30.173  29.633  1.00  0.00     0.049 A 
ATOM     58  H   UNL A   1      44.870  28.348  29.087  1.00  0.00     0.167 HD
ATOM     59  C   UNL A   1      43.347  30.657  29.755  1.00  0.00     0.074 A 
ATOM     60  C   UNL A   1      42.220  31.528  30.024  1.00  0.00     0.031 C 
ATOM     61  C   UNL A   1      44.644  31.026  29.886  1.00  0.00     0.037 A 
BRANCH  48  62
ATOM     62  C   UNL A   1      48.715  26.565  28.589  1.00  0.00     0.057 A 
ATOM     63  C   UNL A   1      49.392  26.067  29.711  1.00  0.00     0.134 A 
ATOM     64  C   UNL A   1      49.449  26.706  27.403  1.00  0.00     0.134 A 
ATOM     65  F   UNL A   1      48.750  25.909  30.879  1.00  0.00    -0.206 F 
ATOM     66  C   UNL A   1      50.746  25.735  29.659  1.00  0.00     0.040 A 
ATOM     67  C   UNL A   1      50.797  26.351  27.332  1.00  0.00     0.040 A 
ATOM     68  F   UNL A   1      48.859  27.164  26.290  1.00  0.00    -0.206 F 
ATOM     69  C   UNL A   1      51.452  25.873  28.465  1.00  0.00     0.006 A 
ENDBRANCH  48  62
BRANCH  49  70
ATOM     70  C   UNL A   1      39.010  28.925  29.144  1.00  0.00     0.057 A 
ATOM     71  C   UNL A   1      38.317  29.457  28.048  1.00  0.00     0.134 A 
ATOM     72  C   UNL A   1      38.297  28.759  30.336  1.00  0.00     0.134 A 
ATOM     73  F   UNL A   1      38.945  29.651  26.879  1.00  0.00    -0.206 F 
ATOM     74  C   UNL A   1      36.974  29.825  28.141  1.00  0.00     0.040 A 
ATOM     75  C   UNL A   1      36.946  29.097  30.435  1.00  0.00     0.040 A 
ATOM     76  F   UNL A   1      38.899  28.240  31.416  1.00  0.00    -0.206 F 
ATOM     77  C   UNL A   1      36.282  29.640  29.336  1.00  0.00     0.006 A 
ENDBRANCH  49  70
BRANCH  61  78
ATOM     78  C   UNL A   1      44.926  32.435  30.316  1.00  0.00     0.057 A 
ATOM     79  C   UNL A   1      45.081  33.452  29.365  1.00  0.00     0.134 A 
ATOM     80  C   UNL A   1      45.127  32.769  31.661  1.00  0.00     0.134 A 
ATOM     81  F   UNL A   1      44.913  33.194  28.058  1.00  0.00    -0.206 F 
ATOM     82  C   UNL A   1      45.442  34.747  29.734  1.00  0.00     0.040 A 
ATOM     83  C   UNL A   1      45.461  34.068  32.045  1.00  0.00     0.040 A 
ATOM     84  F   UNL A   1      44.985  31.841  32.620  1.00  0.00    -0.206 F 
ATOM     85  C   UNL A   1      45.631  35.058  31.080  1.00  0.00     0.006 A 
ENDBRANCH  61  78
ENDBRANCH  35  36
ENDBRANCH  27  30
ENDBRANCH  25  26
ENDBRANCH  24  25
ENDBRANCH   1  24
TORSDOF 15
ENDMDL
MODEL 2
REMARK VINA RESULT:     -11.4      4.636      9.587
REMARK SMILES CC(C)[C@@H](CNC(=O)Cc1ccc(F)cc1F)C(=O)NCCCNC(=O)c1ccc(-c2c3nc(c(-c4c(F)cccc4F)c4ccc([nH]4)c(-c4c(F)cccc4F)c4nc(c(-c5c(F)cccc5F)c5ccc2[nH]5)C=C4)C=C3)cc1
REMARK SMILES IDX 21 1 20 2 18 3 19 4 4 6 2 7 1 8 3 9 5 10 6 11 7 12 8 14 9 15
REMARK SMILES IDX 10 16 11 17 16 18 12 19 15 20 17 21 13 22 14 23 22 24 23 25
REMARK SMILES IDX 24 26 25 27 26 29 27 30 28 31 80 32 29 33 79 34 30 35 31 36
REMARK SMILES IDX 32 37 73 38 33 39 78 40 72 41 74 42 34 43 77 44 71 45 70 46
REMARK SMILES IDX 35 48 61 49 44 50 60 51 45 52 48 53 59 54 75 55 46 56 47 57
REMARK SMILES IDX 58 59 76 60 49 61 36 62 37 63 42 64 38 65 39 66 41 67 43 68
REMARK SMILES IDX 40 69 62 70 63 71 68 72 64 73 65 74 67 75 69 76 66 77 50 78
REMARK SMILES IDX 51 79 56 80 52 81 53 82 55 83 57 84 54 85
REMARK H PARENT 20 5 6 13 24 28 74 47 48 58
REMARK Flexibility Score: inf
ROOT
ATOM      1  C   UNL A   1      31.652  30.763  26.006  1.00  0.00     0.117 C 
ENDROOT
BRANCH   1   2
ATOM      2  N   UNL A   1      31.572  29.787  27.074  1.00  0.00    -0.356 N 
ATOM      3  C   UNL A   1      31.604  28.431  27.046  1.00  0.00     0.225 C 
ATOM      4  O   UNL A   1      31.445  27.843  28.119  1.00  0.00    -0.275 OA
ATOM      5  H   UNL A   1      31.478  30.175  27.974  1.00  0.00     0.163 HD
BRANCH   3   6
ATOM      6  C   UNL A   1      31.738  27.633  25.755  1.00  0.00     0.100 C 
BRANCH   6   7
ATOM      7  C   UNL A   1      33.222  27.251  25.484  1.00  0.00    -0.003 C 
ATOM      8  C   UNL A   1      33.601  27.389  24.009  1.00  0.00     0.008 C 
ATOM      9  C   UNL A   1      34.171  28.141  26.313  1.00  0.00     0.008 C 
ENDBRANCH   6   7
BRANCH   6  10
ATOM     10  C   UNL A   1      30.634  26.565  25.538  1.00  0.00     0.129 C 
BRANCH  10  11
ATOM     11  N   UNL A   1      30.548  25.468  26.483  1.00  0.00    -0.355 N 
ATOM     12  C   UNL A   1      30.745  24.126  26.312  1.00  0.00     0.224 C 
ATOM     13  H   UNL A   1      30.309  25.734  27.401  1.00  0.00     0.163 HD
ATOM     14  O   UNL A   1      30.447  23.388  27.257  1.00  0.00    -0.275 OA
BRANCH  12  15
ATOM     15  C   UNL A   1      31.372  23.553  25.054  1.00  0.00     0.138 C 
BRANCH  15  16
ATOM     16  C   UNL A   1      32.875  23.619  24.957  1.00  0.00    -0.003 A 
ATOM     17  C   UNL A   1      33.678  23.834  26.087  1.00  0.00     0.010 A 
ATOM     18  C   UNL A   1      33.500  23.492  23.708  1.00  0.00     0.129 A 
ATOM     19  C   UNL A   1      35.071  23.874  25.958  1.00  0.00     0.040 A 
ATOM     20  C   UNL A   1      34.882  23.512  23.575  1.00  0.00     0.078 A 
ATOM     21  F   UNL A   1      32.755  23.329  22.605  1.00  0.00    -0.207 F 
ATOM     22  C   UNL A   1      35.658  23.697  24.707  1.00  0.00     0.126 A 
ATOM     23  F   UNL A   1      36.993  23.704  24.597  1.00  0.00    -0.207 F 
ENDBRANCH  15  16
ENDBRANCH  12  15
ENDBRANCH  10  11
ENDBRANCH   6  10
ENDBRANCH   3   6
ENDBRANCH   1   2
BRANCH   1  24
ATOM     24  C   UNL A   1      31.417  32.178  26.489  1.00  0.00     0.042 C 
BRANCH  24  25
ATOM     25  C   UNL A   1      32.600  32.730  27.265  1.00  0.00     0.118 C 
BRANCH  25  26
ATOM     26  N   UNL A   1      32.426  34.131  27.637  1.00  0.00    -0.352 N 
ATOM     27  C   UNL A   1      33.057  34.886  28.598  1.00  0.00     0.251 C 
ATOM     28  H   UNL A   1      31.744  34.614  27.116  1.00  0.00     0.163 HD
ATOM     29  O   UNL A   1      32.640  36.000  28.881  1.00  0.00    -0.269 OA
BRANCH  27  30
ATOM     30  C   UNL A   1      34.228  34.332  29.307  1.00  0.00     0.039 A 
ATOM     31  C   UNL A   1      34.031  33.585  30.470  1.00  0.00     0.014 A 
ATOM     32  C   UNL A   1      35.516  34.536  28.813  1.00  0.00     0.014 A 
ATOM     33  C   UNL A   1      35.122  32.971  31.084  1.00  0.00     0.010 A 
ATOM     34  C   UNL A   1      36.578  33.826  29.349  1.00  0.00     0.010 A 
ATOM     35  C   UNL A   1      36.397  33.045  30.499  1.00  0.00    -0.014 A 
BRANCH  35  36
ATOM     36  C   UNL A   1      37.564  32.337  31.076  1.00  0.00     0.031 A 
ATOM     37  C   UNL A   1      38.190  32.842  32.347  1.00  0.00     0.074 A 
ATOM     38  C   UNL A   1      38.103  31.291  30.418  1.00  0.00     0.049 A 
ATOM     39  N   UNL A   1      39.271  32.428  32.957  1.00  0.00    -0.248 NA
ATOM     40  C   UNL A   1      37.537  33.990  33.001  1.00  0.00     0.031 C 
ATOM     41  C   UNL A   1      37.615  30.743  29.151  1.00  0.00     0.029 A 
ATOM     42  N   UNL A   1      39.185  30.505  30.723  1.00  0.00    -0.354 N 
ATOM     43  C   UNL A   1      39.433  33.272  34.048  1.00  0.00     0.074 A 
ATOM     44  C   UNL A   1      38.384  34.263  33.981  1.00  0.00     0.031 C 
ATOM     45  C   UNL A   1      38.369  29.687  28.809  1.00  0.00     0.029 A 
ATOM     46  C   UNL A   1      39.421  29.512  29.803  1.00  0.00     0.049 A 
ATOM     47  H   UNL A   1      39.739  30.639  31.525  1.00  0.00     0.167 HD
ATOM     48  C   UNL A   1      40.353  33.205  35.036  1.00  0.00     0.037 A 
ATOM     49  C   UNL A   1      40.382  28.569  29.765  1.00  0.00     0.037 A 
ATOM     50  C   UNL A   1      41.370  32.191  35.118  1.00  0.00     0.049 A 
ATOM     51  C   UNL A   1      41.397  28.518  30.873  1.00  0.00     0.074 A 
ATOM     52  C   UNL A   1      42.314  31.999  36.108  1.00  0.00     0.029 A 
ATOM     53  N   UNL A   1      41.568  31.195  34.173  1.00  0.00    -0.354 N 
ATOM     54  N   UNL A   1      41.505  29.287  31.930  1.00  0.00    -0.248 NA
ATOM     55  C   UNL A   1      42.422  27.468  30.788  1.00  0.00     0.031 C 
ATOM     56  C   UNL A   1      43.115  30.914  35.741  1.00  0.00     0.029 A 
ATOM     57  C   UNL A   1      42.635  30.397  34.547  1.00  0.00     0.049 A 
ATOM     58  H   UNL A   1      41.029  31.074  33.357  1.00  0.00     0.167 HD
ATOM     59  C   UNL A   1      42.590  28.802  32.647  1.00  0.00     0.074 A 
ATOM     60  C   UNL A   1      43.099  27.662  31.911  1.00  0.00     0.031 C 
ATOM     61  C   UNL A   1      43.120  29.260  33.807  1.00  0.00     0.037 A 
BRANCH  48  62
ATOM     62  C   UNL A   1      40.290  34.239  36.122  1.00  0.00     0.057 A 
ATOM     63  C   UNL A   1      39.504  34.034  37.264  1.00  0.00     0.134 A 
ATOM     64  C   UNL A   1      40.964  35.464  36.013  1.00  0.00     0.134 A 
ATOM     65  F   UNL A   1      38.830  32.886  37.430  1.00  0.00    -0.206 F 
ATOM     66  C   UNL A   1      39.382  35.012  38.251  1.00  0.00     0.040 A 
ATOM     67  C   UNL A   1      40.872  36.438  37.008  1.00  0.00     0.040 A 
ATOM     68  F   UNL A   1      41.744  35.719  34.953  1.00  0.00    -0.206 F 
ATOM     69  C   UNL A   1      40.071  36.218  38.127  1.00  0.00     0.006 A 
ENDBRANCH  48  62
BRANCH  49  70
ATOM     70  C   UNL A   1      40.403  27.577  28.660  1.00  0.00     0.057 A 
ATOM     71  C   UNL A   1      41.157  27.785  27.498  1.00  0.00     0.134 A 
ATOM     72  C   UNL A   1      39.645  26.403  28.734  1.00  0.00     0.134 A 
ATOM     73  F   UNL A   1      41.897  28.895  27.359  1.00  0.00    -0.206 F 
ATOM     74  C   UNL A   1      41.145  26.868  26.445  1.00  0.00     0.040 A 
ATOM     75  C   UNL A   1      39.645  25.465  27.700  1.00  0.00     0.040 A 
ATOM     76  F   UNL A   1      38.915  26.139  29.827  1.00  0.00    -0.206 F 
ATOM     77  C   UNL A   1      40.391  25.701  26.546  1.00  0.00     0.006 A 
ENDBRANCH  49  70
BRANCH  61  78
ATOM     78  C   UNL A   1      44.295  28.521  34.374  1.00  0.00     0.057 A 
ATOM     79  C   UNL A   1      45.601  28.873  34.008  1.00  0.00     0.134 A 
ATOM     80  C   UNL A   1      44.133  27.411  35.212  1.00  0.00     0.134 A 
ATOM     81  F   UNL A   1      45.823  29.920  33.198  1.00  0.00    -0.206 F 
ATOM     82  C   UNL A   1      46.703  28.138  34.443  1.00  0.00     0.040 A 
ATOM     83  C   UNL A   1      45.230  26.685  35.676  1.00  0.00     0.040 A 
ATOM     84  F   UNL A   1      42.908  27.029  35.605  1.00  0.00    -0.206 F 
ATOM     85  C   UNL A   1      46.519  27.040  35.282  1.00  0.00     0.006 A 
ENDBRANCH  61  78
ENDBRANCH  35  36
ENDBRANCH  27  30
ENDBRANCH  25  26
ENDBRANCH  24  25
ENDBRANCH   1  24
TORSDOF 15
ENDMDL
MODEL 3
REMARK VINA RESULT:     -11.4      4.900      9.431
REMARK SMILES CC(C)[C@@H](CNC(=O)Cc1ccc(F)cc1F)C(=O)NCCCNC(=O)c1ccc(-c2c3nc(c(-c4c(F)cccc4F)c4ccc([nH]4)c(-c4c(F)cccc4F)c4nc(c(-c5c(F)cccc5F)c5ccc2[nH]5)C=C4)C=C3)cc1
REMARK SMILES IDX 21 1 20 2 18 3 19 4 4 6 2 7 1 8 3 9 5 10 6 11 7 12 8 14 9 15
REMARK SMILES IDX 10 16 11 17 16 18 12 19 15 20 17 21 13 22 14 23 22 24 23 25
REMARK SMILES IDX 24 26 25 27 26 29 27 30 28 31 80 32 29 33 79 34 30 35 31 36
REMARK SMILES IDX 32 37 73 38 33 39 78 40 72 41 74 42 34 43 77 44 71 45 70 46
REMARK SMILES IDX 35 48 61 49 44 50 60 51 45 52 48 53 59 54 75 55 46 56 47 57
REMARK SMILES IDX 58 59 76 60 49 61 36 62 37 63 42 64 38 65 39 66 41 67 43 68
REMARK SMILES IDX 40 69 62 70 63 71 68 72 64 73 65 74 67 75 69 76 66 77 50 78
REMARK SMILES IDX 51 79 56 80 52 81 53 82 55 83 57 84 54 85
REMARK H PARENT 20 5 6 13 24 28 74 47 48 58
REMARK Flexibility Score: inf
ROOT
ATOM      1  C   UNL A   1      31.768  30.660  26.148  1.00  0.00     0.117 C 
ENDROOT
BRANCH   1   2
ATOM      2  N   UNL A   1      31.644  29.701  27.228  1.00  0.00    -0.356 N 
ATOM      3  C   UNL A   1      31.694  28.346  27.226  1.00  0.00     0.225 C 
ATOM      4  O   UNL A   1      31.487  27.773  28.300  1.00  0.00    -0.275 OA
ATOM      5  H   UNL A   1      31.498  30.103  28.115  1.00  0.00     0.163 HD
BRANCH   3   6
ATOM      6  C   UNL A   1      31.907  27.527  25.959  1.00  0.00     0.100 C 
BRANCH   6   7
ATOM      7  C   UNL A   1      33.361  26.978  25.883  1.00  0.00    -0.003 C 
ATOM      8  C   UNL A   1      33.710  26.437  24.495  1.00  0.00     0.008 C 
ATOM      9  C   UNL A   1      34.376  28.082  26.241  1.00  0.00     0.008 C 
ENDBRANCH   6   7
BRANCH   6  10
ATOM     10  C   UNL A   1      30.727  26.589  25.591  1.00  0.00     0.129 C 
BRANCH  10  11
ATOM     11  N   UNL A   1      30.396  25.514  26.508  1.00  0.00    -0.355 N 
ATOM     12  C   UNL A   1      30.472  24.158  26.356  1.00  0.00     0.224 C 
ATOM     13  H   UNL A   1      30.061  25.811  27.385  1.00  0.00     0.163 HD
ATOM     14  O   UNL A   1      29.969  23.464  27.246  1.00  0.00    -0.275 OA
BRANCH  12  15
ATOM     15  C   UNL A   1      31.202  23.512  25.194  1.00  0.00     0.138 C 
BRANCH  15  16
ATOM     16  C   UNL A   1      32.595  23.004  25.469  1.00  0.00    -0.003 A 
ATOM     17  C   UNL A   1      33.295  23.362  26.631  1.00  0.00     0.010 A 
ATOM     18  C   UNL A   1      33.232  22.173  24.536  1.00  0.00     0.129 A 
ATOM     19  C   UNL A   1      34.580  22.857  26.857  1.00  0.00     0.040 A 
ATOM     20  C   UNL A   1      34.500  21.654  24.761  1.00  0.00     0.078 A 
ATOM     21  F   UNL A   1      32.605  21.850  23.395  1.00  0.00    -0.207 F 
ATOM     22  C   UNL A   1      35.162  21.997  25.929  1.00  0.00     0.126 A 
ATOM     23  F   UNL A   1      36.380  21.493  26.168  1.00  0.00    -0.207 F 
ENDBRANCH  15  16
ENDBRANCH  12  15
ENDBRANCH  10  11
ENDBRANCH   6  10
ENDBRANCH   3   6
ENDBRANCH   1   2
BRANCH   1  24
ATOM     24  C   UNL A   1      31.443  32.073  26.581  1.00  0.00     0.042 C 
BRANCH  24  25
ATOM     25  C   UNL A   1      32.603  32.743  27.295  1.00  0.00     0.118 C 
BRANCH  25  26
ATOM     26  N   UNL A   1      32.348  34.150  27.590  1.00  0.00    -0.352 N 
ATOM     27  C   UNL A   1      32.916  34.986  28.523  1.00  0.00     0.251 C 
ATOM     28  H   UNL A   1      31.654  34.568  27.030  1.00  0.00     0.163 HD
ATOM     29  O   UNL A   1      32.435  36.088  28.739  1.00  0.00    -0.269 OA
BRANCH  27  30
ATOM     30  C   UNL A   1      34.098  34.532  29.284  1.00  0.00     0.039 A 
ATOM     31  C   UNL A   1      33.922  33.996  30.561  1.00  0.00     0.014 A 
ATOM     32  C   UNL A   1      35.374  34.620  28.728  1.00  0.00     0.014 A 
ATOM     33  C   UNL A   1      35.020  33.469  31.242  1.00  0.00     0.010 A 
ATOM     34  C   UNL A   1      36.438  33.985  29.348  1.00  0.00     0.010 A 
ATOM     35  C   UNL A   1      36.277  33.414  30.619  1.00  0.00    -0.014 A 
BRANCH  35  36
ATOM     36  C   UNL A   1      37.448  32.786  31.276  1.00  0.00     0.031 A 
ATOM     37  C   UNL A   1      38.108  31.593  30.641  1.00  0.00     0.074 A 
ATOM     38  C   UNL A   1      37.867  33.241  32.474  1.00  0.00     0.049 A 
ATOM     39  N   UNL A   1      39.075  30.841  31.102  1.00  0.00    -0.248 NA
ATOM     40  C   UNL A   1      37.588  31.162  29.331  1.00  0.00     0.031 C 
ATOM     41  C   UNL A   1      37.273  34.358  33.210  1.00  0.00     0.029 A 
ATOM     42  N   UNL A   1      38.887  32.815  33.285  1.00  0.00    -0.354 N 
ATOM     43  C   UNL A   1      39.262  29.846  30.151  1.00  0.00     0.074 A 
ATOM     44  C   UNL A   1      38.268  30.045  29.122  1.00  0.00     0.031 C 
ATOM     45  C   UNL A   1      37.965  34.554  34.345  1.00  0.00     0.029 A 
ATOM     46  C   UNL A   1      39.017  33.549  34.439  1.00  0.00     0.049 A 
ATOM     47  H   UNL A   1      39.472  32.055  33.061  1.00  0.00     0.167 HD
ATOM     48  C   UNL A   1      40.203  28.875  30.121  1.00  0.00     0.037 A 
ATOM     49  C   UNL A   1      39.886  33.422  35.460  1.00  0.00     0.037 A 
ATOM     50  C   UNL A   1      41.216  28.709  31.128  1.00  0.00     0.049 A 
ATOM     51  C   UNL A   1      40.919  32.331  35.406  1.00  0.00     0.074 A 
ATOM     52  C   UNL A   1      42.251  27.794  31.163  1.00  0.00     0.029 A 
ATOM     53  N   UNL A   1      41.321  29.481  32.275  1.00  0.00    -0.354 N 
ATOM     54  N   UNL A   1      41.123  31.432  34.473  1.00  0.00    -0.248 NA
ATOM     55  C   UNL A   1      41.847  32.237  36.542  1.00  0.00     0.031 C 
ATOM     56  C   UNL A   1      42.956  27.981  32.354  1.00  0.00     0.029 A 
ATOM     57  C   UNL A   1      42.393  29.049  33.036  1.00  0.00     0.049 A 
ATOM     58  H   UNL A   1      40.722  30.226  32.513  1.00  0.00     0.167 HD
ATOM     59  C   UNL A   1      42.212  30.683  34.895  1.00  0.00     0.074 A 
ATOM     60  C   UNL A   1      42.637  31.242  36.163  1.00  0.00     0.031 C 
ATOM     61  C   UNL A   1      42.806  29.625  34.291  1.00  0.00     0.037 A 
BRANCH  48  62
ATOM     62  C   UNL A   1      40.199  27.934  28.952  1.00  0.00     0.057 A 
ATOM     63  C   UNL A   1      39.511  26.714  29.016  1.00  0.00     0.134 A 
ATOM     64  C   UNL A   1      40.919  28.207  27.782  1.00  0.00     0.134 A 
ATOM     65  F   UNL A   1      38.804  26.387  30.109  1.00  0.00    -0.206 F 
ATOM     66  C   UNL A   1      39.551  25.798  27.965  1.00  0.00     0.040 A 
ATOM     67  C   UNL A   1      40.943  27.311  26.712  1.00  0.00     0.040 A 
ATOM     68  F   UNL A   1      41.587  29.363  27.650  1.00  0.00    -0.206 F 
ATOM     69  C   UNL A   1      40.266  26.097  26.806  1.00  0.00     0.006 A 
ENDBRANCH  48  62
BRANCH  49  70
ATOM     70  C   UNL A   1      39.837  34.376  36.597  1.00  0.00     0.057 A 
ATOM     71  C   UNL A   1      40.502  35.609  36.554  1.00  0.00     0.134 A 
ATOM     72  C   UNL A   1      39.136  34.064  37.767  1.00  0.00     0.134 A 
ATOM     73  F   UNL A   1      41.200  35.964  35.465  1.00  0.00    -0.206 F 
ATOM     74  C   UNL A   1      40.484  36.487  37.639  1.00  0.00     0.040 A 
ATOM     75  C   UNL A   1      39.087  34.945  38.849  1.00  0.00     0.040 A 
ATOM     76  F   UNL A   1      38.466  32.906  37.864  1.00  0.00    -0.206 F 
ATOM     77  C   UNL A   1      39.770  36.159  38.789  1.00  0.00     0.006 A 
ENDBRANCH  49  70
BRANCH  61  78
ATOM     78  C   UNL A   1      43.993  29.013  34.971  1.00  0.00     0.057 A 
ATOM     79  C   UNL A   1      43.822  28.017  35.942  1.00  0.00     0.134 A 
ATOM     80  C   UNL A   1      45.296  29.464  34.728  1.00  0.00     0.134 A 
ATOM     81  F   UNL A   1      42.598  27.550  36.230  1.00  0.00    -0.206 F 
ATOM     82  C   UNL A   1      44.903  27.505  36.660  1.00  0.00     0.040 A 
ATOM     83  C   UNL A   1      46.389  28.939  35.419  1.00  0.00     0.040 A 
ATOM     84  F   UNL A   1      45.527  30.409  33.804  1.00  0.00    -0.206 F 
ATOM     85  C   UNL A   1      46.192  27.965  36.396  1.00  0.00     0.006 A 
ENDBRANCH  61  78
ENDBRANCH  35  36
ENDBRANCH  27  30
ENDBRANCH  25  26
ENDBRANCH  24  25
ENDBRANCH   1  24
TORSDOF 15
ENDMDL
