MODEL 1
REMARK VINA RESULT:     -10.9      0.000      0.000
REMARK SMILES CCC(CC)(NC(=O)NCCc1nccs1)C(=O)NCCCNC(=O)c1ccc(-c2c3nc(c(-c4c(F)cccc4F)c4ccc([nH]4)c(-c4c(F)cccc4F)c4nc(c(-c5c(F)cccc5F)c5ccc2[nH]5)C=C4)C=C3)cc1
REMARK SMILES IDX 20 1 19 2 17 3 18 4 3 6 2 7 1 8 4 9 5 10 6 11 7 12 8 14 9 15
REMARK SMILES IDX 10 17 11 18 12 19 13 20 16 21 14 22 15 23 21 24 22 25 23 26
REMARK SMILES IDX 24 27 25 29 26 30 27 31 79 32 28 33 78 34 29 35 30 36 31 37
REMARK SMILES IDX 72 38 32 39 77 40 71 41 73 42 33 43 76 44 70 45 69 46 34 48
REMARK SMILES IDX 60 49 43 50 59 51 44 52 47 53 58 54 74 55 45 56 46 57 57 59
REMARK SMILES IDX 75 60 48 61 35 62 36 63 41 64 37 65 38 66 40 67 42 68 39 69
REMARK SMILES IDX 61 70 62 71 67 72 63 73 64 74 66 75 68 76 65 77 49 78 50 79
REMARK SMILES IDX 55 80 51 81 52 82 54 83 56 84 53 85
REMARK H PARENT 19 5 6 13 9 16 23 28 73 47 47 58
REMARK Flexibility Score: inf
ROOT
ATOM      1  C   UNL A   1      35.934  21.348  25.115  1.00  0.00     0.117 C 
ENDROOT
BRANCH   1   2
ATOM      2  N   UNL A   1      35.421  21.538  26.470  1.00  0.00    -0.354 N 
ATOM      3  C   UNL A   1      34.257  22.076  26.978  1.00  0.00     0.245 C 
ATOM      4  O   UNL A   1      34.040  21.882  28.179  1.00  0.00    -0.272 OA
ATOM      5  H   UNL A   1      36.035  21.212  27.167  1.00  0.00     0.163 HD
BRANCH   3   6
ATOM      6  C   UNL A   1      33.209  22.776  26.073  1.00  0.00     0.120 C 
BRANCH   6   7
ATOM      7  C   UNL A   1      33.030  22.236  24.624  1.00  0.00     0.035 C 
ATOM      8  C   UNL A   1      32.252  20.941  24.428  1.00  0.00     0.007 C 
ENDBRANCH   6   7
BRANCH   6   9
ATOM      9  C   UNL A   1      33.722  24.262  26.003  1.00  0.00     0.035 C 
ATOM     10  C   UNL A   1      34.528  24.679  24.784  1.00  0.00     0.007 C 
ENDBRANCH   6   9
BRANCH   6  11
ATOM     11  N   UNL A   1      31.898  22.652  26.747  1.00  0.00    -0.324 N 
ATOM     12  C   UNL A   1      30.713  23.270  26.670  1.00  0.00     0.315 C 
ATOM     13  H   UNL A   1      31.898  21.935  27.422  1.00  0.00     0.166 HD
ATOM     14  O   UNL A   1      29.899  22.991  27.558  1.00  0.00    -0.249 OA
ATOM     15  N   UNL A   1      30.277  24.078  25.696  1.00  0.00    -0.338 N 
ATOM     16  H   UNL A   1      29.293  24.121  25.692  1.00  0.00     0.165 HD
BRANCH  15  17
ATOM     17  C   UNL A   1      30.840  24.915  24.635  1.00  0.00     0.125 C 
BRANCH  17  18
ATOM     18  C   UNL A   1      30.497  26.406  24.649  1.00  0.00     0.089 C 
BRANCH  18  19
ATOM     19  C   UNL A   1      31.109  27.341  25.651  1.00  0.00     0.094 A 
ATOM     20  N   UNL A   1      31.120  27.031  26.936  1.00  0.00    -0.250 NA
ATOM     21  S   UNL A   1      31.815  28.856  25.276  1.00  0.00    -0.127 S 
ATOM     22  C   UNL A   1      31.671  28.050  27.678  1.00  0.00     0.123 A 
ATOM     23  C   UNL A   1      32.119  29.126  26.946  1.00  0.00     0.087 A 
ENDBRANCH  18  19
ENDBRANCH  17  18
ENDBRANCH  15  17
ENDBRANCH   6  11
ENDBRANCH   3   6
ENDBRANCH   1   2
BRANCH   1  24
ATOM     24  C   UNL A   1      37.135  20.427  24.912  1.00  0.00     0.042 C 
BRANCH  24  25
ATOM     25  C   UNL A   1      38.445  20.793  25.585  1.00  0.00     0.118 C 
BRANCH  25  26
ATOM     26  N   UNL A   1      39.441  19.740  25.552  1.00  0.00    -0.352 N 
ATOM     27  C   UNL A   1      40.762  19.782  25.938  1.00  0.00     0.251 C 
ATOM     28  H   UNL A   1      39.128  18.873  25.205  1.00  0.00     0.163 HD
ATOM     29  O   UNL A   1      41.488  18.817  25.756  1.00  0.00    -0.269 OA
BRANCH  27  30
ATOM     30  C   UNL A   1      41.313  21.013  26.551  1.00  0.00     0.039 A 
ATOM     31  C   UNL A   1      41.909  21.973  25.729  1.00  0.00     0.014 A 
ATOM     32  C   UNL A   1      41.246  21.218  27.930  1.00  0.00     0.014 A 
ATOM     33  C   UNL A   1      42.373  23.169  26.283  1.00  0.00     0.010 A 
ATOM     34  C   UNL A   1      41.668  22.428  28.478  1.00  0.00     0.010 A 
ATOM     35  C   UNL A   1      42.226  23.420  27.658  1.00  0.00    -0.014 A 
BRANCH  35  36
ATOM     36  C   UNL A   1      42.605  24.725  28.257  1.00  0.00     0.031 A 
ATOM     37  C   UNL A   1      41.577  25.804  28.439  1.00  0.00     0.074 A 
ATOM     38  C   UNL A   1      43.898  24.969  28.544  1.00  0.00     0.049 A 
ATOM     39  N   UNL A   1      41.737  27.039  28.844  1.00  0.00    -0.248 NA
ATOM     40  C   UNL A   1      40.188  25.457  28.101  1.00  0.00     0.031 C 
ATOM     41  C   UNL A   1      44.996  24.017  28.371  1.00  0.00     0.029 A 
ATOM     42  N   UNL A   1      44.512  26.102  29.019  1.00  0.00    -0.354 N 
ATOM     43  C   UNL A   1      40.475  27.618  28.802  1.00  0.00     0.074 A 
ATOM     44  C   UNL A   1      39.568  26.614  28.288  1.00  0.00     0.031 C 
ATOM     45  C   UNL A   1      46.147  24.603  28.736  1.00  0.00     0.029 A 
ATOM     46  C   UNL A   1      45.876  25.982  29.132  1.00  0.00     0.049 A 
ATOM     47  H   UNL A   1      44.021  26.922  29.255  1.00  0.00     0.167 HD
ATOM     48  C   UNL A   1      40.106  28.868  29.174  1.00  0.00     0.037 A 
ATOM     49  C   UNL A   1      46.806  26.886  29.495  1.00  0.00     0.037 A 
ATOM     50  C   UNL A   1      41.013  29.861  29.689  1.00  0.00     0.049 A 
ATOM     51  C   UNL A   1      46.374  28.276  29.874  1.00  0.00     0.074 A 
ATOM     52  C   UNL A   1      40.726  31.138  30.139  1.00  0.00     0.029 A 
ATOM     53  N   UNL A   1      42.384  29.693  29.811  1.00  0.00    -0.354 N 
ATOM     54  N   UNL A   1      45.168  28.789  29.897  1.00  0.00    -0.248 NA
ATOM     55  C   UNL A   1      47.431  29.212  30.285  1.00  0.00     0.031 C 
ATOM     56  C   UNL A   1      41.928  31.761  30.484  1.00  0.00     0.029 A 
ATOM     57  C   UNL A   1      42.959  30.852  30.309  1.00  0.00     0.049 A 
ATOM     58  H   UNL A   1      42.876  28.872  29.580  1.00  0.00     0.167 HD
ATOM     59  C   UNL A   1      45.316  30.089  30.364  1.00  0.00     0.074 A 
ATOM     60  C   UNL A   1      46.728  30.287  30.612  1.00  0.00     0.031 C 
ATOM     61  C   UNL A   1      44.364  31.030  30.574  1.00  0.00     0.037 A 
BRANCH  48  62
ATOM     62  C   UNL A   1      38.655  29.235  29.035  1.00  0.00     0.057 A 
ATOM     63  C   UNL A   1      38.102  29.602  27.801  1.00  0.00     0.134 A 
ATOM     64  C   UNL A   1      37.792  29.175  30.136  1.00  0.00     0.134 A 
ATOM     65  F   UNL A   1      38.874  29.687  26.707  1.00  0.00    -0.206 F 
ATOM     66  C   UNL A   1      36.748  29.922  27.673  1.00  0.00     0.040 A 
ATOM     67  C   UNL A   1      36.431  29.462  30.014  1.00  0.00     0.040 A 
ATOM     68  F   UNL A   1      38.252  28.821  31.345  1.00  0.00    -0.206 F 
ATOM     69  C   UNL A   1      35.907  29.845  28.781  1.00  0.00     0.006 A 
ENDBRANCH  48  62
BRANCH  49  70
ATOM     70  C   UNL A   1      48.240  26.500  29.536  1.00  0.00     0.057 A 
ATOM     71  C   UNL A   1      48.793  25.897  30.672  1.00  0.00     0.134 A 
ATOM     72  C   UNL A   1      49.092  26.728  28.448  1.00  0.00     0.134 A 
ATOM     73  F   UNL A   1      48.032  25.669  31.752  1.00  0.00    -0.206 F 
ATOM     74  C   UNL A   1      50.144  25.554  30.734  1.00  0.00     0.040 A 
ATOM     75  C   UNL A   1      50.440  26.365  28.487  1.00  0.00     0.040 A 
ATOM     76  F   UNL A   1      48.623  27.295  27.328  1.00  0.00    -0.206 F 
ATOM     77  C   UNL A   1      50.970  25.784  29.636  1.00  0.00     0.006 A 
ENDBRANCH  49  70
BRANCH  61  78
ATOM     78  C   UNL A   1      44.798  32.341  31.160  1.00  0.00     0.057 A 
ATOM     79  C   UNL A   1      44.883  32.550  32.543  1.00  0.00     0.134 A 
ATOM     80  C   UNL A   1      45.202  33.391  30.323  1.00  0.00     0.134 A 
ATOM     81  F   UNL A   1      44.501  31.593  33.400  1.00  0.00    -0.206 F 
ATOM     82  C   UNL A   1      45.341  33.761  33.069  1.00  0.00     0.040 A 
ATOM     83  C   UNL A   1      45.687  34.593  30.837  1.00  0.00     0.040 A 
ATOM     84  F   UNL A   1      45.153  33.253  28.989  1.00  0.00    -0.206 F 
ATOM     85  C   UNL A   1      45.754  34.782  32.215  1.00  0.00     0.006 A 
ENDBRANCH  61  78
ENDBRANCH  35  36
ENDBRANCH  27  30
ENDBRANCH  25  26
ENDBRANCH  24  25
ENDBRANCH   1  24
TORSDOF 16
ENDMDL
MODEL 2
REMARK VINA RESULT:     -10.8      3.824      8.715
REMARK SMILES CCC(CC)(NC(=O)NCCc1nccs1)C(=O)NCCCNC(=O)c1ccc(-c2c3nc(c(-c4c(F)cccc4F)c4ccc([nH]4)c(-c4c(F)cccc4F)c4nc(c(-c5c(F)cccc5F)c5ccc2[nH]5)C=C4)C=C3)cc1
REMARK SMILES IDX 20 1 19 2 17 3 18 4 3 6 2 7 1 8 4 9 5 10 6 11 7 12 8 14 9 15
REMARK SMILES IDX 10 17 11 18 12 19 13 20 16 21 14 22 15 23 21 24 22 25 23 26
REMARK SMILES IDX 24 27 25 29 26 30 27 31 79 32 28 33 78 34 29 35 30 36 31 37
REMARK SMILES IDX 72 38 32 39 77 40 71 41 73 42 33 43 76 44 70 45 69 46 34 48
REMARK SMILES IDX 60 49 43 50 59 51 44 52 47 53 58 54 74 55 45 56 46 57 57 59
REMARK SMILES IDX 75 60 48 61 35 62 36 63 41 64 37 65 38 66 40 67 42 68 39 69
REMARK SMILES IDX 61 70 62 71 67 72 63 73 64 74 66 75 68 76 65 77 49 78 50 79
REMARK SMILES IDX 55 80 51 81 52 82 54 83 56 84 53 85
REMARK H PARENT 19 5 6 13 9 16 23 28 73 47 47 58
REMARK Flexibility Score: inf
ROOT
ATOM      1  C   UNL A   1      31.900  29.581  25.614  1.00  0.00     0.117 C 
ENDROOT
BRANCH   1   2
ATOM      2  N   UNL A   1      32.925  29.632  24.574  1.00  0.00    -0.354 N 
ATOM      3  C   UNL A   1      33.325  28.751  23.591  1.00  0.00     0.245 C 
ATOM      4  O   UNL A   1      34.087  29.199  22.728  1.00  0.00    -0.272 OA
ATOM      5  H   UNL A   1      33.437  30.472  24.573  1.00  0.00     0.163 HD
BRANCH   3   6
ATOM      6  C   UNL A   1      32.755  27.310  23.493  1.00  0.00     0.120 C 
BRANCH   6   7
ATOM      7  C   UNL A   1      31.275  27.090  23.920  1.00  0.00     0.035 C 
ATOM      8  C   UNL A   1      30.176  27.643  23.021  1.00  0.00     0.007 C 
ENDBRANCH   6   7
BRANCH   6   9
ATOM      9  C   UNL A   1      33.691  26.482  24.450  1.00  0.00     0.035 C 
ATOM     10  C   UNL A   1      33.288  26.366  25.911  1.00  0.00     0.007 C 
ENDBRANCH   6   9
BRANCH   6  11
ATOM     11  N   UNL A   1      32.867  26.893  22.079  1.00  0.00    -0.324 N 
ATOM     12  C   UNL A   1      32.808  25.735  21.409  1.00  0.00     0.315 C 
ATOM     13  H   UNL A   1      33.023  27.659  21.480  1.00  0.00     0.166 HD
ATOM     14  O   UNL A   1      33.144  25.781  20.220  1.00  0.00    -0.249 OA
ATOM     15  N   UNL A   1      32.341  24.561  21.850  1.00  0.00    -0.338 N 
ATOM     16  H   UNL A   1      32.089  23.980  21.096  1.00  0.00     0.165 HD
BRANCH  15  17
ATOM     17  C   UNL A   1      32.095  23.892  23.129  1.00  0.00     0.125 C 
BRANCH  17  18
ATOM     18  C   UNL A   1      32.823  22.572  23.391  1.00  0.00     0.089 C 
BRANCH  18  19
ATOM     19  C   UNL A   1      34.307  22.526  23.612  1.00  0.00     0.094 A 
ATOM     20  N   UNL A   1      35.118  23.246  22.856  1.00  0.00    -0.250 NA
ATOM     21  S   UNL A   1      35.094  21.572  24.797  1.00  0.00    -0.127 S 
ATOM     22  C   UNL A   1      36.432  23.008  23.188  1.00  0.00     0.123 A 
ATOM     23  C   UNL A   1      36.618  22.132  24.233  1.00  0.00     0.087 A 
ENDBRANCH  18  19
ENDBRANCH  17  18
ENDBRANCH  15  17
ENDBRANCH   6  11
ENDBRANCH   3   6
ENDBRANCH   1   2
BRANCH   1  24
ATOM     24  C   UNL A   1      31.573  30.861  26.379  1.00  0.00     0.042 C 
BRANCH  24  25
ATOM     25  C   UNL A   1      32.720  31.664  26.963  1.00  0.00     0.118 C 
BRANCH  25  26
ATOM     26  N   UNL A   1      32.359  33.013  27.352  1.00  0.00    -0.352 N 
ATOM     27  C   UNL A   1      33.037  33.893  28.167  1.00  0.00     0.251 C 
ATOM     28  H   UNL A   1      31.510  33.348  26.983  1.00  0.00     0.163 HD
ATOM     29  O   UNL A   1      32.539  34.967  28.465  1.00  0.00    -0.269 OA
BRANCH  27  30
ATOM     30  C   UNL A   1      34.365  33.522  28.710  1.00  0.00     0.039 A 
ATOM     31  C   UNL A   1      34.433  32.794  29.901  1.00  0.00     0.014 A 
ATOM     32  C   UNL A   1      35.538  33.894  28.051  1.00  0.00     0.014 A 
ATOM     33  C   UNL A   1      35.675  32.378  30.390  1.00  0.00     0.010 A 
ATOM     34  C   UNL A   1      36.772  33.443  28.513  1.00  0.00     0.010 A 
ATOM     35  C   UNL A   1      36.852  32.672  29.682  1.00  0.00    -0.014 A 
BRANCH  35  36
ATOM     36  C   UNL A   1      38.172  32.149  30.116  1.00  0.00     0.031 A 
ATOM     37  C   UNL A   1      38.680  30.837  29.590  1.00  0.00     0.074 A 
ATOM     38  C   UNL A   1      38.868  32.812  31.060  1.00  0.00     0.049 A 
ATOM     39  N   UNL A   1      39.754  30.169  29.928  1.00  0.00    -0.248 NA
ATOM     40  C   UNL A   1      37.860  30.177  28.561  1.00  0.00     0.031 C 
ATOM     41  C   UNL A   1      38.460  34.073  31.680  1.00  0.00     0.029 A 
ATOM     42  N   UNL A   1      40.053  32.503  31.682  1.00  0.00    -0.354 N 
ATOM     43  C   UNL A   1      39.736  29.009  29.164  1.00  0.00     0.074 A 
ATOM     44  C   UNL A   1      38.520  29.042  28.378  1.00  0.00     0.031 C 
ATOM     45  C   UNL A   1      39.379  34.432  32.590  1.00  0.00     0.029 A 
ATOM     46  C   UNL A   1      40.419  33.410  32.647  1.00  0.00     0.049 A 
ATOM     47  H   UNL A   1      40.588  31.708  31.458  1.00  0.00     0.167 HD
ATOM     48  C   UNL A   1      40.657  28.017  29.112  1.00  0.00     0.037 A 
ATOM     49  C   UNL A   1      41.465  33.408  33.495  1.00  0.00     0.037 A 
ATOM     50  C   UNL A   1      41.867  27.993  29.895  1.00  0.00     0.049 A 
ATOM     51  C   UNL A   1      42.458  32.281  33.439  1.00  0.00     0.074 A 
ATOM     52  C   UNL A   1      42.885  27.056  29.876  1.00  0.00     0.029 A 
ATOM     53  N   UNL A   1      42.214  28.943  30.843  1.00  0.00    -0.354 N 
ATOM     54  N   UNL A   1      42.466  31.224  32.662  1.00  0.00    -0.248 NA
ATOM     55  C   UNL A   1      43.593  32.345  34.373  1.00  0.00     0.031 C 
ATOM     56  C   UNL A   1      43.823  27.410  30.850  1.00  0.00     0.029 A 
ATOM     57  C   UNL A   1      43.422  28.601  31.432  1.00  0.00     0.049 A 
ATOM     58  H   UNL A   1      41.683  29.741  31.066  1.00  0.00     0.167 HD
ATOM     59  C   UNL A   1      43.623  30.525  32.982  1.00  0.00     0.074 A 
ATOM     60  C   UNL A   1      44.292  31.275  34.024  1.00  0.00     0.031 C 
ATOM     61  C   UNL A   1      44.091  29.368  32.453  1.00  0.00     0.037 A 
BRANCH  48  62
ATOM     62  C   UNL A   1      40.393  26.870  28.179  1.00  0.00     0.057 A 
ATOM     63  C   UNL A   1      39.546  25.811  28.532  1.00  0.00     0.134 A 
ATOM     64  C   UNL A   1      40.951  26.847  26.895  1.00  0.00     0.134 A 
ATOM     65  F   UNL A   1      38.983  25.766  29.749  1.00  0.00    -0.206 F 
ATOM     66  C   UNL A   1      39.286  24.757  27.652  1.00  0.00     0.040 A 
ATOM     67  C   UNL A   1      40.675  25.815  25.995  1.00  0.00     0.040 A 
ATOM     68  F   UNL A   1      41.763  27.834  26.487  1.00  0.00    -0.206 F 
ATOM     69  C   UNL A   1      39.846  24.762  26.377  1.00  0.00     0.006 A 
ENDBRANCH  48  62
BRANCH  49  70
ATOM     70  C   UNL A   1      41.639  34.524  34.460  1.00  0.00     0.057 A 
ATOM     71  C   UNL A   1      41.096  34.455  35.749  1.00  0.00     0.134 A 
ATOM     72  C   UNL A   1      42.345  35.685  34.120  1.00  0.00     0.134 A 
ATOM     73  F   UNL A   1      40.395  33.377  36.128  1.00  0.00    -0.206 F 
ATOM     74  C   UNL A   1      41.229  35.507  36.656  1.00  0.00     0.040 A 
ATOM     75  C   UNL A   1      42.508  36.733  35.027  1.00  0.00     0.040 A 
ATOM     76  F   UNL A   1      42.896  35.810  32.904  1.00  0.00    -0.206 F 
ATOM     77  C   UNL A   1      41.942  36.649  36.297  1.00  0.00     0.006 A 
ENDBRANCH  49  70
BRANCH  61  78
ATOM     78  C   UNL A   1      45.419  28.867  32.938  1.00  0.00     0.057 A 
ATOM     79  C   UNL A   1      46.628  29.278  32.363  1.00  0.00     0.134 A 
ATOM     80  C   UNL A   1      45.489  28.009  34.045  1.00  0.00     0.134 A 
ATOM     81  F   UNL A   1      46.632  30.088  31.294  1.00  0.00    -0.206 F 
ATOM     82  C   UNL A   1      47.858  28.843  32.863  1.00  0.00     0.040 A 
ATOM     83  C   UNL A   1      46.712  27.590  34.570  1.00  0.00     0.040 A 
ATOM     84  F   UNL A   1      44.369  27.584  34.647  1.00  0.00    -0.206 F 
ATOM     85  C   UNL A   1      47.901  28.005  33.976  1.00  0.00     0.006 A 
ENDBRANCH  61  78
ENDBRANCH  35  36
ENDBRANCH  27  30
ENDBRANCH  25  26
ENDBRANCH  24  25
ENDBRANCH   1  24
TORSDOF 16
ENDMDL
MODEL 3
REMARK VINA RESULT:     -10.7      4.575      9.163
REMARK SMILES CCC(CC)(NC(=O)NCCc1nccs1)C(=O)NCCCNC(=O)c1ccc(-c2c3nc(c(-c4c(F)cccc4F)c4ccc([nH]4)c(-c4c(F)cccc4F)c4nc(c(-c5c(F)cccc5F)c5ccc2[nH]5)C=C4)C=C3)cc1
REMARK SMILES IDX 20 1 19 2 17 3 18 4 3 6 2 7 1 8 4 9 5 10 6 11 7 12 8 14 9 15
REMARK SMILES IDX 10 17 11 18 12 19 13 20 16 21 14 22 15 23 21 24 22 25 23 26
REMARK SMILES IDX 24 27 25 29 26 30 27 31 79 32 28 33 78 34 29 35 30 36 31 37
REMARK SMILES IDX 72 38 32 39 77 40 71 41 73 42 33 43 76 44 70 45 69 46 34 48
REMARK SMILES IDX 60 49 43 50 59 51 44 52 47 53 58 54 74 55 45 56 46 57 57 59
REMARK SMILES IDX 75 60 48 61 35 62 36 63 41 64 37 65 38 66 40 67 42 68 39 69
REMARK SMILES IDX 61 70 62 71 67 72 63 73 64 74 66 75 68 76 65 77 49 78 50 79
REMARK SMILES IDX 55 80 51 81 52 82 54 83 56 84 53 85
REMARK H PARENT 19 5 6 13 9 16 23 28 73 47 47 58
REMARK Flexibility Score: inf
ROOT
ATOM      1  C   UNL A   1      31.811  29.942  25.796  1.00  0.00     0.117 C 
ENDROOT
BRANCH   1   2
ATOM      2  N   UNL A   1      32.872  29.827  24.798  1.00  0.00    -0.354 N 
ATOM      3  C   UNL A   1      33.084  28.980  23.730  1.00  0.00     0.245 C 
ATOM      4  O   UNL A   1      33.986  29.297  22.947  1.00  0.00    -0.272 OA
ATOM      5  H   UNL A   1      33.586  30.494  24.911  1.00  0.00     0.163 HD
BRANCH   3   6
ATOM      6  C   UNL A   1      32.162  27.763  23.447  1.00  0.00     0.120 C 
BRANCH   6   7
ATOM      7  C   UNL A   1      30.637  28.033  23.300  1.00  0.00     0.035 C 
ATOM      8  C   UNL A   1      30.190  29.172  22.390  1.00  0.00     0.007 C 
ENDBRANCH   6   7
BRANCH   6   9
ATOM      9  C   UNL A   1      32.397  26.831  24.692  1.00  0.00     0.035 C 
ATOM     10  C   UNL A   1      33.821  26.391  24.992  1.00  0.00     0.007 C 
ENDBRANCH   6   9
BRANCH   6  11
ATOM     11  N   UNL A   1      32.621  27.154  22.180  1.00  0.00    -0.324 N 
ATOM     12  C   UNL A   1      32.505  25.960  21.588  1.00  0.00     0.315 C 
ATOM     13  H   UNL A   1      33.142  27.788  21.635  1.00  0.00     0.166 HD
ATOM     14  O   UNL A   1      33.207  25.781  20.587  1.00  0.00    -0.249 OA
ATOM     15  N   UNL A   1      31.651  24.976  21.898  1.00  0.00    -0.338 N 
ATOM     16  H   UNL A   1      31.524  24.369  21.133  1.00  0.00     0.165 HD
BRANCH  15  17
ATOM     17  C   UNL A   1      30.851  24.543  23.046  1.00  0.00     0.125 C 
BRANCH  17  18
ATOM     18  C   UNL A   1      31.010  23.095  23.516  1.00  0.00     0.089 C 
BRANCH  18  19
ATOM     19  C   UNL A   1      32.343  22.551  23.941  1.00  0.00     0.094 A 
ATOM     20  N   UNL A   1      33.456  23.198  23.640  1.00  0.00    -0.250 NA
ATOM     21  S   UNL A   1      32.577  21.092  24.807  1.00  0.00    -0.127 S 
ATOM     22  C   UNL A   1      34.558  22.495  24.070  1.00  0.00     0.123 A 
ATOM     23  C   UNL A   1      34.278  21.326  24.739  1.00  0.00     0.087 A 
ENDBRANCH  18  19
ENDBRANCH  17  18
ENDBRANCH  15  17
ENDBRANCH   6  11
ENDBRANCH   3   6
ENDBRANCH   1   2
BRANCH   1  24
ATOM     24  C   UNL A   1      31.567  31.301  26.447  1.00  0.00     0.042 C 
BRANCH  24  25
ATOM     25  C   UNL A   1      32.760  32.061  26.996  1.00  0.00     0.118 C 
BRANCH  25  26
ATOM     26  N   UNL A   1      32.474  33.438  27.347  1.00  0.00    -0.352 N 
ATOM     27  C   UNL A   1      33.101  34.249  28.266  1.00  0.00     0.251 C 
ATOM     28  H   UNL A   1      31.724  33.852  26.860  1.00  0.00     0.163 HD
ATOM     29  O   UNL A   1      32.667  35.366  28.501  1.00  0.00    -0.269 OA
BRANCH  27  30
ATOM     30  C   UNL A   1      34.292  33.753  28.995  1.00  0.00     0.039 A 
ATOM     31  C   UNL A   1      34.121  32.821  30.021  1.00  0.00     0.014 A 
ATOM     32  C   UNL A   1      35.571  34.210  28.672  1.00  0.00     0.014 A 
ATOM     33  C   UNL A   1      35.240  32.293  30.673  1.00  0.00     0.010 A 
ATOM     34  C   UNL A   1      36.689  33.653  29.289  1.00  0.00     0.010 A 
ATOM     35  C   UNL A   1      36.534  32.681  30.289  1.00  0.00    -0.014 A 
BRANCH  35  36
ATOM     36  C   UNL A   1      37.743  32.056  30.884  1.00  0.00     0.031 A 
ATOM     37  C   UNL A   1      38.478  30.973  30.149  1.00  0.00     0.074 A 
ATOM     38  C   UNL A   1      38.118  32.399  32.132  1.00  0.00     0.049 A 
ATOM     39  N   UNL A   1      39.485  30.238  30.548  1.00  0.00    -0.248 NA
ATOM     40  C   UNL A   1      38.004  30.658  28.792  1.00  0.00     0.031 C 
ATOM     41  C   UNL A   1      37.460  33.406  32.965  1.00  0.00     0.029 A 
ATOM     42  N   UNL A   1      39.130  31.919  32.927  1.00  0.00    -0.354 N 
ATOM     43  C   UNL A   1      39.761  29.370  29.499  1.00  0.00     0.074 A 
ATOM     44  C   UNL A   1      38.785  29.638  28.464  1.00  0.00     0.031 C 
ATOM     45  C   UNL A   1      38.085  33.471  34.151  1.00  0.00     0.029 A 
ATOM     46  C   UNL A   1      39.161  32.486  34.178  1.00  0.00     0.049 A 
ATOM     47  H   UNL A   1      39.771  31.234  32.628  1.00  0.00     0.167 HD
ATOM     48  C   UNL A   1      40.748  28.447  29.404  1.00  0.00     0.037 A 
ATOM     49  C   UNL A   1      39.956  32.228  35.234  1.00  0.00     0.037 A 
ATOM     50  C   UNL A   1      41.718  28.188  30.436  1.00  0.00     0.049 A 
ATOM     51  C   UNL A   1      41.025  31.177  35.114  1.00  0.00     0.074 A 
ATOM     52  C   UNL A   1      42.786  27.308  30.413  1.00  0.00     0.029 A 
ATOM     53  N   UNL A   1      41.732  28.801  31.680  1.00  0.00    -0.354 N 
ATOM     54  N   UNL A   1      41.320  30.411  34.091  1.00  0.00    -0.248 NA
ATOM     55  C   UNL A   1      41.877  30.956  36.291  1.00  0.00     0.031 C 
ATOM     56  C   UNL A   1      43.414  27.348  31.661  1.00  0.00     0.029 A 
ATOM     57  C   UNL A   1      42.777  28.300  32.441  1.00  0.00     0.049 A 
ATOM     58  H   UNL A   1      41.095  29.489  31.979  1.00  0.00     0.167 HD
ATOM     59  C   UNL A   1      42.415  29.653  34.485  1.00  0.00     0.074 A 
ATOM     60  C   UNL A   1      42.732  30.048  35.841  1.00  0.00     0.031 C 
ATOM     61  C   UNL A   1      43.098  28.718  33.782  1.00  0.00     0.037 A 
BRANCH  48  62
ATOM     62  C   UNL A   1      40.828  27.641  28.137  1.00  0.00     0.057 A 
ATOM     63  C   UNL A   1      41.592  28.063  27.041  1.00  0.00     0.134 A 
ATOM     64  C   UNL A   1      40.174  26.407  28.030  1.00  0.00     0.134 A 
ATOM     65  F   UNL A   1      42.239  29.238  27.074  1.00  0.00    -0.206 F 
ATOM     66  C   UNL A   1      41.680  27.299  25.875  1.00  0.00     0.040 A 
ATOM     67  C   UNL A   1      40.280  25.621  26.881  1.00  0.00     0.040 A 
ATOM     68  F   UNL A   1      39.433  25.938  29.045  1.00  0.00    -0.206 F 
ATOM     69  C   UNL A   1      41.029  26.071  25.796  1.00  0.00     0.006 A 
ENDBRANCH  48  62
BRANCH  49  70
ATOM     70  C   UNL A   1      39.784  32.992  36.496  1.00  0.00     0.057 A 
ATOM     71  C   UNL A   1      38.853  32.592  37.462  1.00  0.00     0.134 A 
ATOM     72  C   UNL A   1      40.538  34.142  36.766  1.00  0.00     0.134 A 
ATOM     73  F   UNL A   1      38.089  31.509  37.253  1.00  0.00    -0.206 F 
ATOM     74  C   UNL A   1      38.662  33.316  38.639  1.00  0.00     0.040 A 
ATOM     75  C   UNL A   1      40.376  34.860  37.952  1.00  0.00     0.040 A 
ATOM     76  F   UNL A   1      41.451  34.574  35.885  1.00  0.00    -0.206 F 
ATOM     77  C   UNL A   1      39.429  34.451  38.889  1.00  0.00     0.006 A 
ENDBRANCH  49  70
BRANCH  61  78
ATOM     78  C   UNL A   1      44.300  28.098  34.433  1.00  0.00     0.057 A 
ATOM     79  C   UNL A   1      44.227  26.893  35.142  1.00  0.00     0.134 A 
ATOM     80  C   UNL A   1      45.564  28.687  34.289  1.00  0.00     0.134 A 
ATOM     81  F   UNL A   1      43.047  26.284  35.328  1.00  0.00    -0.206 F 
ATOM     82  C   UNL A   1      45.366  26.304  35.696  1.00  0.00     0.040 A 
ATOM     83  C   UNL A   1      46.712  28.094  34.814  1.00  0.00     0.040 A 
ATOM     84  F   UNL A   1      45.705  29.838  33.615  1.00  0.00    -0.206 F 
ATOM     85  C   UNL A   1      46.614  26.899  35.524  1.00  0.00     0.006 A 
ENDBRANCH  61  78
ENDBRANCH  35  36
ENDBRANCH  27  30
ENDBRANCH  25  26
ENDBRANCH  24  25
ENDBRANCH   1  24
TORSDOF 16
ENDMDL
