MODEL 1
REMARK VINA RESULT:     -12.5      0.000      0.000
REMARK SMILES Cc1nc(-c2ccc(S(=O)(=O)N3CC[NH2+][C@H](C(=O)NCCCNC(=O)c4ccc(-c5c6nc(c(-c7c(F)cccc7F)c7ccc([nH]7)c(-c7c(F)cccc7F)c7nc(c(-c8c(F)cccc8F)c8ccc5[nH]8)C=C7)C=C6)cc4)C3)s2)cs1
REMARK SMILES IDX 20 1 19 2 17 3 18 4 16 6 12 7 13 8 80 9 14 10 15 11 9 14
REMARK SMILES IDX 10 15 11 16 8 17 5 18 6 19 81 20 7 21 4 22 1 23 2 24 3 25
REMARK SMILES IDX 83 26 82 27 21 28 22 29 23 30 24 31 25 33 26 34 27 35 79 36
REMARK SMILES IDX 28 37 78 38 29 39 30 40 31 41 72 42 32 43 77 44 71 45 73 46
REMARK SMILES IDX 33 47 76 48 70 49 69 50 34 52 60 53 43 54 59 55 44 56 47 57
REMARK SMILES IDX 58 58 74 59 45 60 46 61 57 63 75 64 48 65 35 66 36 67 41 68
REMARK SMILES IDX 37 69 38 70 40 71 42 72 39 73 61 74 62 75 67 76 63 77 64 78
REMARK SMILES IDX 66 79 68 80 65 81 49 82 50 83 55 84 51 85 52 86 54 87 56 88
REMARK SMILES IDX 53 89
REMARK H PARENT 19 5 15 12 15 13 23 32 73 51 47 62
REMARK Flexibility Score: inf
ROOT
ATOM      1  C   UNL A   1      31.379  30.869  25.929  1.00  0.00     0.118 C 
ENDROOT
BRANCH   1   2
ATOM      2  N   UNL A   1      31.708  29.934  26.987  1.00  0.00    -0.351 N 
ATOM      3  C   UNL A   1      31.688  28.572  26.992  1.00  0.00     0.279 C 
ATOM      4  O   UNL A   1      31.480  28.035  28.086  1.00  0.00    -0.268 OA
ATOM      5  H   UNL A   1      31.989  30.347  27.835  1.00  0.00     0.163 HD
BRANCH   3   6
ATOM      6  C   UNL A   1      32.044  27.734  25.735  1.00  0.00     0.287 C 
ATOM      7  N   UNL A   1      32.566  25.607  24.626  1.00  0.00    -0.185 NA
ATOM      8  C   UNL A   1      33.828  26.078  24.031  1.00  0.00     0.164 C 
ATOM      9  C   UNL A   1      32.314  26.249  25.939  1.00  0.00     0.178 C 
ATOM     10  C   UNL A   1      33.949  27.614  24.055  1.00  0.00     0.278 C 
ATOM     11  N   UNL A   1      33.194  28.402  25.043  1.00  0.00    -0.334 N 
ATOM     12  H   UNL A   1      32.824  29.222  24.562  1.00  0.00     0.347 HD
ATOM     13  H   UNL A   1      33.865  28.595  25.786  1.00  0.00     0.347 HD
BRANCH   7  14
ATOM     14  S   UNL A   1      31.260  25.164  23.640  1.00  0.00     0.253 S 
ATOM     15  O   UNL A   1      30.545  24.120  24.352  1.00  0.00    -0.206 OA
ATOM     16  O   UNL A   1      31.784  24.950  22.311  1.00  0.00    -0.206 OA
BRANCH  14  17
ATOM     17  C   UNL A   1      30.047  26.466  23.420  1.00  0.00     0.135 A 
ATOM     18  C   UNL A   1      29.120  28.670  22.753  1.00  0.00     0.055 A 
ATOM     19  C   UNL A   1      28.234  27.941  23.507  1.00  0.00     0.023 A 
ATOM     20  S   UNL A   1      30.554  27.803  22.445  1.00  0.00    -0.121 S 
ATOM     21  C   UNL A   1      28.759  26.679  23.870  1.00  0.00     0.034 A 
BRANCH  18  22
ATOM     22  C   UNL A   1      28.784  30.066  22.338  1.00  0.00     0.091 A 
ATOM     23  C   UNL A   1      29.124  33.570  23.273  1.00  0.00     0.079 C 
ATOM     24  C   UNL A   1      28.807  32.260  22.644  1.00  0.00     0.090 A 
ATOM     25  N   UNL A   1      29.070  31.105  23.210  1.00  0.00    -0.241 NA
ATOM     26  S   UNL A   1      28.067  32.162  21.098  1.00  0.00    -0.127 S 
ATOM     27  C   UNL A   1      28.218  30.448  21.143  1.00  0.00     0.096 A 
ENDBRANCH  18  22
ENDBRANCH  14  17
ENDBRANCH   7  14
ENDBRANCH   3   6
ENDBRANCH   1   2
BRANCH   1  28
ATOM     28  C   UNL A   1      31.273  32.285  26.505  1.00  0.00     0.042 C 
BRANCH  28  29
ATOM     29  C   UNL A   1      32.567  32.748  27.177  1.00  0.00     0.118 C 
BRANCH  29  30
ATOM     30  N   UNL A   1      32.471  34.122  27.640  1.00  0.00    -0.352 N 
ATOM     31  C   UNL A   1      33.168  34.747  28.643  1.00  0.00     0.251 C 
ATOM     32  H   UNL A   1      31.816  34.683  27.168  1.00  0.00     0.163 HD
ATOM     33  O   UNL A   1      32.811  35.855  29.035  1.00  0.00    -0.269 OA
BRANCH  31  34
ATOM     34  C   UNL A   1      34.338  34.089  29.263  1.00  0.00     0.039 A 
ATOM     35  C   UNL A   1      34.117  33.110  30.235  1.00  0.00     0.014 A 
ATOM     36  C   UNL A   1      35.642  34.466  28.929  1.00  0.00     0.014 A 
ATOM     37  C   UNL A   1      35.202  32.482  30.848  1.00  0.00     0.010 A 
ATOM     38  C   UNL A   1      36.725  33.801  29.501  1.00  0.00     0.010 A 
ATOM     39  C   UNL A   1      36.515  32.810  30.473  1.00  0.00    -0.014 A 
BRANCH  39  40
ATOM     40  C   UNL A   1      37.679  32.137  31.099  1.00  0.00     0.031 A 
ATOM     41  C   UNL A   1      38.414  31.051  30.363  1.00  0.00     0.074 A 
ATOM     42  C   UNL A   1      38.041  32.466  32.354  1.00  0.00     0.049 A 
ATOM     43  N   UNL A   1      39.419  30.314  30.762  1.00  0.00    -0.248 NA
ATOM     44  C   UNL A   1      37.939  30.737  29.006  1.00  0.00     0.031 C 
ATOM     45  C   UNL A   1      37.384  33.475  33.186  1.00  0.00     0.029 A 
ATOM     46  N   UNL A   1      39.047  31.982  33.150  1.00  0.00    -0.354 N 
ATOM     47  C   UNL A   1      39.680  29.434  29.720  1.00  0.00     0.074 A 
ATOM     48  C   UNL A   1      38.704  29.703  28.686  1.00  0.00     0.031 C 
ATOM     49  C   UNL A   1      38.019  33.553  34.365  1.00  0.00     0.029 A 
ATOM     50  C   UNL A   1      39.107  32.580  34.384  1.00  0.00     0.049 A 
ATOM     51  H   UNL A   1      39.667  31.274  32.863  1.00  0.00     0.167 HD
ATOM     52  C   UNL A   1      40.655  28.500  29.626  1.00  0.00     0.037 A 
ATOM     53  C   UNL A   1      39.946  32.366  35.416  1.00  0.00     0.037 A 
ATOM     54  C   UNL A   1      41.648  28.261  30.641  1.00  0.00     0.049 A 
ATOM     55  C   UNL A   1      41.024  31.329  35.283  1.00  0.00     0.074 A 
ATOM     56  C   UNL A   1      42.726  27.395  30.606  1.00  0.00     0.029 A 
ATOM     57  N   UNL A   1      41.681  28.893  31.874  1.00  0.00    -0.354 N 
ATOM     58  N   UNL A   1      41.305  30.553  34.265  1.00  0.00    -0.248 NA
ATOM     59  C   UNL A   1      41.907  31.141  36.444  1.00  0.00     0.031 C 
ATOM     60  C   UNL A   1      43.391  27.475  31.835  1.00  0.00     0.029 A 
ATOM     61  C   UNL A   1      42.749  28.420  32.620  1.00  0.00     0.049 A 
ATOM     62  H   UNL A   1      41.041  29.578  32.175  1.00  0.00     0.167 HD
ATOM     63  C   UNL A   1      42.409  29.806  34.648  1.00  0.00     0.074 A 
ATOM     64  C   UNL A   1      42.755  30.228  35.990  1.00  0.00     0.031 C 
ATOM     65  C   UNL A   1      43.080  28.856  33.951  1.00  0.00     0.037 A 
BRANCH  52  66
ATOM     66  C   UNL A   1      40.692  27.662  28.381  1.00  0.00     0.057 A 
ATOM     67  C   UNL A   1      39.999  26.447  28.286  1.00  0.00     0.134 A 
ATOM     68  C   UNL A   1      41.411  28.085  27.257  1.00  0.00     0.134 A 
ATOM     69  F   UNL A   1      39.301  25.978  29.331  1.00  0.00    -0.206 F 
ATOM     70  C   UNL A   1      40.045  25.670  27.126  1.00  0.00     0.040 A 
ATOM     71  C   UNL A   1      41.442  27.330  26.084  1.00  0.00     0.040 A 
ATOM     72  F   UNL A   1      42.091  29.241  27.279  1.00  0.00    -0.206 F 
ATOM     73  C   UNL A   1      40.764  26.114  26.019  1.00  0.00     0.006 A 
ENDBRANCH  52  66
BRANCH  53  74
ATOM     74  C   UNL A   1      39.823  33.178  36.650  1.00  0.00     0.057 A 
ATOM     75  C   UNL A   1      38.935  32.806  37.666  1.00  0.00     0.134 A 
ATOM     76  C   UNL A   1      40.585  34.336  36.848  1.00  0.00     0.134 A 
ATOM     77  F   UNL A   1      38.167  31.717  37.525  1.00  0.00    -0.206 F 
ATOM     78  C   UNL A   1      38.798  33.564  38.830  1.00  0.00     0.040 A 
ATOM     79  C   UNL A   1      40.473  35.091  38.016  1.00  0.00     0.040 A 
ATOM     80  F   UNL A   1      41.458  34.740  35.914  1.00  0.00    -0.206 F 
ATOM     81  C   UNL A   1      39.573  34.708  39.009  1.00  0.00     0.006 A 
ENDBRANCH  53  74
BRANCH  65  82
ATOM     82  C   UNL A   1      44.271  28.235  34.617  1.00  0.00     0.057 A 
ATOM     83  C   UNL A   1      44.167  27.056  35.364  1.00  0.00     0.134 A 
ATOM     84  C   UNL A   1      45.543  28.809  34.483  1.00  0.00     0.134 A 
ATOM     85  F   UNL A   1      42.975  26.466  35.542  1.00  0.00    -0.206 F 
ATOM     86  C   UNL A   1      45.283  26.478  35.971  1.00  0.00     0.040 A 
ATOM     87  C   UNL A   1      46.669  28.229  35.067  1.00  0.00     0.040 A 
ATOM     88  F   UNL A   1      45.709  29.936  33.776  1.00  0.00    -0.206 F 
ATOM     89  C   UNL A   1      46.540  27.063  35.818  1.00  0.00     0.006 A 
ENDBRANCH  65  82
ENDBRANCH  39  40
ENDBRANCH  31  34
ENDBRANCH  29  30
ENDBRANCH  28  29
ENDBRANCH   1  28
TORSDOF 13
ENDMDL
MODEL 2
REMARK VINA RESULT:     -12.5      4.271      8.864
REMARK SMILES Cc1nc(-c2ccc(S(=O)(=O)N3CC[NH2+][C@H](C(=O)NCCCNC(=O)c4ccc(-c5c6nc(c(-c7c(F)cccc7F)c7ccc([nH]7)c(-c7c(F)cccc7F)c7nc(c(-c8c(F)cccc8F)c8ccc5[nH]8)C=C7)C=C6)cc4)C3)s2)cs1
REMARK SMILES IDX 20 1 19 2 17 3 18 4 16 6 12 7 13 8 80 9 14 10 15 11 9 14
REMARK SMILES IDX 10 15 11 16 8 17 5 18 6 19 81 20 7 21 4 22 1 23 2 24 3 25
REMARK SMILES IDX 83 26 82 27 21 28 22 29 23 30 24 31 25 33 26 34 27 35 79 36
REMARK SMILES IDX 28 37 78 38 29 39 30 40 31 41 72 42 32 43 77 44 71 45 73 46
REMARK SMILES IDX 33 47 76 48 70 49 69 50 34 52 60 53 43 54 59 55 44 56 47 57
REMARK SMILES IDX 58 58 74 59 45 60 46 61 57 63 75 64 48 65 35 66 36 67 41 68
REMARK SMILES IDX 37 69 38 70 40 71 42 72 39 73 61 74 62 75 67 76 63 77 64 78
REMARK SMILES IDX 66 79 68 80 65 81 49 82 50 83 55 84 51 85 52 86 54 87 56 88
REMARK SMILES IDX 53 89
REMARK H PARENT 19 5 15 12 15 13 23 32 73 51 47 62
REMARK Flexibility Score: inf
ROOT
ATOM      1  C   UNL A   1      36.029  20.642  25.215  1.00  0.00     0.118 C 
ENDROOT
BRANCH   1   2
ATOM      2  N   UNL A   1      36.457  21.830  25.928  1.00  0.00    -0.351 N 
ATOM      3  C   UNL A   1      35.977  23.103  25.877  1.00  0.00     0.279 C 
ATOM      4  O   UNL A   1      36.790  24.001  26.125  1.00  0.00    -0.268 OA
ATOM      5  H   UNL A   1      37.212  21.695  26.545  1.00  0.00     0.163 HD
BRANCH   3   6
ATOM      6  C   UNL A   1      34.472  23.413  25.660  1.00  0.00     0.287 C 
ATOM      7  N   UNL A   1      32.585  24.974  25.485  1.00  0.00    -0.185 NA
ATOM      8  C   UNL A   1      31.766  24.301  26.508  1.00  0.00     0.164 C 
ATOM      9  C   UNL A   1      34.032  24.865  25.793  1.00  0.00     0.178 C 
ATOM     10  C   UNL A   1      32.274  22.881  26.823  1.00  0.00     0.278 C 
ATOM     11  N   UNL A   1      33.680  22.523  26.569  1.00  0.00    -0.334 N 
ATOM     12  H   UNL A   1      33.688  21.588  26.161  1.00  0.00     0.347 HD
ATOM     13  H   UNL A   1      34.136  22.611  27.477  1.00  0.00     0.347 HD
BRANCH   7  14
ATOM     14  S   UNL A   1      32.070  25.038  23.871  1.00  0.00     0.253 S 
ATOM     15  O   UNL A   1      31.465  23.750  23.583  1.00  0.00    -0.206 OA
ATOM     16  O   UNL A   1      33.175  25.547  23.092  1.00  0.00    -0.206 OA
BRANCH  14  17
ATOM     17  C   UNL A   1      30.756  26.223  23.579  1.00  0.00     0.135 A 
ATOM     18  C   UNL A   1      29.683  28.383  22.988  1.00  0.00     0.055 A 
ATOM     19  C   UNL A   1      28.785  27.480  23.502  1.00  0.00     0.023 A 
ATOM     20  S   UNL A   1      31.243  27.714  22.845  1.00  0.00    -0.121 S 
ATOM     21  C   UNL A   1      29.396  26.245  23.820  1.00  0.00     0.034 A 
BRANCH  18  22
ATOM     22  C   UNL A   1      29.248  29.775  22.665  1.00  0.00     0.091 A 
ATOM     23  C   UNL A   1      27.897  31.892  20.026  1.00  0.00     0.079 C 
ATOM     24  C   UNL A   1      28.457  31.308  21.274  1.00  0.00     0.090 A 
ATOM     25  N   UNL A   1      28.912  30.079  21.354  1.00  0.00    -0.241 NA
ATOM     26  S   UNL A   1      28.542  32.214  22.730  1.00  0.00    -0.127 S 
ATOM     27  C   UNL A   1      29.124  30.819  23.555  1.00  0.00     0.096 A 
ENDBRANCH  18  22
ENDBRANCH  14  17
ENDBRANCH   7  14
ENDBRANCH   3   6
ENDBRANCH   1   2
BRANCH   1  28
ATOM     28  C   UNL A   1      37.236  19.733  24.954  1.00  0.00     0.042 C 
BRANCH  28  29
ATOM     29  C   UNL A   1      38.564  20.392  25.331  1.00  0.00     0.118 C 
BRANCH  29  30
ATOM     30  N   UNL A   1      39.602  19.406  25.582  1.00  0.00    -0.352 N 
ATOM     31  C   UNL A   1      40.883  19.595  26.036  1.00  0.00     0.251 C 
ATOM     32  H   UNL A   1      39.351  18.472  25.401  1.00  0.00     0.163 HD
ATOM     33  O   UNL A   1      41.688  18.669  25.992  1.00  0.00    -0.269 OA
BRANCH  31  34
ATOM     34  C   UNL A   1      41.302  20.910  26.565  1.00  0.00     0.039 A 
ATOM     35  C   UNL A   1      41.143  21.163  27.931  1.00  0.00     0.014 A 
ATOM     36  C   UNL A   1      41.802  21.904  25.719  1.00  0.00     0.014 A 
ATOM     37  C   UNL A   1      41.517  22.401  28.455  1.00  0.00     0.010 A 
ATOM     38  C   UNL A   1      42.226  23.120  26.253  1.00  0.00     0.010 A 
ATOM     39  C   UNL A   1      42.078  23.383  27.624  1.00  0.00    -0.014 A 
BRANCH  39  40
ATOM     40  C   UNL A   1      42.500  24.696  28.170  1.00  0.00     0.031 A 
ATOM     41  C   UNL A   1      41.486  25.782  28.402  1.00  0.00     0.074 A 
ATOM     42  C   UNL A   1      43.805  24.928  28.408  1.00  0.00     0.049 A 
ATOM     43  N   UNL A   1      41.668  27.007  28.825  1.00  0.00    -0.248 NA
ATOM     44  C   UNL A   1      40.086  25.453  28.095  1.00  0.00     0.031 C 
ATOM     45  C   UNL A   1      44.889  23.969  28.187  1.00  0.00     0.029 A 
ATOM     46  N   UNL A   1      44.442  26.046  28.882  1.00  0.00    -0.354 N 
ATOM     47  C   UNL A   1      40.413  27.602  28.810  1.00  0.00     0.074 A 
ATOM     48  C   UNL A   1      39.484  26.615  28.301  1.00  0.00     0.031 C 
ATOM     49  C   UNL A   1      46.053  24.531  28.549  1.00  0.00     0.029 A 
ATOM     50  C   UNL A   1      45.802  25.898  28.997  1.00  0.00     0.049 A 
ATOM     51  H   UNL A   1      43.969  26.877  29.117  1.00  0.00     0.167 HD
ATOM     52  C   UNL A   1      40.064  28.850  29.202  1.00  0.00     0.037 A 
ATOM     53  C   UNL A   1      46.741  26.767  29.416  1.00  0.00     0.037 A 
ATOM     54  C   UNL A   1      40.984  29.816  29.744  1.00  0.00     0.049 A 
ATOM     55  C   UNL A   1      46.326  28.142  29.854  1.00  0.00     0.074 A 
ATOM     56  C   UNL A   1      40.715  31.076  30.246  1.00  0.00     0.029 A 
ATOM     57  N   UNL A   1      42.352  29.624  29.853  1.00  0.00    -0.354 N 
ATOM     58  N   UNL A   1      45.127  28.668  29.901  1.00  0.00    -0.248 NA
ATOM     59  C   UNL A   1      47.397  29.046  30.299  1.00  0.00     0.031 C 
ATOM     60  C   UNL A   1      41.928  31.664  30.624  1.00  0.00     0.029 A 
ATOM     61  C   UNL A   1      42.946  30.753  30.393  1.00  0.00     0.049 A 
ATOM     62  H   UNL A   1      42.831  28.807  29.587  1.00  0.00     0.167 HD
ATOM     63  C   UNL A   1      45.293  29.950  30.407  1.00  0.00     0.074 A 
ATOM     64  C   UNL A   1      46.709  30.120  30.659  1.00  0.00     0.031 C 
ATOM     65  C   UNL A   1      44.357  30.901  30.643  1.00  0.00     0.037 A 
BRANCH  52  66
ATOM     66  C   UNL A   1      38.623  29.243  29.054  1.00  0.00     0.057 A 
ATOM     67  C   UNL A   1      37.734  29.220  30.137  1.00  0.00     0.134 A 
ATOM     68  C   UNL A   1      38.122  29.670  27.817  1.00  0.00     0.134 A 
ATOM     69  F   UNL A   1      38.146  28.809  31.346  1.00  0.00    -0.206 F 
ATOM     70  C   UNL A   1      36.392  29.580  29.988  1.00  0.00     0.040 A 
ATOM     71  C   UNL A   1      36.791  30.057  27.663  1.00  0.00     0.040 A 
ATOM     72  F   UNL A   1      38.921  29.722  26.741  1.00  0.00    -0.206 F 
ATOM     73  C   UNL A   1      35.919  30.005  28.750  1.00  0.00     0.006 A 
ENDBRANCH  52  66
BRANCH  53  74
ATOM     74  C   UNL A   1      48.162  26.347  29.480  1.00  0.00     0.057 A 
ATOM     75  C   UNL A   1      49.009  26.518  28.380  1.00  0.00     0.134 A 
ATOM     76  C   UNL A   1      48.708  25.772  30.634  1.00  0.00     0.134 A 
ATOM     77  F   UNL A   1      48.537  27.048  27.242  1.00  0.00    -0.206 F 
ATOM     78  C   UNL A   1      50.346  26.120  28.418  1.00  0.00     0.040 A 
ATOM     79  C   UNL A   1      50.048  25.388  30.693  1.00  0.00     0.040 A 
ATOM     80  F   UNL A   1      47.948  25.588  31.724  1.00  0.00    -0.206 F 
ATOM     81  C   UNL A   1      50.870  25.557  29.580  1.00  0.00     0.006 A 
ENDBRANCH  53  74
BRANCH  65  82
ATOM     82  C   UNL A   1      44.833  32.196  31.231  1.00  0.00     0.057 A 
ATOM     83  C   UNL A   1      45.179  33.288  30.428  1.00  0.00     0.134 A 
ATOM     84  C   UNL A   1      44.917  32.359  32.621  1.00  0.00     0.134 A 
ATOM     85  F   UNL A   1      45.133  33.190  29.090  1.00  0.00    -0.206 F 
ATOM     86  C   UNL A   1      45.610  34.493  30.984  1.00  0.00     0.040 A 
ATOM     87  C   UNL A   1      45.326  33.565  33.189  1.00  0.00     0.040 A 
ATOM     88  F   UNL A   1      44.594  31.351  33.445  1.00  0.00    -0.206 F 
ATOM     89  C   UNL A   1      45.679  34.635  32.369  1.00  0.00     0.006 A 
ENDBRANCH  65  82
ENDBRANCH  39  40
ENDBRANCH  31  34
ENDBRANCH  29  30
ENDBRANCH  28  29
ENDBRANCH   1  28
TORSDOF 13
ENDMDL
MODEL 3
REMARK VINA RESULT:     -12.4      5.182     10.123
REMARK SMILES Cc1nc(-c2ccc(S(=O)(=O)N3CC[NH2+][C@H](C(=O)NCCCNC(=O)c4ccc(-c5c6nc(c(-c7c(F)cccc7F)c7ccc([nH]7)c(-c7c(F)cccc7F)c7nc(c(-c8c(F)cccc8F)c8ccc5[nH]8)C=C7)C=C6)cc4)C3)s2)cs1
REMARK SMILES IDX 20 1 19 2 17 3 18 4 16 6 12 7 13 8 80 9 14 10 15 11 9 14
REMARK SMILES IDX 10 15 11 16 8 17 5 18 6 19 81 20 7 21 4 22 1 23 2 24 3 25
REMARK SMILES IDX 83 26 82 27 21 28 22 29 23 30 24 31 25 33 26 34 27 35 79 36
REMARK SMILES IDX 28 37 78 38 29 39 30 40 31 41 72 42 32 43 77 44 71 45 73 46
REMARK SMILES IDX 33 47 76 48 70 49 69 50 34 52 60 53 43 54 59 55 44 56 47 57
REMARK SMILES IDX 58 58 74 59 45 60 46 61 57 63 75 64 48 65 35 66 36 67 41 68
REMARK SMILES IDX 37 69 38 70 40 71 42 72 39 73 61 74 62 75 67 76 63 77 64 78
REMARK SMILES IDX 66 79 68 80 65 81 49 82 50 83 55 84 51 85 52 86 54 87 56 88
REMARK SMILES IDX 53 89
REMARK H PARENT 19 5 15 12 15 13 23 32 73 51 47 62
REMARK Flexibility Score: inf
ROOT
ATOM      1  C   UNL A   1      36.570  20.488  24.831  1.00  0.00     0.118 C 
ENDROOT
BRANCH   1   2
ATOM      2  N   UNL A   1      36.963  21.677  24.101  1.00  0.00    -0.351 N 
ATOM      3  C   UNL A   1      36.201  22.678  23.579  1.00  0.00     0.279 C 
ATOM      4  O   UNL A   1      36.665  23.255  22.589  1.00  0.00    -0.268 OA
ATOM      5  H   UNL A   1      37.932  21.778  23.961  1.00  0.00     0.163 HD
BRANCH   3   6
ATOM      6  C   UNL A   1      34.896  23.167  24.261  1.00  0.00     0.287 C 
ATOM      7  N   UNL A   1      32.938  24.644  24.384  1.00  0.00    -0.185 NA
ATOM      8  C   UNL A   1      33.213  25.109  25.754  1.00  0.00     0.164 C 
ATOM      9  C   UNL A   1      34.194  24.370  23.643  1.00  0.00     0.178 C 
ATOM     10  C   UNL A   1      34.233  24.212  26.482  1.00  0.00     0.278 C 
ATOM     11  N   UNL A   1      35.190  23.400  25.712  1.00  0.00    -0.334 N 
ATOM     12  H   UNL A   1      35.245  22.485  26.161  1.00  0.00     0.347 HD
ATOM     13  H   UNL A   1      36.052  23.945  25.716  1.00  0.00     0.347 HD
BRANCH   7  14
ATOM     14  S   UNL A   1      31.544  23.741  24.042  1.00  0.00     0.253 S 
ATOM     15  O   UNL A   1      30.995  24.284  22.812  1.00  0.00    -0.206 OA
ATOM     16  O   UNL A   1      30.766  23.686  25.258  1.00  0.00    -0.206 OA
BRANCH  14  17
ATOM     17  C   UNL A   1      31.873  22.020  23.662  1.00  0.00     0.135 A 
ATOM     18  C   UNL A   1      32.555  19.662  24.036  1.00  0.00     0.055 A 
ATOM     19  C   UNL A   1      32.354  19.940  22.706  1.00  0.00     0.023 A 
ATOM     20  S   UNL A   1      32.200  21.003  25.025  1.00  0.00    -0.121 S 
ATOM     21  C   UNL A   1      31.948  21.279  22.500  1.00  0.00     0.034 A 
BRANCH  18  22
ATOM     22  C   UNL A   1      33.065  18.322  24.455  1.00  0.00     0.091 A 
ATOM     23  C   UNL A   1      32.100  15.157  25.980  1.00  0.00     0.079 C 
ATOM     24  C   UNL A   1      32.794  16.317  25.359  1.00  0.00     0.090 A 
ATOM     25  N   UNL A   1      32.221  17.482  25.167  1.00  0.00    -0.241 NA
ATOM     26  S   UNL A   1      34.424  16.210  24.829  1.00  0.00    -0.127 S 
ATOM     27  C   UNL A   1      34.314  17.805  24.193  1.00  0.00     0.096 A 
ENDBRANCH  18  22
ENDBRANCH  14  17
ENDBRANCH   7  14
ENDBRANCH   3   6
ENDBRANCH   1   2
BRANCH   1  28
ATOM     28  C   UNL A   1      37.768  19.542  24.962  1.00  0.00     0.042 C 
BRANCH  28  29
ATOM     29  C   UNL A   1      38.936  20.169  25.725  1.00  0.00     0.118 C 
BRANCH  29  30
ATOM     30  N   UNL A   1      40.082  19.277  25.785  1.00  0.00    -0.352 N 
ATOM     31  C   UNL A   1      41.393  19.571  26.060  1.00  0.00     0.251 C 
ATOM     32  H   UNL A   1      39.890  18.329  25.603  1.00  0.00     0.163 HD
ATOM     33  O   UNL A   1      42.261  18.725  25.865  1.00  0.00    -0.269 OA
BRANCH  31  34
ATOM     34  C   UNL A   1      41.768  20.903  26.580  1.00  0.00     0.039 A 
ATOM     35  C   UNL A   1      41.677  21.135  27.955  1.00  0.00     0.014 A 
ATOM     36  C   UNL A   1      42.158  21.932  25.718  1.00  0.00     0.014 A 
ATOM     37  C   UNL A   1      42.011  22.388  28.472  1.00  0.00     0.010 A 
ATOM     38  C   UNL A   1      42.544  23.166  26.239  1.00  0.00     0.010 A 
ATOM     39  C   UNL A   1      42.464  23.408  27.619  1.00  0.00    -0.014 A 
BRANCH  39  40
ATOM     40  C   UNL A   1      42.842  24.738  28.156  1.00  0.00     0.031 A 
ATOM     41  C   UNL A   1      41.790  25.784  28.400  1.00  0.00     0.074 A 
ATOM     42  C   UNL A   1      44.141  25.022  28.373  1.00  0.00     0.049 A 
ATOM     43  N   UNL A   1      41.930  27.017  28.816  1.00  0.00    -0.248 NA
ATOM     44  C   UNL A   1      40.399  25.400  28.115  1.00  0.00     0.031 C 
ATOM     45  C   UNL A   1      45.258  24.106  28.138  1.00  0.00     0.029 A 
ATOM     46  N   UNL A   1      44.741  26.166  28.833  1.00  0.00    -0.354 N 
ATOM     47  C   UNL A   1      40.653  27.563  28.818  1.00  0.00     0.074 A 
ATOM     48  C   UNL A   1      39.756  26.539  28.327  1.00  0.00     0.031 C 
ATOM     49  C   UNL A   1      46.404  24.713  28.480  1.00  0.00     0.029 A 
ATOM     50  C   UNL A   1      46.107  26.071  28.928  1.00  0.00     0.049 A 
ATOM     51  H   UNL A   1      44.239  26.978  29.073  1.00  0.00     0.167 HD
ATOM     52  C   UNL A   1      40.261  28.798  29.212  1.00  0.00     0.037 A 
ATOM     53  C   UNL A   1      47.017  26.978  29.330  1.00  0.00     0.037 A 
ATOM     54  C   UNL A   1      41.151  29.800  29.737  1.00  0.00     0.049 A 
ATOM     55  C   UNL A   1      46.556  28.337  29.769  1.00  0.00     0.074 A 
ATOM     56  C   UNL A   1      40.841  31.051  30.239  1.00  0.00     0.029 A 
ATOM     57  N   UNL A   1      42.527  29.663  29.825  1.00  0.00    -0.354 N 
ATOM     58  N   UNL A   1      45.338  28.816  29.834  1.00  0.00    -0.248 NA
ATOM     59  C   UNL A   1      47.597  29.284  30.196  1.00  0.00     0.031 C 
ATOM     60  C   UNL A   1      42.035  31.687  30.597  1.00  0.00     0.029 A 
ATOM     61  C   UNL A   1      43.085  30.816  30.353  1.00  0.00     0.049 A 
ATOM     62  H   UNL A   1      43.034  28.864  29.554  1.00  0.00     0.167 HD
ATOM     63  C   UNL A   1      45.461  30.106  30.333  1.00  0.00     0.074 A 
ATOM     64  C   UNL A   1      46.873  30.332  30.563  1.00  0.00     0.031 C 
ATOM     65  C   UNL A   1      44.492  31.020  30.580  1.00  0.00     0.037 A 
BRANCH  52  66
ATOM     66  C   UNL A   1      38.804  29.133  29.085  1.00  0.00     0.057 A 
ATOM     67  C   UNL A   1      37.929  29.061  30.177  1.00  0.00     0.134 A 
ATOM     68  C   UNL A   1      38.272  29.555  27.860  1.00  0.00     0.134 A 
ATOM     69  F   UNL A   1      38.372  28.652  31.376  1.00  0.00    -0.206 F 
ATOM     70  C   UNL A   1      36.572  29.368  30.049  1.00  0.00     0.040 A 
ATOM     71  C   UNL A   1      36.924  29.889  27.725  1.00  0.00     0.040 A 
ATOM     72  F   UNL A   1      39.055  29.652  26.776  1.00  0.00    -0.206 F 
ATOM     73  C   UNL A   1      36.068  29.788  28.821  1.00  0.00     0.006 A 
ENDBRANCH  52  66
BRANCH  53  74
ATOM     74  C   UNL A   1      48.454  26.615  29.373  1.00  0.00     0.057 A 
ATOM     75  C   UNL A   1      49.300  26.907  28.297  1.00  0.00     0.134 A 
ATOM     76  C   UNL A   1      49.018  25.973  30.483  1.00  0.00     0.134 A 
ATOM     77  F   UNL A   1      48.812  27.505  27.200  1.00  0.00    -0.206 F 
ATOM     78  C   UNL A   1      50.652  26.564  28.316  1.00  0.00     0.040 A 
ATOM     79  C   UNL A   1      50.373  25.642  30.523  1.00  0.00     0.040 A 
ATOM     80  F   UNL A   1      48.261  25.672  31.548  1.00  0.00    -0.206 F 
ATOM     81  C   UNL A   1      51.193  25.933  29.434  1.00  0.00     0.006 A 
ENDBRANCH  53  74
BRANCH  65  82
ATOM     82  C   UNL A   1      44.926  32.334  31.158  1.00  0.00     0.057 A 
ATOM     83  C   UNL A   1      45.239  33.430  30.345  1.00  0.00     0.134 A 
ATOM     84  C   UNL A   1      45.002  32.513  32.546  1.00  0.00     0.134 A 
ATOM     85  F   UNL A   1      45.200  33.318  29.008  1.00  0.00    -0.206 F 
ATOM     86  C   UNL A   1      45.631  34.653  30.890  1.00  0.00     0.040 A 
ATOM     87  C   UNL A   1      45.372  33.737  33.103  1.00  0.00     0.040 A 
ATOM     88  F   UNL A   1      44.709  31.503  33.379  1.00  0.00    -0.206 F 
ATOM     89  C   UNL A   1      45.693  34.810  32.275  1.00  0.00     0.006 A 
ENDBRANCH  65  82
ENDBRANCH  39  40
ENDBRANCH  31  34
ENDBRANCH  29  30
ENDBRANCH  28  29
ENDBRANCH   1  28
TORSDOF 13
ENDMDL
