MODEL 1
REMARK VINA RESULT:     -14.4      0.000      0.000
REMARK SMILES Cc1ccc([C@@]23C[C@@H]4C[C@@H](C[C@@](C(=O)N5CCC(C(=O)NCCCNC(=O)c6ccc(-c7c8nc(c(-c9c(F)cccc9F)c9ccc([nH]9)c(-c9c(F)cccc9F)c9nc(c(-c%10c(F)cccc%10F)c%10ccc7[nH]%10)C=C9)C=C8)cc6)CC5)(C4)C2)C3)cc1
REMARK SMILES IDX 23 1 22 2 21 3 19 4 20 5 18 7 13 8 14 9 15 10 16 11 83 12
REMARK SMILES IDX 17 13 82 14 12 15 6 16 7 17 85 18 86 19 8 20 10 21 9 22
REMARK SMILES IDX 84 23 11 24 5 25 1 26 2 27 3 28 88 29 4 30 87 31 24 32 25 33
REMARK SMILES IDX 26 34 27 36 28 37 29 38 81 39 30 40 80 41 31 42 32 43 33 44
REMARK SMILES IDX 74 45 34 46 79 47 73 48 75 49 35 50 78 51 72 52 71 53 36 55
REMARK SMILES IDX 62 56 45 57 61 58 46 59 49 60 60 61 76 62 47 63 48 64 59 66
REMARK SMILES IDX 77 67 50 68 37 69 38 70 43 71 39 72 40 73 42 74 44 75 41 76
REMARK SMILES IDX 63 77 64 78 69 79 65 80 66 81 68 82 70 83 67 84 51 85 52 86
REMARK SMILES IDX 57 87 53 88 54 89 56 90 58 91 55 92
REMARK H PARENT 21 6 25 35 75 54 49 65
REMARK Flexibility Score: inf
ROOT
ATOM      1  C   UNL A   1      32.742  30.365  27.470  1.00  0.00     0.042 C 
ENDROOT
BRANCH   1   2
ATOM      2  C   UNL A   1      32.308  31.281  26.334  1.00  0.00     0.117 C 
BRANCH   2   3
ATOM      3  N   UNL A   1      31.276  30.691  25.485  1.00  0.00    -0.356 N 
ATOM      4  C   UNL A   1      31.332  29.679  24.571  1.00  0.00     0.223 C 
ATOM      5  O   UNL A   1      30.286  29.363  23.998  1.00  0.00    -0.275 OA
ATOM      6  H   UNL A   1      30.384  31.093  25.590  1.00  0.00     0.163 HD
BRANCH   4   7
ATOM      7  C   UNL A   1      32.639  28.975  24.218  1.00  0.00     0.082 C 
ATOM      8  C   UNL A   1      32.604  25.207  22.969  1.00  0.00     0.228 C 
ATOM      9  O   UNL A   1      31.884  25.201  21.965  1.00  0.00    -0.274 OA
ATOM     10  N   UNL A   1      33.317  26.354  23.315  1.00  0.00    -0.342 N 
ATOM     11  C   UNL A   1      33.489  27.412  22.329  1.00  0.00     0.120 C 
ATOM     12  C   UNL A   1      33.797  26.748  24.634  1.00  0.00     0.120 C 
ATOM     13  C   UNL A   1      32.743  28.688  22.706  1.00  0.00     0.035 C 
ATOM     14  C   UNL A   1      32.864  27.805  25.186  1.00  0.00     0.035 C 
BRANCH   8  15
ATOM     15  C   UNL A   1      32.747  23.917  23.816  1.00  0.00     0.051 C 
ATOM     16  C   UNL A   1      34.523  22.407  24.921  1.00  0.00    -0.003 C 
ATOM     17  C   UNL A   1      33.709  22.580  26.239  1.00  0.00     0.015 C 
ATOM     18  C   UNL A   1      34.247  23.653  24.049  1.00  0.00     0.028 C 
ATOM     19  C   UNL A   1      33.964  21.187  24.146  1.00  0.00     0.015 C 
ATOM     20  C   UNL A   1      32.200  22.708  25.962  1.00  0.00    -0.009 C 
ATOM     21  C   UNL A   1      32.461  21.376  23.853  1.00  0.00    -0.009 C 
ATOM     22  C   UNL A   1      31.709  21.477  25.187  1.00  0.00     0.007 C 
ATOM     23  C   UNL A   1      31.934  23.965  25.124  1.00  0.00     0.020 C 
ATOM     24  C   UNL A   1      32.230  22.668  23.035  1.00  0.00     0.020 C 
BRANCH  16  25
ATOM     25  C   UNL A   1      36.026  22.255  25.216  1.00  0.00    -0.042 A 
ATOM     26  C   UNL A   1      40.207  21.739  26.277  1.00  0.00     0.044 C 
ATOM     27  C   UNL A   1      38.772  21.909  25.881  1.00  0.00    -0.051 A 
ATOM     28  C   UNL A   1      38.141  23.131  26.096  1.00  0.00     0.004 A 
ATOM     29  C   UNL A   1      38.039  20.867  25.307  1.00  0.00     0.004 A 
ATOM     30  C   UNL A   1      36.797  23.301  25.761  1.00  0.00     0.004 A 
ATOM     31  C   UNL A   1      36.688  21.040  24.975  1.00  0.00     0.004 A 
ENDBRANCH  16  25
ENDBRANCH   8  15
ENDBRANCH   4   7
ENDBRANCH   2   3
ENDBRANCH   1   2
BRANCH   1  32
ATOM     32  C   UNL A   1      34.248  30.250  27.617  1.00  0.00     0.118 C 
BRANCH  32  33
ATOM     33  N   UNL A   1      34.827  31.150  28.610  1.00  0.00    -0.352 N 
ATOM     34  C   UNL A   1      36.025  31.017  29.296  1.00  0.00     0.251 C 
ATOM     35  H   UNL A   1      34.300  31.955  28.820  1.00  0.00     0.163 HD
ATOM     36  O   UNL A   1      36.400  31.875  30.079  1.00  0.00    -0.269 OA
BRANCH  34  37
ATOM     37  C   UNL A   1      36.906  29.873  28.957  1.00  0.00     0.039 A 
ATOM     38  C   UNL A   1      37.153  28.923  29.952  1.00  0.00     0.014 A 
ATOM     39  C   UNL A   1      37.672  29.894  27.795  1.00  0.00     0.014 A 
ATOM     40  C   UNL A   1      38.332  28.184  29.901  1.00  0.00     0.010 A 
ATOM     41  C   UNL A   1      38.892  29.248  27.798  1.00  0.00     0.010 A 
ATOM     42  C   UNL A   1      39.255  28.452  28.888  1.00  0.00    -0.014 A 
BRANCH  42  43
ATOM     43  C   UNL A   1      40.661  28.069  28.982  1.00  0.00     0.031 A 
ATOM     44  C   UNL A   1      41.153  26.809  28.392  1.00  0.00     0.074 A 
ATOM     45  C   UNL A   1      41.548  28.903  29.572  1.00  0.00     0.049 A 
ATOM     46  N   UNL A   1      42.195  26.180  28.823  1.00  0.00    -0.248 NA
ATOM     47  C   UNL A   1      40.490  26.145  27.276  1.00  0.00     0.031 C 
ATOM     48  C   UNL A   1      43.006  28.799  29.557  1.00  0.00     0.029 A 
ATOM     49  N   UNL A   1      41.282  29.910  30.510  1.00  0.00    -0.354 N 
ATOM     50  C   UNL A   1      42.492  25.210  27.903  1.00  0.00     0.074 A 
ATOM     51  C   UNL A   1      41.372  25.183  26.989  1.00  0.00     0.031 C 
ATOM     52  C   UNL A   1      43.492  29.444  30.628  1.00  0.00     0.029 A 
ATOM     53  C   UNL A   1      42.359  29.871  31.428  1.00  0.00     0.049 A 
ATOM     54  H   UNL A   1      40.507  30.517  30.527  1.00  0.00     0.167 HD
ATOM     55  C   UNL A   1      43.706  24.597  27.912  1.00  0.00     0.037 A 
ATOM     56  C   UNL A   1      42.150  29.555  32.737  1.00  0.00     0.037 A 
ATOM     57  C   UNL A   1      44.572  25.051  28.990  1.00  0.00     0.049 A 
ATOM     58  C   UNL A   1      42.859  28.304  33.211  1.00  0.00     0.074 A 
ATOM     59  C   UNL A   1      45.631  25.939  29.081  1.00  0.00     0.029 A 
ATOM     60  N   UNL A   1      44.193  24.785  30.295  1.00  0.00    -0.354 N 
ATOM     61  N   UNL A   1      43.601  27.538  32.460  1.00  0.00    -0.248 NA
ATOM     62  C   UNL A   1      42.695  27.764  34.564  1.00  0.00     0.031 C 
ATOM     63  C   UNL A   1      45.870  26.215  30.459  1.00  0.00     0.029 A 
ATOM     64  C   UNL A   1      44.963  25.486  31.203  1.00  0.00     0.049 A 
ATOM     65  H   UNL A   1      43.464  24.172  30.545  1.00  0.00     0.167 HD
ATOM     66  C   UNL A   1      43.947  26.415  33.164  1.00  0.00     0.074 A 
ATOM     67  C   UNL A   1      43.363  26.603  34.478  1.00  0.00     0.031 C 
ATOM     68  C   UNL A   1      44.647  25.380  32.616  1.00  0.00     0.037 A 
BRANCH  55  69
ATOM     69  C   UNL A   1      44.131  23.756  26.748  1.00  0.00     0.057 A 
ATOM     70  C   UNL A   1      44.866  24.295  25.682  1.00  0.00     0.134 A 
ATOM     71  C   UNL A   1      43.758  22.409  26.609  1.00  0.00     0.134 A 
ATOM     72  F   UNL A   1      45.321  25.554  25.709  1.00  0.00    -0.206 F 
ATOM     73  C   UNL A   1      45.130  23.570  24.514  1.00  0.00     0.040 A 
ATOM     74  C   UNL A   1      43.972  21.688  25.429  1.00  0.00     0.040 A 
ATOM     75  F   UNL A   1      43.145  21.758  27.611  1.00  0.00    -0.206 F 
ATOM     76  C   UNL A   1      44.652  22.274  24.369  1.00  0.00     0.006 A 
ENDBRANCH  55  69
BRANCH  56  77
ATOM     77  C   UNL A   1      40.841  30.038  33.248  1.00  0.00     0.057 A 
ATOM     78  C   UNL A   1      40.688  31.406  33.536  1.00  0.00     0.134 A 
ATOM     79  C   UNL A   1      39.674  29.279  33.125  1.00  0.00     0.134 A 
ATOM     80  F   UNL A   1      41.768  32.194  33.668  1.00  0.00    -0.206 F 
ATOM     81  C   UNL A   1      39.432  32.015  33.585  1.00  0.00     0.040 A 
ATOM     82  C   UNL A   1      38.410  29.874  33.189  1.00  0.00     0.040 A 
ATOM     83  F   UNL A   1      39.737  27.973  32.827  1.00  0.00    -0.206 F 
ATOM     84  C   UNL A   1      38.288  31.250  33.379  1.00  0.00     0.006 A 
ENDBRANCH  56  77
BRANCH  68  85
ATOM     85  C   UNL A   1      45.077  24.170  33.393  1.00  0.00     0.057 A 
ATOM     86  C   UNL A   1      44.262  23.037  33.530  1.00  0.00     0.134 A 
ATOM     87  C   UNL A   1      46.274  24.155  34.135  1.00  0.00     0.134 A 
ATOM     88  F   UNL A   1      43.067  22.969  32.925  1.00  0.00    -0.206 F 
ATOM     89  C   UNL A   1      44.637  21.938  34.313  1.00  0.00     0.040 A 
ATOM     90  C   UNL A   1      46.637  23.085  34.956  1.00  0.00     0.040 A 
ATOM     91  F   UNL A   1      47.148  25.170  34.077  1.00  0.00    -0.206 F 
ATOM     92  C   UNL A   1      45.822  21.964  35.038  1.00  0.00     0.006 A 
ENDBRANCH  68  85
ENDBRANCH  42  43
ENDBRANCH  34  37
ENDBRANCH  32  33
ENDBRANCH   1  32
TORSDOF 12
ENDMDL
MODEL 2
REMARK VINA RESULT:     -14.1      3.730      9.312
REMARK SMILES Cc1ccc([C@@]23C[C@@H]4C[C@@H](C[C@@](C(=O)N5CCC(C(=O)NCCCNC(=O)c6ccc(-c7c8nc(c(-c9c(F)cccc9F)c9ccc([nH]9)c(-c9c(F)cccc9F)c9nc(c(-c%10c(F)cccc%10F)c%10ccc7[nH]%10)C=C9)C=C8)cc6)CC5)(C4)C2)C3)cc1
REMARK SMILES IDX 23 1 22 2 21 3 19 4 20 5 18 7 13 8 14 9 15 10 16 11 83 12
REMARK SMILES IDX 17 13 82 14 12 15 6 16 7 17 85 18 86 19 8 20 10 21 9 22
REMARK SMILES IDX 84 23 11 24 5 25 1 26 2 27 3 28 88 29 4 30 87 31 24 32 25 33
REMARK SMILES IDX 26 34 27 36 28 37 29 38 81 39 30 40 80 41 31 42 32 43 33 44
REMARK SMILES IDX 74 45 34 46 79 47 73 48 75 49 35 50 78 51 72 52 71 53 36 55
REMARK SMILES IDX 62 56 45 57 61 58 46 59 49 60 60 61 76 62 47 63 48 64 59 66
REMARK SMILES IDX 77 67 50 68 37 69 38 70 43 71 39 72 40 73 42 74 44 75 41 76
REMARK SMILES IDX 63 77 64 78 69 79 65 80 66 81 68 82 70 83 67 84 51 85 52 86
REMARK SMILES IDX 57 87 53 88 54 89 56 90 58 91 55 92
REMARK H PARENT 21 6 25 35 75 54 49 65
REMARK Flexibility Score: inf
ROOT
ATOM      1  C   UNL A   1      38.696  21.492  25.757  1.00  0.00     0.042 C 
ENDROOT
BRANCH   1   2
ATOM      2  C   UNL A   1      37.670  21.731  24.659  1.00  0.00     0.117 C 
BRANCH   2   3
ATOM      3  N   UNL A   1      36.610  20.726  24.636  1.00  0.00    -0.356 N 
ATOM      4  C   UNL A   1      35.387  20.693  25.240  1.00  0.00     0.223 C 
ATOM      5  O   UNL A   1      34.669  19.712  25.031  1.00  0.00    -0.275 OA
ATOM      6  H   UNL A   1      36.814  19.934  24.089  1.00  0.00     0.163 HD
BRANCH   4   7
ATOM      7  C   UNL A   1      34.917  21.798  26.182  1.00  0.00     0.082 C 
ATOM      8  C   UNL A   1      31.704  23.952  25.286  1.00  0.00     0.228 C 
ATOM      9  O   UNL A   1      30.785  23.135  25.167  1.00  0.00    -0.274 OA
ATOM     10  N   UNL A   1      32.775  23.684  26.138  1.00  0.00    -0.342 N 
ATOM     11  C   UNL A   1      32.649  22.627  27.132  1.00  0.00     0.120 C 
ATOM     12  C   UNL A   1      34.131  24.215  26.069  1.00  0.00     0.120 C 
ATOM     13  C   UNL A   1      33.572  21.446  26.849  1.00  0.00     0.035 C 
ATOM     14  C   UNL A   1      35.030  23.154  25.471  1.00  0.00     0.035 C 
BRANCH   8  15
ATOM     15  C   UNL A   1      31.638  25.297  24.520  1.00  0.00     0.051 C 
ATOM     16  C   UNL A   1      32.085  27.820  24.816  1.00  0.00    -0.003 C 
ATOM     17  C   UNL A   1      32.971  27.713  23.538  1.00  0.00     0.015 C 
ATOM     18  C   UNL A   1      32.070  26.423  25.477  1.00  0.00     0.028 C 
ATOM     19  C   UNL A   1      30.627  28.126  24.387  1.00  0.00     0.015 C 
ATOM     20  C   UNL A   1      32.423  26.667  22.551  1.00  0.00    -0.009 C 
ATOM     21  C   UNL A   1      30.103  27.032  23.434  1.00  0.00    -0.009 C 
ATOM     22  C   UNL A   1      30.978  27.019  22.172  1.00  0.00     0.007 C 
ATOM     23  C   UNL A   1      32.443  25.280  23.207  1.00  0.00     0.020 C 
ATOM     24  C   UNL A   1      30.170  25.646  24.117  1.00  0.00     0.020 C 
BRANCH  16  25
ATOM     25  C   UNL A   1      32.631  28.888  25.780  1.00  0.00    -0.042 A 
ATOM     26  C   UNL A   1      34.275  32.020  28.303  1.00  0.00     0.044 C 
ATOM     27  C   UNL A   1      33.683  30.938  27.452  1.00  0.00    -0.051 A 
ATOM     28  C   UNL A   1      34.408  29.773  27.221  1.00  0.00     0.004 A 
ATOM     29  C   UNL A   1      32.419  31.068  26.870  1.00  0.00     0.004 A 
ATOM     30  C   UNL A   1      33.887  28.765  26.408  1.00  0.00     0.004 A 
ATOM     31  C   UNL A   1      31.900  30.056  26.051  1.00  0.00     0.004 A 
ENDBRANCH  16  25
ENDBRANCH   8  15
ENDBRANCH   4   7
ENDBRANCH   2   3
ENDBRANCH   1   2
BRANCH   1  32
ATOM     32  C   UNL A   1      39.177  22.765  26.429  1.00  0.00     0.118 C 
BRANCH  32  33
ATOM     33  N   UNL A   1      40.605  23.025  26.275  1.00  0.00    -0.352 N 
ATOM     34  C   UNL A   1      41.289  24.215  26.476  1.00  0.00     0.251 C 
ATOM     35  H   UNL A   1      41.154  22.258  25.992  1.00  0.00     0.163 HD
ATOM     36  O   UNL A   1      42.500  24.275  26.341  1.00  0.00    -0.269 OA
BRANCH  34  37
ATOM     37  C   UNL A   1      40.532  25.382  26.991  1.00  0.00     0.039 A 
ATOM     38  C   UNL A   1      40.674  26.599  26.318  1.00  0.00     0.014 A 
ATOM     39  C   UNL A   1      39.932  25.335  28.246  1.00  0.00     0.014 A 
ATOM     40  C   UNL A   1      40.466  27.785  27.018  1.00  0.00     0.010 A 
ATOM     41  C   UNL A   1      39.835  26.503  28.974  1.00  0.00     0.010 A 
ATOM     42  C   UNL A   1      40.175  27.723  28.382  1.00  0.00    -0.014 A 
BRANCH  42  43
ATOM     43  C   UNL A   1      40.364  28.859  29.280  1.00  0.00     0.031 A 
ATOM     44  C   UNL A   1      39.287  29.840  29.512  1.00  0.00     0.074 A 
ATOM     45  C   UNL A   1      41.526  28.994  29.959  1.00  0.00     0.049 A 
ATOM     46  N   UNL A   1      39.501  31.064  29.864  1.00  0.00    -0.248 NA
ATOM     47  C   UNL A   1      37.874  29.520  29.343  1.00  0.00     0.031 C 
ATOM     48  C   UNL A   1      41.809  29.919  31.054  1.00  0.00     0.029 A 
ATOM     49  N   UNL A   1      42.778  28.457  29.627  1.00  0.00    -0.354 N 
ATOM     50  C   UNL A   1      38.293  31.600  30.223  1.00  0.00     0.074 A 
ATOM     51  C   UNL A   1      37.301  30.626  29.826  1.00  0.00     0.031 C 
ATOM     52  C   UNL A   1      43.132  30.133  31.103  1.00  0.00     0.029 A 
ATOM     53  C   UNL A   1      43.724  29.454  29.965  1.00  0.00     0.049 A 
ATOM     54  H   UNL A   1      42.961  27.570  29.239  1.00  0.00     0.167 HD
ATOM     55  C   UNL A   1      38.234  32.758  30.934  1.00  0.00     0.037 A 
ATOM     56  C   UNL A   1      44.494  30.040  29.006  1.00  0.00     0.037 A 
ATOM     57  C   UNL A   1      39.543  33.335  31.203  1.00  0.00     0.049 A 
ATOM     58  C   UNL A   1      44.294  31.533  28.853  1.00  0.00     0.074 A 
ATOM     59  C   UNL A   1      40.395  33.348  32.294  1.00  0.00     0.029 A 
ATOM     60  N   UNL A   1      40.297  33.783  30.133  1.00  0.00    -0.354 N 
ATOM     61  N   UNL A   1      43.444  32.245  29.541  1.00  0.00    -0.248 NA
ATOM     62  C   UNL A   1      44.975  32.324  27.824  1.00  0.00     0.031 C 
ATOM     63  C   UNL A   1      41.677  33.796  31.859  1.00  0.00     0.029 A 
ATOM     64  C   UNL A   1      41.597  34.063  30.506  1.00  0.00     0.049 A 
ATOM     65  H   UNL A   1      39.950  33.890  29.217  1.00  0.00     0.167 HD
ATOM     66  C   UNL A   1      43.407  33.518  29.034  1.00  0.00     0.074 A 
ATOM     67  C   UNL A   1      44.387  33.522  27.965  1.00  0.00     0.031 C 
ATOM     68  C   UNL A   1      42.545  34.474  29.486  1.00  0.00     0.037 A 
BRANCH  55  69
ATOM     69  C   UNL A   1      36.946  33.186  31.566  1.00  0.00     0.057 A 
ATOM     70  C   UNL A   1      36.620  32.831  32.882  1.00  0.00     0.134 A 
ATOM     71  C   UNL A   1      35.956  33.894  30.864  1.00  0.00     0.134 A 
ATOM     72  F   UNL A   1      37.492  32.194  33.674  1.00  0.00    -0.206 F 
ATOM     73  C   UNL A   1      35.357  33.080  33.433  1.00  0.00     0.040 A 
ATOM     74  C   UNL A   1      34.673  34.106  31.384  1.00  0.00     0.040 A 
ATOM     75  F   UNL A   1      36.196  34.378  29.635  1.00  0.00    -0.206 F 
ATOM     76  C   UNL A   1      34.367  33.688  32.672  1.00  0.00     0.006 A 
ENDBRANCH  55  69
BRANCH  56  77
ATOM     77  C   UNL A   1      44.853  29.112  27.903  1.00  0.00     0.057 A 
ATOM     78  C   UNL A   1      45.863  28.158  28.121  1.00  0.00     0.134 A 
ATOM     79  C   UNL A   1      44.014  28.910  26.804  1.00  0.00     0.134 A 
ATOM     80  F   UNL A   1      46.706  28.292  29.159  1.00  0.00    -0.206 F 
ATOM     81  C   UNL A   1      45.963  26.998  27.350  1.00  0.00     0.040 A 
ATOM     82  C   UNL A   1      44.113  27.759  26.015  1.00  0.00     0.040 A 
ATOM     83  F   UNL A   1      43.011  29.762  26.545  1.00  0.00    -0.206 F 
ATOM     84  C   UNL A   1      45.063  26.782  26.312  1.00  0.00     0.006 A 
ENDBRANCH  56  77
BRANCH  68  85
ATOM     85  C   UNL A   1      42.534  35.884  28.974  1.00  0.00     0.057 A 
ATOM     86  C   UNL A   1      41.826  36.260  27.822  1.00  0.00     0.134 A 
ATOM     87  C   UNL A   1      43.336  36.887  29.552  1.00  0.00     0.134 A 
ATOM     88  F   UNL A   1      41.084  35.370  27.148  1.00  0.00    -0.206 F 
ATOM     89  C   UNL A   1      41.874  37.561  27.308  1.00  0.00     0.040 A 
ATOM     90  C   UNL A   1      43.429  38.176  29.021  1.00  0.00     0.040 A 
ATOM     91  F   UNL A   1      44.049  36.661  30.666  1.00  0.00    -0.206 F 
ATOM     92  C   UNL A   1      42.685  38.521  27.901  1.00  0.00     0.006 A 
ENDBRANCH  68  85
ENDBRANCH  42  43
ENDBRANCH  34  37
ENDBRANCH  32  33
ENDBRANCH   1  32
TORSDOF 12
ENDMDL
MODEL 3
REMARK VINA RESULT:     -14.0      1.323      2.432
REMARK SMILES Cc1ccc([C@@]23C[C@@H]4C[C@@H](C[C@@](C(=O)N5CCC(C(=O)NCCCNC(=O)c6ccc(-c7c8nc(c(-c9c(F)cccc9F)c9ccc([nH]9)c(-c9c(F)cccc9F)c9nc(c(-c%10c(F)cccc%10F)c%10ccc7[nH]%10)C=C9)C=C8)cc6)CC5)(C4)C2)C3)cc1
REMARK SMILES IDX 23 1 22 2 21 3 19 4 20 5 18 7 13 8 14 9 15 10 16 11 83 12
REMARK SMILES IDX 17 13 82 14 12 15 6 16 7 17 85 18 86 19 8 20 10 21 9 22
REMARK SMILES IDX 84 23 11 24 5 25 1 26 2 27 3 28 88 29 4 30 87 31 24 32 25 33
REMARK SMILES IDX 26 34 27 36 28 37 29 38 81 39 30 40 80 41 31 42 32 43 33 44
REMARK SMILES IDX 74 45 34 46 79 47 73 48 75 49 35 50 78 51 72 52 71 53 36 55
REMARK SMILES IDX 62 56 45 57 61 58 46 59 49 60 60 61 76 62 47 63 48 64 59 66
REMARK SMILES IDX 77 67 50 68 37 69 38 70 43 71 39 72 40 73 42 74 44 75 41 76
REMARK SMILES IDX 63 77 64 78 69 79 65 80 66 81 68 82 70 83 67 84 51 85 52 86
REMARK SMILES IDX 57 87 53 88 54 89 56 90 58 91 55 92
REMARK H PARENT 21 6 25 35 75 54 49 65
REMARK Flexibility Score: inf
ROOT
ATOM      1  C   UNL A   1      32.729  30.505  26.935  1.00  0.00     0.042 C 
ENDROOT
BRANCH   1   2
ATOM      2  C   UNL A   1      32.633  30.078  25.477  1.00  0.00     0.117 C 
BRANCH   2   3
ATOM      3  N   UNL A   1      31.371  29.418  25.155  1.00  0.00    -0.356 N 
ATOM      4  C   UNL A   1      31.071  28.439  24.254  1.00  0.00     0.223 C 
ATOM      5  O   UNL A   1      29.904  28.043  24.201  1.00  0.00    -0.275 OA
ATOM      6  H   UNL A   1      30.601  29.735  25.681  1.00  0.00     0.163 HD
BRANCH   4   7
ATOM      7  C   UNL A   1      32.115  27.866  23.300  1.00  0.00     0.082 C 
ATOM      8  C   UNL A   1      32.901  23.974  23.302  1.00  0.00     0.228 C 
ATOM      9  O   UNL A   1      31.821  23.422  23.063  1.00  0.00    -0.274 OA
ATOM     10  N   UNL A   1      33.158  25.254  22.812  1.00  0.00    -0.342 N 
ATOM     11  C   UNL A   1      32.321  25.794  21.752  1.00  0.00     0.120 C 
ATOM     12  C   UNL A   1      34.080  26.250  23.346  1.00  0.00     0.120 C 
ATOM     13  C   UNL A   1      31.473  26.974  22.219  1.00  0.00     0.035 C 
ATOM     14  C   UNL A   1      33.279  27.281  24.113  1.00  0.00     0.035 C 
BRANCH   8  15
ATOM     15  C   UNL A   1      33.985  23.218  24.110  1.00  0.00     0.051 C 
ATOM     16  C   UNL A   1      34.570  20.874  25.015  1.00  0.00    -0.003 C 
ATOM     17  C   UNL A   1      35.943  21.046  24.295  1.00  0.00     0.015 C 
ATOM     18  C   UNL A   1      33.546  21.749  24.257  1.00  0.00     0.028 C 
ATOM     19  C   UNL A   1      34.682  21.457  26.446  1.00  0.00     0.015 C 
ATOM     20  C   UNL A   1      36.402  22.515  24.291  1.00  0.00    -0.009 C 
ATOM     21  C   UNL A   1      35.102  22.941  26.395  1.00  0.00    -0.009 C 
ATOM     22  C   UNL A   1      36.485  23.037  25.733  1.00  0.00     0.007 C 
ATOM     23  C   UNL A   1      35.395  23.369  23.508  1.00  0.00     0.020 C 
ATOM     24  C   UNL A   1      34.082  23.762  25.571  1.00  0.00     0.020 C 
BRANCH  16  25
ATOM     25  C   UNL A   1      34.137  19.397  25.033  1.00  0.00    -0.042 A 
ATOM     26  C   UNL A   1      33.015  15.210  25.318  1.00  0.00     0.044 C 
ATOM     27  C   UNL A   1      33.375  16.660  25.203  1.00  0.00    -0.051 A 
ATOM     28  C   UNL A   1      34.589  17.021  24.626  1.00  0.00     0.004 A 
ATOM     29  C   UNL A   1      32.528  17.668  25.670  1.00  0.00     0.004 A 
ATOM     30  C   UNL A   1      34.957  18.365  24.537  1.00  0.00     0.004 A 
ATOM     31  C   UNL A   1      32.901  19.016  25.582  1.00  0.00     0.004 A 
ENDBRANCH  16  25
ENDBRANCH   8  15
ENDBRANCH   4   7
ENDBRANCH   2   3
ENDBRANCH   1   2
BRANCH   1  32
ATOM     32  C   UNL A   1      33.995  30.034  27.626  1.00  0.00     0.118 C 
BRANCH  32  33
ATOM     33  N   UNL A   1      34.629  31.039  28.475  1.00  0.00    -0.352 N 
ATOM     34  C   UNL A   1      35.873  30.988  29.085  1.00  0.00     0.251 C 
ATOM     35  H   UNL A   1      34.106  31.859  28.633  1.00  0.00     0.163 HD
ATOM     36  O   UNL A   1      36.289  31.928  29.744  1.00  0.00    -0.269 OA
BRANCH  34  37
ATOM     37  C   UNL A   1      36.745  29.820  28.810  1.00  0.00     0.039 A 
ATOM     38  C   UNL A   1      37.027  28.953  29.869  1.00  0.00     0.014 A 
ATOM     39  C   UNL A   1      37.470  29.747  27.624  1.00  0.00     0.014 A 
ATOM     40  C   UNL A   1      38.205  28.211  29.838  1.00  0.00     0.010 A 
ATOM     41  C   UNL A   1      38.691  29.103  27.638  1.00  0.00     0.010 A 
ATOM     42  C   UNL A   1      39.093  28.396  28.776  1.00  0.00    -0.014 A 
BRANCH  42  43
ATOM     43  C   UNL A   1      40.501  28.021  28.853  1.00  0.00     0.031 A 
ATOM     44  C   UNL A   1      40.991  26.756  28.272  1.00  0.00     0.074 A 
ATOM     45  C   UNL A   1      41.394  28.867  29.418  1.00  0.00     0.049 A 
ATOM     46  N   UNL A   1      42.042  26.138  28.694  1.00  0.00    -0.248 NA
ATOM     47  C   UNL A   1      40.313  26.075  27.175  1.00  0.00     0.031 C 
ATOM     48  C   UNL A   1      42.852  28.770  29.381  1.00  0.00     0.029 A 
ATOM     49  N   UNL A   1      41.137  29.885  30.347  1.00  0.00    -0.354 N 
ATOM     50  C   UNL A   1      42.330  25.157  27.782  1.00  0.00     0.074 A 
ATOM     51  C   UNL A   1      41.196  25.113  26.886  1.00  0.00     0.031 C 
ATOM     52  C   UNL A   1      43.351  29.431  30.436  1.00  0.00     0.029 A 
ATOM     53  C   UNL A   1      42.228  29.863  31.248  1.00  0.00     0.049 A 
ATOM     54  H   UNL A   1      40.359  30.488  30.369  1.00  0.00     0.167 HD
ATOM     55  C   UNL A   1      43.547  24.550  27.780  1.00  0.00     0.037 A 
ATOM     56  C   UNL A   1      42.041  29.563  32.565  1.00  0.00     0.037 A 
ATOM     57  C   UNL A   1      44.427  25.022  28.839  1.00  0.00     0.049 A 
ATOM     58  C   UNL A   1      42.764  28.322  33.044  1.00  0.00     0.074 A 
ATOM     59  C   UNL A   1      45.483  25.916  28.902  1.00  0.00     0.029 A 
ATOM     60  N   UNL A   1      44.070  24.771  30.152  1.00  0.00    -0.354 N 
ATOM     61  N   UNL A   1      43.498  27.549  32.291  1.00  0.00    -0.248 NA
ATOM     62  C   UNL A   1      42.624  27.798  34.405  1.00  0.00     0.031 C 
ATOM     63  C   UNL A   1      45.742  26.211  30.272  1.00  0.00     0.029 A 
ATOM     64  C   UNL A   1      44.850  25.487  31.039  1.00  0.00     0.049 A 
ATOM     65  H   UNL A   1      43.348  24.158  30.422  1.00  0.00     0.167 HD
ATOM     66  C   UNL A   1      43.860  26.437  33.004  1.00  0.00     0.074 A 
ATOM     67  C   UNL A   1      43.296  26.639  34.324  1.00  0.00     0.031 C 
ATOM     68  C   UNL A   1      44.557  25.398  32.459  1.00  0.00     0.037 A 
BRANCH  55  69
ATOM     69  C   UNL A   1      43.958  23.696  26.621  1.00  0.00     0.057 A 
ATOM     70  C   UNL A   1      43.623  22.336  26.555  1.00  0.00     0.134 A 
ATOM     71  C   UNL A   1      44.765  24.175  25.575  1.00  0.00     0.134 A 
ATOM     72  F   UNL A   1      42.823  21.766  27.464  1.00  0.00    -0.206 F 
ATOM     73  C   UNL A   1      44.134  21.488  25.566  1.00  0.00     0.040 A 
ATOM     74  C   UNL A   1      45.323  23.329  24.609  1.00  0.00     0.040 A 
ATOM     75  F   UNL A   1      45.061  25.481  25.476  1.00  0.00    -0.206 F 
ATOM     76  C   UNL A   1      45.015  21.975  24.610  1.00  0.00     0.006 A 
ENDBRANCH  55  69
BRANCH  56  77
ATOM     77  C   UNL A   1      40.738  30.046  33.090  1.00  0.00     0.057 A 
ATOM     78  C   UNL A   1      40.566  31.424  33.312  1.00  0.00     0.134 A 
ATOM     79  C   UNL A   1      39.584  29.260  33.041  1.00  0.00     0.134 A 
ATOM     80  F   UNL A   1      41.633  32.238  33.373  1.00  0.00    -0.206 F 
ATOM     81  C   UNL A   1      39.300  32.010  33.369  1.00  0.00     0.040 A 
ATOM     82  C   UNL A   1      38.311  29.833  33.112  1.00  0.00     0.040 A 
ATOM     83  F   UNL A   1      39.665  27.942  32.807  1.00  0.00    -0.206 F 
ATOM     84  C   UNL A   1      38.166  31.215  33.236  1.00  0.00     0.006 A 
ENDBRANCH  56  77
BRANCH  68  85
ATOM     85  C   UNL A   1      45.004  24.201  33.244  1.00  0.00     0.057 A 
ATOM     86  C   UNL A   1      44.214  23.049  33.375  1.00  0.00     0.134 A 
ATOM     87  C   UNL A   1      46.192  24.214  34.000  1.00  0.00     0.134 A 
ATOM     88  F   UNL A   1      43.028  22.953  32.756  1.00  0.00    -0.206 F 
ATOM     89  C   UNL A   1      44.604  21.962  34.165  1.00  0.00     0.040 A 
ATOM     90  C   UNL A   1      46.570  23.155  34.829  1.00  0.00     0.040 A 
ATOM     91  F   UNL A   1      47.044  25.249  33.950  1.00  0.00    -0.206 F 
ATOM     92  C   UNL A   1      45.780  22.016  34.904  1.00  0.00     0.006 A 
ENDBRANCH  68  85
ENDBRANCH  42  43
ENDBRANCH  34  37
ENDBRANCH  32  33
ENDBRANCH   1  32
TORSDOF 12
ENDMDL
