MODEL 1
REMARK VINA RESULT:     -12.9      0.000      0.000
REMARK SMILES O=C(NCCCNC(=O)[C@H]1CC=CC[C@H]1C(=O)N[C@@H]1CCN(c2cccc(Cl)c2)C1)c1ccc(-c2c3nc(c(-c4c(F)cccc4F)c4ccc([nH]4)c(-c4c(F)cccc4F)c4nc(c(-c5c(F)cccc5F)c5ccc2[nH]5)C=C4)C=C3)cc1
REMARK SMILES IDX 5 1 4 2 3 3 1 4 2 5 31 7 32 8 84 9 33 10 83 11 34 12 35 13
REMARK SMILES IDX 36 14 77 15 37 16 82 17 76 18 78 19 38 20 81 21 75 22 74 23
REMARK SMILES IDX 39 25 65 26 48 27 64 28 49 29 52 30 63 31 79 32 50 33 51 34
REMARK SMILES IDX 62 36 80 37 53 38 40 39 41 40 46 41 42 42 43 43 45 44 47 45
REMARK SMILES IDX 44 46 66 47 67 48 72 49 68 50 69 51 71 52 73 53 70 54 54 55
REMARK SMILES IDX 55 56 60 57 56 58 57 59 59 60 61 61 58 62 6 63 7 64 8 65
REMARK SMILES IDX 9 67 10 68 11 69 15 70 12 71 14 72 13 73 16 74 17 75 18 76
REMARK SMILES IDX 19 78 20 79 30 80 21 81 22 82 23 83 24 84 29 85 25 86 27 87
REMARK SMILES IDX 26 88 28 89
REMARK H PARENT 3 6 78 24 52 35 7 66 18 77
REMARK Flexibility Score: inf
ROOT
ATOM      1  C   UNL A   1      31.328  31.927  26.407  1.00  0.00     0.042 C 
ENDROOT
BRANCH   1   2
ATOM      2  C   UNL A   1      32.647  32.496  26.924  1.00  0.00     0.118 C 
BRANCH   2   3
ATOM      3  N   UNL A   1      32.510  33.828  27.497  1.00  0.00    -0.352 N 
ATOM      4  O   UNL A   1      32.762  35.520  28.951  1.00  0.00    -0.269 OA
ATOM      5  C   UNL A   1      33.188  34.446  28.512  1.00  0.00     0.251 C 
ATOM      6  H   UNL A   1      31.808  34.379  27.082  1.00  0.00     0.163 HD
BRANCH   5   7
ATOM      7  C   UNL A   1      34.399  33.850  29.106  1.00  0.00     0.039 A 
ATOM      8  C   UNL A   1      35.672  34.346  28.818  1.00  0.00     0.014 A 
ATOM      9  C   UNL A   1      34.249  32.808  30.027  1.00  0.00     0.014 A 
ATOM     10  C   UNL A   1      36.799  33.721  29.346  1.00  0.00     0.010 A 
ATOM     11  C   UNL A   1      35.375  32.231  30.615  1.00  0.00     0.010 A 
ATOM     12  C   UNL A   1      36.662  32.663  30.256  1.00  0.00    -0.014 A 
BRANCH  12  13
ATOM     13  C   UNL A   1      37.858  32.036  30.870  1.00  0.00     0.031 A 
ATOM     14  C   UNL A   1      38.611  30.958  30.146  1.00  0.00     0.074 A 
ATOM     15  C   UNL A   1      38.238  32.414  32.105  1.00  0.00     0.049 A 
ATOM     16  N   UNL A   1      39.611  30.225  30.562  1.00  0.00    -0.248 NA
ATOM     17  C   UNL A   1      38.173  30.657  28.775  1.00  0.00     0.031 C 
ATOM     18  C   UNL A   1      37.583  33.447  32.909  1.00  0.00     0.029 A 
ATOM     19  N   UNL A   1      39.254  31.959  32.905  1.00  0.00    -0.354 N 
ATOM     20  C   UNL A   1      39.906  29.358  29.518  1.00  0.00     0.074 A 
ATOM     21  C   UNL A   1      38.964  29.641  28.457  1.00  0.00     0.031 C 
ATOM     22  C   UNL A   1      38.215  33.550  34.087  1.00  0.00     0.029 A 
ATOM     23  C   UNL A   1      39.278  32.551  34.145  1.00  0.00     0.049 A 
ATOM     24  H   UNL A   1      39.904  31.278  32.621  1.00  0.00     0.167 HD
ATOM     25  C   UNL A   1      40.876  28.415  29.454  1.00  0.00     0.037 A 
ATOM     26  C   UNL A   1      40.041  32.295  35.223  1.00  0.00     0.037 A 
ATOM     27  C   UNL A   1      41.812  28.145  30.514  1.00  0.00     0.049 A 
ATOM     28  C   UNL A   1      41.084  31.220  35.145  1.00  0.00     0.074 A 
ATOM     29  C   UNL A   1      42.861  27.241  30.530  1.00  0.00     0.029 A 
ATOM     30  N   UNL A   1      41.806  28.769  31.753  1.00  0.00    -0.354 N 
ATOM     31  N   UNL A   1      41.380  30.431  34.139  1.00  0.00    -0.248 NA
ATOM     32  C   UNL A   1      41.901  30.996  36.345  1.00  0.00     0.031 C 
ATOM     33  C   UNL A   1      43.455  27.282  31.796  1.00  0.00     0.029 A 
ATOM     34  C   UNL A   1      42.813  28.252  32.551  1.00  0.00     0.049 A 
ATOM     35  H   UNL A   1      41.178  29.476  32.026  1.00  0.00     0.167 HD
ATOM     36  C   UNL A   1      42.432  29.637  34.574  1.00  0.00     0.074 A 
ATOM     37  C   UNL A   1      42.723  30.040  35.935  1.00  0.00     0.031 C 
ATOM     38  C   UNL A   1      43.097  28.667  33.902  1.00  0.00     0.037 A 
BRANCH  25  39
ATOM     39  C   UNL A   1      40.946  27.581  28.205  1.00  0.00     0.057 A 
ATOM     40  C   UNL A   1      41.726  27.954  27.103  1.00  0.00     0.134 A 
ATOM     41  C   UNL A   1      40.233  26.380  28.111  1.00  0.00     0.134 A 
ATOM     42  F   UNL A   1      42.427  29.098  27.121  1.00  0.00    -0.206 F 
ATOM     43  C   UNL A   1      41.764  27.182  25.939  1.00  0.00     0.040 A 
ATOM     44  C   UNL A   1      40.284  25.585  26.965  1.00  0.00     0.040 A 
ATOM     45  F   UNL A   1      39.473  25.957  29.134  1.00  0.00    -0.206 F 
ATOM     46  C   UNL A   1      41.044  25.991  25.870  1.00  0.00     0.006 A 
ENDBRANCH  25  39
BRANCH  26  47
ATOM     47  C   UNL A   1      39.819  33.073  36.466  1.00  0.00     0.057 A 
ATOM     48  C   UNL A   1      40.554  34.230  36.735  1.00  0.00     0.134 A 
ATOM     49  C   UNL A   1      38.824  32.708  37.381  1.00  0.00     0.134 A 
ATOM     50  F   UNL A   1      41.529  34.621  35.902  1.00  0.00    -0.206 F 
ATOM     51  C   UNL A   1      40.308  35.001  37.873  1.00  0.00     0.040 A 
ATOM     52  C   UNL A   1      38.550  33.482  38.509  1.00  0.00     0.040 A 
ATOM     53  F   UNL A   1      38.078  31.614  37.170  1.00  0.00    -0.206 F 
ATOM     54  C   UNL A   1      39.296  34.632  38.758  1.00  0.00     0.006 A 
ENDBRANCH  26  47
BRANCH  38  55
ATOM     55  C   UNL A   1      44.240  27.997  34.606  1.00  0.00     0.057 A 
ATOM     56  C   UNL A   1      44.077  26.799  35.310  1.00  0.00     0.134 A 
ATOM     57  C   UNL A   1      45.535  28.526  34.514  1.00  0.00     0.134 A 
ATOM     58  F   UNL A   1      42.861  26.250  35.446  1.00  0.00    -0.206 F 
ATOM     59  C   UNL A   1      45.162  26.151  35.904  1.00  0.00     0.040 A 
ATOM     60  C   UNL A   1      46.630  27.875  35.082  1.00  0.00     0.040 A 
ATOM     61  F   UNL A   1      45.758  29.669  33.847  1.00  0.00    -0.206 F 
ATOM     62  C   UNL A   1      46.444  26.685  35.781  1.00  0.00     0.006 A 
ENDBRANCH  38  55
ENDBRANCH  12  13
ENDBRANCH   5   7
ENDBRANCH   2   3
ENDBRANCH   1   2
BRANCH   1  63
ATOM     63  C   UNL A   1      31.360  30.441  26.074  1.00  0.00     0.117 C 
BRANCH  63  64
ATOM     64  N   UNL A   1      32.390  30.082  25.116  1.00  0.00    -0.356 N 
ATOM     65  C   UNL A   1      32.500  28.964  24.344  1.00  0.00     0.224 C 
ATOM     66  H   UNL A   1      33.112  30.740  25.008  1.00  0.00     0.163 HD
ATOM     67  O   UNL A   1      33.249  29.024  23.368  1.00  0.00    -0.275 OA
BRANCH  65  68
ATOM     68  C   UNL A   1      31.668  27.739  24.684  1.00  0.00     0.095 C 
ATOM     69  C   UNL A   1      30.420  27.798  23.773  1.00  0.00     0.041 C 
ATOM     70  C   UNL A   1      32.378  26.385  24.496  1.00  0.00     0.095 C 
ATOM     71  C   UNL A   1      30.670  27.285  22.380  1.00  0.00    -0.030 C 
ATOM     72  C   UNL A   1      32.751  26.055  23.051  1.00  0.00     0.041 C 
ATOM     73  C   UNL A   1      31.719  26.516  22.056  1.00  0.00    -0.030 C 
BRANCH  70  74
ATOM     74  C   UNL A   1      33.394  25.997  25.578  1.00  0.00     0.224 C 
ATOM     75  O   UNL A   1      34.141  26.877  26.029  1.00  0.00    -0.275 OA
ATOM     76  N   UNL A   1      33.589  24.762  26.102  1.00  0.00    -0.351 N 
ATOM     77  H   UNL A   1      34.269  24.743  26.814  1.00  0.00     0.163 HD
BRANCH  76  78
ATOM     78  C   UNL A   1      32.999  23.456  25.832  1.00  0.00     0.103 C 
ATOM     79  C   UNL A   1      32.911  22.558  27.070  1.00  0.00     0.048 C 
ATOM     80  C   UNL A   1      33.738  22.614  24.757  1.00  0.00     0.141 C 
ATOM     81  C   UNL A   1      33.664  21.283  26.740  1.00  0.00     0.119 C 
ATOM     82  N   UNL A   1      33.688  21.261  25.293  1.00  0.00    -0.369 N 
BRANCH  82  83
ATOM     83  C   UNL A   1      33.443  20.144  24.540  1.00  0.00     0.038 A 
ATOM     84  C   UNL A   1      32.473  20.143  23.525  1.00  0.00     0.026 A 
ATOM     85  C   UNL A   1      34.140  18.953  24.767  1.00  0.00     0.046 A 
ATOM     86  C   UNL A   1      32.182  18.995  22.783  1.00  0.00     0.004 A 
ATOM     87  C   UNL A   1      33.836  17.796  24.043  1.00  0.00     0.043 A 
ATOM     88  C   UNL A   1      32.858  17.810  23.053  1.00  0.00     0.020 A 
ATOM     89  Cl  UNL A   1      34.663  16.327  24.396  1.00  0.00    -0.084 Cl
ENDBRANCH  82  83
ENDBRANCH  76  78
ENDBRANCH  70  74
ENDBRANCH  65  68
ENDBRANCH  63  64
ENDBRANCH   1  63
TORSDOF 13
ENDMDL
MODEL 2
REMARK VINA RESULT:     -12.9      5.075     10.411
REMARK SMILES O=C(NCCCNC(=O)[C@H]1CC=CC[C@H]1C(=O)N[C@@H]1CCN(c2cccc(Cl)c2)C1)c1ccc(-c2c3nc(c(-c4c(F)cccc4F)c4ccc([nH]4)c(-c4c(F)cccc4F)c4nc(c(-c5c(F)cccc5F)c5ccc2[nH]5)C=C4)C=C3)cc1
REMARK SMILES IDX 5 1 4 2 3 3 1 4 2 5 31 7 32 8 84 9 33 10 83 11 34 12 35 13
REMARK SMILES IDX 36 14 77 15 37 16 82 17 76 18 78 19 38 20 81 21 75 22 74 23
REMARK SMILES IDX 39 25 65 26 48 27 64 28 49 29 52 30 63 31 79 32 50 33 51 34
REMARK SMILES IDX 62 36 80 37 53 38 40 39 41 40 46 41 42 42 43 43 45 44 47 45
REMARK SMILES IDX 44 46 66 47 67 48 72 49 68 50 69 51 71 52 73 53 70 54 54 55
REMARK SMILES IDX 55 56 60 57 56 58 57 59 59 60 61 61 58 62 6 63 7 64 8 65
REMARK SMILES IDX 9 67 10 68 11 69 15 70 12 71 14 72 13 73 16 74 17 75 18 76
REMARK SMILES IDX 19 78 20 79 30 80 21 81 22 82 23 83 24 84 29 85 25 86 27 87
REMARK SMILES IDX 26 88 28 89
REMARK H PARENT 3 6 78 24 52 35 7 66 18 77
REMARK Flexibility Score: inf
ROOT
ATOM      1  C   UNL A   1      37.760  19.398  24.987  1.00  0.00     0.042 C 
ENDROOT
BRANCH   1   2
ATOM      2  C   UNL A   1      38.952  19.970  25.750  1.00  0.00     0.118 C 
BRANCH   2   3
ATOM      3  N   UNL A   1      40.098  19.071  25.778  1.00  0.00    -0.352 N 
ATOM      4  O   UNL A   1      42.242  18.407  25.756  1.00  0.00    -0.269 OA
ATOM      5  C   UNL A   1      41.430  19.315  25.967  1.00  0.00     0.251 C 
ATOM      6  H   UNL A   1      39.874  18.122  25.636  1.00  0.00     0.163 HD
BRANCH   5   7
ATOM      7  C   UNL A   1      41.919  20.639  26.393  1.00  0.00     0.039 A 
ATOM      8  C   UNL A   1      42.128  20.939  27.741  1.00  0.00     0.014 A 
ATOM      9  C   UNL A   1      42.238  21.583  25.412  1.00  0.00     0.014 A 
ATOM     10  C   UNL A   1      42.530  22.220  28.116  1.00  0.00     0.010 A 
ATOM     11  C   UNL A   1      42.713  22.841  25.783  1.00  0.00     0.010 A 
ATOM     12  C   UNL A   1      42.835  23.180  27.140  1.00  0.00    -0.014 A 
BRANCH  12  13
ATOM     13  C   UNL A   1      43.324  24.524  27.533  1.00  0.00     0.031 A 
ATOM     14  C   UNL A   1      42.360  25.590  27.969  1.00  0.00     0.074 A 
ATOM     15  C   UNL A   1      44.640  24.794  27.454  1.00  0.00     0.049 A 
ATOM     16  N   UNL A   1      42.588  26.847  28.248  1.00  0.00    -0.248 NA
ATOM     17  C   UNL A   1      40.951  25.190  28.097  1.00  0.00     0.031 C 
ATOM     18  C   UNL A   1      45.672  23.842  27.039  1.00  0.00     0.029 A 
ATOM     19  N   UNL A   1      45.332  25.953  27.699  1.00  0.00    -0.354 N 
ATOM     20  C   UNL A   1      41.352  27.398  28.558  1.00  0.00     0.074 A 
ATOM     21  C   UNL A   1      40.373  26.342  28.411  1.00  0.00     0.031 C 
ATOM     22  C   UNL A   1      46.866  24.453  27.061  1.00  0.00     0.029 A 
ATOM     23  C   UNL A   1      46.675  25.852  27.431  1.00  0.00     0.049 A 
ATOM     24  H   UNL A   1      44.908  26.775  28.034  1.00  0.00     0.167 HD
ATOM     25  C   UNL A   1      41.063  28.667  28.933  1.00  0.00     0.037 A 
ATOM     26  C   UNL A   1      47.642  26.788  27.443  1.00  0.00     0.037 A 
ATOM     27  C   UNL A   1      42.046  29.708  29.083  1.00  0.00     0.049 A 
ATOM     28  C   UNL A   1      47.296  28.197  27.823  1.00  0.00     0.074 A 
ATOM     29  C   UNL A   1      41.862  31.015  29.501  1.00  0.00     0.029 A 
ATOM     30  N   UNL A   1      43.398  29.565  28.806  1.00  0.00    -0.354 N 
ATOM     31  N   UNL A   1      46.129  28.698  28.152  1.00  0.00    -0.248 NA
ATOM     32  C   UNL A   1      48.395  29.172  27.837  1.00  0.00     0.031 C 
ATOM     33  C   UNL A   1      43.093  31.676  29.427  1.00  0.00     0.029 A 
ATOM     34  C   UNL A   1      44.055  30.766  29.017  1.00  0.00     0.049 A 
ATOM     35  H   UNL A   1      43.828  28.733  28.504  1.00  0.00     0.167 HD
ATOM     36  C   UNL A   1      46.356  30.037  28.436  1.00  0.00     0.074 A 
ATOM     37  C   UNL A   1      47.772  30.271  28.243  1.00  0.00     0.031 C 
ATOM     38  C   UNL A   1      45.468  30.983  28.829  1.00  0.00     0.037 A 
BRANCH  25  39
ATOM     39  C   UNL A   1      39.618  29.004  29.172  1.00  0.00     0.057 A 
ATOM     40  C   UNL A   1      39.039  28.940  30.446  1.00  0.00     0.134 A 
ATOM     41  C   UNL A   1      38.799  29.413  28.112  1.00  0.00     0.134 A 
ATOM     42  F   UNL A   1      39.763  28.546  31.505  1.00  0.00    -0.206 F 
ATOM     43  C   UNL A   1      37.688  29.233  30.650  1.00  0.00     0.040 A 
ATOM     44  C   UNL A   1      37.456  29.736  28.308  1.00  0.00     0.040 A 
ATOM     45  F   UNL A   1      39.291  29.505  26.867  1.00  0.00    -0.206 F 
ATOM     46  C   UNL A   1      36.894  29.637  29.579  1.00  0.00     0.006 A 
ENDBRANCH  25  39
BRANCH  26  47
ATOM     47  C   UNL A   1      49.023  26.403  27.063  1.00  0.00     0.057 A 
ATOM     48  C   UNL A   1      49.451  26.464  25.734  1.00  0.00     0.134 A 
ATOM     49  C   UNL A   1      49.963  26.026  28.031  1.00  0.00     0.134 A 
ATOM     50  F   UNL A   1      48.592  26.807  24.763  1.00  0.00    -0.206 F 
ATOM     51  C   UNL A   1      50.767  26.163  25.378  1.00  0.00     0.040 A 
ATOM     52  C   UNL A   1      51.287  25.746  27.693  1.00  0.00     0.040 A 
ATOM     53  F   UNL A   1      49.614  25.960  29.324  1.00  0.00    -0.206 F 
ATOM     54  C   UNL A   1      51.692  25.813  26.361  1.00  0.00     0.006 A 
ENDBRANCH  26  47
BRANCH  38  55
ATOM     55  C   UNL A   1      46.003  32.354  29.121  1.00  0.00     0.057 A 
ATOM     56  C   UNL A   1      46.068  33.349  28.139  1.00  0.00     0.134 A 
ATOM     57  C   UNL A   1      46.390  32.699  30.423  1.00  0.00     0.134 A 
ATOM     58  F   UNL A   1      45.724  33.078  26.871  1.00  0.00    -0.206 F 
ATOM     59  C   UNL A   1      46.504  34.641  28.441  1.00  0.00     0.040 A 
ATOM     60  C   UNL A   1      46.806  33.992  30.741  1.00  0.00     0.040 A 
ATOM     61  F   UNL A   1      46.346  31.791  31.410  1.00  0.00    -0.206 F 
ATOM     62  C   UNL A   1      46.865  34.966  29.748  1.00  0.00     0.006 A 
ENDBRANCH  38  55
ENDBRANCH  12  13
ENDBRANCH   5   7
ENDBRANCH   2   3
ENDBRANCH   1   2
BRANCH   1  63
ATOM     63  C   UNL A   1      36.672  20.411  24.650  1.00  0.00     0.117 C 
BRANCH  63  64
ATOM     64  N   UNL A   1      35.997  20.949  25.817  1.00  0.00    -0.356 N 
ATOM     65  C   UNL A   1      34.781  21.559  25.907  1.00  0.00     0.224 C 
ATOM     66  H   UNL A   1      36.487  20.860  26.665  1.00  0.00     0.163 HD
ATOM     67  O   UNL A   1      34.263  21.620  27.022  1.00  0.00    -0.275 OA
BRANCH  65  68
ATOM     68  C   UNL A   1      34.112  22.075  24.645  1.00  0.00     0.095 C 
ATOM     69  C   UNL A   1      33.074  21.004  24.236  1.00  0.00     0.041 C 
ATOM     70  C   UNL A   1      33.414  23.442  24.778  1.00  0.00     0.095 C 
ATOM     71  C   UNL A   1      31.782  21.098  25.003  1.00  0.00    -0.030 C 
ATOM     72  C   UNL A   1      32.220  23.458  25.733  1.00  0.00     0.041 C 
ATOM     73  C   UNL A   1      31.407  22.192  25.682  1.00  0.00    -0.030 C 
BRANCH  70  74
ATOM     74  C   UNL A   1      34.330  24.672  24.797  1.00  0.00     0.224 C 
ATOM     75  O   UNL A   1      35.411  24.593  25.399  1.00  0.00    -0.275 OA
ATOM     76  N   UNL A   1      34.081  25.878  24.229  1.00  0.00    -0.351 N 
ATOM     77  H   UNL A   1      34.823  26.517  24.330  1.00  0.00     0.163 HD
BRANCH  76  78
ATOM     78  C   UNL A   1      32.943  26.423  23.500  1.00  0.00     0.103 C 
ATOM     79  C   UNL A   1      33.338  27.454  22.437  1.00  0.00     0.048 C 
ATOM     80  C   UNL A   1      31.874  27.122  24.382  1.00  0.00     0.141 C 
ATOM     81  C   UNL A   1      32.587  28.732  22.767  1.00  0.00     0.119 C 
ATOM     82  N   UNL A   1      31.486  28.282  23.592  1.00  0.00    -0.369 N 
BRANCH  82  83
ATOM     83  C   UNL A   1      30.198  28.726  23.457  1.00  0.00     0.038 A 
ATOM     84  C   UNL A   1      29.127  27.830  23.308  1.00  0.00     0.026 A 
ATOM     85  C   UNL A   1      29.902  30.092  23.445  1.00  0.00     0.046 A 
ATOM     86  C   UNL A   1      27.814  28.273  23.123  1.00  0.00     0.004 A 
ATOM     87  C   UNL A   1      28.594  30.541  23.235  1.00  0.00     0.043 A 
ATOM     88  C   UNL A   1      27.548  29.637  23.072  1.00  0.00     0.020 A 
ATOM     89  Cl  UNL A   1      28.275  32.231  23.154  1.00  0.00    -0.084 Cl
ENDBRANCH  82  83
ENDBRANCH  76  78
ENDBRANCH  70  74
ENDBRANCH  65  68
ENDBRANCH  63  64
ENDBRANCH   1  63
TORSDOF 13
ENDMDL
MODEL 3
REMARK VINA RESULT:     -12.8      3.114      8.125
REMARK SMILES O=C(NCCCNC(=O)[C@H]1CC=CC[C@H]1C(=O)N[C@@H]1CCN(c2cccc(Cl)c2)C1)c1ccc(-c2c3nc(c(-c4c(F)cccc4F)c4ccc([nH]4)c(-c4c(F)cccc4F)c4nc(c(-c5c(F)cccc5F)c5ccc2[nH]5)C=C4)C=C3)cc1
REMARK SMILES IDX 5 1 4 2 3 3 1 4 2 5 31 7 32 8 84 9 33 10 83 11 34 12 35 13
REMARK SMILES IDX 36 14 77 15 37 16 82 17 76 18 78 19 38 20 81 21 75 22 74 23
REMARK SMILES IDX 39 25 65 26 48 27 64 28 49 29 52 30 63 31 79 32 50 33 51 34
REMARK SMILES IDX 62 36 80 37 53 38 40 39 41 40 46 41 42 42 43 43 45 44 47 45
REMARK SMILES IDX 44 46 66 47 67 48 72 49 68 50 69 51 71 52 73 53 70 54 54 55
REMARK SMILES IDX 55 56 60 57 56 58 57 59 59 60 61 61 58 62 6 63 7 64 8 65
REMARK SMILES IDX 9 67 10 68 11 69 15 70 12 71 14 72 13 73 16 74 17 75 18 76
REMARK SMILES IDX 19 78 20 79 30 80 21 81 22 82 23 83 24 84 29 85 25 86 27 87
REMARK SMILES IDX 26 88 28 89
REMARK H PARENT 3 6 78 24 52 35 7 66 18 77
REMARK Flexibility Score: inf
ROOT
ATOM      1  C   UNL A   1      38.161  22.565  25.863  1.00  0.00     0.042 C 
ENDROOT
BRANCH   1   2
ATOM      2  C   UNL A   1      39.054  23.426  26.752  1.00  0.00     0.118 C 
BRANCH   2   3
ATOM      3  N   UNL A   1      40.260  23.888  26.077  1.00  0.00    -0.352 N 
ATOM      4  O   UNL A   1      41.889  25.286  25.419  1.00  0.00    -0.269 OA
ATOM      5  C   UNL A   1      41.010  25.018  26.247  1.00  0.00     0.251 C 
ATOM      6  H   UNL A   1      40.592  23.280  25.377  1.00  0.00     0.163 HD
BRANCH   5   7
ATOM      7  C   UNL A   1      40.781  25.934  27.379  1.00  0.00     0.039 A 
ATOM      8  C   UNL A   1      39.822  25.658  28.356  1.00  0.00     0.014 A 
ATOM      9  C   UNL A   1      41.593  27.066  27.501  1.00  0.00     0.014 A 
ATOM     10  C   UNL A   1      39.585  26.575  29.379  1.00  0.00     0.010 A 
ATOM     11  C   UNL A   1      41.407  27.946  28.567  1.00  0.00     0.010 A 
ATOM     12  C   UNL A   1      40.382  27.723  29.500  1.00  0.00    -0.014 A 
BRANCH  12  13
ATOM     13  C   UNL A   1      40.176  28.668  30.623  1.00  0.00     0.031 A 
ATOM     14  C   UNL A   1      39.143  29.754  30.528  1.00  0.00     0.074 A 
ATOM     15  C   UNL A   1      40.955  28.571  31.717  1.00  0.00     0.049 A 
ATOM     16  N   UNL A   1      38.891  30.732  31.359  1.00  0.00    -0.248 NA
ATOM     17  C   UNL A   1      38.287  29.745  29.332  1.00  0.00     0.031 C 
ATOM     18  C   UNL A   1      41.995  27.562  31.923  1.00  0.00     0.029 A 
ATOM     19  N   UNL A   1      41.006  29.342  32.849  1.00  0.00    -0.354 N 
ATOM     20  C   UNL A   1      37.869  31.471  30.778  1.00  0.00     0.074 A 
ATOM     21  C   UNL A   1      37.562  30.840  29.512  1.00  0.00     0.031 C 
ATOM     22  C   UNL A   1      42.580  27.773  33.111  1.00  0.00     0.029 A 
ATOM     23  C   UNL A   1      41.999  28.965  33.720  1.00  0.00     0.049 A 
ATOM     24  H   UNL A   1      40.392  30.091  33.023  1.00  0.00     0.167 HD
ATOM     25  C   UNL A   1      37.245  32.572  31.260  1.00  0.00     0.037 A 
ATOM     26  C   UNL A   1      42.424  29.535  34.863  1.00  0.00     0.037 A 
ATOM     27  C   UNL A   1      37.554  33.188  32.524  1.00  0.00     0.049 A 
ATOM     28  C   UNL A   1      41.745  30.777  35.361  1.00  0.00     0.074 A 
ATOM     29  C   UNL A   1      36.948  34.279  33.123  1.00  0.00     0.029 A 
ATOM     30  N   UNL A   1      38.564  32.773  33.380  1.00  0.00    -0.354 N 
ATOM     31  N   UNL A   1      40.754  31.445  34.821  1.00  0.00    -0.248 NA
ATOM     32  C   UNL A   1      42.239  31.345  36.622  1.00  0.00     0.031 C 
ATOM     33  C   UNL A   1      37.627  34.556  34.315  1.00  0.00     0.029 A 
ATOM     34  C   UNL A   1      38.619  33.603  34.487  1.00  0.00     0.049 A 
ATOM     35  H   UNL A   1      39.156  32.002  33.223  1.00  0.00     0.167 HD
ATOM     36  C   UNL A   1      40.487  32.496  35.688  1.00  0.00     0.074 A 
ATOM     37  C   UNL A   1      41.421  32.376  36.790  1.00  0.00     0.031 C 
ATOM     38  C   UNL A   1      39.548  33.467  35.581  1.00  0.00     0.037 A 
BRANCH  25  39
ATOM     39  C   UNL A   1      36.188  33.200  30.395  1.00  0.00     0.057 A 
ATOM     40  C   UNL A   1      36.507  33.960  29.262  1.00  0.00     0.134 A 
ATOM     41  C   UNL A   1      34.831  33.031  30.695  1.00  0.00     0.134 A 
ATOM     42  F   UNL A   1      37.788  34.172  28.923  1.00  0.00    -0.206 F 
ATOM     43  C   UNL A   1      35.516  34.559  28.481  1.00  0.00     0.040 A 
ATOM     44  C   UNL A   1      33.830  33.600  29.906  1.00  0.00     0.040 A 
ATOM     45  F   UNL A   1      34.453  32.307  31.760  1.00  0.00    -0.206 F 
ATOM     46  C   UNL A   1      34.172  34.376  28.800  1.00  0.00     0.006 A 
ENDBRANCH  25  39
BRANCH  26  47
ATOM     47  C   UNL A   1      43.565  28.929  35.591  1.00  0.00     0.057 A 
ATOM     48  C   UNL A   1      43.368  27.894  36.510  1.00  0.00     0.134 A 
ATOM     49  C   UNL A   1      44.883  29.330  35.338  1.00  0.00     0.134 A 
ATOM     50  F   UNL A   1      42.128  27.476  36.802  1.00  0.00    -0.206 F 
ATOM     51  C   UNL A   1      44.442  27.277  37.153  1.00  0.00     0.040 A 
ATOM     52  C   UNL A   1      45.967  28.706  35.955  1.00  0.00     0.040 A 
ATOM     53  F   UNL A   1      45.135  30.310  34.458  1.00  0.00    -0.206 F 
ATOM     54  C   UNL A   1      45.748  27.676  36.867  1.00  0.00     0.006 A 
ENDBRANCH  26  47
BRANCH  38  55
ATOM     55  C   UNL A   1      39.447  34.457  36.703  1.00  0.00     0.057 A 
ATOM     56  C   UNL A   1      38.750  34.172  37.883  1.00  0.00     0.134 A 
ATOM     57  C   UNL A   1      40.118  35.685  36.625  1.00  0.00     0.134 A 
ATOM     58  F   UNL A   1      38.076  33.020  38.014  1.00  0.00    -0.206 F 
ATOM     59  C   UNL A   1      38.720  35.077  38.946  1.00  0.00     0.040 A 
ATOM     60  C   UNL A   1      40.115  36.587  37.690  1.00  0.00     0.040 A 
ATOM     61  F   UNL A   1      40.808  36.015  35.522  1.00  0.00    -0.206 F 
ATOM     62  C   UNL A   1      39.413  36.284  38.853  1.00  0.00     0.006 A 
ENDBRANCH  38  55
ENDBRANCH  12  13
ENDBRANCH   5   7
ENDBRANCH   2   3
ENDBRANCH   1   2
BRANCH   1  63
ATOM     63  C   UNL A   1      37.242  23.347  24.932  1.00  0.00     0.117 C 
BRANCH  63  64
ATOM     64  N   UNL A   1      35.981  23.723  25.542  1.00  0.00    -0.356 N 
ATOM     65  C   UNL A   1      34.752  23.145  25.414  1.00  0.00     0.224 C 
ATOM     66  H   UNL A   1      36.016  24.508  26.134  1.00  0.00     0.163 HD
ATOM     67  O   UNL A   1      33.913  23.408  26.276  1.00  0.00    -0.275 OA
BRANCH  65  68
ATOM     68  C   UNL A   1      34.500  22.181  24.268  1.00  0.00     0.095 C 
ATOM     69  C   UNL A   1      34.385  20.776  24.903  1.00  0.00     0.041 C 
ATOM     70  C   UNL A   1      33.242  22.469  23.427  1.00  0.00     0.095 C 
ATOM     71  C   UNL A   1      33.027  20.492  25.488  1.00  0.00    -0.030 C 
ATOM     72  C   UNL A   1      31.921  22.327  24.184  1.00  0.00     0.041 C 
ATOM     73  C   UNL A   1      31.929  21.194  25.175  1.00  0.00    -0.030 C 
BRANCH  70  74
ATOM     74  C   UNL A   1      33.345  23.629  22.428  1.00  0.00     0.224 C 
ATOM     75  O   UNL A   1      33.559  23.365  21.236  1.00  0.00    -0.275 OA
ATOM     76  N   UNL A   1      33.245  24.952  22.709  1.00  0.00    -0.351 N 
ATOM     77  H   UNL A   1      33.305  25.525  21.911  1.00  0.00     0.163 HD
BRANCH  76  78
ATOM     78  C   UNL A   1      33.065  25.700  23.947  1.00  0.00     0.103 C 
ATOM     79  C   UNL A   1      31.595  25.929  24.313  1.00  0.00     0.048 C 
ATOM     80  C   UNL A   1      33.722  27.107  23.962  1.00  0.00     0.141 C 
ATOM     81  C   UNL A   1      31.403  27.429  24.436  1.00  0.00     0.119 C 
ATOM     82  N   UNL A   1      32.742  27.932  24.655  1.00  0.00    -0.369 N 
BRANCH  82  83
ATOM     83  C   UNL A   1      33.059  28.889  25.581  1.00  0.00     0.038 A 
ATOM     84  C   UNL A   1      34.173  28.752  26.423  1.00  0.00     0.026 A 
ATOM     85  C   UNL A   1      32.271  30.034  25.734  1.00  0.00     0.046 A 
ATOM     86  C   UNL A   1      34.478  29.701  27.404  1.00  0.00     0.004 A 
ATOM     87  C   UNL A   1      32.558  30.974  26.729  1.00  0.00     0.043 A 
ATOM     88  C   UNL A   1      33.658  30.811  27.567  1.00  0.00     0.020 A 
ATOM     89  Cl  UNL A   1      31.527  32.337  26.939  1.00  0.00    -0.084 Cl
ENDBRANCH  82  83
ENDBRANCH  76  78
ENDBRANCH  70  74
ENDBRANCH  65  68
ENDBRANCH  63  64
ENDBRANCH   1  63
TORSDOF 13
ENDMDL
