MODEL 1
REMARK VINA RESULT:     -11.7      0.000      0.000
REMARK SMILES C#Cc1cccc(NS(=O)(=O)c2cc(C)c(C(=O)NCCCNC(=O)c3ccc(-c4c5nc(c(-c6c(F)cccc6F)c6ccc([nH]6)c(-c6c(F)cccc6F)c6nc(c(-c7c(F)cccc7F)c7ccc4[nH]7)C=C6)C=C5)cc3)s2)c1
REMARK SMILES IDX 20 1 19 2 17 3 18 4 16 6 12 7 13 8 80 9 14 10 15 11 9 12
REMARK SMILES IDX 10 13 11 14 8 15 7 17 3 18 4 19 81 20 5 21 6 22 2 23 1 24
REMARK SMILES IDX 21 25 22 26 23 27 24 28 25 30 26 31 27 32 79 33 28 34 78 35
REMARK SMILES IDX 29 36 30 37 31 38 72 39 32 40 77 41 71 42 73 43 33 44 76 45
REMARK SMILES IDX 70 46 69 47 34 49 60 50 43 51 59 52 44 53 47 54 58 55 74 56
REMARK SMILES IDX 45 57 46 58 57 60 75 61 48 62 35 63 36 64 41 65 37 66 38 67
REMARK SMILES IDX 40 68 42 69 39 70 61 71 62 72 67 73 63 74 64 75 66 76 68 77
REMARK SMILES IDX 65 78 49 79 50 80 55 81 51 82 52 83 54 84 56 85 53 86
REMARK H PARENT 19 5 8 16 23 29 73 48 47 59
REMARK Flexibility Score: inf
ROOT
ATOM      1  C   UNL A   1      36.371  20.244  24.906  1.00  0.00     0.118 C 
ENDROOT
BRANCH   1   2
ATOM      2  N   UNL A   1      36.636  21.607  24.542  1.00  0.00    -0.351 N 
ATOM      3  C   UNL A   1      35.825  22.659  24.212  1.00  0.00     0.261 C 
ATOM      4  O   UNL A   1      36.472  23.678  23.935  1.00  0.00    -0.268 OA
ATOM      5  H   UNL A   1      37.595  21.829  24.526  1.00  0.00     0.163 HD
BRANCH   3   6
ATOM      6  C   UNL A   1      34.355  22.625  24.230  1.00  0.00     0.096 A 
ATOM      7  C   UNL A   1      32.074  22.662  25.276  1.00  0.00     0.141 A 
ATOM      8  C   UNL A   1      32.059  22.284  23.956  1.00  0.00     0.038 A 
ATOM      9  S   UNL A   1      33.673  22.640  25.850  1.00  0.00    -0.116 S 
ATOM     10  C   UNL A   1      33.290  22.682  23.322  1.00  0.00    -0.026 A 
ATOM     11  C   UNL A   1      33.212  23.163  21.913  1.00  0.00     0.046 C 
BRANCH   7  12
ATOM     12  S   UNL A   1      30.788  23.127  26.405  1.00  0.00     0.271 S 
ATOM     13  O   UNL A   1      31.445  23.538  27.627  1.00  0.00    -0.200 OA
ATOM     14  O   UNL A   1      29.869  22.008  26.383  1.00  0.00    -0.200 OA
BRANCH  12  15
ATOM     15  N   UNL A   1      29.880  24.460  25.879  1.00  0.00    -0.279 N 
ATOM     16  H   UNL A   1      28.905  24.411  25.993  1.00  0.00     0.180 HD
BRANCH  15  17
ATOM     17  C   UNL A   1      30.408  25.648  25.283  1.00  0.00     0.050 A 
ATOM     18  C   UNL A   1      31.502  27.800  25.596  1.00  0.00     0.026 A 
ATOM     19  C   UNL A   1      31.436  28.040  24.227  1.00  0.00     0.017 A 
ATOM     20  C   UNL A   1      30.967  26.620  26.129  1.00  0.00     0.044 A 
ATOM     21  C   UNL A   1      31.000  27.031  23.379  1.00  0.00     0.003 A 
ATOM     22  C   UNL A   1      30.552  25.816  23.906  1.00  0.00     0.027 A 
BRANCH  18  23
ATOM     23  C   UNL A   1      32.239  28.735  26.393  1.00  0.00    -0.070 C 
ATOM     24  C   UNL A   1      32.736  29.468  27.202  1.00  0.00     0.010 C 
ENDBRANCH  18  23
ENDBRANCH  15  17
ENDBRANCH  12  15
ENDBRANCH   7  12
ENDBRANCH   3   6
ENDBRANCH   1   2
BRANCH   1  25
ATOM     25  C   UNL A   1      37.662  19.424  24.900  1.00  0.00     0.042 C 
BRANCH  25  26
ATOM     26  C   UNL A   1      38.786  20.130  25.635  1.00  0.00     0.118 C 
BRANCH  26  27
ATOM     27  N   UNL A   1      39.958  19.269  25.713  1.00  0.00    -0.352 N 
ATOM     28  C   UNL A   1      41.251  19.564  26.040  1.00  0.00     0.251 C 
ATOM     29  H   UNL A   1      39.791  18.325  25.494  1.00  0.00     0.163 HD
ATOM     30  O   UNL A   1      42.125  18.728  25.825  1.00  0.00    -0.269 OA
BRANCH  28  31
ATOM     31  C   UNL A   1      41.606  20.873  26.624  1.00  0.00     0.039 A 
ATOM     32  C   UNL A   1      41.974  21.902  25.754  1.00  0.00     0.014 A 
ATOM     33  C   UNL A   1      41.619  21.088  28.005  1.00  0.00     0.014 A 
ATOM     34  C   UNL A   1      42.333  23.144  26.269  1.00  0.00     0.010 A 
ATOM     35  C   UNL A   1      41.869  22.358  28.510  1.00  0.00     0.010 A 
ATOM     36  C   UNL A   1      42.256  23.392  27.649  1.00  0.00    -0.014 A 
BRANCH  36  37
ATOM     37  C   UNL A   1      42.594  24.729  28.189  1.00  0.00     0.031 A 
ATOM     38  C   UNL A   1      44.020  25.088  28.503  1.00  0.00     0.074 A 
ATOM     39  C   UNL A   1      41.602  25.616  28.398  1.00  0.00     0.049 A 
ATOM     40  N   UNL A   1      44.506  26.224  28.935  1.00  0.00    -0.248 NA
ATOM     41  C   UNL A   1      45.030  24.030  28.338  1.00  0.00     0.031 C 
ATOM     42  C   UNL A   1      40.177  25.356  28.183  1.00  0.00     0.029 A 
ATOM     43  N   UNL A   1      41.642  26.918  28.823  1.00  0.00    -0.354 N 
ATOM     44  C   UNL A   1      45.872  26.016  29.090  1.00  0.00     0.074 A 
ATOM     45  C   UNL A   1      46.126  24.627  28.779  1.00  0.00     0.031 C 
ATOM     46  C   UNL A   1      39.485  26.478  28.424  1.00  0.00     0.029 A 
ATOM     47  C   UNL A   1      40.409  27.520  28.856  1.00  0.00     0.049 A 
ATOM     48  H   UNL A   1      42.475  27.377  29.080  1.00  0.00     0.167 HD
ATOM     49  C   UNL A   1      46.829  26.909  29.432  1.00  0.00     0.037 A 
ATOM     50  C   UNL A   1      40.063  28.775  29.195  1.00  0.00     0.037 A 
ATOM     51  C   UNL A   1      46.565  28.291  29.739  1.00  0.00     0.049 A 
ATOM     52  C   UNL A   1      41.146  29.741  29.589  1.00  0.00     0.074 A 
ATOM     53  C   UNL A   1      47.465  29.291  30.058  1.00  0.00     0.029 A 
ATOM     54  N   UNL A   1      45.301  28.863  29.776  1.00  0.00    -0.354 N 
ATOM     55  N   UNL A   1      42.443  29.552  29.661  1.00  0.00    -0.248 NA
ATOM     56  C   UNL A   1      40.716  31.100  29.937  1.00  0.00     0.031 C 
ATOM     57  C   UNL A   1      46.741  30.451  30.356  1.00  0.00     0.029 A 
ATOM     58  C   UNL A   1      45.396  30.197  30.142  1.00  0.00     0.049 A 
ATOM     59  H   UNL A   1      44.461  28.392  29.574  1.00  0.00     0.167 HD
ATOM     60  C   UNL A   1      42.985  30.776  30.027  1.00  0.00     0.074 A 
ATOM     61  C   UNL A   1      41.878  31.703  30.136  1.00  0.00     0.031 C 
ATOM     62  C   UNL A   1      44.282  31.106  30.252  1.00  0.00     0.037 A 
BRANCH  49  63
ATOM     63  C   UNL A   1      48.248  26.415  29.498  1.00  0.00     0.057 A 
ATOM     64  C   UNL A   1      49.111  26.477  28.395  1.00  0.00     0.134 A 
ATOM     65  C   UNL A   1      48.769  25.894  30.690  1.00  0.00     0.134 A 
ATOM     66  F   UNL A   1      48.678  26.952  27.216  1.00  0.00    -0.206 F 
ATOM     67  C   UNL A   1      50.427  26.013  28.465  1.00  0.00     0.040 A 
ATOM     68  C   UNL A   1      50.092  25.459  30.783  1.00  0.00     0.040 A 
ATOM     69  F   UNL A   1      48.003  25.808  31.788  1.00  0.00    -0.206 F 
ATOM     70  C   UNL A   1      50.923  25.510  29.666  1.00  0.00     0.006 A 
ENDBRANCH  49  63
BRANCH  50  71
ATOM     71  C   UNL A   1      38.639  29.194  29.155  1.00  0.00     0.057 A 
ATOM     72  C   UNL A   1      38.053  29.666  27.975  1.00  0.00     0.134 A 
ATOM     73  C   UNL A   1      37.834  29.150  30.300  1.00  0.00     0.134 A 
ATOM     74  F   UNL A   1      38.773  29.743  26.846  1.00  0.00    -0.206 F 
ATOM     75  C   UNL A   1      36.729  30.109  27.941  1.00  0.00     0.040 A 
ATOM     76  C   UNL A   1      36.500  29.557  30.273  1.00  0.00     0.040 A 
ATOM     77  F   UNL A   1      38.330  28.695  31.461  1.00  0.00    -0.206 F 
ATOM     78  C   UNL A   1      35.948  30.051  29.093  1.00  0.00     0.006 A 
ENDBRANCH  50  71
BRANCH  62  79
ATOM     79  C   UNL A   1      44.568  32.543  30.591  1.00  0.00     0.057 A 
ATOM     80  C   UNL A   1      44.819  33.510  29.606  1.00  0.00     0.134 A 
ATOM     81  C   UNL A   1      44.603  32.964  31.927  1.00  0.00     0.134 A 
ATOM     82  F   UNL A   1      44.809  33.176  28.306  1.00  0.00    -0.206 F 
ATOM     83  C   UNL A   1      45.153  34.823  29.940  1.00  0.00     0.040 A 
ATOM     84  C   UNL A   1      44.893  34.284  32.271  1.00  0.00     0.040 A 
ATOM     85  F   UNL A   1      44.356  32.098  32.921  1.00  0.00    -0.206 F 
ATOM     86  C   UNL A   1      45.188  35.214  31.277  1.00  0.00     0.006 A 
ENDBRANCH  62  79
ENDBRANCH  36  37
ENDBRANCH  28  31
ENDBRANCH  26  27
ENDBRANCH  25  26
ENDBRANCH   1  25
TORSDOF 14
ENDMDL
MODEL 2
REMARK VINA RESULT:     -11.7      4.406      9.319
REMARK SMILES C#Cc1cccc(NS(=O)(=O)c2cc(C)c(C(=O)NCCCNC(=O)c3ccc(-c4c5nc(c(-c6c(F)cccc6F)c6ccc([nH]6)c(-c6c(F)cccc6F)c6nc(c(-c7c(F)cccc7F)c7ccc4[nH]7)C=C6)C=C5)cc3)s2)c1
REMARK SMILES IDX 20 1 19 2 17 3 18 4 16 6 12 7 13 8 80 9 14 10 15 11 9 12
REMARK SMILES IDX 10 13 11 14 8 15 7 17 3 18 4 19 81 20 5 21 6 22 2 23 1 24
REMARK SMILES IDX 21 25 22 26 23 27 24 28 25 30 26 31 27 32 79 33 28 34 78 35
REMARK SMILES IDX 29 36 30 37 31 38 72 39 32 40 77 41 71 42 73 43 33 44 76 45
REMARK SMILES IDX 70 46 69 47 34 49 60 50 43 51 59 52 44 53 47 54 58 55 74 56
REMARK SMILES IDX 45 57 46 58 57 60 75 61 48 62 35 63 36 64 41 65 37 66 38 67
REMARK SMILES IDX 40 68 42 69 39 70 61 71 62 72 67 73 63 74 64 75 66 76 68 77
REMARK SMILES IDX 65 78 49 79 50 80 55 81 51 82 52 83 54 84 56 85 53 86
REMARK H PARENT 19 5 8 16 23 29 73 48 47 59
REMARK Flexibility Score: inf
ROOT
ATOM      1  C   UNL A   1      31.230  30.673  25.563  1.00  0.00     0.118 C 
ENDROOT
BRANCH   1   2
ATOM      2  N   UNL A   1      31.838  29.722  26.450  1.00  0.00    -0.351 N 
ATOM      3  C   UNL A   1      31.998  28.364  26.394  1.00  0.00     0.261 C 
ATOM      4  O   UNL A   1      32.571  27.920  27.399  1.00  0.00    -0.268 OA
ATOM      5  H   UNL A   1      32.216  30.130  27.262  1.00  0.00     0.163 HD
BRANCH   3   6
ATOM      6  C   UNL A   1      31.596  27.515  25.262  1.00  0.00     0.096 A 
ATOM      7  C   UNL A   1      31.772  26.531  22.961  1.00  0.00     0.141 A 
ATOM      8  C   UNL A   1      30.568  26.277  23.569  1.00  0.00     0.038 A 
ATOM      9  S   UNL A   1      32.604  27.724  23.837  1.00  0.00    -0.116 S 
ATOM     10  C   UNL A   1      30.685  26.488  24.989  1.00  0.00    -0.026 A 
ATOM     11  C   UNL A   1      29.940  25.558  25.885  1.00  0.00     0.046 C 
BRANCH   7  12
ATOM     12  S   UNL A   1      32.543  25.873  21.506  1.00  0.00     0.271 S 
ATOM     13  O   UNL A   1      33.802  26.571  21.359  1.00  0.00    -0.200 OA
ATOM     14  O   UNL A   1      31.516  25.949  20.488  1.00  0.00    -0.200 OA
BRANCH  12  15
ATOM     15  N   UNL A   1      32.923  24.225  21.633  1.00  0.00    -0.279 N 
ATOM     16  H   UNL A   1      32.916  23.697  20.803  1.00  0.00     0.180 HD
BRANCH  15  17
ATOM     17  C   UNL A   1      33.254  23.534  22.841  1.00  0.00     0.050 A 
ATOM     18  C   UNL A   1      34.927  23.027  24.535  1.00  0.00     0.026 A 
ATOM     19  C   UNL A   1      34.025  22.188  25.183  1.00  0.00     0.017 A 
ATOM     20  C   UNL A   1      34.553  23.680  23.352  1.00  0.00     0.044 A 
ATOM     21  C   UNL A   1      32.708  22.141  24.751  1.00  0.00     0.003 A 
ATOM     22  C   UNL A   1      32.311  22.866  23.623  1.00  0.00     0.027 A 
BRANCH  18  23
ATOM     23  C   UNL A   1      36.175  23.285  25.189  1.00  0.00    -0.070 C 
ATOM     24  C   UNL A   1      37.142  23.668  25.784  1.00  0.00     0.010 C 
ENDBRANCH  18  23
ENDBRANCH  15  17
ENDBRANCH  12  15
ENDBRANCH   7  12
ENDBRANCH   3   6
ENDBRANCH   1   2
BRANCH   1  25
ATOM     25  C   UNL A   1      31.107  32.038  26.240  1.00  0.00     0.042 C 
BRANCH  25  26
ATOM     26  C   UNL A   1      32.362  32.405  27.009  1.00  0.00     0.118 C 
BRANCH  26  27
ATOM     27  N   UNL A   1      32.304  33.795  27.439  1.00  0.00    -0.352 N 
ATOM     28  C   UNL A   1      33.053  34.467  28.364  1.00  0.00     0.251 C 
ATOM     29  H   UNL A   1      31.614  34.337  26.992  1.00  0.00     0.163 HD
ATOM     30  O   UNL A   1      32.686  35.581  28.730  1.00  0.00    -0.269 OA
BRANCH  28  31
ATOM     31  C   UNL A   1      34.273  33.864  28.934  1.00  0.00     0.039 A 
ATOM     32  C   UNL A   1      34.122  32.854  29.888  1.00  0.00     0.014 A 
ATOM     33  C   UNL A   1      35.552  34.300  28.576  1.00  0.00     0.014 A 
ATOM     34  C   UNL A   1      35.250  32.274  30.461  1.00  0.00     0.010 A 
ATOM     35  C   UNL A   1      36.675  33.645  29.066  1.00  0.00     0.010 A 
ATOM     36  C   UNL A   1      36.535  32.644  30.035  1.00  0.00    -0.014 A 
BRANCH  36  37
ATOM     37  C   UNL A   1      37.732  31.991  30.614  1.00  0.00     0.031 A 
ATOM     38  C   UNL A   1      38.230  32.382  31.978  1.00  0.00     0.074 A 
ATOM     39  C   UNL A   1      38.369  31.046  29.897  1.00  0.00     0.049 A 
ATOM     40  N   UNL A   1      39.230  31.885  32.662  1.00  0.00    -0.248 NA
ATOM     41  C   UNL A   1      37.536  33.490  32.654  1.00  0.00     0.031 C 
ATOM     42  C   UNL A   1      38.008  30.628  28.541  1.00  0.00     0.029 A 
ATOM     43  N   UNL A   1      39.443  30.255  30.214  1.00  0.00    -0.354 N 
ATOM     44  C   UNL A   1      39.281  32.618  33.842  1.00  0.00     0.074 A 
ATOM     45  C   UNL A   1      38.263  33.640  33.751  1.00  0.00     0.031 C 
ATOM     46  C   UNL A   1      38.810  29.622  28.164  1.00  0.00     0.029 A 
ATOM     47  C   UNL A   1      39.769  29.356  29.229  1.00  0.00     0.049 A 
ATOM     48  H   UNL A   1      39.932  30.325  31.065  1.00  0.00     0.167 HD
ATOM     49  C   UNL A   1      40.084  32.435  34.916  1.00  0.00     0.037 A 
ATOM     50  C   UNL A   1      40.735  28.421  29.191  1.00  0.00     0.037 A 
ATOM     51  C   UNL A   1      41.095  31.413  34.997  1.00  0.00     0.049 A 
ATOM     52  C   UNL A   1      41.625  28.253  30.391  1.00  0.00     0.074 A 
ATOM     53  C   UNL A   1      41.937  31.115  36.054  1.00  0.00     0.029 A 
ATOM     54  N   UNL A   1      41.409  30.529  33.974  1.00  0.00    -0.354 N 
ATOM     55  N   UNL A   1      41.615  28.904  31.531  1.00  0.00    -0.248 NA
ATOM     56  C   UNL A   1      42.653  27.210  30.302  1.00  0.00     0.031 C 
ATOM     57  C   UNL A   1      42.806  30.097  35.645  1.00  0.00     0.029 A 
ATOM     58  C   UNL A   1      42.451  29.704  34.364  1.00  0.00     0.049 A 
ATOM     59  H   UNL A   1      40.958  30.494  33.100  1.00  0.00     0.167 HD
ATOM     60  C   UNL A   1      42.610  28.325  32.306  1.00  0.00     0.074 A 
ATOM     61  C   UNL A   1      43.183  27.256  31.515  1.00  0.00     0.031 C 
ATOM     62  C   UNL A   1      43.015  28.647  33.562  1.00  0.00     0.037 A 
BRANCH  49  63
ATOM     63  C   UNL A   1      39.905  33.367  36.084  1.00  0.00     0.057 A 
ATOM     64  C   UNL A   1      39.014  33.087  37.130  1.00  0.00     0.134 A 
ATOM     65  C   UNL A   1      40.654  34.547  36.179  1.00  0.00     0.134 A 
ATOM     66  F   UNL A   1      38.254  31.981  37.100  1.00  0.00    -0.206 F 
ATOM     67  C   UNL A   1      38.852  33.959  38.209  1.00  0.00     0.040 A 
ATOM     68  C   UNL A   1      40.526  35.409  37.269  1.00  0.00     0.040 A 
ATOM     69  F   UNL A   1      41.529  34.878  35.218  1.00  0.00    -0.206 F 
ATOM     70  C   UNL A   1      39.617  35.121  38.284  1.00  0.00     0.006 A 
ENDBRANCH  49  63
BRANCH  50  71
ATOM     71  C   UNL A   1      40.895  27.561  27.992  1.00  0.00     0.057 A 
ATOM     72  C   UNL A   1      41.695  27.958  26.913  1.00  0.00     0.134 A 
ATOM     73  C   UNL A   1      40.240  26.327  27.886  1.00  0.00     0.134 A 
ATOM     74  F   UNL A   1      42.340  29.133  26.947  1.00  0.00    -0.206 F 
ATOM     75  C   UNL A   1      41.811  27.177  25.761  1.00  0.00     0.040 A 
ATOM     76  C   UNL A   1      40.374  25.521  26.755  1.00  0.00     0.040 A 
ATOM     77  F   UNL A   1      39.470  25.881  28.890  1.00  0.00    -0.206 F 
ATOM     78  C   UNL A   1      41.152  25.952  25.683  1.00  0.00     0.006 A 
ENDBRANCH  50  71
BRANCH  62  79
ATOM     79  C   UNL A   1      44.098  27.795  34.165  1.00  0.00     0.057 A 
ATOM     80  C   UNL A   1      43.819  26.605  34.853  1.00  0.00     0.134 A 
ATOM     81  C   UNL A   1      45.441  28.180  34.065  1.00  0.00     0.134 A 
ATOM     82  F   UNL A   1      42.553  26.180  34.993  1.00  0.00    -0.206 F 
ATOM     83  C   UNL A   1      44.828  25.864  35.468  1.00  0.00     0.040 A 
ATOM     84  C   UNL A   1      46.464  27.424  34.639  1.00  0.00     0.040 A 
ATOM     85  F   UNL A   1      45.784  29.298  33.407  1.00  0.00    -0.206 F 
ATOM     86  C   UNL A   1      46.157  26.272  35.360  1.00  0.00     0.006 A 
ENDBRANCH  62  79
ENDBRANCH  36  37
ENDBRANCH  28  31
ENDBRANCH  26  27
ENDBRANCH  25  26
ENDBRANCH   1  25
TORSDOF 14
ENDMDL
MODEL 3
REMARK VINA RESULT:     -11.6      3.798      9.043
REMARK SMILES C#Cc1cccc(NS(=O)(=O)c2cc(C)c(C(=O)NCCCNC(=O)c3ccc(-c4c5nc(c(-c6c(F)cccc6F)c6ccc([nH]6)c(-c6c(F)cccc6F)c6nc(c(-c7c(F)cccc7F)c7ccc4[nH]7)C=C6)C=C5)cc3)s2)c1
REMARK SMILES IDX 20 1 19 2 17 3 18 4 16 6 12 7 13 8 80 9 14 10 15 11 9 12
REMARK SMILES IDX 10 13 11 14 8 15 7 17 3 18 4 19 81 20 5 21 6 22 2 23 1 24
REMARK SMILES IDX 21 25 22 26 23 27 24 28 25 30 26 31 27 32 79 33 28 34 78 35
REMARK SMILES IDX 29 36 30 37 31 38 72 39 32 40 77 41 71 42 73 43 33 44 76 45
REMARK SMILES IDX 70 46 69 47 34 49 60 50 43 51 59 52 44 53 47 54 58 55 74 56
REMARK SMILES IDX 45 57 46 58 57 60 75 61 48 62 35 63 36 64 41 65 37 66 38 67
REMARK SMILES IDX 40 68 42 69 39 70 61 71 62 72 67 73 63 74 64 75 66 76 68 77
REMARK SMILES IDX 65 78 49 79 50 80 55 81 51 82 52 83 54 84 56 85 53 86
REMARK H PARENT 19 5 8 16 23 29 73 48 47 59
REMARK Flexibility Score: inf
ROOT
ATOM      1  C   UNL A   1      31.869  30.669  26.455  1.00  0.00     0.118 C 
ENDROOT
BRANCH   1   2
ATOM      2  N   UNL A   1      31.162  30.359  25.246  1.00  0.00    -0.351 N 
ATOM      3  C   UNL A   1      31.151  29.263  24.426  1.00  0.00     0.261 C 
ATOM      4  O   UNL A   1      30.401  29.416  23.452  1.00  0.00    -0.268 OA
ATOM      5  H   UNL A   1      30.563  31.081  24.945  1.00  0.00     0.163 HD
BRANCH   3   6
ATOM      6  C   UNL A   1      31.890  28.017  24.678  1.00  0.00     0.096 A 
ATOM      7  C   UNL A   1      32.227  25.689  25.550  1.00  0.00     0.141 A 
ATOM      8  C   UNL A   1      33.393  26.290  25.145  1.00  0.00     0.038 A 
ATOM      9  S   UNL A   1      30.996  26.855  25.647  1.00  0.00    -0.116 S 
ATOM     10  C   UNL A   1      33.092  27.411  24.291  1.00  0.00    -0.026 A 
ATOM     11  C   UNL A   1      34.003  27.659  23.138  1.00  0.00     0.046 C 
BRANCH   7  12
ATOM     12  S   UNL A   1      31.824  24.013  25.969  1.00  0.00     0.271 S 
ATOM     13  O   UNL A   1      31.109  23.468  24.836  1.00  0.00    -0.200 OA
ATOM     14  O   UNL A   1      31.207  24.107  27.275  1.00  0.00    -0.200 OA
BRANCH  12  15
ATOM     15  N   UNL A   1      33.189  23.030  26.191  1.00  0.00    -0.279 N 
ATOM     16  H   UNL A   1      33.187  22.429  26.970  1.00  0.00     0.180 HD
BRANCH  15  17
ATOM     17  C   UNL A   1      34.342  22.996  25.345  1.00  0.00     0.050 A 
ATOM     18  C   UNL A   1      36.745  22.661  25.147  1.00  0.00     0.026 A 
ATOM     19  C   UNL A   1      36.679  22.946  23.786  1.00  0.00     0.017 A 
ATOM     20  C   UNL A   1      35.585  22.710  25.932  1.00  0.00     0.044 A 
ATOM     21  C   UNL A   1      35.439  23.105  23.184  1.00  0.00     0.003 A 
ATOM     22  C   UNL A   1      34.272  23.062  23.954  1.00  0.00     0.027 A 
BRANCH  18  23
ATOM     23  C   UNL A   1      37.999  22.201  25.663  1.00  0.00    -0.070 C 
ATOM     24  C   UNL A   1      39.038  21.682  25.960  1.00  0.00     0.010 C 
ENDBRANCH  18  23
ENDBRANCH  15  17
ENDBRANCH  12  15
ENDBRANCH   7  12
ENDBRANCH   3   6
ENDBRANCH   1   2
BRANCH   1  25
ATOM     25  C   UNL A   1      31.525  32.080  26.934  1.00  0.00     0.042 C 
BRANCH  25  26
ATOM     26  C   UNL A   1      32.746  32.981  26.964  1.00  0.00     0.118 C 
BRANCH  26  27
ATOM     27  N   UNL A   1      32.492  34.148  27.798  1.00  0.00    -0.352 N 
ATOM     28  C   UNL A   1      33.147  34.600  28.910  1.00  0.00     0.251 C 
ATOM     29  H   UNL A   1      31.727  34.698  27.517  1.00  0.00     0.163 HD
ATOM     30  O   UNL A   1      32.628  35.482  29.588  1.00  0.00    -0.269 OA
BRANCH  28  31
ATOM     31  C   UNL A   1      34.449  34.028  29.307  1.00  0.00     0.039 A 
ATOM     32  C   UNL A   1      34.465  33.087  30.341  1.00  0.00     0.014 A 
ATOM     33  C   UNL A   1      35.647  34.429  28.711  1.00  0.00     0.014 A 
ATOM     34  C   UNL A   1      35.675  32.540  30.756  1.00  0.00     0.010 A 
ATOM     35  C   UNL A   1      36.839  33.800  29.049  1.00  0.00     0.010 A 
ATOM     36  C   UNL A   1      36.869  32.870  30.095  1.00  0.00    -0.014 A 
BRANCH  36  37
ATOM     37  C   UNL A   1      38.149  32.250  30.509  1.00  0.00     0.031 A 
ATOM     38  C   UNL A   1      38.957  32.842  31.629  1.00  0.00     0.074 A 
ATOM     39  C   UNL A   1      38.579  31.150  29.862  1.00  0.00     0.049 A 
ATOM     40  N   UNL A   1      40.073  32.408  32.158  1.00  0.00    -0.248 NA
ATOM     41  C   UNL A   1      38.467  34.098  32.219  1.00  0.00     0.031 C 
ATOM     42  C   UNL A   1      37.904  30.522  28.723  1.00  0.00     0.029 A 
ATOM     43  N   UNL A   1      39.674  30.356  30.078  1.00  0.00    -0.354 N 
ATOM     44  C   UNL A   1      40.414  33.334  33.137  1.00  0.00     0.074 A 
ATOM     45  C   UNL A   1      39.430  34.392  33.079  1.00  0.00     0.031 C 
ATOM     46  C   UNL A   1      38.570  29.412  28.376  1.00  0.00     0.029 A 
ATOM     47  C   UNL A   1      39.741  29.275  29.234  1.00  0.00     0.049 A 
ATOM     48  H   UNL A   1      40.348  30.543  30.771  1.00  0.00     0.167 HD
ATOM     49  C   UNL A   1      41.437  33.291  34.021  1.00  0.00     0.037 A 
ATOM     50  C   UNL A   1      40.647  28.283  29.162  1.00  0.00     0.037 A 
ATOM     51  C   UNL A   1      42.412  32.233  34.070  1.00  0.00     0.049 A 
ATOM     52  C   UNL A   1      41.784  28.271  30.145  1.00  0.00     0.074 A 
ATOM     53  C   UNL A   1      43.466  32.070  34.952  1.00  0.00     0.029 A 
ATOM     54  N   UNL A   1      42.458  31.160  33.189  1.00  0.00    -0.354 N 
ATOM     55  N   UNL A   1      42.054  29.114  31.115  1.00  0.00    -0.248 NA
ATOM     56  C   UNL A   1      42.736  27.160  30.032  1.00  0.00     0.031 C 
ATOM     57  C   UNL A   1      44.190  30.938  34.562  1.00  0.00     0.029 A 
ATOM     58  C   UNL A   1      43.540  30.348  33.489  1.00  0.00     0.049 A 
ATOM     59  H   UNL A   1      41.817  31.001  32.459  1.00  0.00     0.167 HD
ATOM     60  C   UNL A   1      43.185  28.616  31.747  1.00  0.00     0.074 A 
ATOM     61  C   UNL A   1      43.531  27.385  31.067  1.00  0.00     0.031 C 
ATOM     62  C   UNL A   1      43.876  29.128  32.797  1.00  0.00     0.037 A 
BRANCH  49  63
ATOM     63  C   UNL A   1      41.556  34.426  35.001  1.00  0.00     0.057 A 
ATOM     64  C   UNL A   1      42.298  35.582  34.717  1.00  0.00     0.134 A 
ATOM     65  C   UNL A   1      40.896  34.377  36.237  1.00  0.00     0.134 A 
ATOM     66  F   UNL A   1      42.968  35.694  33.559  1.00  0.00    -0.206 F 
ATOM     67  C   UNL A   1      42.405  36.629  35.634  1.00  0.00     0.040 A 
ATOM     68  C   UNL A   1      40.967  35.431  37.147  1.00  0.00     0.040 A 
ATOM     69  F   UNL A   1      40.164  33.305  36.575  1.00  0.00    -0.206 F 
ATOM     70  C   UNL A   1      41.730  36.559  36.851  1.00  0.00     0.006 A 
ENDBRANCH  49  63
BRANCH  50  71
ATOM     71  C   UNL A   1      40.504  27.213  28.143  1.00  0.00     0.057 A 
ATOM     72  C   UNL A   1      39.744  26.065  28.395  1.00  0.00     0.134 A 
ATOM     73  C   UNL A   1      41.137  27.304  26.897  1.00  0.00     0.134 A 
ATOM     74  F   UNL A   1      39.121  25.912  29.573  1.00  0.00    -0.206 F 
ATOM     75  C   UNL A   1      39.645  25.032  27.460  1.00  0.00     0.040 A 
ATOM     76  C   UNL A   1      41.019  26.295  25.941  1.00  0.00     0.040 A 
ATOM     77  F   UNL A   1      41.869  28.385  26.585  1.00  0.00    -0.206 F 
ATOM     78  C   UNL A   1      40.282  25.149  26.227  1.00  0.00     0.006 A 
ENDBRANCH  50  71
BRANCH  62  79
ATOM     79  C   UNL A   1      45.044  28.325  33.298  1.00  0.00     0.057 A 
ATOM     80  C   UNL A   1      44.904  27.319  34.265  1.00  0.00     0.134 A 
ATOM     81  C   UNL A   1      46.335  28.571  32.810  1.00  0.00     0.134 A 
ATOM     82  F   UNL A   1      43.698  27.035  34.782  1.00  0.00    -0.206 F 
ATOM     83  C   UNL A   1      46.008  26.633  34.770  1.00  0.00     0.040 A 
ATOM     84  C   UNL A   1      47.441  27.860  33.276  1.00  0.00     0.040 A 
ATOM     85  F   UNL A   1      46.542  29.506  31.871  1.00  0.00    -0.206 F 
ATOM     86  C   UNL A   1      47.282  26.901  34.273  1.00  0.00     0.006 A 
ENDBRANCH  62  79
ENDBRANCH  36  37
ENDBRANCH  28  31
ENDBRANCH  26  27
ENDBRANCH  25  26
ENDBRANCH   1  25
TORSDOF 14
ENDMDL
