MODEL 1
REMARK VINA RESULT:     -11.1      0.000      0.000
REMARK SMILES CCNC(=O)c1ccc(N(CC(=O)NCCCNC(=O)c2ccc(-c3c4nc(c(-c5c(F)cccc5F)c5ccc([nH]5)c(-c5c(F)cccc5F)c5nc(c(-c6c(F)cccc6F)c6ccc3[nH]6)C=C5)C=C4)cc2)C(C)(C)C)nn1
REMARK SMILES IDX 15 1 14 2 12 3 13 4 11 6 10 7 9 8 6 9 7 10 80 11 8 12 79 13
REMARK SMILES IDX 4 14 3 15 5 17 2 18 1 19 75 20 76 21 77 22 78 23 16 24 17 25
REMARK SMILES IDX 18 26 19 27 20 29 21 30 22 31 74 32 23 33 73 34 24 35 25 36
REMARK SMILES IDX 26 37 67 38 27 39 72 40 66 41 68 42 28 43 71 44 65 45 64 46
REMARK SMILES IDX 29 48 55 49 38 50 54 51 39 52 42 53 53 54 69 55 40 56 41 57
REMARK SMILES IDX 52 59 70 60 43 61 30 62 31 63 36 64 32 65 33 66 35 67 37 68
REMARK SMILES IDX 34 69 56 70 57 71 62 72 58 73 59 74 61 75 63 76 60 77 44 78
REMARK SMILES IDX 45 79 50 80 46 81 47 82 49 83 51 84 48 85
REMARK H PARENT 14 5 3 16 18 28 68 47 42 58
REMARK Flexibility Score: inf
ROOT
ATOM      1  C   UNL A   1      31.136  30.656  25.533  1.00  0.00     0.117 C 
ENDROOT
BRANCH   1   2
ATOM      2  N   UNL A   1      32.473  30.109  25.430  1.00  0.00    -0.354 N 
ATOM      3  C   UNL A   1      32.871  28.810  25.308  1.00  0.00     0.239 C 
ATOM      4  O   UNL A   1      34.064  28.615  25.055  1.00  0.00    -0.273 OA
ATOM      5  H   UNL A   1      33.201  30.772  25.451  1.00  0.00     0.163 HD
BRANCH   3   6
ATOM      6  C   UNL A   1      31.881  27.640  25.427  1.00  0.00     0.218 C 
BRANCH   6   7
ATOM      7  N   UNL A   1      31.460  27.037  24.124  1.00  0.00    -0.341 N 
BRANCH   7   8
ATOM      8  C   UNL A   1      30.590  27.839  23.378  1.00  0.00     0.152 A 
ATOM      9  C   UNL A   1      28.990  29.658  21.975  1.00  0.00     0.150 A 
ATOM     10  C   UNL A   1      28.388  28.690  22.746  1.00  0.00     0.040 A 
ATOM     11  N   UNL A   1      30.320  29.691  21.839  1.00  0.00    -0.143 NA
ATOM     12  C   UNL A   1      29.201  27.800  23.463  1.00  0.00     0.051 A 
ATOM     13  N   UNL A   1      31.096  28.766  22.533  1.00  0.00    -0.132 NA
BRANCH   9  14
ATOM     14  C   UNL A   1      28.215  30.717  21.289  1.00  0.00     0.271 C 
ATOM     15  N   UNL A   1      27.892  31.883  21.951  1.00  0.00    -0.351 N 
ATOM     16  H   UNL A   1      27.294  32.491  21.459  1.00  0.00     0.163 HD
ATOM     17  O   UNL A   1      27.847  30.566  20.125  1.00  0.00    -0.267 OA
BRANCH  15  18
ATOM     18  C   UNL A   1      28.303  32.348  23.264  1.00  0.00     0.113 C 
ATOM     19  C   UNL A   1      29.073  33.652  23.174  1.00  0.00     0.027 C 
ENDBRANCH  15  18
ENDBRANCH   9  14
ENDBRANCH   7   8
BRANCH   7  20
ATOM     20  C   UNL A   1      32.138  25.792  23.623  1.00  0.00     0.034 C 
ATOM     21  C   UNL A   1      33.047  25.198  24.721  1.00  0.00     0.034 C 
ATOM     22  C   UNL A   1      31.106  24.773  23.092  1.00  0.00     0.034 C 
ATOM     23  C   UNL A   1      33.088  26.033  22.421  1.00  0.00     0.034 C 
ENDBRANCH   7  20
ENDBRANCH   6   7
ENDBRANCH   3   6
ENDBRANCH   1   2
BRANCH   1  24
ATOM     24  C   UNL A   1      31.071  31.909  26.401  1.00  0.00     0.042 C 
BRANCH  24  25
ATOM     25  C   UNL A   1      32.433  32.423  26.861  1.00  0.00     0.118 C 
BRANCH  25  26
ATOM     26  N   UNL A   1      32.377  33.786  27.371  1.00  0.00    -0.352 N 
ATOM     27  C   UNL A   1      33.116  34.406  28.342  1.00  0.00     0.251 C 
ATOM     28  H   UNL A   1      31.692  34.353  26.948  1.00  0.00     0.163 HD
ATOM     29  O   UNL A   1      32.775  35.523  28.734  1.00  0.00    -0.269 OA
BRANCH  27  30
ATOM     30  C   UNL A   1      34.311  33.766  28.935  1.00  0.00     0.039 A 
ATOM     31  C   UNL A   1      34.121  32.712  29.836  1.00  0.00     0.014 A 
ATOM     32  C   UNL A   1      35.602  34.236  28.682  1.00  0.00     0.014 A 
ATOM     33  C   UNL A   1      35.220  32.107  30.451  1.00  0.00     0.010 A 
ATOM     34  C   UNL A   1      36.704  33.595  29.252  1.00  0.00     0.010 A 
ATOM     35  C   UNL A   1      36.523  32.532  30.151  1.00  0.00    -0.014 A 
BRANCH  35  36
ATOM     36  C   UNL A   1      37.698  31.885  30.786  1.00  0.00     0.031 A 
ATOM     37  C   UNL A   1      38.461  30.811  30.062  1.00  0.00     0.074 A 
ATOM     38  C   UNL A   1      38.056  32.234  32.037  1.00  0.00     0.049 A 
ATOM     39  N   UNL A   1      39.486  30.105  30.471  1.00  0.00    -0.248 NA
ATOM     40  C   UNL A   1      37.996  30.464  28.710  1.00  0.00     0.031 C 
ATOM     41  C   UNL A   1      37.371  33.228  32.866  1.00  0.00     0.029 A 
ATOM     42  N   UNL A   1      39.077  31.782  32.834  1.00  0.00    -0.354 N 
ATOM     43  C   UNL A   1      39.774  29.222  29.438  1.00  0.00     0.074 A 
ATOM     44  C   UNL A   1      38.792  29.452  28.400  1.00  0.00     0.031 C 
ATOM     45  C   UNL A   1      38.003  33.322  34.047  1.00  0.00     0.029 A 
ATOM     46  C   UNL A   1      39.117  32.380  34.069  1.00  0.00     0.049 A 
ATOM     47  H   UNL A   1      39.720  31.094  32.547  1.00  0.00     0.167 HD
ATOM     48  C   UNL A   1      40.777  28.314  29.353  1.00  0.00     0.037 A 
ATOM     49  C   UNL A   1      39.957  32.190  35.104  1.00  0.00     0.037 A 
ATOM     50  C   UNL A   1      41.778  28.110  30.369  1.00  0.00     0.049 A 
ATOM     51  C   UNL A   1      41.080  31.201  34.974  1.00  0.00     0.074 A 
ATOM     52  C   UNL A   1      42.875  27.266  30.341  1.00  0.00     0.029 A 
ATOM     53  N   UNL A   1      41.803  28.760  31.593  1.00  0.00    -0.354 N 
ATOM     54  N   UNL A   1      41.380  30.421  33.965  1.00  0.00    -0.248 NA
ATOM     55  C   UNL A   1      41.987  31.072  36.125  1.00  0.00     0.031 C 
ATOM     56  C   UNL A   1      43.546  27.381  31.564  1.00  0.00     0.029 A 
ATOM     57  C   UNL A   1      42.886  28.323  32.337  1.00  0.00     0.049 A 
ATOM     58  H   UNL A   1      41.147  29.431  31.890  1.00  0.00     0.167 HD
ATOM     59  C   UNL A   1      42.521  29.727  34.346  1.00  0.00     0.074 A 
ATOM     60  C   UNL A   1      42.866  30.187  35.675  1.00  0.00     0.031 C 
ATOM     61  C   UNL A   1      43.219  28.793  33.657  1.00  0.00     0.037 A 
BRANCH  48  62
ATOM     62  C   UNL A   1      40.842  27.472  28.113  1.00  0.00     0.057 A 
ATOM     63  C   UNL A   1      41.566  27.875  26.984  1.00  0.00     0.134 A 
ATOM     64  C   UNL A   1      40.200  26.228  28.059  1.00  0.00     0.134 A 
ATOM     65  F   UNL A   1      42.194  29.060  26.967  1.00  0.00    -0.206 F 
ATOM     66  C   UNL A   1      41.626  27.085  25.835  1.00  0.00     0.040 A 
ATOM     67  C   UNL A   1      40.272  25.418  26.925  1.00  0.00     0.040 A 
ATOM     68  F   UNL A   1      39.495  25.779  29.109  1.00  0.00    -0.206 F 
ATOM     69  C   UNL A   1      40.982  25.849  25.806  1.00  0.00     0.006 A 
ENDBRANCH  48  62
BRANCH  49  70
ATOM     70  C   UNL A   1      39.784  32.980  36.347  1.00  0.00     0.057 A 
ATOM     71  C   UNL A   1      38.890  32.570  37.343  1.00  0.00     0.134 A 
ATOM     72  C   UNL A   1      40.508  34.156  36.571  1.00  0.00     0.134 A 
ATOM     73  F   UNL A   1      38.158  31.460  37.176  1.00  0.00    -0.206 F 
ATOM     74  C   UNL A   1      38.712  33.311  38.513  1.00  0.00     0.040 A 
ATOM     75  C   UNL A   1      40.353  34.896  37.745  1.00  0.00     0.040 A 
ATOM     76  F   UNL A   1      41.387  34.596  35.658  1.00  0.00    -0.206 F 
ATOM     77  C   UNL A   1      39.449  34.475  38.718  1.00  0.00     0.006 A 
ENDBRANCH  49  70
BRANCH  61  78
ATOM     78  C   UNL A   1      44.439  28.225  34.318  1.00  0.00     0.057 A 
ATOM     79  C   UNL A   1      44.379  27.066  35.103  1.00  0.00     0.134 A 
ATOM     80  C   UNL A   1      45.692  28.826  34.141  1.00  0.00     0.134 A 
ATOM     81  F   UNL A   1      43.208  26.453  35.321  1.00  0.00    -0.206 F 
ATOM     82  C   UNL A   1      45.522  26.537  35.705  1.00  0.00     0.040 A 
ATOM     83  C   UNL A   1      46.844  28.294  34.720  1.00  0.00     0.040 A 
ATOM     84  F   UNL A   1      45.816  29.935  33.396  1.00  0.00    -0.206 F 
ATOM     85  C   UNL A   1      46.760  27.148  35.509  1.00  0.00     0.006 A 
ENDBRANCH  61  78
ENDBRANCH  35  36
ENDBRANCH  27  30
ENDBRANCH  25  26
ENDBRANCH  24  25
ENDBRANCH   1  24
TORSDOF 15
ENDMDL
MODEL 2
REMARK VINA RESULT:     -11.1      0.331      6.267
REMARK SMILES CCNC(=O)c1ccc(N(CC(=O)NCCCNC(=O)c2ccc(-c3c4nc(c(-c5c(F)cccc5F)c5ccc([nH]5)c(-c5c(F)cccc5F)c5nc(c(-c6c(F)cccc6F)c6ccc3[nH]6)C=C5)C=C4)cc2)C(C)(C)C)nn1
REMARK SMILES IDX 15 1 14 2 12 3 13 4 11 6 10 7 9 8 6 9 7 10 80 11 8 12 79 13
REMARK SMILES IDX 4 14 3 15 5 17 2 18 1 19 75 20 76 21 77 22 78 23 16 24 17 25
REMARK SMILES IDX 18 26 19 27 20 29 21 30 22 31 74 32 23 33 73 34 24 35 25 36
REMARK SMILES IDX 26 37 67 38 27 39 72 40 66 41 68 42 28 43 71 44 65 45 64 46
REMARK SMILES IDX 29 48 55 49 38 50 54 51 39 52 42 53 53 54 69 55 40 56 41 57
REMARK SMILES IDX 52 59 70 60 43 61 30 62 31 63 36 64 32 65 33 66 35 67 37 68
REMARK SMILES IDX 34 69 56 70 57 71 62 72 58 73 59 74 61 75 63 76 60 77 44 78
REMARK SMILES IDX 45 79 50 80 46 81 47 82 49 83 51 84 48 85
REMARK H PARENT 14 5 3 16 18 28 68 47 42 58
REMARK Flexibility Score: inf
ROOT
ATOM      1  C   UNL A   1      31.128  30.704  25.611  1.00  0.00     0.117 C 
ENDROOT
BRANCH   1   2
ATOM      2  N   UNL A   1      32.453  30.129  25.512  1.00  0.00    -0.354 N 
ATOM      3  C   UNL A   1      32.822  28.827  25.343  1.00  0.00     0.239 C 
ATOM      4  O   UNL A   1      34.015  28.612  25.105  1.00  0.00    -0.273 OA
ATOM      5  H   UNL A   1      33.197  30.771  25.575  1.00  0.00     0.163 HD
BRANCH   3   6
ATOM      6  C   UNL A   1      31.801  27.678  25.393  1.00  0.00     0.218 C 
BRANCH   6   7
ATOM      7  N   UNL A   1      31.432  27.106  24.061  1.00  0.00    -0.341 N 
BRANCH   7   8
ATOM      8  C   UNL A   1      30.522  27.886  23.337  1.00  0.00     0.152 A 
ATOM      9  C   UNL A   1      28.850  29.662  21.965  1.00  0.00     0.150 A 
ATOM     10  C   UNL A   1      28.290  28.720  22.798  1.00  0.00     0.040 A 
ATOM     11  N   UNL A   1      30.171  29.688  21.756  1.00  0.00    -0.143 NA
ATOM     12  C   UNL A   1      29.141  27.852  23.498  1.00  0.00     0.051 A 
ATOM     13  N   UNL A   1      30.983  28.783  22.437  1.00  0.00    -0.132 NA
BRANCH   9  14
ATOM     14  C   UNL A   1      28.040  30.700  21.287  1.00  0.00     0.271 C 
ATOM     15  N   UNL A   1      27.704  31.862  21.949  1.00  0.00    -0.351 N 
ATOM     16  H   UNL A   1      27.083  32.454  21.466  1.00  0.00     0.163 HD
ATOM     17  O   UNL A   1      27.654  30.534  20.131  1.00  0.00    -0.267 OA
BRANCH  15  18
ATOM     18  C   UNL A   1      28.128  32.343  23.253  1.00  0.00     0.113 C 
ATOM     19  C   UNL A   1      29.153  33.454  23.126  1.00  0.00     0.027 C 
ENDBRANCH  15  18
ENDBRANCH   9  14
ENDBRANCH   7   8
BRANCH   7  20
ATOM     20  C   UNL A   1      32.189  25.926  23.518  1.00  0.00     0.034 C 
ATOM     21  C   UNL A   1      32.962  25.217  24.651  1.00  0.00     0.034 C 
ATOM     22  C   UNL A   1      31.249  24.969  22.752  1.00  0.00     0.034 C 
ATOM     23  C   UNL A   1      33.278  26.301  22.480  1.00  0.00     0.034 C 
ENDBRANCH   7  20
ENDBRANCH   6   7
ENDBRANCH   3   6
ENDBRANCH   1   2
BRANCH   1  24
ATOM     24  C   UNL A   1      31.113  32.038  26.351  1.00  0.00     0.042 C 
BRANCH  24  25
ATOM     25  C   UNL A   1      32.478  32.479  26.876  1.00  0.00     0.118 C 
BRANCH  25  26
ATOM     26  N   UNL A   1      32.462  33.829  27.419  1.00  0.00    -0.352 N 
ATOM     27  C   UNL A   1      33.223  34.405  28.401  1.00  0.00     0.251 C 
ATOM     28  H   UNL A   1      31.792  34.426  27.014  1.00  0.00     0.163 HD
ATOM     29  O   UNL A   1      32.915  35.520  28.822  1.00  0.00    -0.269 OA
BRANCH  27  30
ATOM     30  C   UNL A   1      34.402  33.716  28.973  1.00  0.00     0.039 A 
ATOM     31  C   UNL A   1      34.186  32.626  29.822  1.00  0.00     0.014 A 
ATOM     32  C   UNL A   1      35.703  34.174  28.750  1.00  0.00     0.014 A 
ATOM     33  C   UNL A   1      35.269  31.974  30.416  1.00  0.00     0.010 A 
ATOM     34  C   UNL A   1      36.789  33.488  29.297  1.00  0.00     0.010 A 
ATOM     35  C   UNL A   1      36.582  32.389  30.145  1.00  0.00    -0.014 A 
BRANCH  35  36
ATOM     36  C   UNL A   1      37.741  31.692  30.758  1.00  0.00     0.031 A 
ATOM     37  C   UNL A   1      38.192  32.042  32.149  1.00  0.00     0.074 A 
ATOM     38  C   UNL A   1      38.419  30.772  30.045  1.00  0.00     0.049 A 
ATOM     39  N   UNL A   1      39.206  31.572  32.833  1.00  0.00    -0.248 NA
ATOM     40  C   UNL A   1      37.420  33.076  32.856  1.00  0.00     0.031 C 
ATOM     41  C   UNL A   1      38.113  30.375  28.669  1.00  0.00     0.029 A 
ATOM     42  N   UNL A   1      39.513  30.013  30.376  1.00  0.00    -0.354 N 
ATOM     43  C   UNL A   1      39.203  32.263  34.038  1.00  0.00     0.074 A 
ATOM     44  C   UNL A   1      38.112  33.213  33.976  1.00  0.00     0.031 C 
ATOM     45  C   UNL A   1      38.988  29.434  28.281  1.00  0.00     0.029 A 
ATOM     46  C   UNL A   1      39.929  29.179  29.367  1.00  0.00     0.049 A 
ATOM     47  H   UNL A   1      39.956  30.060  31.253  1.00  0.00     0.167 HD
ATOM     48  C   UNL A   1      40.021  32.109  35.106  1.00  0.00     0.037 A 
ATOM     49  C   UNL A   1      40.956  28.309  29.322  1.00  0.00     0.037 A 
ATOM     50  C   UNL A   1      41.082  31.137  35.184  1.00  0.00     0.049 A 
ATOM     51  C   UNL A   1      41.830  28.132  30.530  1.00  0.00     0.074 A 
ATOM     52  C   UNL A   1      41.918  30.856  36.252  1.00  0.00     0.029 A 
ATOM     53  N   UNL A   1      41.451  30.289  34.153  1.00  0.00    -0.354 N 
ATOM     54  N   UNL A   1      41.773  28.745  31.687  1.00  0.00    -0.248 NA
ATOM     55  C   UNL A   1      42.906  27.135  30.430  1.00  0.00     0.031 C 
ATOM     56  C   UNL A   1      42.815  29.858  35.854  1.00  0.00     0.029 A 
ATOM     57  C   UNL A   1      42.514  29.495  34.552  1.00  0.00     0.049 A 
ATOM     58  H   UNL A   1      41.024  30.256  33.268  1.00  0.00     0.167 HD
ATOM     59  C   UNL A   1      42.786  28.195  32.460  1.00  0.00     0.074 A 
ATOM     60  C   UNL A   1      43.436  27.189  31.645  1.00  0.00     0.031 C 
ATOM     61  C   UNL A   1      43.147  28.496  33.731  1.00  0.00     0.037 A 
BRANCH  48  62
ATOM     62  C   UNL A   1      39.799  33.012  36.283  1.00  0.00     0.057 A 
ATOM     63  C   UNL A   1      40.499  34.216  36.433  1.00  0.00     0.134 A 
ATOM     64  C   UNL A   1      38.851  32.690  37.262  1.00  0.00     0.134 A 
ATOM     65  F   UNL A   1      41.429  34.577  35.536  1.00  0.00    -0.206 F 
ATOM     66  C   UNL A   1      40.284  35.054  37.528  1.00  0.00     0.040 A 
ATOM     67  C   UNL A   1      38.610  33.531  38.350  1.00  0.00     0.040 A 
ATOM     68  F   UNL A   1      38.141  31.555  37.176  1.00  0.00    -0.206 F 
ATOM     69  C   UNL A   1      39.332  34.714  38.488  1.00  0.00     0.006 A 
ENDBRANCH  48  62
BRANCH  49  70
ATOM     70  C   UNL A   1      41.192  27.513  28.093  1.00  0.00     0.057 A 
ATOM     71  C   UNL A   1      42.013  27.996  27.068  1.00  0.00     0.134 A 
ATOM     72  C   UNL A   1      40.609  26.253  27.916  1.00  0.00     0.134 A 
ATOM     73  F   UNL A   1      42.585  29.204  27.175  1.00  0.00    -0.206 F 
ATOM     74  C   UNL A   1      42.235  27.260  25.903  1.00  0.00     0.040 A 
ATOM     75  C   UNL A   1      40.838  25.498  26.765  1.00  0.00     0.040 A 
ATOM     76  F   UNL A   1      39.820  25.731  28.868  1.00  0.00    -0.206 F 
ATOM     77  C   UNL A   1      41.650  26.005  25.752  1.00  0.00     0.006 A 
ENDBRANCH  49  70
BRANCH  61  78
ATOM     78  C   UNL A   1      44.279  27.711  34.324  1.00  0.00     0.057 A 
ATOM     79  C   UNL A   1      45.601  28.168  34.267  1.00  0.00     0.134 A 
ATOM     80  C   UNL A   1      44.037  26.502  34.989  1.00  0.00     0.134 A 
ATOM     81  F   UNL A   1      45.899  29.311  33.633  1.00  0.00    -0.206 F 
ATOM     82  C   UNL A   1      46.647  27.438  34.834  1.00  0.00     0.040 A 
ATOM     83  C   UNL A   1      45.072  25.774  35.577  1.00  0.00     0.040 A 
ATOM     84  F   UNL A   1      42.791  26.014  35.084  1.00  0.00    -0.206 F 
ATOM     85  C   UNL A   1      46.383  26.240  35.496  1.00  0.00     0.006 A 
ENDBRANCH  61  78
ENDBRANCH  35  36
ENDBRANCH  27  30
ENDBRANCH  25  26
ENDBRANCH  24  25
ENDBRANCH   1  24
TORSDOF 15
ENDMDL
MODEL 3
REMARK VINA RESULT:     -10.9      5.341      9.862
REMARK SMILES CCNC(=O)c1ccc(N(CC(=O)NCCCNC(=O)c2ccc(-c3c4nc(c(-c5c(F)cccc5F)c5ccc([nH]5)c(-c5c(F)cccc5F)c5nc(c(-c6c(F)cccc6F)c6ccc3[nH]6)C=C5)C=C4)cc2)C(C)(C)C)nn1
REMARK SMILES IDX 15 1 14 2 12 3 13 4 11 6 10 7 9 8 6 9 7 10 80 11 8 12 79 13
REMARK SMILES IDX 4 14 3 15 5 17 2 18 1 19 75 20 76 21 77 22 78 23 16 24 17 25
REMARK SMILES IDX 18 26 19 27 20 29 21 30 22 31 74 32 23 33 73 34 24 35 25 36
REMARK SMILES IDX 26 37 67 38 27 39 72 40 66 41 68 42 28 43 71 44 65 45 64 46
REMARK SMILES IDX 29 48 55 49 38 50 54 51 39 52 42 53 53 54 69 55 40 56 41 57
REMARK SMILES IDX 52 59 70 60 43 61 30 62 31 63 36 64 32 65 33 66 35 67 37 68
REMARK SMILES IDX 34 69 56 70 57 71 62 72 58 73 59 74 61 75 63 76 60 77 44 78
REMARK SMILES IDX 45 79 50 80 46 81 47 82 49 83 51 84 48 85
REMARK H PARENT 14 5 3 16 18 28 68 47 42 58
REMARK Flexibility Score: inf
ROOT
ATOM      1  C   UNL A   1      37.777  21.461  25.129  1.00  0.00     0.117 C 
ENDROOT
BRANCH   1   2
ATOM      2  N   UNL A   1      37.087  21.939  23.949  1.00  0.00    -0.354 N 
ATOM      3  C   UNL A   1      35.961  22.702  23.853  1.00  0.00     0.239 C 
ATOM      4  O   UNL A   1      35.672  23.130  22.731  1.00  0.00    -0.273 OA
ATOM      5  H   UNL A   1      37.489  21.673  23.090  1.00  0.00     0.163 HD
BRANCH   3   6
ATOM      6  C   UNL A   1      35.113  23.062  25.084  1.00  0.00     0.218 C 
BRANCH   6   7
ATOM      7  N   UNL A   1      33.688  22.613  25.021  1.00  0.00    -0.341 N 
BRANCH   7   8
ATOM      8  C   UNL A   1      33.530  21.264  24.679  1.00  0.00     0.152 A 
ATOM      9  C   UNL A   1      33.473  18.571  23.919  1.00  0.00     0.150 A 
ATOM     10  C   UNL A   1      32.476  19.414  23.481  1.00  0.00     0.040 A 
ATOM     11  N   UNL A   1      34.421  19.012  24.753  1.00  0.00    -0.143 NA
ATOM     12  C   UNL A   1      32.530  20.765  23.850  1.00  0.00     0.051 A 
ATOM     13  N   UNL A   1      34.420  20.352  25.132  1.00  0.00    -0.132 NA
BRANCH   9  14
ATOM     14  C   UNL A   1      33.568  17.161  23.475  1.00  0.00     0.271 C 
ATOM     15  N   UNL A   1      33.064  16.148  24.262  1.00  0.00    -0.351 N 
ATOM     16  H   UNL A   1      33.255  15.237  23.943  1.00  0.00     0.163 HD
ATOM     17  O   UNL A   1      34.103  16.880  22.403  1.00  0.00    -0.267 OA
BRANCH  15  18
ATOM     18  C   UNL A   1      32.294  16.225  25.492  1.00  0.00     0.113 C 
ATOM     19  C   UNL A   1      32.305  14.902  26.235  1.00  0.00     0.027 C 
ENDBRANCH  15  18
ENDBRANCH   9  14
ENDBRANCH   7   8
BRANCH   7  20
ATOM     20  C   UNL A   1      32.596  23.515  25.523  1.00  0.00     0.034 C 
ATOM     21  C   UNL A   1      31.622  23.867  24.378  1.00  0.00     0.034 C 
ATOM     22  C   UNL A   1      31.879  22.893  26.742  1.00  0.00     0.034 C 
ATOM     23  C   UNL A   1      33.101  24.887  26.040  1.00  0.00     0.034 C 
ENDBRANCH   7  20
ENDBRANCH   6   7
ENDBRANCH   3   6
ENDBRANCH   1   2
BRANCH   1  24
ATOM     24  C   UNL A   1      38.455  20.111  24.917  1.00  0.00     0.042 C 
BRANCH  24  25
ATOM     25  C   UNL A   1      39.183  19.576  26.149  1.00  0.00     0.118 C 
BRANCH  25  26
ATOM     26  N   UNL A   1      40.486  19.011  25.830  1.00  0.00    -0.352 N 
ATOM     27  C   UNL A   1      41.734  19.574  25.863  1.00  0.00     0.251 C 
ATOM     28  H   UNL A   1      40.466  18.070  25.541  1.00  0.00     0.163 HD
ATOM     29  O   UNL A   1      42.684  18.956  25.380  1.00  0.00    -0.269 OA
BRANCH  27  30
ATOM     30  C   UNL A   1      41.968  20.908  26.459  1.00  0.00     0.039 A 
ATOM     31  C   UNL A   1      42.336  21.959  25.612  1.00  0.00     0.014 A 
ATOM     32  C   UNL A   1      41.910  21.120  27.839  1.00  0.00     0.014 A 
ATOM     33  C   UNL A   1      42.607  23.224  26.138  1.00  0.00     0.010 A 
ATOM     34  C   UNL A   1      42.125  22.397  28.361  1.00  0.00     0.010 A 
ATOM     35  C   UNL A   1      42.487  23.459  27.517  1.00  0.00    -0.014 A 
BRANCH  35  36
ATOM     36  C   UNL A   1      42.756  24.803  28.085  1.00  0.00     0.031 A 
ATOM     37  C   UNL A   1      44.142  25.177  28.533  1.00  0.00     0.074 A 
ATOM     38  C   UNL A   1      41.742  25.677  28.240  1.00  0.00     0.049 A 
ATOM     39  N   UNL A   1      44.560  26.287  29.090  1.00  0.00    -0.248 NA
ATOM     40  C   UNL A   1      45.192  24.162  28.358  1.00  0.00     0.031 C 
ATOM     41  C   UNL A   1      40.345  25.420  27.888  1.00  0.00     0.029 A 
ATOM     42  N   UNL A   1      41.731  26.953  28.743  1.00  0.00    -0.354 N 
ATOM     43  C   UNL A   1      45.911  26.096  29.347  1.00  0.00     0.074 A 
ATOM     44  C   UNL A   1      46.235  24.751  28.923  1.00  0.00     0.031 C 
ATOM     45  C   UNL A   1      39.615  26.512  28.171  1.00  0.00     0.029 A 
ATOM     46  C   UNL A   1      40.486  27.532  28.746  1.00  0.00     0.049 A 
ATOM     47  H   UNL A   1      42.539  27.410  29.070  1.00  0.00     0.167 HD
ATOM     48  C   UNL A   1      46.806  26.968  29.871  1.00  0.00     0.037 A 
ATOM     49  C   UNL A   1      40.091  28.749  29.166  1.00  0.00     0.037 A 
ATOM     50  C   UNL A   1      46.494  28.320  30.257  1.00  0.00     0.049 A 
ATOM     51  C   UNL A   1      41.107  29.710  29.714  1.00  0.00     0.074 A 
ATOM     52  C   UNL A   1      47.349  29.301  30.730  1.00  0.00     0.029 A 
ATOM     53  N   UNL A   1      45.227  28.880  30.214  1.00  0.00    -0.354 N 
ATOM     54  N   UNL A   1      42.394  29.538  29.888  1.00  0.00    -0.248 NA
ATOM     55  C   UNL A   1      40.617  31.036  30.115  1.00  0.00     0.031 C 
ATOM     56  C   UNL A   1      46.592  30.446  31.003  1.00  0.00     0.029 A 
ATOM     57  C   UNL A   1      45.274  30.188  30.668  1.00  0.00     0.049 A 
ATOM     58  H   UNL A   1      44.415  28.417  29.908  1.00  0.00     0.167 HD
ATOM     59  C   UNL A   1      42.873  30.739  30.396  1.00  0.00     0.074 A 
ATOM     60  C   UNL A   1      41.739  31.635  30.490  1.00  0.00     0.031 C 
ATOM     61  C   UNL A   1      44.137  31.069  30.752  1.00  0.00     0.037 A 
BRANCH  48  62
ATOM     62  C   UNL A   1      48.215  26.485  30.055  1.00  0.00     0.057 A 
ATOM     63  C   UNL A   1      48.621  25.822  31.220  1.00  0.00     0.134 A 
ATOM     64  C   UNL A   1      49.167  26.656  29.042  1.00  0.00     0.134 A 
ATOM     65  F   UNL A   1      47.761  25.636  32.232  1.00  0.00    -0.206 F 
ATOM     66  C   UNL A   1      49.933  25.371  31.383  1.00  0.00     0.040 A 
ATOM     67  C   UNL A   1      50.475  26.189  29.184  1.00  0.00     0.040 A 
ATOM     68  F   UNL A   1      48.841  27.277  27.899  1.00  0.00    -0.206 F 
ATOM     69  C   UNL A   1      50.862  25.549  30.360  1.00  0.00     0.006 A 
ENDBRANCH  48  62
BRANCH  49  70
ATOM     70  C   UNL A   1      38.664  29.138  29.054  1.00  0.00     0.057 A 
ATOM     71  C   UNL A   1      38.136  29.600  27.842  1.00  0.00     0.134 A 
ATOM     72  C   UNL A   1      37.796  29.054  30.147  1.00  0.00     0.134 A 
ATOM     73  F   UNL A   1      38.925  29.717  26.764  1.00  0.00    -0.206 F 
ATOM     74  C   UNL A   1      36.798  29.979  27.726  1.00  0.00     0.040 A 
ATOM     75  C   UNL A   1      36.451  29.411  30.041  1.00  0.00     0.040 A 
ATOM     76  F   UNL A   1      38.240  28.610  31.333  1.00  0.00    -0.206 F 
ATOM     77  C   UNL A   1      35.950  29.880  28.827  1.00  0.00     0.006 A 
ENDBRANCH  49  70
BRANCH  61  78
ATOM     78  C   UNL A   1      44.365  32.464  31.252  1.00  0.00     0.057 A 
ATOM     79  C   UNL A   1      44.303  32.776  32.616  1.00  0.00     0.134 A 
ATOM     80  C   UNL A   1      44.681  33.499  30.363  1.00  0.00     0.134 A 
ATOM     81  F   UNL A   1      43.991  31.833  33.516  1.00  0.00    -0.206 F 
ATOM     82  C   UNL A   1      44.529  34.075  33.075  1.00  0.00     0.040 A 
ATOM     83  C   UNL A   1      44.930  34.796  30.812  1.00  0.00     0.040 A 
ATOM     84  F   UNL A   1      44.762  33.262  29.044  1.00  0.00    -0.206 F 
ATOM     85  C   UNL A   1      44.849  35.088  32.172  1.00  0.00     0.006 A 
ENDBRANCH  61  78
ENDBRANCH  35  36
ENDBRANCH  27  30
ENDBRANCH  25  26
ENDBRANCH  24  25
ENDBRANCH   1  24
TORSDOF 15
ENDMDL
