MODEL 1
REMARK VINA RESULT:     -11.8      0.000      0.000
REMARK SMILES O=C(NCCCNC(=O)[C@H]1CC[C@H](CNC(=O)c2ccccc2O)O1)c1ccc(-c2c3nc(c(-c4c(F)cccc4F)c4ccc([nH]4)c(-c4c(F)cccc4F)c4nc(c(-c5c(F)cccc5F)c5ccc2[nH]5)C=C4)C=C3)cc1
REMARK SMILES IDX 6 1 5 2 4 3 3 4 1 5 2 6 26 8 27 9 79 10 28 11 78 12 29 13
REMARK SMILES IDX 30 14 31 15 72 16 32 17 77 18 71 19 73 20 33 21 76 22 70 23
REMARK SMILES IDX 69 24 34 26 60 27 43 28 59 29 44 30 47 31 58 32 74 33 45 34
REMARK SMILES IDX 46 35 57 37 75 38 48 39 35 40 36 41 41 42 37 43 38 44 40 45
REMARK SMILES IDX 42 46 39 47 61 48 62 49 67 50 63 51 64 52 66 53 68 54 65 55
REMARK SMILES IDX 49 56 50 57 55 58 51 59 52 60 54 61 56 62 53 63 7 64 8 65
REMARK SMILES IDX 9 67 10 68 11 69 25 70 12 71 13 72 14 73 15 74 16 75 17 77
REMARK SMILES IDX 18 78 19 79 23 80 20 81 22 82 21 83 24 84
REMARK H PARENT 3 7 73 25 47 36 7 66 15 76 24 85
REMARK Flexibility Score: inf
ROOT
ATOM      1  C   UNL A   1      31.589  30.913  26.124  1.00  0.00     0.117 C 
ENDROOT
BRANCH   1   2
ATOM      2  C   UNL A   1      31.399  32.359  26.567  1.00  0.00     0.042 C 
BRANCH   2   3
ATOM      3  C   UNL A   1      32.641  32.969  27.202  1.00  0.00     0.118 C 
BRANCH   3   4
ATOM      4  N   UNL A   1      32.409  34.320  27.698  1.00  0.00    -0.352 N 
ATOM      5  O   UNL A   1      32.522  36.049  29.137  1.00  0.00    -0.269 OA
ATOM      6  C   UNL A   1      32.989  34.977  28.751  1.00  0.00     0.251 C 
ATOM      7  H   UNL A   1      31.732  34.838  27.204  1.00  0.00     0.163 HD
BRANCH   6   8
ATOM      8  C   UNL A   1      34.172  34.404  29.427  1.00  0.00     0.039 A 
ATOM      9  C   UNL A   1      34.024  33.633  30.581  1.00  0.00     0.014 A 
ATOM     10  C   UNL A   1      35.438  34.594  28.865  1.00  0.00     0.014 A 
ATOM     11  C   UNL A   1      35.147  33.143  31.237  1.00  0.00     0.010 A 
ATOM     12  C   UNL A   1      36.559  34.027  29.477  1.00  0.00     0.010 A 
ATOM     13  C   UNL A   1      36.421  33.301  30.670  1.00  0.00    -0.014 A 
BRANCH  13  14
ATOM     14  C   UNL A   1      37.570  32.576  31.264  1.00  0.00     0.031 A 
ATOM     15  C   UNL A   1      38.223  31.425  30.557  1.00  0.00     0.074 A 
ATOM     16  C   UNL A   1      38.009  32.975  32.475  1.00  0.00     0.049 A 
ATOM     17  N   UNL A   1      39.214  30.673  30.962  1.00  0.00    -0.248 NA
ATOM     18  C   UNL A   1      37.696  31.063  29.233  1.00  0.00     0.031 C 
ATOM     19  C   UNL A   1      37.432  34.073  33.260  1.00  0.00     0.029 A 
ATOM     20  N   UNL A   1      39.033  32.513  33.259  1.00  0.00    -0.354 N 
ATOM     21  C   UNL A   1      39.420  29.739  29.956  1.00  0.00     0.074 A 
ATOM     22  C   UNL A   1      38.442  30.009  28.924  1.00  0.00     0.031 C 
ATOM     23  C   UNL A   1      38.122  34.210  34.400  1.00  0.00     0.029 A 
ATOM     24  C   UNL A   1      39.140  33.170  34.462  1.00  0.00     0.049 A 
ATOM     25  H   UNL A   1      39.632  31.780  32.989  1.00  0.00     0.167 HD
ATOM     26  C   UNL A   1      40.345  28.751  29.907  1.00  0.00     0.037 A 
ATOM     27  C   UNL A   1      39.941  32.938  35.517  1.00  0.00     0.037 A 
ATOM     28  C   UNL A   1      41.325  28.507  30.935  1.00  0.00     0.049 A 
ATOM     29  C   UNL A   1      40.925  31.807  35.443  1.00  0.00     0.074 A 
ATOM     30  C   UNL A   1      42.355  27.582  30.937  1.00  0.00     0.029 A 
ATOM     31  N   UNL A   1      41.388  29.178  32.147  1.00  0.00    -0.354 N 
ATOM     32  N   UNL A   1      41.162  30.984  34.450  1.00  0.00    -0.248 NA
ATOM     33  C   UNL A   1      41.745  31.563  36.637  1.00  0.00     0.031 C 
ATOM     34  C   UNL A   1      42.998  27.645  32.176  1.00  0.00     0.029 A 
ATOM     35  C   UNL A   1      42.407  28.650  32.925  1.00  0.00     0.049 A 
ATOM     36  H   UNL A   1      40.798  29.919  32.415  1.00  0.00     0.167 HD
ATOM     37  C   UNL A   1      42.164  30.133  34.895  1.00  0.00     0.074 A 
ATOM     38  C   UNL A   1      42.512  30.560  36.234  1.00  0.00     0.031 C 
ATOM     39  C   UNL A   1      42.737  29.085  34.257  1.00  0.00     0.037 A 
BRANCH  26  40
ATOM     40  C   UNL A   1      40.346  27.832  28.720  1.00  0.00     0.057 A 
ATOM     41  C   UNL A   1      41.117  28.091  27.581  1.00  0.00     0.134 A 
ATOM     42  C   UNL A   1      39.653  26.616  28.769  1.00  0.00     0.134 A 
ATOM     43  F   UNL A   1      41.800  29.241  27.468  1.00  0.00    -0.206 F 
ATOM     44  C   UNL A   1      41.199  27.172  26.532  1.00  0.00     0.040 A 
ATOM     45  C   UNL A   1      39.744  25.680  27.737  1.00  0.00     0.040 A 
ATOM     46  F   UNL A   1      38.903  26.301  29.836  1.00  0.00    -0.206 F 
ATOM     47  C   UNL A   1      40.520  25.956  26.614  1.00  0.00     0.006 A 
ENDBRANCH  26  40
BRANCH  27  48
ATOM     48  C   UNL A   1      39.808  33.753  36.751  1.00  0.00     0.057 A 
ATOM     49  C   UNL A   1      38.952  33.371  37.788  1.00  0.00     0.134 A 
ATOM     50  C   UNL A   1      40.516  34.952  36.908  1.00  0.00     0.134 A 
ATOM     51  F   UNL A   1      38.234  32.242  37.691  1.00  0.00    -0.206 F 
ATOM     52  C   UNL A   1      38.779  34.166  38.923  1.00  0.00     0.040 A 
ATOM     53  C   UNL A   1      40.380  35.739  38.051  1.00  0.00     0.040 A 
ATOM     54  F   UNL A   1      41.360  35.371  35.953  1.00  0.00    -0.206 F 
ATOM     55  C   UNL A   1      39.498  35.352  39.058  1.00  0.00     0.006 A 
ENDBRANCH  27  48
BRANCH  39  56
ATOM     56  C   UNL A   1      43.804  28.336  34.999  1.00  0.00     0.057 A 
ATOM     57  C   UNL A   1      43.506  27.205  35.770  1.00  0.00     0.134 A 
ATOM     58  C   UNL A   1      45.146  28.727  34.913  1.00  0.00     0.134 A 
ATOM     59  F   UNL A   1      42.237  26.791  35.906  1.00  0.00    -0.206 F 
ATOM     60  C   UNL A   1      44.502  26.501  36.446  1.00  0.00     0.040 A 
ATOM     61  C   UNL A   1      46.154  28.013  35.560  1.00  0.00     0.040 A 
ATOM     62  F   UNL A   1      45.500  29.797  34.185  1.00  0.00    -0.206 F 
ATOM     63  C   UNL A   1      45.833  26.900  36.334  1.00  0.00     0.006 A 
ENDBRANCH  39  56
ENDBRANCH  13  14
ENDBRANCH   6   8
ENDBRANCH   3   4
ENDBRANCH   2   3
ENDBRANCH   1   2
BRANCH   1  64
ATOM     64  N   UNL A   1      32.910  30.406  26.458  1.00  0.00    -0.354 N 
ATOM     65  C   UNL A   1      33.412  29.151  26.232  1.00  0.00     0.249 C 
ATOM     66  H   UNL A   1      33.518  31.041  26.899  1.00  0.00     0.163 HD
ATOM     67  O   UNL A   1      34.548  28.891  26.628  1.00  0.00    -0.272 OA
BRANCH  65  68
ATOM     68  C   UNL A   1      32.539  28.151  25.456  1.00  0.00     0.207 C 
ATOM     69  C   UNL A   1      33.301  26.965  24.894  1.00  0.00     0.045 C 
ATOM     70  O   UNL A   1      31.529  27.625  26.333  1.00  0.00    -0.363 OA
ATOM     71  C   UNL A   1      33.116  25.910  25.957  1.00  0.00     0.037 C 
ATOM     72  C   UNL A   1      31.728  26.207  26.495  1.00  0.00     0.138 C 
BRANCH  72  73
ATOM     73  C   UNL A   1      30.589  25.504  25.744  1.00  0.00     0.148 C 
BRANCH  73  74
ATOM     74  N   UNL A   1      29.892  24.509  26.538  1.00  0.00    -0.349 N 
ATOM     75  C   UNL A   1      30.251  23.210  26.798  1.00  0.00     0.255 C 
ATOM     76  H   UNL A   1      29.048  24.807  26.948  1.00  0.00     0.163 HD
ATOM     77  O   UNL A   1      29.494  22.489  27.446  1.00  0.00    -0.269 OA
BRANCH  75  78
ATOM     78  C   UNL A   1      31.491  22.635  26.231  1.00  0.00     0.081 A 
ATOM     79  C   UNL A   1      31.538  22.482  24.838  1.00  0.00     0.018 A 
ATOM     80  C   UNL A   1      32.578  22.218  27.008  1.00  0.00     0.128 A 
ATOM     81  C   UNL A   1      32.684  21.974  24.226  1.00  0.00     0.001 A 
ATOM     82  C   UNL A   1      33.730  21.722  26.394  1.00  0.00     0.047 A 
ATOM     83  C   UNL A   1      33.783  21.607  25.003  1.00  0.00     0.004 A 
BRANCH  80  84
ATOM     84  O   UNL A   1      32.528  22.294  28.373  1.00  0.00    -0.507 OA
ATOM     85  H   UNL A   1      33.296  22.117  28.880  1.00  0.00     0.293 HD
ENDBRANCH  80  84
ENDBRANCH  75  78
ENDBRANCH  73  74
ENDBRANCH  72  73
ENDBRANCH  65  68
ENDBRANCH   1  64
TORSDOF 14
ENDMDL
MODEL 2
REMARK VINA RESULT:     -11.8      4.754      9.780
REMARK SMILES O=C(NCCCNC(=O)[C@H]1CC[C@H](CNC(=O)c2ccccc2O)O1)c1ccc(-c2c3nc(c(-c4c(F)cccc4F)c4ccc([nH]4)c(-c4c(F)cccc4F)c4nc(c(-c5c(F)cccc5F)c5ccc2[nH]5)C=C4)C=C3)cc1
REMARK SMILES IDX 6 1 5 2 4 3 3 4 1 5 2 6 26 8 27 9 79 10 28 11 78 12 29 13
REMARK SMILES IDX 30 14 31 15 72 16 32 17 77 18 71 19 73 20 33 21 76 22 70 23
REMARK SMILES IDX 69 24 34 26 60 27 43 28 59 29 44 30 47 31 58 32 74 33 45 34
REMARK SMILES IDX 46 35 57 37 75 38 48 39 35 40 36 41 41 42 37 43 38 44 40 45
REMARK SMILES IDX 42 46 39 47 61 48 62 49 67 50 63 51 64 52 66 53 68 54 65 55
REMARK SMILES IDX 49 56 50 57 55 58 51 59 52 60 54 61 56 62 53 63 7 64 8 65
REMARK SMILES IDX 9 67 10 68 11 69 25 70 12 71 13 72 14 73 15 74 16 75 17 77
REMARK SMILES IDX 18 78 19 79 23 80 20 81 22 82 21 83 24 84
REMARK H PARENT 3 7 73 25 47 36 7 66 15 76 24 85
REMARK Flexibility Score: inf
ROOT
ATOM      1  C   UNL A   1      36.204  20.676  25.010  1.00  0.00     0.117 C 
ENDROOT
BRANCH   1   2
ATOM      2  C   UNL A   1      37.481  19.873  24.793  1.00  0.00     0.042 C 
BRANCH   2   3
ATOM      3  C   UNL A   1      38.649  20.347  25.648  1.00  0.00     0.118 C 
BRANCH   3   4
ATOM      4  N   UNL A   1      39.710  19.352  25.746  1.00  0.00    -0.352 N 
ATOM      5  O   UNL A   1      41.818  18.576  25.901  1.00  0.00    -0.269 OA
ATOM      6  C   UNL A   1      41.033  19.511  26.059  1.00  0.00     0.251 C 
ATOM      7  H   UNL A   1      39.433  18.425  25.557  1.00  0.00     0.163 HD
BRANCH   6   8
ATOM      8  C   UNL A   1      41.524  20.803  26.584  1.00  0.00     0.039 A 
ATOM      9  C   UNL A   1      41.996  21.788  25.713  1.00  0.00     0.014 A 
ATOM     10  C   UNL A   1      41.459  21.052  27.958  1.00  0.00     0.014 A 
ATOM     11  C   UNL A   1      42.504  22.978  26.222  1.00  0.00     0.010 A 
ATOM     12  C   UNL A   1      41.889  22.283  28.460  1.00  0.00     0.010 A 
ATOM     13  C   UNL A   1      42.418  23.253  27.595  1.00  0.00    -0.014 A 
BRANCH  13  14
ATOM     14  C   UNL A   1      42.752  24.613  28.081  1.00  0.00     0.031 A 
ATOM     15  C   UNL A   1      41.689  25.641  28.329  1.00  0.00     0.074 A 
ATOM     16  C   UNL A   1      44.052  24.908  28.283  1.00  0.00     0.049 A 
ATOM     17  N   UNL A   1      41.827  26.881  28.723  1.00  0.00    -0.248 NA
ATOM     18  C   UNL A   1      40.293  25.235  28.101  1.00  0.00     0.031 C 
ATOM     19  C   UNL A   1      45.170  23.986  28.054  1.00  0.00     0.029 A 
ATOM     20  N   UNL A   1      44.657  26.055  28.724  1.00  0.00    -0.354 N 
ATOM     21  C   UNL A   1      40.545  27.411  28.773  1.00  0.00     0.074 A 
ATOM     22  C   UNL A   1      39.638  26.362  28.357  1.00  0.00     0.031 C 
ATOM     23  C   UNL A   1      46.319  24.597  28.373  1.00  0.00     0.029 A 
ATOM     24  C   UNL A   1      46.029  25.970  28.762  1.00  0.00     0.049 A 
ATOM     25  H   UNL A   1      44.159  26.863  28.987  1.00  0.00     0.167 HD
ATOM     26  C   UNL A   1      40.168  28.660  29.137  1.00  0.00     0.037 A 
ATOM     27  C   UNL A   1      46.956  26.905  29.037  1.00  0.00     0.037 A 
ATOM     28  C   UNL A   1      41.081  29.689  29.568  1.00  0.00     0.049 A 
ATOM     29  C   UNL A   1      46.501  28.291  29.394  1.00  0.00     0.074 A 
ATOM     30  C   UNL A   1      40.786  30.959  30.033  1.00  0.00     0.029 A 
ATOM     31  N   UNL A   1      42.463  29.573  29.571  1.00  0.00    -0.354 N 
ATOM     32  N   UNL A   1      45.280  28.752  29.517  1.00  0.00    -0.248 NA
ATOM     33  C   UNL A   1      47.551  29.288  29.641  1.00  0.00     0.031 C 
ATOM     34  C   UNL A   1      41.989  31.636  30.252  1.00  0.00     0.029 A 
ATOM     35  C   UNL A   1      43.035  30.767  29.980  1.00  0.00     0.049 A 
ATOM     36  H   UNL A   1      42.963  28.764  29.320  1.00  0.00     0.167 HD
ATOM     37  C   UNL A   1      45.415  30.089  29.865  1.00  0.00     0.074 A 
ATOM     38  C   UNL A   1      46.834  30.355  29.966  1.00  0.00     0.031 C 
ATOM     39  C   UNL A   1      44.450  31.016  30.071  1.00  0.00     0.037 A 
BRANCH  26  40
ATOM     40  C   UNL A   1      38.710  29.014  29.072  1.00  0.00     0.057 A 
ATOM     41  C   UNL A   1      37.872  28.916  30.188  1.00  0.00     0.134 A 
ATOM     42  C   UNL A   1      38.170  29.568  27.904  1.00  0.00     0.134 A 
ATOM     43  F   UNL A   1      38.325  28.388  31.336  1.00  0.00    -0.206 F 
ATOM     44  C   UNL A   1      36.547  29.356  30.145  1.00  0.00     0.040 A 
ATOM     45  C   UNL A   1      36.854  30.032  27.855  1.00  0.00     0.040 A 
ATOM     46  F   UNL A   1      38.923  29.699  26.801  1.00  0.00    -0.206 F 
ATOM     47  C   UNL A   1      36.039  29.928  28.979  1.00  0.00     0.006 A 
ENDBRANCH  26  40
BRANCH  27  48
ATOM     48  C   UNL A   1      48.401  26.580  28.931  1.00  0.00     0.057 A 
ATOM     49  C   UNL A   1      49.105  26.772  27.738  1.00  0.00     0.134 A 
ATOM     50  C   UNL A   1      49.105  26.042  30.017  1.00  0.00     0.134 A 
ATOM     51  F   UNL A   1      48.484  27.268  26.658  1.00  0.00    -0.206 F 
ATOM     52  C   UNL A   1      50.449  26.411  27.617  1.00  0.00     0.040 A 
ATOM     53  C   UNL A   1      50.456  25.709  29.921  1.00  0.00     0.040 A 
ATOM     54  F   UNL A   1      48.490  25.841  31.191  1.00  0.00    -0.206 F 
ATOM     55  C   UNL A   1      51.128  25.881  28.713  1.00  0.00     0.006 A 
ENDBRANCH  27  48
BRANCH  39  56
ATOM     56  C   UNL A   1      44.901  32.400  30.434  1.00  0.00     0.057 A 
ATOM     57  C   UNL A   1      45.244  32.740  31.748  1.00  0.00     0.134 A 
ATOM     58  C   UNL A   1      45.027  33.392  29.453  1.00  0.00     0.134 A 
ATOM     59  F   UNL A   1      45.127  31.839  32.736  1.00  0.00    -0.206 F 
ATOM     60  C   UNL A   1      45.679  34.023  32.079  1.00  0.00     0.040 A 
ATOM     61  C   UNL A   1      45.489  34.670  29.767  1.00  0.00     0.040 A 
ATOM     62  F   UNL A   1      44.721  33.130  28.174  1.00  0.00    -0.206 F 
ATOM     63  C   UNL A   1      45.811  34.990  31.084  1.00  0.00     0.006 A 
ENDBRANCH  39  56
ENDBRANCH  13  14
ENDBRANCH   6   8
ENDBRANCH   3   4
ENDBRANCH   2   3
ENDBRANCH   1   2
BRANCH   1  64
ATOM     64  N   UNL A   1      35.019  19.835  25.007  1.00  0.00    -0.354 N 
ATOM     65  C   UNL A   1      33.722  20.206  25.250  1.00  0.00     0.249 C 
ATOM     66  H   UNL A   1      35.165  18.883  24.807  1.00  0.00     0.163 HD
ATOM     67  O   UNL A   1      32.850  19.337  25.247  1.00  0.00    -0.272 OA
BRANCH  65  68
ATOM     68  C   UNL A   1      33.426  21.698  25.470  1.00  0.00     0.207 C 
ATOM     69  C   UNL A   1      33.126  22.467  24.195  1.00  0.00     0.045 C 
ATOM     70  O   UNL A   1      32.276  21.832  26.322  1.00  0.00    -0.363 OA
ATOM     71  C   UNL A   1      31.618  22.440  24.131  1.00  0.00     0.037 C 
ATOM     72  C   UNL A   1      31.213  22.478  25.593  1.00  0.00     0.138 C 
BRANCH  72  73
ATOM     73  C   UNL A   1      31.061  23.889  26.176  1.00  0.00     0.148 C 
BRANCH  73  74
ATOM     74  N   UNL A   1      30.217  24.761  25.380  1.00  0.00    -0.349 N 
ATOM     75  C   UNL A   1      30.377  26.097  25.104  1.00  0.00     0.255 C 
ATOM     76  H   UNL A   1      29.422  24.337  24.982  1.00  0.00     0.163 HD
ATOM     77  O   UNL A   1      29.517  26.691  24.458  1.00  0.00    -0.269 OA
BRANCH  75  78
ATOM     78  C   UNL A   1      31.524  26.854  25.653  1.00  0.00     0.081 A 
ATOM     79  C   UNL A   1      31.299  27.577  26.833  1.00  0.00     0.018 A 
ATOM     80  C   UNL A   1      32.782  26.905  25.042  1.00  0.00     0.128 A 
ATOM     81  C   UNL A   1      32.339  28.293  27.427  1.00  0.00     0.001 A 
ATOM     82  C   UNL A   1      33.827  27.611  25.644  1.00  0.00     0.047 A 
ATOM     83  C   UNL A   1      33.604  28.298  26.839  1.00  0.00     0.004 A 
BRANCH  80  84
ATOM     84  O   UNL A   1      33.007  26.263  23.855  1.00  0.00    -0.507 OA
ATOM     85  H   UNL A   1      33.862  26.274  23.471  1.00  0.00     0.293 HD
ENDBRANCH  80  84
ENDBRANCH  75  78
ENDBRANCH  73  74
ENDBRANCH  72  73
ENDBRANCH  65  68
ENDBRANCH   1  64
TORSDOF 14
ENDMDL
MODEL 3
REMARK VINA RESULT:     -11.8      5.328     10.585
REMARK SMILES O=C(NCCCNC(=O)[C@H]1CC[C@H](CNC(=O)c2ccccc2O)O1)c1ccc(-c2c3nc(c(-c4c(F)cccc4F)c4ccc([nH]4)c(-c4c(F)cccc4F)c4nc(c(-c5c(F)cccc5F)c5ccc2[nH]5)C=C4)C=C3)cc1
REMARK SMILES IDX 6 1 5 2 4 3 3 4 1 5 2 6 26 8 27 9 79 10 28 11 78 12 29 13
REMARK SMILES IDX 30 14 31 15 72 16 32 17 77 18 71 19 73 20 33 21 76 22 70 23
REMARK SMILES IDX 69 24 34 26 60 27 43 28 59 29 44 30 47 31 58 32 74 33 45 34
REMARK SMILES IDX 46 35 57 37 75 38 48 39 35 40 36 41 41 42 37 43 38 44 40 45
REMARK SMILES IDX 42 46 39 47 61 48 62 49 67 50 63 51 64 52 66 53 68 54 65 55
REMARK SMILES IDX 49 56 50 57 55 58 51 59 52 60 54 61 56 62 53 63 7 64 8 65
REMARK SMILES IDX 9 67 10 68 11 69 25 70 12 71 13 72 14 73 15 74 16 75 17 77
REMARK SMILES IDX 18 78 19 79 23 80 20 81 22 82 21 83 24 84
REMARK H PARENT 3 7 73 25 47 36 7 66 15 76 24 85
REMARK Flexibility Score: inf
ROOT
ATOM      1  C   UNL A   1      36.564  20.688  25.009  1.00  0.00     0.117 C 
ENDROOT
BRANCH   1   2
ATOM      2  C   UNL A   1      37.791  19.797  24.859  1.00  0.00     0.042 C 
BRANCH   2   3
ATOM      3  C   UNL A   1      38.962  20.221  25.736  1.00  0.00     0.118 C 
BRANCH   3   4
ATOM      4  N   UNL A   1      39.985  19.188  25.841  1.00  0.00    -0.352 N 
ATOM      5  O   UNL A   1      42.065  18.327  25.893  1.00  0.00    -0.269 OA
ATOM      6  C   UNL A   1      41.336  19.311  26.025  1.00  0.00     0.251 C 
ATOM      7  H   UNL A   1      39.655  18.263  25.768  1.00  0.00     0.163 HD
BRANCH   6   8
ATOM      8  C   UNL A   1      41.925  20.619  26.378  1.00  0.00     0.039 A 
ATOM      9  C   UNL A   1      42.291  21.524  25.379  1.00  0.00     0.014 A 
ATOM     10  C   UNL A   1      42.059  20.967  27.725  1.00  0.00     0.014 A 
ATOM     11  C   UNL A   1      42.891  22.730  25.722  1.00  0.00     0.010 A 
ATOM     12  C   UNL A   1      42.582  22.216  28.070  1.00  0.00     0.010 A 
ATOM     13  C   UNL A   1      43.005  23.105  27.069  1.00  0.00    -0.014 A 
BRANCH  13  14
ATOM     14  C   UNL A   1      43.435  24.485  27.401  1.00  0.00     0.031 A 
ATOM     15  C   UNL A   1      42.453  25.524  27.856  1.00  0.00     0.074 A 
ATOM     16  C   UNL A   1      44.742  24.787  27.269  1.00  0.00     0.049 A 
ATOM     17  N   UNL A   1      42.671  26.780  28.151  1.00  0.00    -0.248 NA
ATOM     18  C   UNL A   1      41.048  25.110  27.991  1.00  0.00     0.031 C 
ATOM     19  C   UNL A   1      45.779  23.855  26.814  1.00  0.00     0.029 A 
ATOM     20  N   UNL A   1      45.425  25.952  27.500  1.00  0.00    -0.354 N 
ATOM     21  C   UNL A   1      41.434  27.313  28.488  1.00  0.00     0.074 A 
ATOM     22  C   UNL A   1      40.464  26.247  28.350  1.00  0.00     0.031 C 
ATOM     23  C   UNL A   1      46.965  24.477  26.819  1.00  0.00     0.029 A 
ATOM     24  C   UNL A   1      46.766  25.867  27.207  1.00  0.00     0.049 A 
ATOM     25  H   UNL A   1      44.997  26.771  27.841  1.00  0.00     0.167 HD
ATOM     26  C   UNL A   1      41.145  28.577  28.879  1.00  0.00     0.037 A 
ATOM     27  C   UNL A   1      47.722  26.812  27.209  1.00  0.00     0.037 A 
ATOM     28  C   UNL A   1      42.126  29.622  29.031  1.00  0.00     0.049 A 
ATOM     29  C   UNL A   1      47.355  28.212  27.606  1.00  0.00     0.074 A 
ATOM     30  C   UNL A   1      41.940  30.912  29.499  1.00  0.00     0.029 A 
ATOM     31  N   UNL A   1      43.468  29.506  28.703  1.00  0.00    -0.354 N 
ATOM     32  N   UNL A   1      46.196  28.680  28.001  1.00  0.00    -0.248 NA
ATOM     33  C   UNL A   1      48.423  29.219  27.548  1.00  0.00     0.031 C 
ATOM     34  C   UNL A   1      43.154  31.597  29.390  1.00  0.00     0.029 A 
ATOM     35  C   UNL A   1      44.110  30.716  28.909  1.00  0.00     0.049 A 
ATOM     36  H   UNL A   1      43.900  28.685  28.372  1.00  0.00     0.167 HD
ATOM     37  C   UNL A   1      46.398  30.031  28.249  1.00  0.00     0.074 A 
ATOM     38  C   UNL A   1      47.797  30.299  27.990  1.00  0.00     0.031 C 
ATOM     39  C   UNL A   1      45.503  30.967  28.644  1.00  0.00     0.037 A 
BRANCH  26  40
ATOM     40  C   UNL A   1      39.712  28.929  29.155  1.00  0.00     0.057 A 
ATOM     41  C   UNL A   1      38.835  29.325  28.138  1.00  0.00     0.134 A 
ATOM     42  C   UNL A   1      39.179  28.759  30.439  1.00  0.00     0.134 A 
ATOM     43  F   UNL A   1      39.283  29.514  26.888  1.00  0.00    -0.206 F 
ATOM     44  C   UNL A   1      37.477  29.539  28.389  1.00  0.00     0.040 A 
ATOM     45  C   UNL A   1      37.820  28.947  30.698  1.00  0.00     0.040 A 
ATOM     46  F   UNL A   1      39.963  28.372  31.456  1.00  0.00    -0.206 F 
ATOM     47  C   UNL A   1      36.965  29.337  29.671  1.00  0.00     0.006 A 
ENDBRANCH  26  40
BRANCH  27  48
ATOM     48  C   UNL A   1      49.101  26.481  26.768  1.00  0.00     0.057 A 
ATOM     49  C   UNL A   1      49.516  26.692  25.450  1.00  0.00     0.134 A 
ATOM     50  C   UNL A   1      50.030  25.918  27.655  1.00  0.00     0.134 A 
ATOM     51  F   UNL A   1      48.669  27.213  24.550  1.00  0.00    -0.206 F 
ATOM     52  C   UNL A   1      50.793  26.326  25.018  1.00  0.00     0.040 A 
ATOM     53  C   UNL A   1      51.320  25.580  27.246  1.00  0.00     0.040 A 
ATOM     54  F   UNL A   1      49.698  25.698  28.935  1.00  0.00    -0.206 F 
ATOM     55  C   UNL A   1      51.699  25.771  25.920  1.00  0.00     0.006 A 
ENDBRANCH  27  48
BRANCH  39  56
ATOM     56  C   UNL A   1      46.015  32.365  28.826  1.00  0.00     0.057 A 
ATOM     57  C   UNL A   1      45.962  33.307  27.791  1.00  0.00     0.134 A 
ATOM     58  C   UNL A   1      46.532  32.784  30.059  1.00  0.00     0.134 A 
ATOM     59  F   UNL A   1      45.495  32.963  26.582  1.00  0.00    -0.206 F 
ATOM     60  C   UNL A   1      46.424  34.611  27.969  1.00  0.00     0.040 A 
ATOM     61  C   UNL A   1      46.969  34.093  30.257  1.00  0.00     0.040 A 
ATOM     62  F   UNL A   1      46.603  31.932  31.093  1.00  0.00    -0.206 F 
ATOM     63  C   UNL A   1      46.922  35.010  29.209  1.00  0.00     0.006 A 
ENDBRANCH  39  56
ENDBRANCH  13  14
ENDBRANCH   6   8
ENDBRANCH   3   4
ENDBRANCH   2   3
ENDBRANCH   1   2
BRANCH   1  64
ATOM     64  N   UNL A   1      35.327  19.925  25.006  1.00  0.00    -0.354 N 
ATOM     65  C   UNL A   1      34.043  20.402  24.975  1.00  0.00     0.249 C 
ATOM     66  H   UNL A   1      35.423  18.946  25.030  1.00  0.00     0.163 HD
ATOM     67  O   UNL A   1      33.114  19.597  25.024  1.00  0.00    -0.272 OA
BRANCH  65  68
ATOM     68  C   UNL A   1      33.839  21.920  24.837  1.00  0.00     0.207 C 
ATOM     69  C   UNL A   1      33.836  22.419  23.403  1.00  0.00     0.045 C 
ATOM     70  O   UNL A   1      32.572  22.281  25.410  1.00  0.00    -0.363 OA
ATOM     71  C   UNL A   1      32.367  22.448  23.058  1.00  0.00     0.037 C 
ATOM     72  C   UNL A   1      31.713  22.809  24.380  1.00  0.00     0.138 C 
BRANCH  72  73
ATOM     73  C   UNL A   1      31.579  24.316  24.635  1.00  0.00     0.148 C 
BRANCH  73  74
ATOM     74  N   UNL A   1      30.264  24.846  24.326  1.00  0.00    -0.349 N 
ATOM     75  C   UNL A   1      29.901  26.140  24.044  1.00  0.00     0.255 C 
ATOM     76  H   UNL A   1      29.532  24.187  24.314  1.00  0.00     0.163 HD
ATOM     77  O   UNL A   1      28.716  26.414  23.868  1.00  0.00    -0.269 OA
BRANCH  75  78
ATOM     78  C   UNL A   1      30.906  27.227  24.042  1.00  0.00     0.081 A 
ATOM     79  C   UNL A   1      31.297  27.730  25.291  1.00  0.00     0.018 A 
ATOM     80  C   UNL A   1      31.442  27.784  22.875  1.00  0.00     0.128 A 
ATOM     81  C   UNL A   1      32.260  28.736  25.373  1.00  0.00     0.001 A 
ATOM     82  C   UNL A   1      32.416  28.781  22.958  1.00  0.00     0.047 A 
ATOM     83  C   UNL A   1      32.828  29.251  24.207  1.00  0.00     0.004 A 
BRANCH  80  84
ATOM     84  O   UNL A   1      31.026  27.356  21.644  1.00  0.00    -0.507 OA
ATOM     85  H   UNL A   1      31.191  26.474  21.375  1.00  0.00     0.293 HD
ENDBRANCH  80  84
ENDBRANCH  75  78
ENDBRANCH  73  74
ENDBRANCH  72  73
ENDBRANCH  65  68
ENDBRANCH   1  64
TORSDOF 14
ENDMDL
