MODEL 1
REMARK VINA RESULT:     -11.3      0.000      0.000
REMARK SMILES CC(C)C[C@H](NC(=O)[C@@H](NC(=O)[C@H](C)NC(=O)CNC(=O)OCc1ccccc1)C(C)C)C(=O)NCCCNC(=O)c1ccc(-c2c3nc(c(-c4c(F)cccc4F)c4ccc([nH]4)c(-c4c(F)cccc4F)c4nc(c(-c5c(F)cccc5F)c5ccc2[nH]5)C=C4)C=C3)cc1
REMARK SMILES IDX 6 1 7 2 8 3 5 5 4 6 2 7 1 8 3 9 33 10 34 11 35 12 36 14
REMARK SMILES IDX 37 15 38 16 39 17 40 18 41 20 42 21 43 22 95 23 44 24 94 25
REMARK SMILES IDX 45 26 46 27 47 28 88 29 48 30 93 31 87 32 89 33 49 34 92 35
REMARK SMILES IDX 86 36 85 37 50 39 76 40 59 41 75 42 60 43 63 44 74 45 90 46
REMARK SMILES IDX 61 47 62 48 73 50 91 51 64 52 51 53 52 54 57 55 53 56 54 57
REMARK SMILES IDX 56 58 58 59 55 60 77 61 78 62 83 63 79 64 80 65 82 66 84 67
REMARK SMILES IDX 81 68 65 69 66 70 71 71 67 72 68 73 70 74 72 75 69 76 9 77
REMARK SMILES IDX 10 78 11 79 12 81 13 82 14 83 15 84 16 85 17 87 18 88 19 89
REMARK SMILES IDX 20 90 21 92 22 93 23 94 24 95 25 96 29 97 26 98 28 99 27 100
REMARK SMILES IDX 30 101 31 102 32 103
REMARK H PARENT 6 4 35 13 39 19 89 38 63 49 10 80 15 86 19 91
REMARK Flexibility Score: inf
ROOT
ATOM      1  N   UNL A   1      34.051  24.099  22.798  1.00  0.00    -0.343 N 
ATOM      2  C   UNL A   1      35.087  23.534  23.474  1.00  0.00     0.243 C 
ATOM      3  O   UNL A   1      35.946  23.113  22.669  1.00  0.00    -0.273 OA
ATOM      4  H   UNL A   1      34.069  23.722  21.889  1.00  0.00     0.164 HD
ENDROOT
BRANCH   1   5
ATOM      5  C   UNL A   1      32.888  25.056  22.846  1.00  0.00     0.171 C 
BRANCH   5   6
ATOM      6  C   UNL A   1      32.536  25.705  24.164  1.00  0.00     0.038 C 
BRANCH   6   7
ATOM      7  C   UNL A   1      31.160  25.257  24.561  1.00  0.00    -0.015 C 
ATOM      8  C   UNL A   1      30.593  24.151  23.662  1.00  0.00     0.007 C 
ATOM      9  C   UNL A   1      31.194  25.365  26.075  1.00  0.00     0.007 C 
ENDBRANCH   6   7
ENDBRANCH   5   6
BRANCH   5  10
ATOM     10  C   UNL A   1      32.756  26.174  21.782  1.00  0.00     0.242 C 
ATOM     11  O   UNL A   1      32.129  25.966  20.737  1.00  0.00    -0.273 OA
ATOM     12  N   UNL A   1      33.106  27.460  22.022  1.00  0.00    -0.354 N 
ATOM     13  H   UNL A   1      32.857  28.096  21.313  1.00  0.00     0.163 HD
BRANCH  12  14
ATOM     14  C   UNL A   1      33.784  28.046  23.152  1.00  0.00     0.117 C 
BRANCH  14  15
ATOM     15  C   UNL A   1      32.984  29.196  23.711  1.00  0.00     0.042 C 
BRANCH  15  16
ATOM     16  C   UNL A   1      33.052  29.153  25.222  1.00  0.00     0.118 C 
BRANCH  16  17
ATOM     17  N   UNL A   1      32.433  30.335  25.827  1.00  0.00    -0.352 N 
ATOM     18  C   UNL A   1      32.895  31.123  26.855  1.00  0.00     0.251 C 
ATOM     19  H   UNL A   1      31.565  30.603  25.444  1.00  0.00     0.163 HD
ATOM     20  O   UNL A   1      32.177  31.962  27.383  1.00  0.00    -0.269 OA
BRANCH  18  21
ATOM     21  C   UNL A   1      34.271  30.897  27.326  1.00  0.00     0.039 A 
ATOM     22  C   UNL A   1      35.086  31.987  27.625  1.00  0.00     0.014 A 
ATOM     23  C   UNL A   1      34.678  29.595  27.611  1.00  0.00     0.014 A 
ATOM     24  C   UNL A   1      36.278  31.768  28.313  1.00  0.00     0.010 A 
ATOM     25  C   UNL A   1      35.768  29.403  28.437  1.00  0.00     0.010 A 
ATOM     26  C   UNL A   1      36.596  30.482  28.780  1.00  0.00    -0.014 A 
BRANCH  26  27
ATOM     27  C   UNL A   1      37.801  30.212  29.603  1.00  0.00     0.031 A 
ATOM     28  C   UNL A   1      38.891  29.336  29.039  1.00  0.00     0.074 A 
ATOM     29  C   UNL A   1      37.873  30.657  30.872  1.00  0.00     0.049 A 
ATOM     30  N   UNL A   1      39.949  28.846  29.630  1.00  0.00    -0.248 NA
ATOM     31  C   UNL A   1      38.734  28.898  27.640  1.00  0.00     0.031 C 
ATOM     32  C   UNL A   1      36.847  31.443  31.563  1.00  0.00     0.029 A 
ATOM     33  N   UNL A   1      38.858  30.504  31.815  1.00  0.00    -0.354 N 
ATOM     34  C   UNL A   1      40.546  28.012  28.693  1.00  0.00     0.074 A 
ATOM     35  C   UNL A   1      39.690  27.992  27.530  1.00  0.00     0.031 C 
ATOM     36  C   UNL A   1      37.278  31.743  32.799  1.00  0.00     0.029 A 
ATOM     37  C   UNL A   1      38.587  31.135  33.005  1.00  0.00     0.049 A 
ATOM     38  H   UNL A   1      39.682  29.990  31.653  1.00  0.00     0.167 HD
ATOM     39  C   UNL A   1      41.726  27.358  28.772  1.00  0.00     0.037 A 
ATOM     40  C   UNL A   1      39.320  31.213  34.132  1.00  0.00     0.037 A 
ATOM     41  C   UNL A   1      42.613  27.451  29.898  1.00  0.00     0.049 A 
ATOM     42  C   UNL A   1      40.656  30.526  34.177  1.00  0.00     0.074 A 
ATOM     43  C   UNL A   1      43.875  26.910  30.049  1.00  0.00     0.029 A 
ATOM     44  N   UNL A   1      42.329  28.152  31.061  1.00  0.00    -0.354 N 
ATOM     45  N   UNL A   1      41.245  29.801  33.257  1.00  0.00    -0.248 NA
ATOM     46  C   UNL A   1      41.435  30.673  35.415  1.00  0.00     0.031 C 
ATOM     47  C   UNL A   1      44.345  27.257  31.319  1.00  0.00     0.029 A 
ATOM     48  C   UNL A   1      43.391  28.049  31.941  1.00  0.00     0.049 A 
ATOM     49  H   UNL A   1      41.497  28.649  31.234  1.00  0.00     0.167 HD
ATOM     50  C   UNL A   1      42.471  29.428  33.791  1.00  0.00     0.074 A 
ATOM     51  C   UNL A   1      42.548  30.020  35.111  1.00  0.00     0.031 C 
ATOM     52  C   UNL A   1      43.447  28.663  33.243  1.00  0.00     0.037 A 
BRANCH  39  53
ATOM     53  C   UNL A   1      42.130  26.519  27.595  1.00  0.00     0.057 A 
ATOM     54  C   UNL A   1      41.791  25.161  27.502  1.00  0.00     0.134 A 
ATOM     55  C   UNL A   1      42.869  27.073  26.542  1.00  0.00     0.134 A 
ATOM     56  F   UNL A   1      41.101  24.564  28.485  1.00  0.00    -0.206 F 
ATOM     57  C   UNL A   1      42.204  24.377  26.424  1.00  0.00     0.040 A 
ATOM     58  C   UNL A   1      43.259  26.305  25.442  1.00  0.00     0.040 A 
ATOM     59  F   UNL A   1      43.226  28.365  26.564  1.00  0.00    -0.206 F 
ATOM     60  C   UNL A   1      42.935  24.951  25.387  1.00  0.00     0.006 A 
ENDBRANCH  39  53
BRANCH  40  61
ATOM     61  C   UNL A   1      38.831  32.005  35.290  1.00  0.00     0.057 A 
ATOM     62  C   UNL A   1      39.006  33.393  35.335  1.00  0.00     0.134 A 
ATOM     63  C   UNL A   1      38.186  31.402  36.375  1.00  0.00     0.134 A 
ATOM     64  F   UNL A   1      39.631  34.027  34.331  1.00  0.00    -0.206 F 
ATOM     65  C   UNL A   1      38.579  34.152  36.427  1.00  0.00     0.040 A 
ATOM     66  C   UNL A   1      37.732  32.152  37.464  1.00  0.00     0.040 A 
ATOM     67  F   UNL A   1      37.977  30.078  36.390  1.00  0.00    -0.206 F 
ATOM     68  C   UNL A   1      37.936  33.530  37.494  1.00  0.00     0.006 A 
ENDBRANCH  40  61
BRANCH  52  69
ATOM     69  C   UNL A   1      44.692  28.457  34.050  1.00  0.00     0.057 A 
ATOM     70  C   UNL A   1      45.785  29.326  33.955  1.00  0.00     0.134 A 
ATOM     71  C   UNL A   1      44.772  27.408  34.974  1.00  0.00     0.134 A 
ATOM     72  F   UNL A   1      45.770  30.343  33.079  1.00  0.00    -0.206 F 
ATOM     73  C   UNL A   1      46.923  29.150  34.740  1.00  0.00     0.040 A 
ATOM     74  C   UNL A   1      45.895  27.236  35.783  1.00  0.00     0.040 A 
ATOM     75  F   UNL A   1      43.754  26.547  35.119  1.00  0.00    -0.206 F 
ATOM     76  C   UNL A   1      46.977  28.107  35.664  1.00  0.00     0.006 A 
ENDBRANCH  52  69
ENDBRANCH  26  27
ENDBRANCH  18  21
ENDBRANCH  16  17
ENDBRANCH  15  16
ENDBRANCH  14  15
ENDBRANCH  12  14
ENDBRANCH   5  10
ENDBRANCH   1   5
BRANCH   2  77
ATOM     77  C   UNL A   1      35.411  23.247  25.062  1.00  0.00     0.174 C 
BRANCH  77  78
ATOM     78  N   UNL A   1      36.779  23.594  25.737  1.00  0.00    -0.342 N 
ATOM     79  C   UNL A   1      38.013  23.312  26.228  1.00  0.00     0.242 C 
ATOM     80  H   UNL A   1      36.701  24.562  25.895  1.00  0.00     0.164 HD
ATOM     81  O   UNL A   1      38.424  24.325  26.847  1.00  0.00    -0.273 OA
BRANCH  79  82
ATOM     82  C   UNL A   1      39.177  22.154  26.076  1.00  0.00     0.168 C 
ATOM     83  C   UNL A   1      38.418  20.936  25.530  1.00  0.00     0.041 C 
BRANCH  82  84
ATOM     84  N   UNL A   1      40.190  21.578  27.023  1.00  0.00    -0.343 N 
ATOM     85  C   UNL A   1      41.242  20.698  27.006  1.00  0.00     0.240 C 
ATOM     86  H   UNL A   1      40.061  21.941  27.928  1.00  0.00     0.164 HD
ATOM     87  O   UNL A   1      41.962  20.681  28.017  1.00  0.00    -0.273 OA
BRANCH  85  88
ATOM     88  C   UNL A   1      41.476  19.604  25.955  1.00  0.00     0.219 C 
BRANCH  88  89
ATOM     89  N   UNL A   1      42.744  19.088  26.410  1.00  0.00    -0.312 N 
ATOM     90  C   UNL A   1      43.740  19.109  25.500  1.00  0.00     0.407 C 
ATOM     91  H   UNL A   1      42.874  18.744  27.323  1.00  0.00     0.167 HD
ATOM     92  O   UNL A   1      44.418  18.081  25.291  1.00  0.00    -0.225 OA
BRANCH  90  93
ATOM     93  O   UNL A   1      43.776  20.265  24.818  1.00  0.00    -0.445 OA
BRANCH  93  94
ATOM     94  C   UNL A   1      45.029  20.746  24.320  1.00  0.00     0.270 C 
BRANCH  94  95
ATOM     95  C   UNL A   1      45.383  22.043  24.975  1.00  0.00    -0.011 A 
ATOM     96  C   UNL A   1      46.102  23.000  24.248  1.00  0.00     0.007 A 
ATOM     97  C   UNL A   1      45.185  22.214  26.349  1.00  0.00     0.007 A 
ATOM     98  C   UNL A   1      46.697  24.072  24.902  1.00  0.00     0.000 A 
ATOM     99  C   UNL A   1      45.752  23.308  26.995  1.00  0.00     0.000 A 
ATOM    100  C   UNL A   1      46.525  24.221  26.275  1.00  0.00     0.000 A 
ENDBRANCH  94  95
ENDBRANCH  93  94
ENDBRANCH  90  93
ENDBRANCH  88  89
ENDBRANCH  85  88
ENDBRANCH  82  84
ENDBRANCH  79  82
ENDBRANCH  77  78
BRANCH  77 101
ATOM    101  C   UNL A   1      34.138  22.982  25.947  1.00  0.00     0.015 C 
ATOM    102  C   UNL A   1      33.152  21.997  25.286  1.00  0.00     0.010 C 
ATOM    103  C   UNL A   1      34.486  22.441  27.340  1.00  0.00     0.010 C 
ENDBRANCH  77 101
ENDBRANCH   2  77
TORSDOF 23
ENDMDL
MODEL 2
REMARK VINA RESULT:     -10.4      3.476      7.136
REMARK SMILES CC(C)C[C@H](NC(=O)[C@@H](NC(=O)[C@H](C)NC(=O)CNC(=O)OCc1ccccc1)C(C)C)C(=O)NCCCNC(=O)c1ccc(-c2c3nc(c(-c4c(F)cccc4F)c4ccc([nH]4)c(-c4c(F)cccc4F)c4nc(c(-c5c(F)cccc5F)c5ccc2[nH]5)C=C4)C=C3)cc1
REMARK SMILES IDX 6 1 7 2 8 3 5 5 4 6 2 7 1 8 3 9 33 10 34 11 35 12 36 14
REMARK SMILES IDX 37 15 38 16 39 17 40 18 41 20 42 21 43 22 95 23 44 24 94 25
REMARK SMILES IDX 45 26 46 27 47 28 88 29 48 30 93 31 87 32 89 33 49 34 92 35
REMARK SMILES IDX 86 36 85 37 50 39 76 40 59 41 75 42 60 43 63 44 74 45 90 46
REMARK SMILES IDX 61 47 62 48 73 50 91 51 64 52 51 53 52 54 57 55 53 56 54 57
REMARK SMILES IDX 56 58 58 59 55 60 77 61 78 62 83 63 79 64 80 65 82 66 84 67
REMARK SMILES IDX 81 68 65 69 66 70 71 71 67 72 68 73 70 74 72 75 69 76 9 77
REMARK SMILES IDX 10 78 11 79 12 81 13 82 14 83 15 84 16 85 17 87 18 88 19 89
REMARK SMILES IDX 20 90 21 92 22 93 23 94 24 95 25 96 29 97 26 98 28 99 27 100
REMARK SMILES IDX 30 101 31 102 32 103
REMARK H PARENT 6 4 35 13 39 19 89 38 63 49 10 80 15 86 19 91
REMARK Flexibility Score: inf
ROOT
ATOM      1  N   UNL A   1      42.128  26.353  28.722  1.00  0.00    -0.343 N 
ATOM      2  C   UNL A   1      43.161  25.481  28.575  1.00  0.00     0.243 C 
ATOM      3  O   UNL A   1      43.445  24.962  29.677  1.00  0.00    -0.273 OA
ATOM      4  H   UNL A   1      42.112  26.613  29.672  1.00  0.00     0.164 HD
ENDROOT
BRANCH   1   5
ATOM      5  C   UNL A   1      40.996  27.089  28.054  1.00  0.00     0.171 C 
BRANCH   5   6
ATOM      6  C   UNL A   1      40.961  27.150  26.545  1.00  0.00     0.038 C 
BRANCH   6   7
ATOM      7  C   UNL A   1      42.188  27.874  26.071  1.00  0.00    -0.015 C 
ATOM      8  C   UNL A   1      42.768  27.308  24.769  1.00  0.00     0.007 C 
ATOM      9  C   UNL A   1      41.909  29.311  26.474  1.00  0.00     0.007 C 
ENDBRANCH   6   7
ENDBRANCH   5   6
BRANCH   5  10
ATOM     10  C   UNL A   1      39.533  26.835  28.494  1.00  0.00     0.242 C 
ATOM     11  O   UNL A   1      39.189  25.714  28.887  1.00  0.00    -0.273 OA
ATOM     12  N   UNL A   1      38.640  27.834  28.687  1.00  0.00    -0.354 N 
ATOM     13  H   UNL A   1      37.785  27.554  29.087  1.00  0.00     0.163 HD
BRANCH  12  14
ATOM     14  C   UNL A   1      38.743  29.244  28.400  1.00  0.00     0.117 C 
BRANCH  14  15
ATOM     15  C   UNL A   1      37.407  29.794  27.967  1.00  0.00     0.042 C 
BRANCH  15  16
ATOM     16  C   UNL A   1      36.380  29.487  29.035  1.00  0.00     0.118 C 
BRANCH  16  17
ATOM     17  N   UNL A   1      35.755  30.707  29.554  1.00  0.00    -0.352 N 
ATOM     18  C   UNL A   1      36.035  31.397  30.709  1.00  0.00     0.251 C 
ATOM     19  H   UNL A   1      35.035  31.085  28.998  1.00  0.00     0.163 HD
ATOM     20  O   UNL A   1      35.300  32.290  31.110  1.00  0.00    -0.269 OA
BRANCH  18  21
ATOM     21  C   UNL A   1      37.230  31.000  31.472  1.00  0.00     0.039 A 
ATOM     22  C   UNL A   1      38.469  31.553  31.152  1.00  0.00     0.014 A 
ATOM     23  C   UNL A   1      37.070  30.198  32.600  1.00  0.00     0.014 A 
ATOM     24  C   UNL A   1      39.533  31.378  32.035  1.00  0.00     0.010 A 
ATOM     25  C   UNL A   1      38.075  30.173  33.548  1.00  0.00     0.010 A 
ATOM     26  C   UNL A   1      39.326  30.742  33.270  1.00  0.00    -0.014 A 
BRANCH  26  27
ATOM     27  C   UNL A   1      40.399  30.618  34.288  1.00  0.00     0.031 A 
ATOM     28  C   UNL A   1      41.238  29.367  34.320  1.00  0.00     0.074 A 
ATOM     29  C   UNL A   1      40.552  31.565  35.235  1.00  0.00     0.049 A 
ATOM     30  N   UNL A   1      42.117  28.980  35.206  1.00  0.00    -0.248 NA
ATOM     31  C   UNL A   1      41.008  28.386  33.242  1.00  0.00     0.031 C 
ATOM     32  C   UNL A   1      39.747  32.783  35.365  1.00  0.00     0.029 A 
ATOM     33  N   UNL A   1      41.438  31.645  36.278  1.00  0.00    -0.354 N 
ATOM     34  C   UNL A   1      42.500  27.703  34.818  1.00  0.00     0.074 A 
ATOM     35  C   UNL A   1      41.699  27.344  33.672  1.00  0.00     0.031 C 
ATOM     36  C   UNL A   1      40.210  33.510  36.395  1.00  0.00     0.029 A 
ATOM     37  C   UNL A   1      41.311  32.790  37.026  1.00  0.00     0.049 A 
ATOM     38  H   UNL A   1      42.104  30.947  36.473  1.00  0.00     0.167 HD
ATOM     39  C   UNL A   1      43.468  26.914  35.337  1.00  0.00     0.037 A 
ATOM     40  C   UNL A   1      42.010  33.210  38.098  1.00  0.00     0.037 A 
ATOM     41  C   UNL A   1      44.319  27.312  36.423  1.00  0.00     0.049 A 
ATOM     42  C   UNL A   1      43.120  32.344  38.623  1.00  0.00     0.074 A 
ATOM     43  C   UNL A   1      45.393  26.636  36.970  1.00  0.00     0.029 A 
ATOM     44  N   UNL A   1      44.198  28.509  37.115  1.00  0.00    -0.354 N 
ATOM     45  N   UNL A   1      43.524  31.170  38.202  1.00  0.00    -0.248 NA
ATOM     46  C   UNL A   1      43.879  32.863  39.771  1.00  0.00     0.031 C 
ATOM     47  C   UNL A   1      45.905  27.411  38.015  1.00  0.00     0.029 A 
ATOM     48  C   UNL A   1      45.174  28.587  38.092  1.00  0.00     0.049 A 
ATOM     49  H   UNL A   1      43.519  29.199  36.936  1.00  0.00     0.167 HD
ATOM     50  C   UNL A   1      44.597  30.822  39.010  1.00  0.00     0.074 A 
ATOM     51  C   UNL A   1      44.791  31.917  39.939  1.00  0.00     0.031 C 
ATOM     52  C   UNL A   1      45.354  29.698  38.991  1.00  0.00     0.037 A 
BRANCH  39  53
ATOM     53  C   UNL A   1      43.670  25.565  34.711  1.00  0.00     0.057 A 
ATOM     54  C   UNL A   1      43.005  24.424  35.180  1.00  0.00     0.134 A 
ATOM     55  C   UNL A   1      44.541  25.404  33.626  1.00  0.00     0.134 A 
ATOM     56  F   UNL A   1      42.171  24.504  36.228  1.00  0.00    -0.206 F 
ATOM     57  C   UNL A   1      43.227  23.165  34.619  1.00  0.00     0.040 A 
ATOM     58  C   UNL A   1      44.746  24.155  33.035  1.00  0.00     0.040 A 
ATOM     59  F   UNL A   1      45.208  26.454  33.125  1.00  0.00    -0.206 F 
ATOM     60  C   UNL A   1      44.096  23.030  33.538  1.00  0.00     0.006 A 
ENDBRANCH  39  53
BRANCH  40  61
ATOM     61  C   UNL A   1      41.713  34.528  38.716  1.00  0.00     0.057 A 
ATOM     62  C   UNL A   1      40.768  34.643  39.742  1.00  0.00     0.134 A 
ATOM     63  C   UNL A   1      42.356  35.699  38.298  1.00  0.00     0.134 A 
ATOM     64  F   UNL A   1      40.108  33.559  40.176  1.00  0.00    -0.206 F 
ATOM     65  C   UNL A   1      40.454  35.877  40.316  1.00  0.00     0.040 A 
ATOM     66  C   UNL A   1      42.069  36.937  38.880  1.00  0.00     0.040 A 
ATOM     67  F   UNL A   1      43.279  35.656  37.327  1.00  0.00    -0.206 F 
ATOM     68  C   UNL A   1      41.110  37.028  39.886  1.00  0.00     0.006 A 
ENDBRANCH  40  61
BRANCH  52  69
ATOM     69  C   UNL A   1      46.482  29.613  39.973  1.00  0.00     0.057 A 
ATOM     70  C   UNL A   1      47.751  30.129  39.686  1.00  0.00     0.134 A 
ATOM     71  C   UNL A   1      46.277  29.059  41.243  1.00  0.00     0.134 A 
ATOM     72  F   UNL A   1      48.011  30.662  38.482  1.00  0.00    -0.206 F 
ATOM     73  C   UNL A   1      48.783  30.082  40.622  1.00  0.00     0.040 A 
ATOM     74  C   UNL A   1      47.294  29.030  42.197  1.00  0.00     0.040 A 
ATOM     75  F   UNL A   1      45.080  28.557  41.583  1.00  0.00    -0.206 F 
ATOM     76  C   UNL A   1      48.553  29.539  41.885  1.00  0.00     0.006 A 
ENDBRANCH  52  69
ENDBRANCH  26  27
ENDBRANCH  18  21
ENDBRANCH  16  17
ENDBRANCH  15  16
ENDBRANCH  14  15
ENDBRANCH  12  14
ENDBRANCH   5  10
ENDBRANCH   1   5
BRANCH   2  77
ATOM     77  C   UNL A   1      44.117  25.025  27.316  1.00  0.00     0.174 C 
BRANCH  77  78
ATOM     78  N   UNL A   1      43.702  23.938  26.271  1.00  0.00    -0.342 N 
ATOM     79  C   UNL A   1      43.857  22.785  25.570  1.00  0.00     0.242 C 
ATOM     80  H   UNL A   1      42.847  24.283  25.930  1.00  0.00     0.164 HD
ATOM     81  O   UNL A   1      42.987  22.763  24.664  1.00  0.00    -0.273 OA
BRANCH  79  82
ATOM     82  C   UNL A   1      44.680  21.361  25.685  1.00  0.00     0.168 C 
ATOM     83  C   UNL A   1      45.764  21.472  24.602  1.00  0.00     0.041 C 
BRANCH  82  84
ATOM     84  N   UNL A   1      44.260  19.919  25.655  1.00  0.00    -0.343 N 
ATOM     85  C   UNL A   1      43.109  19.175  25.654  1.00  0.00     0.240 C 
ATOM     86  H   UNL A   1      45.049  19.332  25.628  1.00  0.00     0.164 HD
ATOM     87  O   UNL A   1      43.235  17.966  25.398  1.00  0.00    -0.273 OA
BRANCH  85  88
ATOM     88  C   UNL A   1      41.734  19.654  26.140  1.00  0.00     0.219 C 
BRANCH  88  89
ATOM     89  N   UNL A   1      42.062  20.021  27.496  1.00  0.00    -0.312 N 
ATOM     90  C   UNL A   1      41.601  21.222  27.901  1.00  0.00     0.407 C 
ATOM     91  H   UNL A   1      42.588  19.434  28.087  1.00  0.00     0.167 HD
ATOM     92  O   UNL A   1      42.373  22.036  28.449  1.00  0.00    -0.225 OA
BRANCH  90  93
ATOM     93  O   UNL A   1      40.331  21.430  27.518  1.00  0.00    -0.445 OA
BRANCH  93  94
ATOM     94  C   UNL A   1      39.938  22.733  27.074  1.00  0.00     0.270 C 
BRANCH  94  95
ATOM     95  C   UNL A   1      38.683  22.647  26.265  1.00  0.00    -0.011 A 
ATOM     96  C   UNL A   1      38.387  21.457  25.588  1.00  0.00     0.007 A 
ATOM     97  C   UNL A   1      37.927  23.797  26.017  1.00  0.00     0.007 A 
ATOM     98  C   UNL A   1      37.406  21.437  24.606  1.00  0.00     0.000 A 
ATOM     99  C   UNL A   1      36.920  23.765  25.057  1.00  0.00     0.000 A 
ATOM    100  C   UNL A   1      36.677  22.592  24.338  1.00  0.00     0.000 A 
ENDBRANCH  94  95
ENDBRANCH  93  94
ENDBRANCH  90  93
ENDBRANCH  88  89
ENDBRANCH  85  88
ENDBRANCH  82  84
ENDBRANCH  79  82
ENDBRANCH  77  78
BRANCH  77 101
ATOM    101  C   UNL A   1      45.286  26.026  26.991  1.00  0.00     0.015 C 
ATOM    102  C   UNL A   1      45.712  26.858  28.220  1.00  0.00     0.010 C 
ATOM    103  C   UNL A   1      46.534  25.324  26.440  1.00  0.00     0.010 C 
ENDBRANCH  77 101
ENDBRANCH   2  77
TORSDOF 23
ENDMDL
MODEL 3
REMARK VINA RESULT:     -10.1      1.343      5.993
REMARK SMILES CC(C)C[C@H](NC(=O)[C@@H](NC(=O)[C@H](C)NC(=O)CNC(=O)OCc1ccccc1)C(C)C)C(=O)NCCCNC(=O)c1ccc(-c2c3nc(c(-c4c(F)cccc4F)c4ccc([nH]4)c(-c4c(F)cccc4F)c4nc(c(-c5c(F)cccc5F)c5ccc2[nH]5)C=C4)C=C3)cc1
REMARK SMILES IDX 6 1 7 2 8 3 5 5 4 6 2 7 1 8 3 9 33 10 34 11 35 12 36 14
REMARK SMILES IDX 37 15 38 16 39 17 40 18 41 20 42 21 43 22 95 23 44 24 94 25
REMARK SMILES IDX 45 26 46 27 47 28 88 29 48 30 93 31 87 32 89 33 49 34 92 35
REMARK SMILES IDX 86 36 85 37 50 39 76 40 59 41 75 42 60 43 63 44 74 45 90 46
REMARK SMILES IDX 61 47 62 48 73 50 91 51 64 52 51 53 52 54 57 55 53 56 54 57
REMARK SMILES IDX 56 58 58 59 55 60 77 61 78 62 83 63 79 64 80 65 82 66 84 67
REMARK SMILES IDX 81 68 65 69 66 70 71 71 67 72 68 73 70 74 72 75 69 76 9 77
REMARK SMILES IDX 10 78 11 79 12 81 13 82 14 83 15 84 16 85 17 87 18 88 19 89
REMARK SMILES IDX 20 90 21 92 22 93 23 94 24 95 25 96 29 97 26 98 28 99 27 100
REMARK SMILES IDX 30 101 31 102 32 103
REMARK H PARENT 6 4 35 13 39 19 89 38 63 49 10 80 15 86 19 91
REMARK Flexibility Score: inf
ROOT
ATOM      1  N   UNL A   1      34.222  23.662  22.891  1.00  0.00    -0.343 N 
ATOM      2  C   UNL A   1      35.348  23.035  23.324  1.00  0.00     0.243 C 
ATOM      3  O   UNL A   1      36.202  23.007  22.410  1.00  0.00    -0.273 OA
ATOM      4  H   UNL A   1      34.230  23.609  21.908  1.00  0.00     0.164 HD
ENDROOT
BRANCH   1   5
ATOM      5  C   UNL A   1      32.967  24.404  23.273  1.00  0.00     0.171 C 
BRANCH   5   6
ATOM      6  C   UNL A   1      32.621  24.538  24.737  1.00  0.00     0.038 C 
BRANCH   6   7
ATOM      7  C   UNL A   1      31.225  24.027  24.944  1.00  0.00    -0.015 C 
ATOM      8  C   UNL A   1      31.155  22.513  25.171  1.00  0.00     0.007 C 
ATOM      9  C   UNL A   1      30.559  25.162  25.701  1.00  0.00     0.007 C 
ENDBRANCH   6   7
ENDBRANCH   5   6
BRANCH   5  10
ATOM     10  C   UNL A   1      32.657  25.785  22.643  1.00  0.00     0.242 C 
ATOM     11  O   UNL A   1      32.000  25.857  21.599  1.00  0.00    -0.273 OA
ATOM     12  N   UNL A   1      32.879  26.953  23.291  1.00  0.00    -0.354 N 
ATOM     13  H   UNL A   1      32.524  27.751  22.837  1.00  0.00     0.163 HD
BRANCH  12  14
ATOM     14  C   UNL A   1      33.550  27.213  24.540  1.00  0.00     0.117 C 
BRANCH  14  15
ATOM     15  C   UNL A   1      33.825  28.688  24.696  1.00  0.00     0.042 C 
BRANCH  15  16
ATOM     16  C   UNL A   1      34.189  28.971  26.137  1.00  0.00     0.118 C 
BRANCH  16  17
ATOM     17  N   UNL A   1      33.699  30.281  26.574  1.00  0.00    -0.352 N 
ATOM     18  C   UNL A   1      34.249  31.150  27.486  1.00  0.00     0.251 C 
ATOM     19  H   UNL A   1      32.857  30.580  26.157  1.00  0.00     0.163 HD
ATOM     20  O   UNL A   1      33.626  32.121  27.894  1.00  0.00    -0.269 OA
BRANCH  18  21
ATOM     21  C   UNL A   1      35.601  30.853  27.986  1.00  0.00     0.039 A 
ATOM     22  C   UNL A   1      36.539  31.878  28.095  1.00  0.00     0.014 A 
ATOM     23  C   UNL A   1      35.867  29.580  28.488  1.00  0.00     0.014 A 
ATOM     24  C   UNL A   1      37.713  31.646  28.808  1.00  0.00     0.010 A 
ATOM     25  C   UNL A   1      36.946  29.408  29.333  1.00  0.00     0.010 A 
ATOM     26  C   UNL A   1      37.896  30.429  29.486  1.00  0.00    -0.014 A 
BRANCH  26  27
ATOM     27  C   UNL A   1      39.080  30.167  30.341  1.00  0.00     0.031 A 
ATOM     28  C   UNL A   1      39.069  30.636  31.773  1.00  0.00     0.074 A 
ATOM     29  C   UNL A   1      40.189  29.610  29.815  1.00  0.00     0.049 A 
ATOM     30  N   UNL A   1      40.041  30.653  32.647  1.00  0.00    -0.248 NA
ATOM     31  C   UNL A   1      37.813  31.229  32.267  1.00  0.00     0.031 C 
ATOM     32  C   UNL A   1      40.357  29.188  28.421  1.00  0.00     0.029 A 
ATOM     33  N   UNL A   1      41.395  29.308  30.396  1.00  0.00    -0.354 N 
ATOM     34  C   UNL A   1      39.524  31.298  33.764  1.00  0.00     0.074 A 
ATOM     35  C   UNL A   1      38.189  31.734  33.429  1.00  0.00     0.031 C 
ATOM     36  C   UNL A   1      41.573  28.639  28.270  1.00  0.00     0.029 A 
ATOM     37  C   UNL A   1      42.287  28.711  29.539  1.00  0.00     0.049 A 
ATOM     38  H   UNL A   1      41.601  29.502  31.339  1.00  0.00     0.167 HD
ATOM     39  C   UNL A   1      40.091  31.470  34.979  1.00  0.00     0.037 A 
ATOM     40  C   UNL A   1      43.540  28.268  29.760  1.00  0.00     0.037 A 
ATOM     41  C   UNL A   1      41.386  30.959  35.332  1.00  0.00     0.049 A 
ATOM     42  C   UNL A   1      44.129  28.418  31.135  1.00  0.00     0.074 A 
ATOM     43  C   UNL A   1      42.021  30.990  36.559  1.00  0.00     0.029 A 
ATOM     44  N   UNL A   1      42.235  30.303  34.452  1.00  0.00    -0.354 N 
ATOM     45  N   UNL A   1      43.603  28.963  32.206  1.00  0.00    -0.248 NA
ATOM     46  C   UNL A   1      45.484  27.885  31.336  1.00  0.00     0.031 C 
ATOM     47  C   UNL A   1      43.271  30.380  36.415  1.00  0.00     0.029 A 
ATOM     48  C   UNL A   1      43.395  29.933  35.108  1.00  0.00     0.049 A 
ATOM     49  H   UNL A   1      42.040  30.128  33.503  1.00  0.00     0.167 HD
ATOM     50  C   UNL A   1      44.547  28.815  33.212  1.00  0.00     0.074 A 
ATOM     51  C   UNL A   1      45.674  28.115  32.628  1.00  0.00     0.031 C 
ATOM     52  C   UNL A   1      44.492  29.222  34.504  1.00  0.00     0.037 A 
BRANCH  39  53
ATOM     53  C   UNL A   1      39.295  32.212  36.014  1.00  0.00     0.057 A 
ATOM     54  C   UNL A   1      38.321  31.575  36.796  1.00  0.00     0.134 A 
ATOM     55  C   UNL A   1      39.503  33.579  36.231  1.00  0.00     0.134 A 
ATOM     56  F   UNL A   1      38.059  30.270  36.626  1.00  0.00    -0.206 F 
ATOM     57  C   UNL A   1      37.558  32.278  37.729  1.00  0.00     0.040 A 
ATOM     58  C   UNL A   1      38.768  34.287  37.185  1.00  0.00     0.040 A 
ATOM     59  F   UNL A   1      40.420  34.251  35.520  1.00  0.00    -0.206 F 
ATOM     60  C   UNL A   1      37.785  33.637  37.929  1.00  0.00     0.006 A 
ENDBRANCH  39  53
BRANCH  40  61
ATOM     61  C   UNL A   1      44.302  27.604  28.672  1.00  0.00     0.057 A 
ATOM     62  C   UNL A   1      44.426  26.210  28.631  1.00  0.00     0.134 A 
ATOM     63  C   UNL A   1      44.927  28.335  27.657  1.00  0.00     0.134 A 
ATOM     64  F   UNL A   1      43.861  25.454  29.585  1.00  0.00    -0.206 F 
ATOM     65  C   UNL A   1      45.162  25.567  27.634  1.00  0.00     0.040 A 
ATOM     66  C   UNL A   1      45.647  27.704  26.639  1.00  0.00     0.040 A 
ATOM     67  F   UNL A   1      44.839  29.673  27.632  1.00  0.00    -0.206 F 
ATOM     68  C   UNL A   1      45.772  26.317  26.631  1.00  0.00     0.006 A 
ENDBRANCH  40  61
BRANCH  52  69
ATOM     69  C   UNL A   1      45.662  28.888  35.379  1.00  0.00     0.057 A 
ATOM     70  C   UNL A   1      45.711  27.704  36.124  1.00  0.00     0.134 A 
ATOM     71  C   UNL A   1      46.775  29.736  35.430  1.00  0.00     0.134 A 
ATOM     72  F   UNL A   1      44.670  26.858  36.124  1.00  0.00    -0.206 F 
ATOM     73  C   UNL A   1      46.821  27.382  36.904  1.00  0.00     0.040 A 
ATOM     74  C   UNL A   1      47.901  29.413  36.186  1.00  0.00     0.040 A 
ATOM     75  F   UNL A   1      46.793  30.881  34.730  1.00  0.00    -0.206 F 
ATOM     76  C   UNL A   1      47.925  28.235  36.929  1.00  0.00     0.006 A 
ENDBRANCH  52  69
ENDBRANCH  26  27
ENDBRANCH  18  21
ENDBRANCH  16  17
ENDBRANCH  15  16
ENDBRANCH  14  15
ENDBRANCH  12  14
ENDBRANCH   5  10
ENDBRANCH   1   5
BRANCH   2  77
ATOM     77  C   UNL A   1      35.788  22.284  24.720  1.00  0.00     0.174 C 
BRANCH  77  78
ATOM     78  N   UNL A   1      37.154  22.536  25.439  1.00  0.00    -0.342 N 
ATOM     79  C   UNL A   1      38.351  22.170  25.966  1.00  0.00     0.242 C 
ATOM     80  H   UNL A   1      37.137  23.507  25.598  1.00  0.00     0.164 HD
ATOM     81  O   UNL A   1      38.810  23.152  26.603  1.00  0.00    -0.273 OA
BRANCH  79  82
ATOM     82  C   UNL A   1      39.438  20.936  25.846  1.00  0.00     0.168 C 
ATOM     83  C   UNL A   1      38.626  19.787  25.228  1.00  0.00     0.041 C 
BRANCH  82  84
ATOM     84  N   UNL A   1      40.355  20.268  26.829  1.00  0.00    -0.343 N 
ATOM     85  C   UNL A   1      41.535  19.569  26.837  1.00  0.00     0.240 C 
ATOM     86  H   UNL A   1      40.003  20.359  27.744  1.00  0.00     0.164 HD
ATOM     87  O   UNL A   1      42.056  19.381  27.949  1.00  0.00    -0.273 OA
BRANCH  85  88
ATOM     88  C   UNL A   1      42.146  18.833  25.638  1.00  0.00     0.219 C 
BRANCH  88  89
ATOM     89  N   UNL A   1      43.496  18.654  26.115  1.00  0.00    -0.312 N 
ATOM     90  C   UNL A   1      44.469  19.038  25.264  1.00  0.00     0.407 C 
ATOM     91  H   UNL A   1      43.693  18.277  27.003  1.00  0.00     0.167 HD
ATOM     92  O   UNL A   1      45.417  18.266  25.008  1.00  0.00    -0.225 OA
BRANCH  90  93
ATOM     93  O   UNL A   1      44.194  20.216  24.681  1.00  0.00    -0.445 OA
BRANCH  93  94
ATOM     94  C   UNL A   1      45.009  21.353  24.981  1.00  0.00     0.270 C 
BRANCH  94  95
ATOM     95  C   UNL A   1      44.162  22.479  25.485  1.00  0.00    -0.011 A 
ATOM     96  C   UNL A   1      43.488  22.332  26.704  1.00  0.00     0.007 A 
ATOM     97  C   UNL A   1      43.880  23.571  24.659  1.00  0.00     0.007 A 
ATOM     98  C   UNL A   1      42.476  23.217  27.053  1.00  0.00     0.000 A 
ATOM     99  C   UNL A   1      42.891  24.476  25.029  1.00  0.00     0.000 A 
ATOM    100  C   UNL A   1      42.176  24.285  26.213  1.00  0.00     0.000 A 
ENDBRANCH  94  95
ENDBRANCH  93  94
ENDBRANCH  90  93
ENDBRANCH  88  89
ENDBRANCH  85  88
ENDBRANCH  82  84
ENDBRANCH  79  82
ENDBRANCH  77  78
BRANCH  77 101
ATOM    101  C   UNL A   1      34.598  21.612  25.499  1.00  0.00     0.015 C 
ATOM    102  C   UNL A   1      34.387  20.137  25.099  1.00  0.00     0.010 C 
ATOM    103  C   UNL A   1      34.779  21.668  27.022  1.00  0.00     0.010 C 
ENDBRANCH  77 101
ENDBRANCH   2  77
TORSDOF 23
ENDMDL
