MODEL 1
REMARK VINA RESULT:     -11.4      0.000      0.000
REMARK SMILES CC[C@H]1CO[C@@H](C)CN1c1cccc(F)c1C(=O)NCCCNC(=O)c1ccc(-c2c3nc(c(-c4c(F)cccc4F)c4ccc([nH]4)c(-c4c(F)cccc4F)c4nc(c(-c5c(F)cccc5F)c5ccc2[nH]5)C=C4)C=C3)cc1
REMARK SMILES IDX 21 1 20 2 19 3 17 4 18 5 16 7 10 8 11 9 12 10 14 11 13 12
REMARK SMILES IDX 15 13 9 14 3 15 4 16 5 17 8 18 6 19 7 20 2 21 1 22 22 23
REMARK SMILES IDX 23 24 24 25 25 27 26 28 27 29 79 30 28 31 78 32 29 33 30 34
REMARK SMILES IDX 31 35 72 36 32 37 77 38 71 39 73 40 33 41 76 42 70 43 69 44
REMARK SMILES IDX 34 46 60 47 43 48 59 49 44 50 47 51 58 52 74 53 45 54 46 55
REMARK SMILES IDX 57 57 75 58 48 59 35 60 36 61 41 62 37 63 38 64 40 65 42 66
REMARK SMILES IDX 39 67 61 68 62 69 67 70 63 71 64 72 66 73 68 74 65 75 49 76
REMARK SMILES IDX 50 77 55 78 51 79 52 80 54 81 56 82 53 83
REMARK H PARENT 19 6 23 26 73 45 47 56
REMARK Flexibility Score: inf
ROOT
ATOM      1  C   UNL A   1      37.794  19.987  24.616  1.00  0.00     0.042 C 
ENDROOT
BRANCH   1   2
ATOM      2  C   UNL A   1      36.377  19.561  24.968  1.00  0.00     0.118 C 
BRANCH   2   3
ATOM      3  N   UNL A   1      35.544  20.613  25.528  1.00  0.00    -0.352 N 
ATOM      4  C   UNL A   1      34.162  20.619  25.601  1.00  0.00     0.256 C 
ATOM      5  O   UNL A   1      33.648  20.888  26.684  1.00  0.00    -0.269 OA
ATOM      6  H   UNL A   1      36.010  21.399  25.893  1.00  0.00     0.163 HD
BRANCH   4   7
ATOM      7  C   UNL A   1      33.340  20.488  24.369  1.00  0.00     0.098 A 
ATOM      8  C   UNL A   1      32.922  21.656  23.684  1.00  0.00     0.053 A 
ATOM      9  C   UNL A   1      32.223  21.513  22.468  1.00  0.00     0.027 A 
ATOM     10  C   UNL A   1      31.879  20.255  21.976  1.00  0.00     0.005 A 
ATOM     11  C   UNL A   1      32.909  19.244  23.908  1.00  0.00     0.138 A 
ATOM     12  C   UNL A   1      32.202  19.121  22.712  1.00  0.00     0.040 A 
ATOM     13  F   UNL A   1      33.093  18.131  24.630  1.00  0.00    -0.206 F 
BRANCH   8  14
ATOM     14  N   UNL A   1      33.141  22.927  24.205  1.00  0.00    -0.363 N 
ATOM     15  C   UNL A   1      31.996  23.782  24.630  1.00  0.00     0.108 C 
ATOM     16  C   UNL A   1      32.560  24.910  25.542  1.00  0.00     0.185 C 
ATOM     17  O   UNL A   1      33.624  25.653  24.926  1.00  0.00    -0.375 OA
ATOM     18  C   UNL A   1      34.240  23.685  23.580  1.00  0.00     0.148 C 
ATOM     19  C   UNL A   1      34.717  24.814  24.515  1.00  0.00     0.134 C 
ATOM     20  C   UNL A   1      35.516  24.291  25.709  1.00  0.00     0.040 C 
BRANCH  15  21
ATOM     21  C   UNL A   1      30.871  23.076  25.419  1.00  0.00     0.024 C 
ATOM     22  C   UNL A   1      30.974  23.130  26.938  1.00  0.00     0.006 C 
ENDBRANCH  15  21
ENDBRANCH   8  14
ENDBRANCH   4   7
ENDBRANCH   2   3
ENDBRANCH   1   2
BRANCH   1  23
ATOM     23  C   UNL A   1      38.712  20.227  25.808  1.00  0.00     0.118 C 
BRANCH  23  24
ATOM     24  N   UNL A   1      39.884  19.358  25.816  1.00  0.00    -0.352 N 
ATOM     25  C   UNL A   1      41.211  19.606  26.072  1.00  0.00     0.251 C 
ATOM     26  H   UNL A   1      39.687  18.420  25.598  1.00  0.00     0.163 HD
ATOM     27  O   UNL A   1      42.037  18.731  25.823  1.00  0.00    -0.269 OA
BRANCH  25  28
ATOM     28  C   UNL A   1      41.677  20.898  26.624  1.00  0.00     0.039 A 
ATOM     29  C   UNL A   1      42.083  21.901  25.734  1.00  0.00     0.014 A 
ATOM     30  C   UNL A   1      41.794  21.114  27.998  1.00  0.00     0.014 A 
ATOM     31  C   UNL A   1      42.530  23.134  26.218  1.00  0.00     0.010 A 
ATOM     32  C   UNL A   1      42.161  22.370  28.481  1.00  0.00     0.010 A 
ATOM     33  C   UNL A   1      42.533  23.394  27.597  1.00  0.00    -0.014 A 
BRANCH  33  34
ATOM     34  C   UNL A   1      42.913  24.723  28.138  1.00  0.00     0.031 A 
ATOM     35  C   UNL A   1      41.866  25.771  28.398  1.00  0.00     0.074 A 
ATOM     36  C   UNL A   1      44.214  25.021  28.317  1.00  0.00     0.049 A 
ATOM     37  N   UNL A   1      42.017  27.020  28.758  1.00  0.00    -0.248 NA
ATOM     38  C   UNL A   1      40.465  25.369  28.195  1.00  0.00     0.031 C 
ATOM     39  C   UNL A   1      45.332  24.111  28.061  1.00  0.00     0.029 A 
ATOM     40  N   UNL A   1      44.819  26.177  28.744  1.00  0.00    -0.354 N 
ATOM     41  C   UNL A   1      40.738  27.561  28.795  1.00  0.00     0.074 A 
ATOM     42  C   UNL A   1      39.826  26.515  28.384  1.00  0.00     0.031 C 
ATOM     43  C   UNL A   1      46.483  24.734  28.358  1.00  0.00     0.029 A 
ATOM     44  C   UNL A   1      46.189  26.098  28.790  1.00  0.00     0.049 A 
ATOM     45  H   UNL A   1      44.317  26.986  28.995  1.00  0.00     0.167 HD
ATOM     46  C   UNL A   1      40.357  28.810  29.155  1.00  0.00     0.037 A 
ATOM     47  C   UNL A   1      47.109  27.019  29.132  1.00  0.00     0.037 A 
ATOM     48  C   UNL A   1      41.260  29.834  29.609  1.00  0.00     0.049 A 
ATOM     49  C   UNL A   1      46.665  28.391  29.546  1.00  0.00     0.074 A 
ATOM     50  C   UNL A   1      40.959  31.100  30.079  1.00  0.00     0.029 A 
ATOM     51  N   UNL A   1      42.640  29.708  29.653  1.00  0.00    -0.354 N 
ATOM     52  N   UNL A   1      45.449  28.873  29.623  1.00  0.00    -0.248 NA
ATOM     53  C   UNL A   1      47.717  29.347  29.919  1.00  0.00     0.031 C 
ATOM     54  C   UNL A   1      42.160  31.754  30.375  1.00  0.00     0.029 A 
ATOM     55  C   UNL A   1      43.206  30.882  30.122  1.00  0.00     0.049 A 
ATOM     56  H   UNL A   1      43.143  28.904  29.389  1.00  0.00     0.167 HD
ATOM     57  C   UNL A   1      45.586  30.182  30.063  1.00  0.00     0.074 A 
ATOM     58  C   UNL A   1      47.003  30.416  30.247  1.00  0.00     0.031 C 
ATOM     59  C   UNL A   1      44.620  31.105  30.291  1.00  0.00     0.037 A 
BRANCH  46  60
ATOM     60  C   UNL A   1      38.895  29.137  29.078  1.00  0.00     0.057 A 
ATOM     61  C   UNL A   1      38.077  29.028  30.209  1.00  0.00     0.134 A 
ATOM     62  C   UNL A   1      38.289  29.528  27.877  1.00  0.00     0.134 A 
ATOM     63  F   UNL A   1      38.593  28.652  31.389  1.00  0.00    -0.206 F 
ATOM     64  C   UNL A   1      36.709  29.298  30.150  1.00  0.00     0.040 A 
ATOM     65  C   UNL A   1      36.926  29.824  27.810  1.00  0.00     0.040 A 
ATOM     66  F   UNL A   1      39.018  29.661  26.759  1.00  0.00    -0.206 F 
ATOM     67  C   UNL A   1      36.131  29.704  28.949  1.00  0.00     0.006 A 
ENDBRANCH  46  60
BRANCH  47  68
ATOM     68  C   UNL A   1      48.544  26.644  29.127  1.00  0.00     0.057 A 
ATOM     69  C   UNL A   1      49.176  26.152  30.275  1.00  0.00     0.134 A 
ATOM     70  C   UNL A   1      49.327  26.833  27.984  1.00  0.00     0.134 A 
ATOM     71  F   UNL A   1      48.479  25.960  31.404  1.00  0.00    -0.206 F 
ATOM     72  C   UNL A   1      50.546  25.881  30.291  1.00  0.00     0.040 A 
ATOM     73  C   UNL A   1      50.693  26.551  27.981  1.00  0.00     0.040 A 
ATOM     74  F   UNL A   1      48.769  27.289  26.853  1.00  0.00    -0.206 F 
ATOM     75  C   UNL A   1      51.308  26.081  29.141  1.00  0.00     0.006 A 
ENDBRANCH  47  68
BRANCH  59  76
ATOM     76  C   UNL A   1      45.056  32.456  30.770  1.00  0.00     0.057 A 
ATOM     77  C   UNL A   1      45.383  33.468  29.859  1.00  0.00     0.134 A 
ATOM     78  C   UNL A   1      45.225  32.730  32.133  1.00  0.00     0.134 A 
ATOM     79  F   UNL A   1      45.249  33.265  28.539  1.00  0.00    -0.206 F 
ATOM     80  C   UNL A   1      45.876  34.701  30.286  1.00  0.00     0.040 A 
ATOM     81  C   UNL A   1      45.699  33.966  32.573  1.00  0.00     0.040 A 
ATOM     82  F   UNL A   1      44.919  31.804  33.055  1.00  0.00    -0.206 F 
ATOM     83  C   UNL A   1      46.035  34.952  31.647  1.00  0.00     0.006 A 
ENDBRANCH  59  76
ENDBRANCH  33  34
ENDBRANCH  25  28
ENDBRANCH  23  24
ENDBRANCH   1  23
TORSDOF 12
ENDMDL
MODEL 2
REMARK VINA RESULT:     -11.4      0.560      6.316
REMARK SMILES CC[C@H]1CO[C@@H](C)CN1c1cccc(F)c1C(=O)NCCCNC(=O)c1ccc(-c2c3nc(c(-c4c(F)cccc4F)c4ccc([nH]4)c(-c4c(F)cccc4F)c4nc(c(-c5c(F)cccc5F)c5ccc2[nH]5)C=C4)C=C3)cc1
REMARK SMILES IDX 21 1 20 2 19 3 17 4 18 5 16 7 10 8 11 9 12 10 14 11 13 12
REMARK SMILES IDX 15 13 9 14 3 15 4 16 5 17 8 18 6 19 7 20 2 21 1 22 22 23
REMARK SMILES IDX 23 24 24 25 25 27 26 28 27 29 79 30 28 31 78 32 29 33 30 34
REMARK SMILES IDX 31 35 72 36 32 37 77 38 71 39 73 40 33 41 76 42 70 43 69 44
REMARK SMILES IDX 34 46 60 47 43 48 59 49 44 50 47 51 58 52 74 53 45 54 46 55
REMARK SMILES IDX 57 57 75 58 48 59 35 60 36 61 41 62 37 63 38 64 40 65 42 66
REMARK SMILES IDX 39 67 61 68 62 69 67 70 63 71 64 72 66 73 68 74 65 75 49 76
REMARK SMILES IDX 50 77 55 78 51 79 52 80 54 81 56 82 53 83
REMARK H PARENT 19 6 23 26 73 45 47 56
REMARK Flexibility Score: inf
ROOT
ATOM      1  C   UNL A   1      37.951  19.667  24.585  1.00  0.00     0.042 C 
ENDROOT
BRANCH   1   2
ATOM      2  C   UNL A   1      36.489  19.393  24.904  1.00  0.00     0.118 C 
BRANCH   2   3
ATOM      3  N   UNL A   1      35.753  20.532  25.424  1.00  0.00    -0.352 N 
ATOM      4  C   UNL A   1      34.380  20.630  25.571  1.00  0.00     0.256 C 
ATOM      5  O   UNL A   1      33.946  21.011  26.655  1.00  0.00    -0.269 OA
ATOM      6  H   UNL A   1      36.284  21.313  25.701  1.00  0.00     0.163 HD
BRANCH   4   7
ATOM      7  C   UNL A   1      33.481  20.458  24.399  1.00  0.00     0.098 A 
ATOM      8  C   UNL A   1      33.007  21.603  23.711  1.00  0.00     0.053 A 
ATOM      9  C   UNL A   1      32.233  21.421  22.547  1.00  0.00     0.027 A 
ATOM     10  C   UNL A   1      31.871  20.147  22.112  1.00  0.00     0.005 A 
ATOM     11  C   UNL A   1      33.035  19.199  23.999  1.00  0.00     0.138 A 
ATOM     12  C   UNL A   1      32.253  19.037  22.855  1.00  0.00     0.040 A 
ATOM     13  F   UNL A   1      33.278  18.107  24.737  1.00  0.00    -0.206 F 
BRANCH   8  14
ATOM     14  N   UNL A   1      33.246  22.890  24.183  1.00  0.00    -0.363 N 
ATOM     15  C   UNL A   1      32.112  23.792  24.537  1.00  0.00     0.108 C 
ATOM     16  C   UNL A   1      32.681  24.944  25.415  1.00  0.00     0.185 C 
ATOM     17  O   UNL A   1      33.781  25.632  24.799  1.00  0.00    -0.375 OA
ATOM     18  C   UNL A   1      34.382  23.591  23.559  1.00  0.00     0.148 C 
ATOM     19  C   UNL A   1      34.862  24.747  24.458  1.00  0.00     0.134 C 
ATOM     20  C   UNL A   1      35.613  24.257  25.696  1.00  0.00     0.040 C 
BRANCH  15  21
ATOM     21  C   UNL A   1      30.947  23.151  25.322  1.00  0.00     0.024 C 
ATOM     22  C   UNL A   1      31.111  23.075  26.835  1.00  0.00     0.006 C 
ENDBRANCH  15  21
ENDBRANCH   8  14
ENDBRANCH   4   7
ENDBRANCH   2   3
ENDBRANCH   1   2
BRANCH   1  23
ATOM     23  C   UNL A   1      38.831  19.966  25.793  1.00  0.00     0.118 C 
BRANCH  23  24
ATOM     24  N   UNL A   1      40.060  19.181  25.817  1.00  0.00    -0.352 N 
ATOM     25  C   UNL A   1      41.366  19.524  26.068  1.00  0.00     0.251 C 
ATOM     26  H   UNL A   1      39.929  18.227  25.616  1.00  0.00     0.163 HD
ATOM     27  O   UNL A   1      42.251  18.704  25.836  1.00  0.00    -0.269 OA
BRANCH  25  28
ATOM     28  C   UNL A   1      41.741  20.856  26.596  1.00  0.00     0.039 A 
ATOM     29  C   UNL A   1      42.159  21.842  25.693  1.00  0.00     0.014 A 
ATOM     30  C   UNL A   1      41.763  21.128  27.965  1.00  0.00     0.014 A 
ATOM     31  C   UNL A   1      42.521  23.112  26.154  1.00  0.00     0.010 A 
ATOM     32  C   UNL A   1      42.045  22.415  28.419  1.00  0.00     0.010 A 
ATOM     33  C   UNL A   1      42.427  23.422  27.520  1.00  0.00    -0.014 A 
BRANCH  33  34
ATOM     34  C   UNL A   1      42.715  24.787  28.029  1.00  0.00     0.031 A 
ATOM     35  C   UNL A   1      44.107  25.169  28.448  1.00  0.00     0.074 A 
ATOM     36  C   UNL A   1      41.704  25.660  28.197  1.00  0.00     0.049 A 
ATOM     37  N   UNL A   1      44.526  26.268  29.021  1.00  0.00    -0.248 NA
ATOM     38  C   UNL A   1      45.163  24.169  28.222  1.00  0.00     0.031 C 
ATOM     39  C   UNL A   1      40.300  25.400  27.873  1.00  0.00     0.029 A 
ATOM     40  N   UNL A   1      41.698  26.939  28.694  1.00  0.00    -0.354 N 
ATOM     41  C   UNL A   1      45.884  26.082  29.252  1.00  0.00     0.074 A 
ATOM     42  C   UNL A   1      46.210  24.749  28.791  1.00  0.00     0.031 C 
ATOM     43  C   UNL A   1      39.574  26.493  28.155  1.00  0.00     0.029 A 
ATOM     44  C   UNL A   1      40.452  27.516  28.716  1.00  0.00     0.049 A 
ATOM     45  H   UNL A   1      42.510  27.401  29.005  1.00  0.00     0.167 HD
ATOM     46  C   UNL A   1      46.779  26.949  29.782  1.00  0.00     0.037 A 
ATOM     47  C   UNL A   1      40.055  28.728  29.146  1.00  0.00     0.037 A 
ATOM     48  C   UNL A   1      46.463  28.290  30.196  1.00  0.00     0.049 A 
ATOM     49  C   UNL A   1      41.066  29.681  29.712  1.00  0.00     0.074 A 
ATOM     50  C   UNL A   1      47.320  29.271  30.662  1.00  0.00     0.029 A 
ATOM     51  N   UNL A   1      45.190  28.839  30.188  1.00  0.00    -0.354 N 
ATOM     52  N   UNL A   1      42.354  29.509  29.879  1.00  0.00    -0.248 NA
ATOM     53  C   UNL A   1      40.571  30.993  30.152  1.00  0.00     0.031 C 
ATOM     54  C   UNL A   1      46.560  30.404  30.971  1.00  0.00     0.029 A 
ATOM     55  C   UNL A   1      45.235  30.140  30.663  1.00  0.00     0.049 A 
ATOM     56  H   UNL A   1      44.375  28.374  29.891  1.00  0.00     0.167 HD
ATOM     57  C   UNL A   1      42.828  30.691  30.431  1.00  0.00     0.074 A 
ATOM     58  C   UNL A   1      41.690  31.578  30.561  1.00  0.00     0.031 C 
ATOM     59  C   UNL A   1      44.093  31.009  30.797  1.00  0.00     0.037 A 
BRANCH  46  60
ATOM     60  C   UNL A   1      48.194  26.472  29.941  1.00  0.00     0.057 A 
ATOM     61  C   UNL A   1      49.125  26.643  28.909  1.00  0.00     0.134 A 
ATOM     62  C   UNL A   1      48.625  25.816  31.101  1.00  0.00     0.134 A 
ATOM     63  F   UNL A   1      48.775  27.258  27.769  1.00  0.00    -0.206 F 
ATOM     64  C   UNL A   1      50.437  26.179  29.026  1.00  0.00     0.040 A 
ATOM     65  C   UNL A   1      49.940  25.369  31.239  1.00  0.00     0.040 A 
ATOM     66  F   UNL A   1      47.785  25.630  32.129  1.00  0.00    -0.206 F 
ATOM     67  C   UNL A   1      50.849  25.545  30.197  1.00  0.00     0.006 A 
ENDBRANCH  46  60
BRANCH  47  68
ATOM     68  C   UNL A   1      38.628  29.111  29.014  1.00  0.00     0.057 A 
ATOM     69  C   UNL A   1      38.109  29.601  27.810  1.00  0.00     0.134 A 
ATOM     70  C   UNL A   1      37.769  29.052  30.116  1.00  0.00     0.134 A 
ATOM     71  F   UNL A   1      38.887  29.689  26.722  1.00  0.00    -0.206 F 
ATOM     72  C   UNL A   1      36.787  30.039  27.713  1.00  0.00     0.040 A 
ATOM     73  C   UNL A   1      36.441  29.472  30.029  1.00  0.00     0.040 A 
ATOM     74  F   UNL A   1      38.210  28.578  31.290  1.00  0.00    -0.206 F 
ATOM     75  C   UNL A   1      35.950  29.976  28.826  1.00  0.00     0.006 A 
ENDBRANCH  47  68
BRANCH  59  76
ATOM     76  C   UNL A   1      44.324  32.373  31.372  1.00  0.00     0.057 A 
ATOM     77  C   UNL A   1      44.634  33.457  30.540  1.00  0.00     0.134 A 
ATOM     78  C   UNL A   1      44.314  32.596  32.753  1.00  0.00     0.134 A 
ATOM     79  F   UNL A   1      44.667  33.306  29.208  1.00  0.00    -0.206 F 
ATOM     80  C   UNL A   1      44.939  34.713  31.066  1.00  0.00     0.040 A 
ATOM     81  C   UNL A   1      44.599  33.852  33.289  1.00  0.00     0.040 A 
ATOM     82  F   UNL A   1      44.014  31.599  33.601  1.00  0.00    -0.206 F 
ATOM     83  C   UNL A   1      44.922  34.913  32.444  1.00  0.00     0.006 A 
ENDBRANCH  59  76
ENDBRANCH  33  34
ENDBRANCH  25  28
ENDBRANCH  23  24
ENDBRANCH   1  23
TORSDOF 12
ENDMDL
MODEL 3
REMARK VINA RESULT:     -11.4      5.086      9.690
REMARK SMILES CC[C@H]1CO[C@@H](C)CN1c1cccc(F)c1C(=O)NCCCNC(=O)c1ccc(-c2c3nc(c(-c4c(F)cccc4F)c4ccc([nH]4)c(-c4c(F)cccc4F)c4nc(c(-c5c(F)cccc5F)c5ccc2[nH]5)C=C4)C=C3)cc1
REMARK SMILES IDX 21 1 20 2 19 3 17 4 18 5 16 7 10 8 11 9 12 10 14 11 13 12
REMARK SMILES IDX 15 13 9 14 3 15 4 16 5 17 8 18 6 19 7 20 2 21 1 22 22 23
REMARK SMILES IDX 23 24 24 25 25 27 26 28 27 29 79 30 28 31 78 32 29 33 30 34
REMARK SMILES IDX 31 35 72 36 32 37 77 38 71 39 73 40 33 41 76 42 70 43 69 44
REMARK SMILES IDX 34 46 60 47 43 48 59 49 44 50 47 51 58 52 74 53 45 54 46 55
REMARK SMILES IDX 57 57 75 58 48 59 35 60 36 61 41 62 37 63 38 64 40 65 42 66
REMARK SMILES IDX 39 67 61 68 62 69 67 70 63 71 64 72 66 73 68 74 65 75 49 76
REMARK SMILES IDX 50 77 55 78 51 79 52 80 54 81 56 82 53 83
REMARK H PARENT 19 6 23 26 73 45 47 56
REMARK Flexibility Score: inf
ROOT
ATOM      1  C   UNL A   1      31.184  31.750  26.763  1.00  0.00     0.042 C 
ENDROOT
BRANCH   1   2
ATOM      2  C   UNL A   1      30.854  31.272  25.358  1.00  0.00     0.118 C 
BRANCH   2   3
ATOM      3  N   UNL A   1      31.616  30.117  24.911  1.00  0.00    -0.352 N 
ATOM      4  C   UNL A   1      31.349  29.332  23.803  1.00  0.00     0.256 C 
ATOM      5  O   UNL A   1      32.274  29.101  23.029  1.00  0.00    -0.269 OA
ATOM      6  H   UNL A   1      32.401  29.870  25.449  1.00  0.00     0.163 HD
BRANCH   4   7
ATOM      7  C   UNL A   1      30.038  28.645  23.663  1.00  0.00     0.098 A 
ATOM      8  C   UNL A   1      29.930  27.273  24.003  1.00  0.00     0.053 A 
ATOM      9  C   UNL A   1      28.662  26.661  23.954  1.00  0.00     0.027 A 
ATOM     10  C   UNL A   1      27.539  27.359  23.510  1.00  0.00     0.005 A 
ATOM     11  C   UNL A   1      28.923  29.298  23.137  1.00  0.00     0.138 A 
ATOM     12  C   UNL A   1      27.678  28.673  23.078  1.00  0.00     0.040 A 
ATOM     13  F   UNL A   1      29.021  30.524  22.604  1.00  0.00    -0.206 F 
BRANCH   8  14
ATOM     14  N   UNL A   1      31.048  26.513  24.334  1.00  0.00    -0.363 N 
ATOM     15  C   UNL A   1      31.544  25.451  23.413  1.00  0.00     0.108 C 
ATOM     16  C   UNL A   1      33.001  25.101  23.835  1.00  0.00     0.185 C 
ATOM     17  O   UNL A   1      33.116  24.747  25.222  1.00  0.00    -0.375 OA
ATOM     18  C   UNL A   1      31.171  26.160  25.759  1.00  0.00     0.148 C 
ATOM     19  C   UNL A   1      32.626  25.778  26.096  1.00  0.00     0.134 C 
ATOM     20  C   UNL A   1      33.559  26.989  26.131  1.00  0.00     0.040 C 
BRANCH  15  21
ATOM     21  C   UNL A   1      31.577  25.808  21.910  1.00  0.00     0.024 C 
ATOM     22  C   UNL A   1      32.886  25.538  21.179  1.00  0.00     0.006 C 
ENDBRANCH  15  21
ENDBRANCH   8  14
ENDBRANCH   4   7
ENDBRANCH   2   3
ENDBRANCH   1   2
BRANCH   1  23
ATOM     23  C   UNL A   1      32.534  32.442  26.911  1.00  0.00     0.118 C 
BRANCH  23  24
ATOM     24  N   UNL A   1      32.429  33.807  27.414  1.00  0.00    -0.352 N 
ATOM     25  C   UNL A   1      33.095  34.472  28.415  1.00  0.00     0.251 C 
ATOM     26  H   UNL A   1      31.756  34.353  26.950  1.00  0.00     0.163 HD
ATOM     27  O   UNL A   1      32.682  35.573  28.773  1.00  0.00    -0.269 OA
BRANCH  25  28
ATOM     28  C   UNL A   1      34.284  33.897  29.085  1.00  0.00     0.039 A 
ATOM     29  C   UNL A   1      34.096  32.881  30.031  1.00  0.00     0.014 A 
ATOM     30  C   UNL A   1      35.570  34.390  28.856  1.00  0.00     0.014 A 
ATOM     31  C   UNL A   1      35.195  32.314  30.684  1.00  0.00     0.010 A 
ATOM     32  C   UNL A   1      36.671  33.771  29.445  1.00  0.00     0.010 A 
ATOM     33  C   UNL A   1      36.497  32.727  30.366  1.00  0.00    -0.014 A 
BRANCH  33  34
ATOM     34  C   UNL A   1      37.689  32.082  30.973  1.00  0.00     0.031 A 
ATOM     35  C   UNL A   1      38.444  31.017  30.228  1.00  0.00     0.074 A 
ATOM     36  C   UNL A   1      38.043  32.394  32.234  1.00  0.00     0.049 A 
ATOM     37  N   UNL A   1      39.433  30.263  30.638  1.00  0.00    -0.248 NA
ATOM     38  C   UNL A   1      38.010  30.740  28.850  1.00  0.00     0.031 C 
ATOM     39  C   UNL A   1      37.368  33.376  33.083  1.00  0.00     0.029 A 
ATOM     40  N   UNL A   1      39.052  31.907  33.028  1.00  0.00    -0.354 N 
ATOM     41  C   UNL A   1      39.718  29.404  29.583  1.00  0.00     0.074 A 
ATOM     42  C   UNL A   1      38.773  29.705  28.529  1.00  0.00     0.031 C 
ATOM     43  C   UNL A   1      37.994  33.438  34.268  1.00  0.00     0.029 A 
ATOM     44  C   UNL A   1      39.091  32.474  34.278  1.00  0.00     0.049 A 
ATOM     45  H   UNL A   1      39.687  31.217  32.729  1.00  0.00     0.167 HD
ATOM     46  C   UNL A   1      40.689  28.465  29.495  1.00  0.00     0.037 A 
ATOM     47  C   UNL A   1      39.910  32.241  35.320  1.00  0.00     0.037 A 
ATOM     48  C   UNL A   1      41.658  28.201  30.526  1.00  0.00     0.049 A 
ATOM     49  C   UNL A   1      40.992  31.209  35.196  1.00  0.00     0.074 A 
ATOM     50  C   UNL A   1      42.733  27.330  30.493  1.00  0.00     0.029 A 
ATOM     51  N   UNL A   1      41.670  28.807  31.772  1.00  0.00    -0.354 N 
ATOM     52  N   UNL A   1      41.280  30.439  34.175  1.00  0.00    -0.248 NA
ATOM     53  C   UNL A   1      41.861  31.010  36.365  1.00  0.00     0.031 C 
ATOM     54  C   UNL A   1      43.377  27.384  31.734  1.00  0.00     0.029 A 
ATOM     55  C   UNL A   1      42.723  28.314  32.526  1.00  0.00     0.049 A 
ATOM     56  H   UNL A   1      41.026  29.487  32.077  1.00  0.00     0.167 HD
ATOM     57  C   UNL A   1      42.368  29.673  34.571  1.00  0.00     0.074 A 
ATOM     58  C   UNL A   1      42.696  30.079  35.922  1.00  0.00     0.031 C 
ATOM     59  C   UNL A   1      43.032  28.719  33.874  1.00  0.00     0.037 A 
BRANCH  46  60
ATOM     60  C   UNL A   1      40.756  27.654  28.234  1.00  0.00     0.057 A 
ATOM     61  C   UNL A   1      40.086  26.428  28.137  1.00  0.00     0.134 A 
ATOM     62  C   UNL A   1      41.509  28.070  27.129  1.00  0.00     0.134 A 
ATOM     63  F   UNL A   1      39.352  25.969  29.162  1.00  0.00    -0.206 F 
ATOM     64  C   UNL A   1      40.161  25.645  26.984  1.00  0.00     0.040 A 
ATOM     65  C   UNL A   1      41.572  27.307  25.961  1.00  0.00     0.040 A 
ATOM     66  F   UNL A   1      42.166  29.238  27.154  1.00  0.00    -0.206 F 
ATOM     67  C   UNL A   1      40.901  26.087  25.889  1.00  0.00     0.006 A 
ENDBRANCH  46  60
BRANCH  47  68
ATOM     68  C   UNL A   1      39.749  33.039  36.560  1.00  0.00     0.057 A 
ATOM     69  C   UNL A   1      38.846  32.663  37.561  1.00  0.00     0.134 A 
ATOM     70  C   UNL A   1      40.454  34.234  36.735  1.00  0.00     0.134 A 
ATOM     71  F   UNL A   1      38.136  31.532  37.444  1.00  0.00    -0.206 F 
ATOM     72  C   UNL A   1      38.635  33.461  38.687  1.00  0.00     0.040 A 
ATOM     73  C   UNL A   1      40.264  35.033  37.863  1.00  0.00     0.040 A 
ATOM     74  F   UNL A   1      41.341  34.635  35.814  1.00  0.00    -0.206 F 
ATOM     75  C   UNL A   1      39.345  34.651  38.839  1.00  0.00     0.006 A 
ENDBRANCH  47  68
BRANCH  59  76
ATOM     76  C   UNL A   1      44.185  28.046  34.553  1.00  0.00     0.057 A 
ATOM     77  C   UNL A   1      43.994  26.874  35.296  1.00  0.00     0.134 A 
ATOM     78  C   UNL A   1      45.471  28.599  34.534  1.00  0.00     0.134 A 
ATOM     79  F   UNL A   1      42.783  26.298  35.360  1.00  0.00    -0.206 F 
ATOM     80  C   UNL A   1      45.039  26.284  36.008  1.00  0.00     0.040 A 
ATOM     81  C   UNL A   1      46.528  28.008  35.226  1.00  0.00     0.040 A 
ATOM     82  F   UNL A   1      45.719  29.716  33.832  1.00  0.00    -0.206 F 
ATOM     83  C   UNL A   1      46.310  26.852  35.973  1.00  0.00     0.006 A 
ENDBRANCH  59  76
ENDBRANCH  33  34
ENDBRANCH  25  28
ENDBRANCH  23  24
ENDBRANCH   1  23
TORSDOF 12
ENDMDL
