MODEL 1
REMARK VINA RESULT:     -11.0      0.000      0.000
REMARK SMILES CC(=O)N(c1ccccc1)c1nc(/C=C(/C#N)C(=O)NCCCNC(=O)c2ccc(-c3c4nc(c(-c5c(F)cccc5F)c5ccc([nH]5)c(-c5c(F)cccc5F)c5nc(c(-c6c(F)cccc6F)c6ccc3[nH]6)C=C5)C=C4)cc2)cs1
REMARK SMILES IDX 21 1 20 2 18 3 19 4 15 6 14 7 13 8 11 9 12 10 82 11 81 12
REMARK SMILES IDX 4 13 2 14 1 15 3 16 5 17 6 18 10 19 7 20 9 21 8 22 16 23
REMARK SMILES IDX 17 24 22 25 23 26 24 27 25 28 26 30 27 31 28 32 80 33 29 34
REMARK SMILES IDX 79 35 30 36 31 37 32 38 73 39 33 40 78 41 72 42 74 43 34 44
REMARK SMILES IDX 77 45 71 46 70 47 35 49 61 50 44 51 60 52 45 53 48 54 59 55
REMARK SMILES IDX 75 56 46 57 47 58 58 60 76 61 49 62 36 63 37 64 42 65 38 66
REMARK SMILES IDX 39 67 41 68 43 69 40 70 62 71 63 72 68 73 64 74 65 75 67 76
REMARK SMILES IDX 69 77 66 78 50 79 51 80 56 81 52 82 53 83 55 84 57 85 54 86
REMARK H PARENT 20 5 24 29 74 48 48 59
REMARK Flexibility Score: inf
ROOT
ATOM      1  C   UNL A   1      33.377  29.095  24.831  1.00  0.00     0.118 C 
ENDROOT
BRANCH   1   2
ATOM      2  N   UNL A   1      33.734  28.830  23.443  1.00  0.00    -0.351 N 
ATOM      3  C   UNL A   1      33.241  27.945  22.529  1.00  0.00     0.262 C 
ATOM      4  O   UNL A   1      34.022  27.566  21.657  1.00  0.00    -0.268 OA
ATOM      5  H   UNL A   1      34.468  29.392  23.103  1.00  0.00     0.163 HD
BRANCH   3   6
ATOM      6  C   UNL A   1      31.813  27.474  22.560  1.00  0.00     0.119 C 
ATOM      7  C   UNL A   1      31.490  26.189  22.824  1.00  0.00     0.054 C 
BRANCH   7   8
ATOM      8  C   UNL A   1      32.370  25.062  23.022  1.00  0.00     0.078 A 
ATOM      9  C   UNL A   1      33.557  23.697  24.309  1.00  0.00     0.197 A 
ATOM     10  N   UNL A   1      32.686  24.691  24.323  1.00  0.00    -0.220 NA
ATOM     11  S   UNL A   1      34.022  23.145  22.745  1.00  0.00    -0.104 S 
ATOM     12  C   UNL A   1      32.904  24.236  22.053  1.00  0.00     0.097 A 
BRANCH   9  13
ATOM     13  N   UNL A   1      34.012  22.935  25.387  1.00  0.00    -0.256 N 
BRANCH  13  14
ATOM     14  C   UNL A   1      33.025  22.321  26.152  1.00  0.00     0.230 C 
ATOM     15  C   UNL A   1      32.993  22.635  27.632  1.00  0.00     0.115 C 
ATOM     16  O   UNL A   1      32.191  21.523  25.712  1.00  0.00    -0.274 OA
ENDBRANCH  13  14
BRANCH  13  17
ATOM     17  C   UNL A   1      35.421  22.732  25.507  1.00  0.00     0.051 A 
ATOM     18  C   UNL A   1      35.968  21.450  25.317  1.00  0.00     0.027 A 
ATOM     19  C   UNL A   1      36.290  23.784  25.829  1.00  0.00     0.027 A 
ATOM     20  C   UNL A   1      37.346  21.238  25.415  1.00  0.00     0.002 A 
ATOM     21  C   UNL A   1      37.668  23.568  25.939  1.00  0.00     0.002 A 
ATOM     22  C   UNL A   1      38.197  22.297  25.724  1.00  0.00     0.000 A 
ENDBRANCH  13  17
ENDBRANCH   9  13
ENDBRANCH   7   8
BRANCH   6  23
ATOM     23  C   UNL A   1      30.804  28.590  22.347  1.00  0.00     0.105 C 
ATOM     24  N   UNL A   1      29.967  29.516  22.169  1.00  0.00    -0.192 NA
ENDBRANCH   6  23
ENDBRANCH   3   6
ENDBRANCH   1   2
BRANCH   1  25
ATOM     25  C   UNL A   1      33.903  27.968  25.728  1.00  0.00     0.042 C 
BRANCH  25  26
ATOM     26  C   UNL A   1      33.658  28.230  27.214  1.00  0.00     0.118 C 
BRANCH  26  27
ATOM     27  N   UNL A   1      33.590  29.656  27.500  1.00  0.00    -0.352 N 
ATOM     28  C   UNL A   1      34.507  30.467  28.110  1.00  0.00     0.251 C 
ATOM     29  H   UNL A   1      32.761  30.103  27.212  1.00  0.00     0.163 HD
ATOM     30  O   UNL A   1      34.165  31.587  28.497  1.00  0.00    -0.269 OA
BRANCH  28  31
ATOM     31  C   UNL A   1      35.900  30.021  28.302  1.00  0.00     0.039 A 
ATOM     32  C   UNL A   1      36.289  29.540  29.556  1.00  0.00     0.014 A 
ATOM     33  C   UNL A   1      36.841  30.142  27.274  1.00  0.00     0.014 A 
ATOM     34  C   UNL A   1      37.612  29.153  29.772  1.00  0.00     0.010 A 
ATOM     35  C   UNL A   1      38.147  29.702  27.473  1.00  0.00     0.010 A 
ATOM     36  C   UNL A   1      38.548  29.217  28.727  1.00  0.00    -0.014 A 
BRANCH  36  37
ATOM     37  C   UNL A   1      39.958  28.804  28.933  1.00  0.00     0.031 A 
ATOM     38  C   UNL A   1      40.949  29.774  29.512  1.00  0.00     0.074 A 
ATOM     39  C   UNL A   1      40.356  27.580  28.541  1.00  0.00     0.049 A 
ATOM     40  N   UNL A   1      42.238  29.635  29.687  1.00  0.00    -0.248 NA
ATOM     41  C   UNL A   1      40.426  31.086  29.924  1.00  0.00     0.031 C 
ATOM     42  C   UNL A   1      39.496  26.565  27.930  1.00  0.00     0.029 A 
ATOM     43  N   UNL A   1      41.592  26.987  28.585  1.00  0.00    -0.354 N 
ATOM     44  C   UNL A   1      42.683  30.844  30.207  1.00  0.00     0.074 A 
ATOM     45  C   UNL A   1      41.534  31.721  30.280  1.00  0.00     0.031 C 
ATOM     46  C   UNL A   1      40.227  25.470  27.671  1.00  0.00     0.029 A 
ATOM     47  C   UNL A   1      41.610  25.716  28.065  1.00  0.00     0.049 A 
ATOM     48  H   UNL A   1      42.390  27.430  28.954  1.00  0.00     0.167 HD
ATOM     49  C   UNL A   1      43.931  31.186  30.605  1.00  0.00     0.037 A 
ATOM     50  C   UNL A   1      42.631  24.851  27.917  1.00  0.00     0.037 A 
ATOM     51  C   UNL A   1      45.064  30.300  30.561  1.00  0.00     0.049 A 
ATOM     52  C   UNL A   1      44.005  25.250  28.377  1.00  0.00     0.074 A 
ATOM     53  C   UNL A   1      46.358  30.530  30.996  1.00  0.00     0.029 A 
ATOM     54  N   UNL A   1      45.036  29.009  30.054  1.00  0.00    -0.354 N 
ATOM     55  N   UNL A   1      44.400  26.377  28.916  1.00  0.00    -0.248 NA
ATOM     56  C   UNL A   1      45.072  24.254  28.213  1.00  0.00     0.031 C 
ATOM     57  C   UNL A   1      47.121  29.391  30.723  1.00  0.00     0.029 A 
ATOM     58  C   UNL A   1      46.293  28.436  30.153  1.00  0.00     0.049 A 
ATOM     59  H   UNL A   1      44.241  28.567  29.681  1.00  0.00     0.167 HD
ATOM     60  C   UNL A   1      45.754  26.218  29.181  1.00  0.00     0.074 A 
ATOM     61  C   UNL A   1      46.109  24.880  28.752  1.00  0.00     0.031 C 
ATOM     62  C   UNL A   1      46.625  27.100  29.729  1.00  0.00     0.037 A 
BRANCH  49  63
ATOM     63  C   UNL A   1      44.133  32.579  31.126  1.00  0.00     0.057 A 
ATOM     64  C   UNL A   1      43.991  32.887  32.486  1.00  0.00     0.134 A 
ATOM     65  C   UNL A   1      44.499  33.620  30.264  1.00  0.00     0.134 A 
ATOM     66  F   UNL A   1      43.630  31.937  33.363  1.00  0.00    -0.206 F 
ATOM     67  C   UNL A   1      44.178  34.184  32.965  1.00  0.00     0.040 A 
ATOM     68  C   UNL A   1      44.713  34.916  30.735  1.00  0.00     0.040 A 
ATOM     69  F   UNL A   1      44.658  33.394  28.951  1.00  0.00    -0.206 F 
ATOM     70  C   UNL A   1      44.546  35.203  32.088  1.00  0.00     0.006 A 
ENDBRANCH  49  63
BRANCH  50  71
ATOM     71  C   UNL A   1      42.386  23.511  27.330  1.00  0.00     0.057 A 
ATOM     72  C   UNL A   1      42.047  22.423  28.141  1.00  0.00     0.134 A 
ATOM     73  C   UNL A   1      42.479  23.287  25.951  1.00  0.00     0.134 A 
ATOM     74  F   UNL A   1      41.960  22.574  29.471  1.00  0.00    -0.206 F 
ATOM     75  C   UNL A   1      41.825  21.153  27.606  1.00  0.00     0.040 A 
ATOM     76  C   UNL A   1      42.238  22.027  25.400  1.00  0.00     0.040 A 
ATOM     77  F   UNL A   1      42.792  24.292  25.121  1.00  0.00    -0.206 F 
ATOM     78  C   UNL A   1      41.916  20.955  26.229  1.00  0.00     0.006 A 
ENDBRANCH  50  71
BRANCH  62  79
ATOM     79  C   UNL A   1      48.036  26.633  29.927  1.00  0.00     0.057 A 
ATOM     80  C   UNL A   1      49.030  26.864  28.970  1.00  0.00     0.134 A 
ATOM     81  C   UNL A   1      48.409  25.977  31.107  1.00  0.00     0.134 A 
ATOM     82  F   UNL A   1      48.733  27.475  27.814  1.00  0.00    -0.206 F 
ATOM     83  C   UNL A   1      50.345  26.441  29.170  1.00  0.00     0.040 A 
ATOM     84  C   UNL A   1      49.724  25.569  31.329  1.00  0.00     0.040 A 
ATOM     85  F   UNL A   1      47.503  25.733  32.066  1.00  0.00    -0.206 F 
ATOM     86  C   UNL A   1      50.696  25.797  30.356  1.00  0.00     0.006 A 
ENDBRANCH  62  79
ENDBRANCH  36  37
ENDBRANCH  28  31
ENDBRANCH  26  27
ENDBRANCH  25  26
ENDBRANCH   1  25
TORSDOF 15
ENDMDL
MODEL 2
REMARK VINA RESULT:     -10.7      1.094      2.060
REMARK SMILES CC(=O)N(c1ccccc1)c1nc(/C=C(/C#N)C(=O)NCCCNC(=O)c2ccc(-c3c4nc(c(-c5c(F)cccc5F)c5ccc([nH]5)c(-c5c(F)cccc5F)c5nc(c(-c6c(F)cccc6F)c6ccc3[nH]6)C=C5)C=C4)cc2)cs1
REMARK SMILES IDX 21 1 20 2 18 3 19 4 15 6 14 7 13 8 11 9 12 10 82 11 81 12
REMARK SMILES IDX 4 13 2 14 1 15 3 16 5 17 6 18 10 19 7 20 9 21 8 22 16 23
REMARK SMILES IDX 17 24 22 25 23 26 24 27 25 28 26 30 27 31 28 32 80 33 29 34
REMARK SMILES IDX 79 35 30 36 31 37 32 38 73 39 33 40 78 41 72 42 74 43 34 44
REMARK SMILES IDX 77 45 71 46 70 47 35 49 61 50 44 51 60 52 45 53 48 54 59 55
REMARK SMILES IDX 75 56 46 57 47 58 58 60 76 61 49 62 36 63 37 64 42 65 38 66
REMARK SMILES IDX 39 67 41 68 43 69 40 70 62 71 63 72 68 73 64 74 65 75 67 76
REMARK SMILES IDX 69 77 66 78 50 79 51 80 56 81 52 82 53 83 55 84 57 85 54 86
REMARK H PARENT 20 5 24 29 74 48 48 59
REMARK Flexibility Score: inf
ROOT
ATOM      1  C   UNL A   1      31.772  28.851  25.883  1.00  0.00     0.118 C 
ENDROOT
BRANCH   1   2
ATOM      2  N   UNL A   1      32.426  28.642  24.597  1.00  0.00    -0.351 N 
ATOM      3  C   UNL A   1      32.097  27.866  23.524  1.00  0.00     0.262 C 
ATOM      4  O   UNL A   1      33.031  27.472  22.827  1.00  0.00    -0.268 OA
ATOM      5  H   UNL A   1      33.259  29.155  24.483  1.00  0.00     0.163 HD
BRANCH   3   6
ATOM      6  C   UNL A   1      30.671  27.527  23.188  1.00  0.00     0.119 C 
ATOM      7  C   UNL A   1      30.068  26.417  23.666  1.00  0.00     0.054 C 
BRANCH   7   8
ATOM      8  C   UNL A   1      30.638  25.353  24.459  1.00  0.00     0.078 A 
ATOM      9  C   UNL A   1      31.846  23.506  24.693  1.00  0.00     0.197 A 
ATOM     10  N   UNL A   1      31.486  24.446  23.837  1.00  0.00    -0.220 NA
ATOM     11  S   UNL A   1      31.210  23.673  26.285  1.00  0.00    -0.104 S 
ATOM     12  C   UNL A   1      30.497  25.154  25.818  1.00  0.00     0.097 A 
BRANCH   9  13
ATOM     13  N   UNL A   1      32.802  22.502  24.519  1.00  0.00    -0.256 N 
BRANCH  13  14
ATOM     14  C   UNL A   1      32.312  21.267  24.106  1.00  0.00     0.230 C 
ATOM     15  C   UNL A   1      31.955  21.110  22.645  1.00  0.00     0.115 C 
ATOM     16  O   UNL A   1      32.128  20.300  24.853  1.00  0.00    -0.274 OA
ENDBRANCH  13  14
BRANCH  13  17
ATOM     17  C   UNL A   1      34.178  22.871  24.627  1.00  0.00     0.051 A 
ATOM     18  C   UNL A   1      35.019  22.795  23.503  1.00  0.00     0.027 A 
ATOM     19  C   UNL A   1      34.730  23.300  25.843  1.00  0.00     0.027 A 
ATOM     20  C   UNL A   1      36.364  23.168  23.588  1.00  0.00     0.002 A 
ATOM     21  C   UNL A   1      36.079  23.661  25.929  1.00  0.00     0.002 A 
ATOM     22  C   UNL A   1      36.893  23.602  24.801  1.00  0.00     0.000 A 
ENDBRANCH  13  17
ENDBRANCH   9  13
ENDBRANCH   7   8
BRANCH   6  23
ATOM     23  C   UNL A   1      29.984  28.584  22.340  1.00  0.00     0.105 C 
ATOM     24  N   UNL A   1      29.413  29.461  21.636  1.00  0.00    -0.192 NA
ENDBRANCH   6  23
ENDBRANCH   3   6
ENDBRANCH   1   2
BRANCH   1  25
ATOM     25  C   UNL A   1      32.485  28.035  26.968  1.00  0.00     0.042 C 
BRANCH  25  26
ATOM     26  C   UNL A   1      33.878  28.575  27.295  1.00  0.00     0.118 C 
BRANCH  26  27
ATOM     27  N   UNL A   1      33.827  29.972  27.699  1.00  0.00    -0.352 N 
ATOM     28  C   UNL A   1      34.743  30.712  28.393  1.00  0.00     0.251 C 
ATOM     29  H   UNL A   1      33.012  30.457  27.433  1.00  0.00     0.163 HD
ATOM     30  O   UNL A   1      34.411  31.802  28.866  1.00  0.00    -0.269 OA
BRANCH  28  31
ATOM     31  C   UNL A   1      36.125  30.228  28.574  1.00  0.00     0.039 A 
ATOM     32  C   UNL A   1      36.500  29.703  29.814  1.00  0.00     0.014 A 
ATOM     33  C   UNL A   1      37.071  30.355  27.551  1.00  0.00     0.014 A 
ATOM     34  C   UNL A   1      37.813  29.277  30.020  1.00  0.00     0.010 A 
ATOM     35  C   UNL A   1      38.365  29.878  27.739  1.00  0.00     0.010 A 
ATOM     36  C   UNL A   1      38.752  29.347  28.979  1.00  0.00    -0.014 A 
BRANCH  36  37
ATOM     37  C   UNL A   1      40.151  28.895  29.175  1.00  0.00     0.031 A 
ATOM     38  C   UNL A   1      41.167  29.827  29.774  1.00  0.00     0.074 A 
ATOM     39  C   UNL A   1      40.518  27.670  28.756  1.00  0.00     0.049 A 
ATOM     40  N   UNL A   1      42.452  29.651  29.945  1.00  0.00    -0.248 NA
ATOM     41  C   UNL A   1      40.677  31.142  30.215  1.00  0.00     0.031 C 
ATOM     42  C   UNL A   1      39.632  26.690  28.124  1.00  0.00     0.029 A 
ATOM     43  N   UNL A   1      41.739  27.045  28.786  1.00  0.00    -0.354 N 
ATOM     44  C   UNL A   1      42.927  30.837  30.490  1.00  0.00     0.074 A 
ATOM     45  C   UNL A   1      41.801  31.741  30.583  1.00  0.00     0.031 C 
ATOM     46  C   UNL A   1      40.336  25.583  27.841  1.00  0.00     0.029 A 
ATOM     47  C   UNL A   1      41.725  25.786  28.238  1.00  0.00     0.049 A 
ATOM     48  H   UNL A   1      42.547  27.460  29.165  1.00  0.00     0.167 HD
ATOM     49  C   UNL A   1      44.184  31.139  30.895  1.00  0.00     0.037 A 
ATOM     50  C   UNL A   1      42.723  24.899  28.071  1.00  0.00     0.037 A 
ATOM     51  C   UNL A   1      45.294  30.225  30.831  1.00  0.00     0.049 A 
ATOM     52  C   UNL A   1      44.107  25.252  28.539  1.00  0.00     0.074 A 
ATOM     53  C   UNL A   1      46.594  30.414  31.270  1.00  0.00     0.029 A 
ATOM     54  N   UNL A   1      45.233  28.947  30.296  1.00  0.00    -0.354 N 
ATOM     55  N   UNL A   1      44.530  26.357  29.102  1.00  0.00    -0.248 NA
ATOM     56  C   UNL A   1      45.149  24.234  28.352  1.00  0.00     0.031 C 
ATOM     57  C   UNL A   1      47.327  29.261  30.971  1.00  0.00     0.029 A 
ATOM     58  C   UNL A   1      46.475  28.341  30.382  1.00  0.00     0.049 A 
ATOM     59  H   UNL A   1      44.427  28.533  29.914  1.00  0.00     0.167 HD
ATOM     60  C   UNL A   1      45.880  26.158  29.362  1.00  0.00     0.074 A 
ATOM     61  C   UNL A   1      46.201  24.822  28.904  1.00  0.00     0.031 C 
ATOM     62  C   UNL A   1      46.773  27.006  29.929  1.00  0.00     0.037 A 
BRANCH  49  63
ATOM     63  C   UNL A   1      44.420  32.515  31.446  1.00  0.00     0.057 A 
ATOM     64  C   UNL A   1      44.803  33.584  30.624  1.00  0.00     0.134 A 
ATOM     65  C   UNL A   1      44.238  32.781  32.808  1.00  0.00     0.134 A 
ATOM     66  F   UNL A   1      45.005  33.392  29.311  1.00  0.00    -0.206 F 
ATOM     67  C   UNL A   1      45.023  34.861  31.142  1.00  0.00     0.040 A 
ATOM     68  C   UNL A   1      44.431  34.061  33.333  1.00  0.00     0.040 A 
ATOM     69  F   UNL A   1      43.867  31.805  33.651  1.00  0.00    -0.206 F 
ATOM     70  C   UNL A   1      44.831  35.103  32.500  1.00  0.00     0.006 A 
ENDBRANCH  49  63
BRANCH  50  71
ATOM     71  C   UNL A   1      42.444  23.578  27.455  1.00  0.00     0.057 A 
ATOM     72  C   UNL A   1      42.531  23.399  26.070  1.00  0.00     0.134 A 
ATOM     73  C   UNL A   1      42.090  22.468  28.231  1.00  0.00     0.134 A 
ATOM     74  F   UNL A   1      42.849  24.431  25.275  1.00  0.00    -0.206 F 
ATOM     75  C   UNL A   1      42.260  22.166  25.475  1.00  0.00     0.040 A 
ATOM     76  C   UNL A   1      41.838  21.224  27.651  1.00  0.00     0.040 A 
ATOM     77  F   UNL A   1      41.999  22.575  29.565  1.00  0.00    -0.206 F 
ATOM     78  C   UNL A   1      41.916  21.072  26.268  1.00  0.00     0.006 A 
ENDBRANCH  50  71
BRANCH  62  79
ATOM     79  C   UNL A   1      48.172  26.499  30.116  1.00  0.00     0.057 A 
ATOM     80  C   UNL A   1      48.558  25.812  31.272  1.00  0.00     0.134 A 
ATOM     81  C   UNL A   1      49.130  26.668  29.109  1.00  0.00     0.134 A 
ATOM     82  F   UNL A   1      47.690  25.629  32.277  1.00  0.00    -0.206 F 
ATOM     83  C   UNL A   1      49.857  25.327  31.430  1.00  0.00     0.040 A 
ATOM     84  C   UNL A   1      50.426  26.169  29.245  1.00  0.00     0.040 A 
ATOM     85  F   UNL A   1      48.820  27.312  27.974  1.00  0.00    -0.206 F 
ATOM     86  C   UNL A   1      50.793  25.500  30.411  1.00  0.00     0.006 A 
ENDBRANCH  62  79
ENDBRANCH  36  37
ENDBRANCH  28  31
ENDBRANCH  26  27
ENDBRANCH  25  26
ENDBRANCH   1  25
TORSDOF 15
ENDMDL
MODEL 3
REMARK VINA RESULT:     -10.7      2.132      7.372
REMARK SMILES CC(=O)N(c1ccccc1)c1nc(/C=C(/C#N)C(=O)NCCCNC(=O)c2ccc(-c3c4nc(c(-c5c(F)cccc5F)c5ccc([nH]5)c(-c5c(F)cccc5F)c5nc(c(-c6c(F)cccc6F)c6ccc3[nH]6)C=C5)C=C4)cc2)cs1
REMARK SMILES IDX 21 1 20 2 18 3 19 4 15 6 14 7 13 8 11 9 12 10 82 11 81 12
REMARK SMILES IDX 4 13 2 14 1 15 3 16 5 17 6 18 10 19 7 20 9 21 8 22 16 23
REMARK SMILES IDX 17 24 22 25 23 26 24 27 25 28 26 30 27 31 28 32 80 33 29 34
REMARK SMILES IDX 79 35 30 36 31 37 32 38 73 39 33 40 78 41 72 42 74 43 34 44
REMARK SMILES IDX 77 45 71 46 70 47 35 49 61 50 44 51 60 52 45 53 48 54 59 55
REMARK SMILES IDX 75 56 46 57 47 58 58 60 76 61 49 62 36 63 37 64 42 65 38 66
REMARK SMILES IDX 39 67 41 68 43 69 40 70 62 71 63 72 68 73 64 74 65 75 67 76
REMARK SMILES IDX 69 77 66 78 50 79 51 80 56 81 52 82 53 83 55 84 57 85 54 86
REMARK H PARENT 20 5 24 29 74 48 48 59
REMARK Flexibility Score: inf
ROOT
ATOM      1  C   UNL A   1      36.126  20.887  24.676  1.00  0.00     0.118 C 
ENDROOT
BRANCH   1   2
ATOM      2  N   UNL A   1      35.350  21.142  25.884  1.00  0.00    -0.351 N 
ATOM      3  C   UNL A   1      34.021  21.378  26.079  1.00  0.00     0.262 C 
ATOM      4  O   UNL A   1      33.724  22.057  27.063  1.00  0.00    -0.268 OA
ATOM      5  H   UNL A   1      35.885  21.144  26.711  1.00  0.00     0.163 HD
BRANCH   3   6
ATOM      6  C   UNL A   1      32.965  20.822  25.164  1.00  0.00     0.119 C 
ATOM      7  C   UNL A   1      32.432  21.552  24.160  1.00  0.00     0.054 C 
BRANCH   7   8
ATOM      8  C   UNL A   1      32.669  22.938  23.832  1.00  0.00     0.078 A 
ATOM      9  C   UNL A   1      32.084  25.080  23.805  1.00  0.00     0.197 A 
ATOM     10  N   UNL A   1      31.748  23.885  24.260  1.00  0.00    -0.220 NA
ATOM     11  S   UNL A   1      33.526  25.131  22.863  1.00  0.00    -0.104 S 
ATOM     12  C   UNL A   1      33.764  23.470  23.180  1.00  0.00     0.097 A 
BRANCH   9  13
ATOM     13  N   UNL A   1      31.520  26.316  24.128  1.00  0.00    -0.256 N 
BRANCH  13  14
ATOM     14  C   UNL A   1      30.363  26.652  23.433  1.00  0.00     0.230 C 
ATOM     15  C   UNL A   1      30.492  27.643  22.298  1.00  0.00     0.115 C 
ATOM     16  O   UNL A   1      29.237  26.216  23.694  1.00  0.00    -0.274 OA
ENDBRANCH  13  14
BRANCH  13  17
ATOM     17  C   UNL A   1      32.083  27.034  25.228  1.00  0.00     0.051 A 
ATOM     18  C   UNL A   1      31.353  27.182  26.421  1.00  0.00     0.027 A 
ATOM     19  C   UNL A   1      33.355  27.619  25.150  1.00  0.00     0.027 A 
ATOM     20  C   UNL A   1      31.896  27.867  27.512  1.00  0.00     0.002 A 
ATOM     21  C   UNL A   1      33.892  28.315  26.238  1.00  0.00     0.002 A 
ATOM     22  C   UNL A   1      33.165  28.432  27.421  1.00  0.00     0.000 A 
ENDBRANCH  13  17
ENDBRANCH   9  13
ENDBRANCH   7   8
BRANCH   6  23
ATOM     23  C   UNL A   1      32.634  19.365  25.440  1.00  0.00     0.105 C 
ATOM     24  N   UNL A   1      32.360  18.155  25.668  1.00  0.00    -0.192 NA
ENDBRANCH   6  23
ENDBRANCH   3   6
ENDBRANCH   1   2
BRANCH   1  25
ATOM     25  C   UNL A   1      37.231  19.867  24.973  1.00  0.00     0.042 C 
BRANCH  25  26
ATOM     26  C   UNL A   1      38.512  20.519  25.498  1.00  0.00     0.118 C 
BRANCH  26  27
ATOM     27  N   UNL A   1      39.585  19.546  25.640  1.00  0.00    -0.352 N 
ATOM     28  C   UNL A   1      40.899  19.740  25.966  1.00  0.00     0.251 C 
ATOM     29  H   UNL A   1      39.328  18.609  25.477  1.00  0.00     0.163 HD
ATOM     30  O   UNL A   1      41.711  18.830  25.782  1.00  0.00    -0.269 OA
BRANCH  28  31
ATOM     31  C   UNL A   1      41.353  21.019  26.543  1.00  0.00     0.039 A 
ATOM     32  C   UNL A   1      41.194  21.234  27.915  1.00  0.00     0.014 A 
ATOM     33  C   UNL A   1      41.869  22.033  25.729  1.00  0.00     0.014 A 
ATOM     34  C   UNL A   1      41.578  22.454  28.476  1.00  0.00     0.010 A 
ATOM     35  C   UNL A   1      42.305  23.226  26.298  1.00  0.00     0.010 A 
ATOM     36  C   UNL A   1      42.151  23.453  27.674  1.00  0.00    -0.014 A 
BRANCH  36  37
ATOM     37  C   UNL A   1      42.572  24.753  28.251  1.00  0.00     0.031 A 
ATOM     38  C   UNL A   1      41.559  25.840  28.476  1.00  0.00     0.074 A 
ATOM     39  C   UNL A   1      43.874  24.974  28.513  1.00  0.00     0.049 A 
ATOM     40  N   UNL A   1      41.741  27.070  28.884  1.00  0.00    -0.248 NA
ATOM     41  C   UNL A   1      40.158  25.510  28.173  1.00  0.00     0.031 C 
ATOM     42  C   UNL A   1      44.955  24.010  28.301  1.00  0.00     0.029 A 
ATOM     43  N   UNL A   1      44.509  26.086  29.002  1.00  0.00    -0.354 N 
ATOM     44  C   UNL A   1      40.486  27.665  28.868  1.00  0.00     0.074 A 
ATOM     45  C   UNL A   1      39.556  26.675  28.368  1.00  0.00     0.031 C 
ATOM     46  C   UNL A   1      46.118  24.568  28.671  1.00  0.00     0.029 A 
ATOM     47  C   UNL A   1      45.870  25.936  29.115  1.00  0.00     0.049 A 
ATOM     48  H   UNL A   1      44.036  26.913  29.248  1.00  0.00     0.167 HD
ATOM     49  C   UNL A   1      40.137  28.915  29.252  1.00  0.00     0.037 A 
ATOM     50  C   UNL A   1      46.810  26.808  29.524  1.00  0.00     0.037 A 
ATOM     51  C   UNL A   1      41.060  29.886  29.780  1.00  0.00     0.049 A 
ATOM     52  C   UNL A   1      46.396  28.186  29.957  1.00  0.00     0.074 A 
ATOM     53  C   UNL A   1      40.797  31.159  30.253  1.00  0.00     0.029 A 
ATOM     54  N   UNL A   1      42.427  29.685  29.906  1.00  0.00    -0.354 N 
ATOM     55  N   UNL A   1      45.199  28.717  29.987  1.00  0.00    -0.248 NA
ATOM     56  C   UNL A   1      47.464  29.083  30.417  1.00  0.00     0.031 C 
ATOM     57  C   UNL A   1      42.009  31.742  30.636  1.00  0.00     0.029 A 
ATOM     58  C   UNL A   1      43.022  30.817  30.438  1.00  0.00     0.049 A 
ATOM     59  H   UNL A   1      42.902  28.861  29.656  1.00  0.00     0.167 HD
ATOM     60  C   UNL A   1      45.364  29.999  30.493  1.00  0.00     0.074 A 
ATOM     61  C   UNL A   1      46.777  30.162  30.767  1.00  0.00     0.031 C 
ATOM     62  C   UNL A   1      44.429  30.957  30.712  1.00  0.00     0.037 A 
BRANCH  49  63
ATOM     63  C   UNL A   1      38.693  29.302  29.118  1.00  0.00     0.057 A 
ATOM     64  C   UNL A   1      38.143  29.686  27.887  1.00  0.00     0.134 A 
ATOM     65  C   UNL A   1      37.836  29.264  30.225  1.00  0.00     0.134 A 
ATOM     66  F   UNL A   1      38.913  29.753  26.791  1.00  0.00    -0.206 F 
ATOM     67  C   UNL A   1      36.799  30.045  27.769  1.00  0.00     0.040 A 
ATOM     68  C   UNL A   1      36.485  29.597  30.113  1.00  0.00     0.040 A 
ATOM     69  F   UNL A   1      38.296  28.900  31.431  1.00  0.00    -0.206 F 
ATOM     70  C   UNL A   1      35.964  29.996  28.883  1.00  0.00     0.006 A 
ENDBRANCH  49  63
BRANCH  50  71
ATOM     71  C   UNL A   1      48.234  26.393  29.570  1.00  0.00     0.057 A 
ATOM     72  C   UNL A   1      48.769  25.787  30.712  1.00  0.00     0.134 A 
ATOM     73  C   UNL A   1      49.089  26.586  28.479  1.00  0.00     0.134 A 
ATOM     74  F   UNL A   1      48.001  25.591  31.794  1.00  0.00    -0.206 F 
ATOM     75  C   UNL A   1      50.108  25.401  30.775  1.00  0.00     0.040 A 
ATOM     76  C   UNL A   1      50.426  26.185  28.520  1.00  0.00     0.040 A 
ATOM     77  F   UNL A   1      48.633  27.154  27.353  1.00  0.00    -0.206 F 
ATOM     78  C   UNL A   1      50.940  25.597  29.674  1.00  0.00     0.006 A 
ENDBRANCH  50  71
BRANCH  62  79
ATOM     79  C   UNL A   1      44.902  32.249  31.307  1.00  0.00     0.057 A 
ATOM     80  C   UNL A   1      45.294  33.329  30.507  1.00  0.00     0.134 A 
ATOM     81  C   UNL A   1      44.929  32.426  32.696  1.00  0.00     0.134 A 
ATOM     82  F   UNL A   1      45.304  33.217  29.170  1.00  0.00    -0.206 F 
ATOM     83  C   UNL A   1      45.717  34.534  31.069  1.00  0.00     0.040 A 
ATOM     84  C   UNL A   1      45.327  33.633  33.269  1.00  0.00     0.040 A 
ATOM     85  F   UNL A   1      44.558  31.431  33.516  1.00  0.00    -0.206 F 
ATOM     86  C   UNL A   1      45.727  34.690  32.454  1.00  0.00     0.006 A 
ENDBRANCH  62  79
ENDBRANCH  36  37
ENDBRANCH  28  31
ENDBRANCH  26  27
ENDBRANCH  25  26
ENDBRANCH   1  25
TORSDOF 15
ENDMDL
