MODEL 1
REMARK VINA RESULT:     -13.9      0.000      0.000
REMARK SMILES CC(C)[C@@H](NC(=O)[C@@H]1CC[C@H]2CCCC[C@@H]2[NH2+]1)C(=O)NCCCNC(=O)c1ccc(-c2c3nc(c(-c4c(F)cccc4F)c4ccc([nH]4)c(-c4c(F)cccc4F)c4nc(c(-c5c(F)cccc5F)c5ccc2[nH]5)C=C4)C=C3)cc1
REMARK SMILES IDX 22 1 21 2 20 3 18 4 19 5 4 7 2 8 1 9 3 10 5 11 6 12 7 14
REMARK SMILES IDX 8 15 9 16 17 17 10 18 16 19 11 22 15 23 12 24 14 25 13 26
REMARK SMILES IDX 23 27 24 28 25 29 26 31 27 32 28 33 80 34 29 35 79 36 30 37
REMARK SMILES IDX 31 38 32 39 73 40 33 41 78 42 72 43 74 44 34 45 77 46 71 47
REMARK SMILES IDX 70 48 35 50 61 51 44 52 60 53 45 54 48 55 59 56 75 57 46 58
REMARK SMILES IDX 47 59 58 61 76 62 49 63 36 64 37 65 42 66 38 67 39 68 41 69
REMARK SMILES IDX 43 70 40 71 62 72 63 73 68 74 64 75 65 76 67 77 69 78 66 79
REMARK SMILES IDX 50 80 51 81 56 82 52 83 53 84 55 85 57 86 54 87
REMARK H PARENT 20 6 5 13 17 20 17 21 24 30 74 49 48 60
REMARK Flexibility Score: inf
ROOT
ATOM      1  C   UNL A   1      33.072  31.397  27.259  1.00  0.00     0.042 C 
ENDROOT
BRANCH   1   2
ATOM      2  C   UNL A   1      32.176  30.264  26.744  1.00  0.00     0.117 C 
BRANCH   2   3
ATOM      3  N   UNL A   1      32.032  30.050  25.284  1.00  0.00    -0.354 N 
ATOM      4  C   UNL A   1      32.459  28.878  24.525  1.00  0.00     0.242 C 
ATOM      5  O   UNL A   1      33.667  28.866  24.919  1.00  0.00    -0.273 OA
ATOM      6  H   UNL A   1      31.602  30.773  24.773  1.00  0.00     0.163 HD
BRANCH   4   7
ATOM      7  C   UNL A   1      31.410  27.562  23.237  1.00  0.00     0.174 C 
BRANCH   7   8
ATOM      8  C   UNL A   1      29.713  27.285  22.898  1.00  0.00     0.015 C 
ATOM      9  C   UNL A   1      28.928  26.386  23.879  1.00  0.00     0.010 C 
ATOM     10  C   UNL A   1      28.930  28.633  22.809  1.00  0.00     0.010 C 
ENDBRANCH   7   8
BRANCH   7  11
ATOM     11  N   UNL A   1      31.853  27.166  21.806  1.00  0.00    -0.339 N 
ATOM     12  C   UNL A   1      32.645  26.083  21.795  1.00  0.00     0.278 C 
ATOM     13  H   UNL A   1      31.585  27.655  20.995  1.00  0.00     0.164 HD
ATOM     14  O   UNL A   1      33.278  25.572  20.903  1.00  0.00    -0.268 OA
BRANCH  12  15
ATOM     15  C   UNL A   1      32.339  25.651  23.159  1.00  0.00     0.272 C 
ATOM     16  C   UNL A   1      34.118  25.869  23.986  1.00  0.00     0.076 C 
ATOM     17  N   UNL A   1      31.618  23.928  22.964  1.00  0.00    -0.333 N 
ATOM     18  C   UNL A   1      35.152  24.293  24.466  1.00  0.00     0.016 C 
ATOM     19  C   UNL A   1      32.459  22.481  23.708  1.00  0.00     0.186 C 
ATOM     20  H   UNL A   1      31.559  23.748  21.961  1.00  0.00     0.347 HD
ATOM     21  H   UNL A   1      30.746  23.983  23.489  1.00  0.00     0.347 HD
ATOM     22  C   UNL A   1      34.345  22.552  24.132  1.00  0.00     0.048 C 
ATOM     23  C   UNL A   1      31.984  21.062  23.348  1.00  0.00     0.065 C 
ATOM     24  C   UNL A   1      34.616  21.431  25.150  1.00  0.00     0.010 C 
ATOM     25  C   UNL A   1      32.530  20.067  24.392  1.00  0.00     0.006 C 
ATOM     26  C   UNL A   1      34.052  20.100  24.618  1.00  0.00     0.001 C 
ENDBRANCH  12  15
ENDBRANCH   7  11
ENDBRANCH   4   7
ENDBRANCH   2   3
ENDBRANCH   1   2
BRANCH   1  27
ATOM     27  C   UNL A   1      34.420  30.914  27.770  1.00  0.00     0.118 C 
BRANCH  27  28
ATOM     28  N   UNL A   1      34.720  31.470  29.081  1.00  0.00    -0.352 N 
ATOM     29  C   UNL A   1      35.720  31.162  29.972  1.00  0.00     0.251 C 
ATOM     30  H   UNL A   1      34.108  32.183  29.377  1.00  0.00     0.163 HD
ATOM     31  O   UNL A   1      35.625  31.573  31.127  1.00  0.00    -0.269 OA
BRANCH  29  32
ATOM     32  C   UNL A   1      36.902  30.343  29.597  1.00  0.00     0.039 A 
ATOM     33  C   UNL A   1      37.557  29.620  30.606  1.00  0.00     0.014 A 
ATOM     34  C   UNL A   1      37.473  30.399  28.324  1.00  0.00     0.014 A 
ATOM     35  C   UNL A   1      38.777  28.981  30.351  1.00  0.00     0.010 A 
ATOM     36  C   UNL A   1      38.667  29.718  28.055  1.00  0.00     0.010 A 
ATOM     37  C   UNL A   1      39.354  29.041  29.076  1.00  0.00    -0.014 A 
BRANCH  37  38
ATOM     38  C   UNL A   1      40.736  28.550  28.821  1.00  0.00     0.031 A 
ATOM     39  C   UNL A   1      41.887  29.518  28.924  1.00  0.00     0.074 A 
ATOM     40  C   UNL A   1      40.979  27.272  28.481  1.00  0.00     0.049 A 
ATOM     41  N   UNL A   1      43.138  29.368  28.564  1.00  0.00    -0.248 NA
ATOM     42  C   UNL A   1      41.581  30.843  29.486  1.00  0.00     0.031 C 
ATOM     43  C   UNL A   1      39.977  26.215  28.363  1.00  0.00     0.029 A 
ATOM     44  N   UNL A   1      42.162  26.648  28.161  1.00  0.00    -0.354 N 
ATOM     45  C   UNL A   1      43.748  30.594  28.796  1.00  0.00     0.074 A 
ATOM     46  C   UNL A   1      42.735  31.476  29.334  1.00  0.00     0.031 C 
ATOM     47  C   UNL A   1      40.587  25.071  28.007  1.00  0.00     0.029 A 
ATOM     48  C   UNL A   1      42.017  25.323  27.838  1.00  0.00     0.049 A 
ATOM     49  H   UNL A   1      43.031  27.111  28.163  1.00  0.00     0.167 HD
ATOM     50  C   UNL A   1      45.035  30.957  28.581  1.00  0.00     0.037 A 
ATOM     51  C   UNL A   1      42.931  24.417  27.438  1.00  0.00     0.037 A 
ATOM     52  C   UNL A   1      46.066  30.070  28.113  1.00  0.00     0.049 A 
ATOM     53  C   UNL A   1      44.370  24.822  27.277  1.00  0.00     0.074 A 
ATOM     54  C   UNL A   1      47.398  30.349  27.855  1.00  0.00     0.029 A 
ATOM     55  N   UNL A   1      45.885  28.719  27.868  1.00  0.00    -0.354 N 
ATOM     56  N   UNL A   1      44.920  26.000  27.441  1.00  0.00    -0.248 NA
ATOM     57  C   UNL A   1      45.316  23.769  26.873  1.00  0.00     0.031 C 
ATOM     58  C   UNL A   1      48.025  29.162  27.459  1.00  0.00     0.029 A 
ATOM     59  C   UNL A   1      47.085  28.145  27.486  1.00  0.00     0.049 A 
ATOM     60  H   UNL A   1      45.030  28.239  27.953  1.00  0.00     0.167 HD
ATOM     61  C   UNL A   1      46.272  25.828  27.178  1.00  0.00     0.074 A 
ATOM     62  C   UNL A   1      46.465  24.431  26.852  1.00  0.00     0.031 C 
ATOM     63  C   UNL A   1      47.265  26.749  27.197  1.00  0.00     0.037 A 
BRANCH  50  64
ATOM     64  C   UNL A   1      45.395  32.387  28.836  1.00  0.00     0.057 A 
ATOM     65  C   UNL A   1      45.900  32.813  30.070  1.00  0.00     0.134 A 
ATOM     66  C   UNL A   1      45.248  33.348  27.827  1.00  0.00     0.134 A 
ATOM     67  F   UNL A   1      46.048  31.943  31.081  1.00  0.00    -0.206 F 
ATOM     68  C   UNL A   1      46.230  34.151  30.297  1.00  0.00     0.040 A 
ATOM     69  C   UNL A   1      45.591  34.683  28.037  1.00  0.00     0.040 A 
ATOM     70  F   UNL A   1      44.770  33.001  26.622  1.00  0.00    -0.206 F 
ATOM     71  C   UNL A   1      46.080  35.089  29.277  1.00  0.00     0.006 A 
ENDBRANCH  50  64
BRANCH  51  72
ATOM     72  C   UNL A   1      42.518  23.020  27.169  1.00  0.00     0.057 A 
ATOM     73  C   UNL A   1      42.248  22.137  28.220  1.00  0.00     0.134 A 
ATOM     74  C   UNL A   1      42.405  22.530  25.863  1.00  0.00     0.134 A 
ATOM     75  F   UNL A   1      42.366  22.547  29.492  1.00  0.00    -0.206 F 
ATOM     76  C   UNL A   1      41.890  20.809  27.985  1.00  0.00     0.040 A 
ATOM     77  C   UNL A   1      42.032  21.209  25.613  1.00  0.00     0.040 A 
ATOM     78  F   UNL A   1      42.653  23.330  24.816  1.00  0.00    -0.206 F 
ATOM     79  C   UNL A   1      41.779  20.343  26.676  1.00  0.00     0.006 A 
ENDBRANCH  51  72
BRANCH  63  80
ATOM     80  C   UNL A   1      48.652  26.269  26.905  1.00  0.00     0.057 A 
ATOM     81  C   UNL A   1      49.212  26.376  25.627  1.00  0.00     0.134 A 
ATOM     82  C   UNL A   1      49.448  25.733  27.925  1.00  0.00     0.134 A 
ATOM     83  F   UNL A   1      48.493  26.872  24.610  1.00  0.00    -0.206 F 
ATOM     84  C   UNL A   1      50.518  25.956  25.370  1.00  0.00     0.040 A 
ATOM     85  C   UNL A   1      50.758  25.319  27.682  1.00  0.00     0.040 A 
ATOM     86  F   UNL A   1      48.965  25.607  29.169  1.00  0.00    -0.206 F 
ATOM     87  C   UNL A   1      51.296  25.429  26.401  1.00  0.00     0.006 A 
ENDBRANCH  63  80
ENDBRANCH  37  38
ENDBRANCH  29  32
ENDBRANCH  27  28
ENDBRANCH   1  27
TORSDOF 13
ENDMDL
MODEL 2
REMARK VINA RESULT:     -13.8      5.070     10.074
REMARK SMILES CC(C)[C@@H](NC(=O)[C@@H]1CC[C@H]2CCCC[C@@H]2[NH2+]1)C(=O)NCCCNC(=O)c1ccc(-c2c3nc(c(-c4c(F)cccc4F)c4ccc([nH]4)c(-c4c(F)cccc4F)c4nc(c(-c5c(F)cccc5F)c5ccc2[nH]5)C=C4)C=C3)cc1
REMARK SMILES IDX 22 1 21 2 20 3 18 4 19 5 4 7 2 8 1 9 3 10 5 11 6 12 7 14
REMARK SMILES IDX 8 15 9 16 17 17 10 18 16 19 11 22 15 23 12 24 14 25 13 26
REMARK SMILES IDX 23 27 24 28 25 29 26 31 27 32 28 33 80 34 29 35 79 36 30 37
REMARK SMILES IDX 31 38 32 39 73 40 33 41 78 42 72 43 74 44 34 45 77 46 71 47
REMARK SMILES IDX 70 48 35 50 61 51 44 52 60 53 45 54 48 55 59 56 75 57 46 58
REMARK SMILES IDX 47 59 58 61 76 62 49 63 36 64 37 65 42 66 38 67 39 68 41 69
REMARK SMILES IDX 43 70 40 71 62 72 63 73 68 74 64 75 65 76 67 77 69 78 66 79
REMARK SMILES IDX 50 80 51 81 56 82 52 83 53 84 55 85 57 86 54 87
REMARK H PARENT 20 6 5 13 17 20 17 21 24 30 74 49 48 60
REMARK Flexibility Score: inf
ROOT
ATOM      1  C   UNL A   1      39.034  21.368  26.003  1.00  0.00     0.042 C 
ENDROOT
BRANCH   1   2
ATOM      2  C   UNL A   1      37.733  21.370  25.193  1.00  0.00     0.117 C 
BRANCH   2   3
ATOM      3  N   UNL A   1      36.497  21.932  25.792  1.00  0.00    -0.354 N 
ATOM      4  C   UNL A   1      35.447  22.673  25.099  1.00  0.00     0.242 C 
ATOM      5  O   UNL A   1      36.196  23.553  24.572  1.00  0.00    -0.273 OA
ATOM      6  H   UNL A   1      36.373  21.789  26.758  1.00  0.00     0.163 HD
BRANCH   4   7
ATOM      7  C   UNL A   1      33.356  22.361  24.946  1.00  0.00     0.174 C 
BRANCH   7   8
ATOM      8  C   UNL A   1      32.352  21.292  23.988  1.00  0.00     0.015 C 
ATOM      9  C   UNL A   1      32.154  21.645  22.497  1.00  0.00     0.010 C 
ATOM     10  C   UNL A   1      32.891  19.828  24.029  1.00  0.00     0.010 C 
ENDBRANCH   7   8
BRANCH   7  11
ATOM     11  N   UNL A   1      32.357  22.388  26.129  1.00  0.00    -0.339 N 
ATOM     12  C   UNL A   1      31.943  23.630  26.423  1.00  0.00     0.278 C 
ATOM     13  H   UNL A   1      32.059  21.584  26.613  1.00  0.00     0.164 HD
ATOM     14  O   UNL A   1      31.285  24.050  27.345  1.00  0.00    -0.268 OA
BRANCH  12  15
ATOM     15  C   UNL A   1      32.405  24.248  25.180  1.00  0.00     0.272 C 
ATOM     16  C   UNL A   1      33.655  25.587  25.917  1.00  0.00     0.076 C 
ATOM     17  N   UNL A   1      30.837  24.824  24.323  1.00  0.00    -0.333 N 
ATOM     18  C   UNL A   1      33.183  27.473  25.859  1.00  0.00     0.016 C 
ATOM     19  C   UNL A   1      30.561  26.606  23.993  1.00  0.00     0.186 C 
ATOM     20  H   UNL A   1      30.056  24.510  24.899  1.00  0.00     0.347 HD
ATOM     21  H   UNL A   1      30.927  24.428  23.388  1.00  0.00     0.347 HD
ATOM     22  C   UNL A   1      31.487  27.951  25.029  1.00  0.00     0.048 C 
ATOM     23  C   UNL A   1      29.182  27.079  23.501  1.00  0.00     0.065 C 
ATOM     24  C   UNL A   1      31.430  29.257  24.218  1.00  0.00     0.010 C 
ATOM     25  C   UNL A   1      29.319  28.492  22.898  1.00  0.00     0.006 C 
ATOM     26  C   UNL A   1      29.975  29.547  23.804  1.00  0.00     0.001 C 
ENDBRANCH  12  15
ENDBRANCH   7  11
ENDBRANCH   4   7
ENDBRANCH   2   3
ENDBRANCH   1   2
BRANCH   1  27
ATOM     27  C   UNL A   1      39.450  22.752  26.478  1.00  0.00     0.118 C 
BRANCH  27  28
ATOM     28  N   UNL A   1      40.833  23.039  26.126  1.00  0.00    -0.352 N 
ATOM     29  C   UNL A   1      41.562  24.197  26.253  1.00  0.00     0.251 C 
ATOM     30  H   UNL A   1      41.326  22.282  25.737  1.00  0.00     0.163 HD
ATOM     31  O   UNL A   1      42.630  24.289  25.650  1.00  0.00    -0.269 OA
BRANCH  29  32
ATOM     32  C   UNL A   1      41.103  25.346  27.078  1.00  0.00     0.039 A 
ATOM     33  C   UNL A   1      41.729  26.588  26.893  1.00  0.00     0.014 A 
ATOM     34  C   UNL A   1      40.199  25.193  28.131  1.00  0.00     0.014 A 
ATOM     35  C   UNL A   1      41.471  27.656  27.762  1.00  0.00     0.010 A 
ATOM     36  C   UNL A   1      39.902  26.274  28.969  1.00  0.00     0.010 A 
ATOM     37  C   UNL A   1      40.568  27.502  28.822  1.00  0.00    -0.014 A 
BRANCH  37  38
ATOM     38  C   UNL A   1      40.420  28.540  29.878  1.00  0.00     0.031 A 
ATOM     39  C   UNL A   1      41.327  28.493  31.083  1.00  0.00     0.074 A 
ATOM     40  C   UNL A   1      39.485  29.504  29.795  1.00  0.00     0.049 A 
ATOM     41  N   UNL A   1      41.258  29.166  32.205  1.00  0.00    -0.248 NA
ATOM     42  C   UNL A   1      42.447  27.542  31.023  1.00  0.00     0.031 C 
ATOM     43  C   UNL A   1      38.553  29.694  28.687  1.00  0.00     0.029 A 
ATOM     44  N   UNL A   1      39.164  30.507  30.679  1.00  0.00    -0.354 N 
ATOM     45  C   UNL A   1      42.283  28.675  33.003  1.00  0.00     0.074 A 
ATOM     46  C   UNL A   1      42.963  27.653  32.238  1.00  0.00     0.031 C 
ATOM     47  C   UNL A   1      37.771  30.755  28.950  1.00  0.00     0.029 A 
ATOM     48  C   UNL A   1      38.123  31.297  30.261  1.00  0.00     0.049 A 
ATOM     49  H   UNL A   1      39.637  30.644  31.532  1.00  0.00     0.167 HD
ATOM     50  C   UNL A   1      42.628  29.038  34.261  1.00  0.00     0.037 A 
ATOM     51  C   UNL A   1      37.513  32.333  30.871  1.00  0.00     0.037 A 
ATOM     52  C   UNL A   1      42.004  30.099  35.005  1.00  0.00     0.049 A 
ATOM     53  C   UNL A   1      37.962  32.768  32.239  1.00  0.00     0.074 A 
ATOM     54  C   UNL A   1      42.279  30.533  36.291  1.00  0.00     0.029 A 
ATOM     55  N   UNL A   1      41.001  30.916  34.511  1.00  0.00    -0.354 N 
ATOM     56  N   UNL A   1      38.891  32.254  33.006  1.00  0.00    -0.248 NA
ATOM     57  C   UNL A   1      37.274  33.930  32.826  1.00  0.00     0.031 C 
ATOM     58  C   UNL A   1      41.444  31.621  36.573  1.00  0.00     0.029 A 
ATOM     59  C   UNL A   1      40.664  31.870  35.457  1.00  0.00     0.049 A 
ATOM     60  H   UNL A   1      40.591  30.833  33.621  1.00  0.00     0.167 HD
ATOM     61  C   UNL A   1      38.911  33.035  34.154  1.00  0.00     0.074 A 
ATOM     62  C   UNL A   1      37.908  34.065  33.982  1.00  0.00     0.031 C 
ATOM     63  C   UNL A   1      39.687  32.905  35.257  1.00  0.00     0.037 A 
BRANCH  50  64
ATOM     64  C   UNL A   1      43.727  28.264  34.921  1.00  0.00     0.057 A 
ATOM     65  C   UNL A   1      43.475  27.092  35.643  1.00  0.00     0.134 A 
ATOM     66  C   UNL A   1      45.057  28.692  34.818  1.00  0.00     0.134 A 
ATOM     67  F   UNL A   1      42.220  26.641  35.790  1.00  0.00    -0.206 F 
ATOM     68  C   UNL A   1      44.508  26.380  36.256  1.00  0.00     0.040 A 
ATOM     69  C   UNL A   1      46.099  27.979  35.411  1.00  0.00     0.040 A 
ATOM     70  F   UNL A   1      45.363  29.807  34.138  1.00  0.00    -0.206 F 
ATOM     71  C   UNL A   1      45.825  26.821  36.137  1.00  0.00     0.006 A 
ENDBRANCH  50  64
BRANCH  51  72
ATOM     72  C   UNL A   1      36.410  33.047  30.188  1.00  0.00     0.057 A 
ATOM     73  C   UNL A   1      35.078  32.824  30.553  1.00  0.00     0.134 A 
ATOM     74  C   UNL A   1      36.657  33.949  29.147  1.00  0.00     0.134 A 
ATOM     75  F   UNL A   1      34.783  31.951  31.527  1.00  0.00    -0.206 F 
ATOM     76  C   UNL A   1      34.025  33.464  29.898  1.00  0.00     0.040 A 
ATOM     77  C   UNL A   1      35.615  34.608  28.494  1.00  0.00     0.040 A 
ATOM     78  F   UNL A   1      37.914  34.201  28.753  1.00  0.00    -0.206 F 
ATOM     79  C   UNL A   1      34.294  34.362  28.866  1.00  0.00     0.006 A 
ENDBRANCH  51  72
BRANCH  63  80
ATOM     80  C   UNL A   1      39.518  33.925  36.339  1.00  0.00     0.057 A 
ATOM     81  C   UNL A   1      38.719  33.678  37.461  1.00  0.00     0.134 A 
ATOM     82  C   UNL A   1      40.195  35.148  36.275  1.00  0.00     0.134 A 
ATOM     83  F   UNL A   1      38.039  32.527  37.571  1.00  0.00    -0.206 F 
ATOM     84  C   UNL A   1      38.592  34.621  38.482  1.00  0.00     0.040 A 
ATOM     85  C   UNL A   1      40.084  36.093  37.294  1.00  0.00     0.040 A 
ATOM     86  F   UNL A   1      40.976  35.439  35.224  1.00  0.00    -0.206 F 
ATOM     87  C   UNL A   1      39.279  35.831  38.402  1.00  0.00     0.006 A 
ENDBRANCH  63  80
ENDBRANCH  37  38
ENDBRANCH  29  32
ENDBRANCH  27  28
ENDBRANCH   1  27
TORSDOF 13
ENDMDL
MODEL 3
REMARK VINA RESULT:     -13.8      4.790      6.820
REMARK SMILES CC(C)[C@@H](NC(=O)[C@@H]1CC[C@H]2CCCC[C@@H]2[NH2+]1)C(=O)NCCCNC(=O)c1ccc(-c2c3nc(c(-c4c(F)cccc4F)c4ccc([nH]4)c(-c4c(F)cccc4F)c4nc(c(-c5c(F)cccc5F)c5ccc2[nH]5)C=C4)C=C3)cc1
REMARK SMILES IDX 22 1 21 2 20 3 18 4 19 5 4 7 2 8 1 9 3 10 5 11 6 12 7 14
REMARK SMILES IDX 8 15 9 16 17 17 10 18 16 19 11 22 15 23 12 24 14 25 13 26
REMARK SMILES IDX 23 27 24 28 25 29 26 31 27 32 28 33 80 34 29 35 79 36 30 37
REMARK SMILES IDX 31 38 32 39 73 40 33 41 78 42 72 43 74 44 34 45 77 46 71 47
REMARK SMILES IDX 70 48 35 50 61 51 44 52 60 53 45 54 48 55 59 56 75 57 46 58
REMARK SMILES IDX 47 59 58 61 76 62 49 63 36 64 37 65 42 66 38 67 39 68 41 69
REMARK SMILES IDX 43 70 40 71 62 72 63 73 68 74 64 75 65 76 67 77 69 78 66 79
REMARK SMILES IDX 50 80 51 81 56 82 52 83 53 84 55 85 57 86 54 87
REMARK H PARENT 20 6 5 13 17 20 17 21 24 30 74 49 48 60
REMARK Flexibility Score: inf
ROOT
ATOM      1  C   UNL A   1      31.507  32.265  26.867  1.00  0.00     0.042 C 
ENDROOT
BRANCH   1   2
ATOM      2  C   UNL A   1      31.679  30.756  26.665  1.00  0.00     0.117 C 
BRANCH   2   3
ATOM      3  N   UNL A   1      32.034  30.232  25.323  1.00  0.00    -0.354 N 
ATOM      4  C   UNL A   1      32.250  28.835  24.958  1.00  0.00     0.242 C 
ATOM      5  O   UNL A   1      33.119  28.573  25.846  1.00  0.00    -0.273 OA
ATOM      6  H   UNL A   1      32.131  30.897  24.603  1.00  0.00     0.163 HD
BRANCH   4   7
ATOM      7  C   UNL A   1      31.363  27.601  23.480  1.00  0.00     0.174 C 
BRANCH   7   8
ATOM      8  C   UNL A   1      29.713  27.303  22.972  1.00  0.00     0.015 C 
ATOM      9  C   UNL A   1      28.844  26.397  23.871  1.00  0.00     0.010 C 
ATOM     10  C   UNL A   1      28.928  28.641  22.799  1.00  0.00     0.010 C 
ENDBRANCH   7   8
BRANCH   7  11
ATOM     11  N   UNL A   1      31.942  27.340  22.066  1.00  0.00    -0.339 N 
ATOM     12  C   UNL A   1      32.783  26.295  22.042  1.00  0.00     0.278 C 
ATOM     13  H   UNL A   1      31.718  27.880  21.275  1.00  0.00     0.164 HD
ATOM     14  O   UNL A   1      33.512  25.883  21.171  1.00  0.00    -0.268 OA
BRANCH  12  15
ATOM     15  C   UNL A   1      32.387  25.743  23.337  1.00  0.00     0.272 C 
ATOM     16  C   UNL A   1      34.108  25.874  24.296  1.00  0.00     0.076 C 
ATOM     17  N   UNL A   1      31.680  24.050  22.939  1.00  0.00    -0.333 N 
ATOM     18  C   UNL A   1      35.107  24.254  24.699  1.00  0.00     0.016 C 
ATOM     19  C   UNL A   1      32.469  22.535  23.603  1.00  0.00     0.186 C 
ATOM     20  H   UNL A   1      31.688  23.962  21.923  1.00  0.00     0.347 HD
ATOM     21  H   UNL A   1      30.775  24.063  23.408  1.00  0.00     0.347 HD
ATOM     22  C   UNL A   1      34.322  22.556  24.155  1.00  0.00     0.048 C 
ATOM     23  C   UNL A   1      32.018  21.158  23.085  1.00  0.00     0.065 C 
ATOM     24  C   UNL A   1      34.525  21.345  25.083  1.00  0.00     0.010 C 
ATOM     25  C   UNL A   1      32.493  20.069  24.068  1.00  0.00     0.006 C 
ATOM     26  C   UNL A   1      33.996  20.071  24.396  1.00  0.00     0.001 C 
ENDBRANCH  12  15
ENDBRANCH   7  11
ENDBRANCH   4   7
ENDBRANCH   2   3
ENDBRANCH   1   2
BRANCH   1  27
ATOM     27  C   UNL A   1      32.799  32.974  27.243  1.00  0.00     0.118 C 
BRANCH  27  28
ATOM     28  N   UNL A   1      32.551  34.352  27.639  1.00  0.00    -0.352 N 
ATOM     29  C   UNL A   1      33.046  35.078  28.696  1.00  0.00     0.251 C 
ATOM     30  H   UNL A   1      31.931  34.845  27.055  1.00  0.00     0.163 HD
ATOM     31  O   UNL A   1      32.499  36.141  28.987  1.00  0.00    -0.269 OA
BRANCH  29  32
ATOM     32  C   UNL A   1      34.206  34.623  29.506  1.00  0.00     0.039 A 
ATOM     33  C   UNL A   1      35.480  34.658  28.920  1.00  0.00     0.014 A 
ATOM     34  C   UNL A   1      34.051  34.017  30.755  1.00  0.00     0.014 A 
ATOM     35  C   UNL A   1      36.580  34.073  29.563  1.00  0.00     0.010 A 
ATOM     36  C   UNL A   1      35.157  33.478  31.421  1.00  0.00     0.010 A 
ATOM     37  C   UNL A   1      36.423  33.460  30.812  1.00  0.00    -0.014 A 
BRANCH  37  38
ATOM     38  C   UNL A   1      37.515  32.658  31.430  1.00  0.00     0.031 A 
ATOM     39  C   UNL A   1      38.019  33.040  32.799  1.00  0.00     0.074 A 
ATOM     40  C   UNL A   1      38.077  31.618  30.788  1.00  0.00     0.049 A 
ATOM     41  N   UNL A   1      39.076  32.615  33.447  1.00  0.00    -0.248 NA
ATOM     42  C   UNL A   1      37.239  34.055  33.525  1.00  0.00     0.031 C 
ATOM     43  C   UNL A   1      37.686  31.114  29.474  1.00  0.00     0.029 A 
ATOM     44  N   UNL A   1      39.115  30.798  31.165  1.00  0.00    -0.354 N 
ATOM     45  C   UNL A   1      39.121  33.355  34.622  1.00  0.00     0.074 A 
ATOM     46  C   UNL A   1      37.984  34.250  34.603  1.00  0.00     0.031 C 
ATOM     47  C   UNL A   1      38.465  30.066  29.156  1.00  0.00     0.029 A 
ATOM     48  C   UNL A   1      39.434  29.847  30.229  1.00  0.00     0.049 A 
ATOM     49  H   UNL A   1      39.586  30.888  32.025  1.00  0.00     0.167 HD
ATOM     50  C   UNL A   1      40.026  33.298  35.627  1.00  0.00     0.037 A 
ATOM     51  C   UNL A   1      40.405  28.913  30.230  1.00  0.00     0.037 A 
ATOM     52  C   UNL A   1      41.120  32.365  35.690  1.00  0.00     0.049 A 
ATOM     53  C   UNL A   1      41.355  28.818  31.392  1.00  0.00     0.074 A 
ATOM     54  C   UNL A   1      42.096  32.239  36.664  1.00  0.00     0.029 A 
ATOM     55  N   UNL A   1      41.358  31.375  34.752  1.00  0.00    -0.354 N 
ATOM     56  N   UNL A   1      41.423  29.564  32.466  1.00  0.00    -0.248 NA
ATOM     57  C   UNL A   1      42.365  27.749  31.339  1.00  0.00     0.031 C 
ATOM     58  C   UNL A   1      42.923  31.163  36.318  1.00  0.00     0.029 A 
ATOM     59  C   UNL A   1      42.449  30.616  35.137  1.00  0.00     0.049 A 
ATOM     60  H   UNL A   1      40.830  31.231  33.934  1.00  0.00     0.167 HD
ATOM     61  C   UNL A   1      42.467  29.048  33.223  1.00  0.00     0.074 A 
ATOM     62  C   UNL A   1      43.000  27.918  32.491  1.00  0.00     0.031 C 
ATOM     63  C   UNL A   1      42.946  29.477  34.414  1.00  0.00     0.037 A 
BRANCH  50  64
ATOM     64  C   UNL A   1      39.879  34.290  36.739  1.00  0.00     0.057 A 
ATOM     65  C   UNL A   1      39.226  33.969  37.934  1.00  0.00     0.134 A 
ATOM     66  C   UNL A   1      40.412  35.580  36.615  1.00  0.00     0.134 A 
ATOM     67  F   UNL A   1      38.680  32.756  38.105  1.00  0.00    -0.206 F 
ATOM     68  C   UNL A   1      39.092  34.904  38.963  1.00  0.00     0.040 A 
ATOM     69  C   UNL A   1      40.301  36.516  37.643  1.00  0.00     0.040 A 
ATOM     70  F   UNL A   1      41.051  35.947  35.493  1.00  0.00    -0.206 F 
ATOM     71  C   UNL A   1      39.634  36.180  38.819  1.00  0.00     0.006 A 
ENDBRANCH  50  64
BRANCH  51  72
ATOM     72  C   UNL A   1      40.527  27.973  29.092  1.00  0.00     0.057 A 
ATOM     73  C   UNL A   1      41.386  28.250  28.022  1.00  0.00     0.134 A 
ATOM     74  C   UNL A   1      39.778  26.793  29.034  1.00  0.00     0.134 A 
ATOM     75  F   UNL A   1      42.110  29.380  28.014  1.00  0.00    -0.206 F 
ATOM     76  C   UNL A   1      41.489  27.393  26.927  1.00  0.00     0.040 A 
ATOM     77  C   UNL A   1      39.883  25.918  27.952  1.00  0.00     0.040 A 
ATOM     78  F   UNL A   1      38.936  26.476  30.029  1.00  0.00    -0.206 F 
ATOM     79  C   UNL A   1      40.737  26.220  26.892  1.00  0.00     0.006 A 
ENDBRANCH  51  72
BRANCH  63  80
ATOM     80  C   UNL A   1      44.069  28.698  35.023  1.00  0.00     0.057 A 
ATOM     81  C   UNL A   1      45.405  28.963  34.703  1.00  0.00     0.134 A 
ATOM     82  C   UNL A   1      43.809  27.701  35.971  1.00  0.00     0.134 A 
ATOM     83  F   UNL A   1      45.712  29.900  33.794  1.00  0.00    -0.206 F 
ATOM     84  C   UNL A   1      46.448  28.254  35.300  1.00  0.00     0.040 A 
ATOM     85  C   UNL A   1      44.845  26.993  36.582  1.00  0.00     0.040 A 
ATOM     86  F   UNL A   1      42.549  27.404  36.319  1.00  0.00    -0.206 F 
ATOM     87  C   UNL A   1      46.169  27.268  36.246  1.00  0.00     0.006 A 
ENDBRANCH  63  80
ENDBRANCH  37  38
ENDBRANCH  29  32
ENDBRANCH  27  28
ENDBRANCH   1  27
TORSDOF 13
ENDMDL
