MODEL 1
REMARK VINA RESULT:     -11.4      0.000      0.000
REMARK SMILES CC[C@@](C)([NH2+]CC(=O)Nc1ccc(Br)cc1F)C(=O)NCCCNC(=O)c1ccc(-c2c3nc(c(-c4c(F)cccc4F)c4ccc([nH]4)c(-c4c(F)cccc4F)c4nc(c(-c5c(F)cccc5F)c5ccc2[nH]5)C=C4)C=C3)cc1
REMARK SMILES IDX 21 1 20 2 18 3 19 4 3 6 4 7 2 8 1 9 5 10 6 13 7 14 8 15 9 16
REMARK SMILES IDX 10 18 11 19 16 20 12 21 15 22 17 23 13 24 14 25 22 26 23 27
REMARK SMILES IDX 24 28 25 29 26 31 27 32 28 33 80 34 29 35 79 36 30 37 31 38
REMARK SMILES IDX 32 39 73 40 33 41 78 42 72 43 74 44 34 45 77 46 71 47 70 48
REMARK SMILES IDX 35 50 61 51 44 52 60 53 45 54 48 55 59 56 75 57 46 58 47 59
REMARK SMILES IDX 58 61 76 62 49 63 36 64 37 65 42 66 38 67 39 68 41 69 43 70
REMARK SMILES IDX 40 71 62 72 63 73 68 74 64 75 65 76 67 77 69 78 66 79 50 80
REMARK SMILES IDX 51 81 56 82 52 83 53 84 55 85 57 86 54 87
REMARK H PARENT 20 5 5 11 5 12 9 17 24 30 74 49 48 60
REMARK Flexibility Score: inf
ROOT
ATOM      1  C   UNL A   1      36.587  22.062  24.554  1.00  0.00     0.118 C 
ENDROOT
BRANCH   1   2
ATOM      2  N   UNL A   1      35.548  22.453  25.509  1.00  0.00    -0.351 N 
ATOM      3  C   UNL A   1      34.477  21.697  25.964  1.00  0.00     0.281 C 
ATOM      4  O   UNL A   1      34.535  21.429  27.171  1.00  0.00    -0.268 OA
ATOM      5  H   UNL A   1      35.618  23.366  25.873  1.00  0.00     0.163 HD
BRANCH   3   6
ATOM      6  C   UNL A   1      33.122  21.500  25.123  1.00  0.00     0.172 C 
ATOM      7  C   UNL A   1      32.607  22.368  23.952  1.00  0.00     0.090 C 
BRANCH   6   8
ATOM      8  C   UNL A   1      33.362  20.095  24.419  1.00  0.00     0.075 C 
ATOM      9  C   UNL A   1      32.891  18.851  25.219  1.00  0.00     0.011 C 
ENDBRANCH   6   8
BRANCH   6  10
ATOM     10  N   UNL A   1      31.997  21.443  26.070  1.00  0.00    -0.326 N 
ATOM     11  H   UNL A   1      32.369  21.697  26.984  1.00  0.00     0.347 HD
ATOM     12  H   UNL A   1      31.643  20.493  25.955  1.00  0.00     0.347 HD
BRANCH  10  13
ATOM     13  C   UNL A   1      30.797  22.283  25.847  1.00  0.00     0.363 C 
BRANCH  13  14
ATOM     14  C   UNL A   1      30.330  23.480  26.721  1.00  0.00     0.279 C 
ATOM     15  O   UNL A   1      29.521  23.212  27.632  1.00  0.00    -0.268 OA
ATOM     16  N   UNL A   1      30.804  24.770  26.786  1.00  0.00    -0.319 N 
ATOM     17  H   UNL A   1      30.601  25.171  27.660  1.00  0.00     0.170 HD
BRANCH  16  18
ATOM     18  C   UNL A   1      31.500  25.689  25.963  1.00  0.00     0.077 A 
ATOM     19  C   UNL A   1      30.750  26.428  25.041  1.00  0.00     0.030 A 
ATOM     20  C   UNL A   1      32.894  25.747  25.811  1.00  0.00     0.147 A 
ATOM     21  C   UNL A   1      31.367  27.354  24.181  1.00  0.00     0.018 A 
ATOM     22  C   UNL A   1      33.521  26.685  24.987  1.00  0.00     0.057 A 
ATOM     23  F   UNL A   1      33.703  24.867  26.406  1.00  0.00    -0.205 F 
ATOM     24  C   UNL A   1      32.750  27.517  24.199  1.00  0.00     0.021 A 
ATOM     25  Br  UNL A   1      33.577  28.840  23.136  1.00  0.00    -0.051 Br
ENDBRANCH  16  18
ENDBRANCH  13  14
ENDBRANCH  10  13
ENDBRANCH   6  10
ENDBRANCH   3   6
ENDBRANCH   1   2
BRANCH   1  26
ATOM     26  C   UNL A   1      37.345  20.786  24.909  1.00  0.00     0.042 C 
BRANCH  26  27
ATOM     27  C   UNL A   1      38.660  21.040  25.642  1.00  0.00     0.118 C 
BRANCH  27  28
ATOM     28  N   UNL A   1      39.595  19.921  25.614  1.00  0.00    -0.352 N 
ATOM     29  C   UNL A   1      40.924  19.841  26.009  1.00  0.00     0.251 C 
ATOM     30  H   UNL A   1      39.223  19.084  25.257  1.00  0.00     0.163 HD
ATOM     31  O   UNL A   1      41.543  18.806  25.839  1.00  0.00    -0.269 OA
BRANCH  29  32
ATOM     32  C   UNL A   1      41.602  21.024  26.592  1.00  0.00     0.039 A 
ATOM     33  C   UNL A   1      42.125  22.002  25.737  1.00  0.00     0.014 A 
ATOM     34  C   UNL A   1      41.698  21.194  27.973  1.00  0.00     0.014 A 
ATOM     35  C   UNL A   1      42.625  23.197  26.266  1.00  0.00     0.010 A 
ATOM     36  C   UNL A   1      42.095  22.421  28.493  1.00  0.00     0.010 A 
ATOM     37  C   UNL A   1      42.551  23.443  27.646  1.00  0.00    -0.014 A 
BRANCH  37  38
ATOM     38  C   UNL A   1      42.926  24.753  28.241  1.00  0.00     0.031 A 
ATOM     39  C   UNL A   1      41.869  25.797  28.485  1.00  0.00     0.074 A 
ATOM     40  C   UNL A   1      44.224  25.052  28.448  1.00  0.00     0.049 A 
ATOM     41  N   UNL A   1      42.006  27.053  28.825  1.00  0.00    -0.248 NA
ATOM     42  C   UNL A   1      40.473  25.381  28.274  1.00  0.00     0.031 C 
ATOM     43  C   UNL A   1      45.355  24.156  28.197  1.00  0.00     0.029 A 
ATOM     44  N   UNL A   1      44.816  26.207  28.899  1.00  0.00    -0.354 N 
ATOM     45  C   UNL A   1      40.723  27.584  28.830  1.00  0.00     0.074 A 
ATOM     46  C   UNL A   1      39.826  26.529  28.412  1.00  0.00     0.031 C 
ATOM     47  C   UNL A   1      46.497  24.784  28.517  1.00  0.00     0.029 A 
ATOM     48  C   UNL A   1      46.187  26.142  28.954  1.00  0.00     0.049 A 
ATOM     49  H   UNL A   1      44.304  27.007  29.158  1.00  0.00     0.167 HD
ATOM     50  C   UNL A   1      40.323  28.831  29.175  1.00  0.00     0.037 A 
ATOM     51  C   UNL A   1      47.094  27.073  29.302  1.00  0.00     0.037 A 
ATOM     52  C   UNL A   1      41.208  29.862  29.645  1.00  0.00     0.049 A 
ATOM     53  C   UNL A   1      46.624  28.442  29.709  1.00  0.00     0.074 A 
ATOM     54  C   UNL A   1      40.891  31.129  30.101  1.00  0.00     0.029 A 
ATOM     55  N   UNL A   1      42.587  29.739  29.727  1.00  0.00    -0.354 N 
ATOM     56  N   UNL A   1      45.402  28.912  29.764  1.00  0.00    -0.248 NA
ATOM     57  C   UNL A   1      47.659  29.411  30.099  1.00  0.00     0.031 C 
ATOM     58  C   UNL A   1      42.082  31.785  30.432  1.00  0.00     0.029 A 
ATOM     59  C   UNL A   1      43.137  30.914  30.213  1.00  0.00     0.049 A 
ATOM     60  H   UNL A   1      43.099  28.937  29.478  1.00  0.00     0.167 HD
ATOM     61  C   UNL A   1      45.517  30.219  30.215  1.00  0.00     0.074 A 
ATOM     62  C   UNL A   1      46.928  30.465  30.431  1.00  0.00     0.031 C 
ATOM     63  C   UNL A   1      44.543  31.136  30.428  1.00  0.00     0.037 A 
BRANCH  50  64
ATOM     64  C   UNL A   1      38.858  29.140  29.067  1.00  0.00     0.057 A 
ATOM     65  C   UNL A   1      38.003  29.056  30.175  1.00  0.00     0.134 A 
ATOM     66  C   UNL A   1      38.300  29.546  27.849  1.00  0.00     0.134 A 
ATOM     67  F   UNL A   1      38.473  28.660  31.367  1.00  0.00    -0.206 F 
ATOM     68  C   UNL A   1      36.639  29.333  30.067  1.00  0.00     0.040 A 
ATOM     69  C   UNL A   1      36.943  29.851  27.735  1.00  0.00     0.040 A 
ATOM     70  F   UNL A   1      39.063  29.652  26.751  1.00  0.00    -0.206 F 
ATOM     71  C   UNL A   1      36.107  29.737  28.845  1.00  0.00     0.006 A 
ENDBRANCH  50  64
BRANCH  51  72
ATOM     72  C   UNL A   1      48.542  26.740  29.306  1.00  0.00     0.057 A 
ATOM     73  C   UNL A   1      49.149  26.199  30.445  1.00  0.00     0.134 A 
ATOM     74  C   UNL A   1      49.350  26.955  28.184  1.00  0.00     0.134 A 
ATOM     75  F   UNL A   1      48.430  25.989  31.558  1.00  0.00    -0.206 F 
ATOM     76  C   UNL A   1      50.511  25.899  30.475  1.00  0.00     0.040 A 
ATOM     77  C   UNL A   1      50.709  26.638  28.192  1.00  0.00     0.040 A 
ATOM     78  F   UNL A   1      48.825  27.464  27.060  1.00  0.00    -0.206 F 
ATOM     79  C   UNL A   1      51.295  26.114  29.343  1.00  0.00     0.006 A 
ENDBRANCH  51  72
BRANCH  63  80
ATOM     80  C   UNL A   1      44.966  32.478  30.943  1.00  0.00     0.057 A 
ATOM     81  C   UNL A   1      45.245  33.544  30.078  1.00  0.00     0.134 A 
ATOM     82  C   UNL A   1      45.048  32.720  32.320  1.00  0.00     0.134 A 
ATOM     83  F   UNL A   1      45.197  33.369  28.749  1.00  0.00    -0.206 F 
ATOM     84  C   UNL A   1      45.608  34.800  30.565  1.00  0.00     0.040 A 
ATOM     85  C   UNL A   1      45.387  33.979  32.819  1.00  0.00     0.040 A 
ATOM     86  F   UNL A   1      44.786  31.743  33.200  1.00  0.00    -0.206 F 
ATOM     87  C   UNL A   1      45.671  35.021  31.939  1.00  0.00     0.006 A 
ENDBRANCH  63  80
ENDBRANCH  37  38
ENDBRANCH  29  32
ENDBRANCH  27  28
ENDBRANCH  26  27
ENDBRANCH   1  26
TORSDOF 15
ENDMDL
MODEL 2
REMARK VINA RESULT:     -11.4      0.559      6.149
REMARK SMILES CC[C@@](C)([NH2+]CC(=O)Nc1ccc(Br)cc1F)C(=O)NCCCNC(=O)c1ccc(-c2c3nc(c(-c4c(F)cccc4F)c4ccc([nH]4)c(-c4c(F)cccc4F)c4nc(c(-c5c(F)cccc5F)c5ccc2[nH]5)C=C4)C=C3)cc1
REMARK SMILES IDX 21 1 20 2 18 3 19 4 3 6 4 7 2 8 1 9 5 10 6 13 7 14 8 15 9 16
REMARK SMILES IDX 10 18 11 19 16 20 12 21 15 22 17 23 13 24 14 25 22 26 23 27
REMARK SMILES IDX 24 28 25 29 26 31 27 32 28 33 80 34 29 35 79 36 30 37 31 38
REMARK SMILES IDX 32 39 73 40 33 41 78 42 72 43 74 44 34 45 77 46 71 47 70 48
REMARK SMILES IDX 35 50 61 51 44 52 60 53 45 54 48 55 59 56 75 57 46 58 47 59
REMARK SMILES IDX 58 61 76 62 49 63 36 64 37 65 42 66 38 67 39 68 41 69 43 70
REMARK SMILES IDX 40 71 62 72 63 73 68 74 64 75 65 76 67 77 69 78 66 79 50 80
REMARK SMILES IDX 51 81 56 82 52 83 53 84 55 85 57 86 54 87
REMARK H PARENT 20 5 5 11 5 12 9 17 24 30 74 49 48 60
REMARK Flexibility Score: inf
ROOT
ATOM      1  C   UNL A   1      36.820  21.475  24.363  1.00  0.00     0.118 C 
ENDROOT
BRANCH   1   2
ATOM      2  N   UNL A   1      35.799  22.099  25.207  1.00  0.00    -0.351 N 
ATOM      3  C   UNL A   1      34.724  21.489  25.838  1.00  0.00     0.281 C 
ATOM      4  O   UNL A   1      34.793  21.515  27.074  1.00  0.00    -0.268 OA
ATOM      5  H   UNL A   1      35.886  23.070  25.343  1.00  0.00     0.163 HD
BRANCH   3   6
ATOM      6  C   UNL A   1      33.355  21.121  25.080  1.00  0.00     0.172 C 
ATOM      7  C   UNL A   1      32.812  21.733  23.769  1.00  0.00     0.090 C 
BRANCH   6   8
ATOM      8  C   UNL A   1      33.595  19.604  24.669  1.00  0.00     0.075 C 
ATOM      9  C   UNL A   1      32.790  18.551  25.479  1.00  0.00     0.011 C 
ENDBRANCH   6   8
BRANCH   6  10
ATOM     10  N   UNL A   1      32.248  21.251  26.040  1.00  0.00    -0.326 N 
ATOM     11  H   UNL A   1      32.661  21.531  26.930  1.00  0.00     0.347 HD
ATOM     12  H   UNL A   1      31.795  20.337  26.000  1.00  0.00     0.347 HD
BRANCH  10  13
ATOM     13  C   UNL A   1      31.138  22.194  25.768  1.00  0.00     0.363 C 
BRANCH  13  14
ATOM     14  C   UNL A   1      30.640  23.332  26.703  1.00  0.00     0.279 C 
ATOM     15  O   UNL A   1      29.873  22.991  27.625  1.00  0.00    -0.268 OA
ATOM     16  N   UNL A   1      31.055  24.640  26.805  1.00  0.00    -0.319 N 
ATOM     17  H   UNL A   1      30.859  24.997  27.701  1.00  0.00     0.170 HD
BRANCH  16  18
ATOM     18  C   UNL A   1      31.682  25.622  26.001  1.00  0.00     0.077 A 
ATOM     19  C   UNL A   1      30.855  26.501  25.290  1.00  0.00     0.030 A 
ATOM     20  C   UNL A   1      33.041  25.639  25.653  1.00  0.00     0.147 A 
ATOM     21  C   UNL A   1      31.399  27.499  24.461  1.00  0.00     0.018 A 
ATOM     22  C   UNL A   1      33.601  26.644  24.859  1.00  0.00     0.057 A 
ATOM     23  F   UNL A   1      33.872  24.659  26.017  1.00  0.00    -0.205 F 
ATOM     24  C   UNL A   1      32.778  27.598  24.295  1.00  0.00     0.021 A 
ATOM     25  Br  UNL A   1      33.524  29.005  23.281  1.00  0.00    -0.051 Br
ENDBRANCH  16  18
ENDBRANCH  13  14
ENDBRANCH  10  13
ENDBRANCH   6  10
ENDBRANCH   3   6
ENDBRANCH   1   2
BRANCH   1  26
ATOM     26  C   UNL A   1      37.526  20.272  24.983  1.00  0.00     0.042 C 
BRANCH  26  27
ATOM     27  C   UNL A   1      38.800  20.635  25.742  1.00  0.00     0.118 C 
BRANCH  27  28
ATOM     28  N   UNL A   1      39.841  19.614  25.701  1.00  0.00    -0.352 N 
ATOM     29  C   UNL A   1      41.186  19.678  26.040  1.00  0.00     0.251 C 
ATOM     30  H   UNL A   1      39.541  18.734  25.381  1.00  0.00     0.163 HD
ATOM     31  O   UNL A   1      41.899  18.705  25.869  1.00  0.00    -0.269 OA
BRANCH  29  32
ATOM     32  C   UNL A   1      41.765  20.939  26.564  1.00  0.00     0.039 A 
ATOM     33  C   UNL A   1      42.300  21.869  25.664  1.00  0.00     0.014 A 
ATOM     34  C   UNL A   1      41.756  21.225  27.928  1.00  0.00     0.014 A 
ATOM     35  C   UNL A   1      42.705  23.128  26.122  1.00  0.00     0.010 A 
ATOM     36  C   UNL A   1      42.057  22.510  28.367  1.00  0.00     0.010 A 
ATOM     37  C   UNL A   1      42.523  23.482  27.468  1.00  0.00    -0.014 A 
BRANCH  37  38
ATOM     38  C   UNL A   1      42.793  24.854  27.973  1.00  0.00     0.031 A 
ATOM     39  C   UNL A   1      44.177  25.229  28.429  1.00  0.00     0.074 A 
ATOM     40  C   UNL A   1      41.774  25.723  28.137  1.00  0.00     0.049 A 
ATOM     41  N   UNL A   1      44.582  26.301  29.060  1.00  0.00    -0.248 NA
ATOM     42  C   UNL A   1      45.241  24.242  28.179  1.00  0.00     0.031 C 
ATOM     43  C   UNL A   1      40.373  25.468  27.795  1.00  0.00     0.029 A 
ATOM     44  N   UNL A   1      41.758  26.994  28.657  1.00  0.00    -0.354 N 
ATOM     45  C   UNL A   1      45.932  26.100  29.316  1.00  0.00     0.074 A 
ATOM     46  C   UNL A   1      46.267  24.785  28.816  1.00  0.00     0.031 C 
ATOM     47  C   UNL A   1      39.641  26.553  28.092  1.00  0.00     0.029 A 
ATOM     48  C   UNL A   1      40.509  27.565  28.687  1.00  0.00     0.049 A 
ATOM     49  H   UNL A   1      42.568  27.454  28.979  1.00  0.00     0.167 HD
ATOM     50  C   UNL A   1      46.819  26.945  29.894  1.00  0.00     0.037 A 
ATOM     51  C   UNL A   1      40.103  28.761  29.152  1.00  0.00     0.037 A 
ATOM     52  C   UNL A   1      46.498  28.274  30.338  1.00  0.00     0.049 A 
ATOM     53  C   UNL A   1      41.113  29.693  29.763  1.00  0.00     0.074 A 
ATOM     54  C   UNL A   1      47.345  29.238  30.856  1.00  0.00     0.029 A 
ATOM     55  N   UNL A   1      45.228  28.829  30.308  1.00  0.00    -0.354 N 
ATOM     56  N   UNL A   1      42.398  29.512  29.945  1.00  0.00    -0.248 NA
ATOM     57  C   UNL A   1      40.615  30.993  30.235  1.00  0.00     0.031 C 
ATOM     58  C   UNL A   1      46.581  30.368  31.168  1.00  0.00     0.029 A 
ATOM     59  C   UNL A   1      45.265  30.118  30.813  1.00  0.00     0.049 A 
ATOM     60  H   UNL A   1      44.420  28.375  29.978  1.00  0.00     0.167 HD
ATOM     61  C   UNL A   1      42.867  30.680  30.530  1.00  0.00     0.074 A 
ATOM     62  C   UNL A   1      41.730  31.569  30.662  1.00  0.00     0.031 C 
ATOM     63  C   UNL A   1      44.125  30.989  30.928  1.00  0.00     0.037 A 
BRANCH  50  64
ATOM     64  C   UNL A   1      48.228  26.454  30.062  1.00  0.00     0.057 A 
ATOM     65  C   UNL A   1      48.642  25.782  31.220  1.00  0.00     0.134 A 
ATOM     66  C   UNL A   1      49.176  26.638  29.048  1.00  0.00     0.134 A 
ATOM     67  F   UNL A   1      47.786  25.585  32.234  1.00  0.00    -0.206 F 
ATOM     68  C   UNL A   1      49.956  25.337  31.376  1.00  0.00     0.040 A 
ATOM     69  C   UNL A   1      50.486  26.174  29.182  1.00  0.00     0.040 A 
ATOM     70  F   UNL A   1      48.845  27.269  27.912  1.00  0.00    -0.206 F 
ATOM     71  C   UNL A   1      50.881  25.528  30.352  1.00  0.00     0.006 A 
ENDBRANCH  50  64
BRANCH  51  72
ATOM     72  C   UNL A   1      38.677  29.161  29.040  1.00  0.00     0.057 A 
ATOM     73  C   UNL A   1      37.816  29.057  30.138  1.00  0.00     0.134 A 
ATOM     74  C   UNL A   1      38.141  29.647  27.842  1.00  0.00     0.134 A 
ATOM     75  F   UNL A   1      38.267  28.579  31.307  1.00  0.00    -0.206 F 
ATOM     76  C   UNL A   1      36.468  29.407  30.046  1.00  0.00     0.040 A 
ATOM     77  C   UNL A   1      36.800  30.023  27.742  1.00  0.00     0.040 A 
ATOM     78  F   UNL A   1      38.917  29.775  26.756  1.00  0.00    -0.206 F 
ATOM     79  C   UNL A   1      35.958  29.897  28.846  1.00  0.00     0.006 A 
ENDBRANCH  51  72
BRANCH  63  80
ATOM     80  C   UNL A   1      44.343  32.350  31.516  1.00  0.00     0.057 A 
ATOM     81  C   UNL A   1      44.640  33.459  30.714  1.00  0.00     0.134 A 
ATOM     82  C   UNL A   1      44.208  32.561  32.894  1.00  0.00     0.134 A 
ATOM     83  F   UNL A   1      44.796  33.317  29.390  1.00  0.00    -0.206 F 
ATOM     84  C   UNL A   1      44.810  34.730  31.265  1.00  0.00     0.040 A 
ATOM     85  C   UNL A   1      44.353  33.831  33.453  1.00  0.00     0.040 A 
ATOM     86  F   UNL A   1      43.917  31.541  33.714  1.00  0.00    -0.206 F 
ATOM     87  C   UNL A   1      44.658  34.919  32.637  1.00  0.00     0.006 A 
ENDBRANCH  63  80
ENDBRANCH  37  38
ENDBRANCH  29  32
ENDBRANCH  27  28
ENDBRANCH  26  27
ENDBRANCH   1  26
TORSDOF 15
ENDMDL
MODEL 3
REMARK VINA RESULT:     -11.3      1.362      6.413
REMARK SMILES CC[C@@](C)([NH2+]CC(=O)Nc1ccc(Br)cc1F)C(=O)NCCCNC(=O)c1ccc(-c2c3nc(c(-c4c(F)cccc4F)c4ccc([nH]4)c(-c4c(F)cccc4F)c4nc(c(-c5c(F)cccc5F)c5ccc2[nH]5)C=C4)C=C3)cc1
REMARK SMILES IDX 21 1 20 2 18 3 19 4 3 6 4 7 2 8 1 9 5 10 6 13 7 14 8 15 9 16
REMARK SMILES IDX 10 18 11 19 16 20 12 21 15 22 17 23 13 24 14 25 22 26 23 27
REMARK SMILES IDX 24 28 25 29 26 31 27 32 28 33 80 34 29 35 79 36 30 37 31 38
REMARK SMILES IDX 32 39 73 40 33 41 78 42 72 43 74 44 34 45 77 46 71 47 70 48
REMARK SMILES IDX 35 50 61 51 44 52 60 53 45 54 48 55 59 56 75 57 46 58 47 59
REMARK SMILES IDX 58 61 76 62 49 63 36 64 37 65 42 66 38 67 39 68 41 69 43 70
REMARK SMILES IDX 40 71 62 72 63 73 68 74 64 75 65 76 67 77 69 78 66 79 50 80
REMARK SMILES IDX 51 81 56 82 52 83 53 84 55 85 57 86 54 87
REMARK H PARENT 20 5 5 11 5 12 9 17 24 30 74 49 48 60
REMARK Flexibility Score: inf
ROOT
ATOM      1  C   UNL A   1      36.670  20.850  25.001  1.00  0.00     0.118 C 
ENDROOT
BRANCH   1   2
ATOM      2  N   UNL A   1      35.422  20.261  25.490  1.00  0.00    -0.351 N 
ATOM      3  C   UNL A   1      34.235  20.077  24.795  1.00  0.00     0.281 C 
ATOM      4  O   UNL A   1      33.938  18.887  24.626  1.00  0.00    -0.268 OA
ATOM      5  H   UNL A   1      35.425  19.961  26.428  1.00  0.00     0.163 HD
BRANCH   3   6
ATOM      6  C   UNL A   1      33.165  21.252  24.558  1.00  0.00     0.172 C 
ATOM      7  C   UNL A   1      33.425  22.657  23.968  1.00  0.00     0.090 C 
BRANCH   6   8
ATOM      8  C   UNL A   1      32.191  20.609  23.478  1.00  0.00     0.075 C 
ATOM      9  C   UNL A   1      32.057  21.389  22.142  1.00  0.00     0.011 C 
ENDBRANCH   6   8
BRANCH   6  10
ATOM     10  N   UNL A   1      32.468  21.504  25.829  1.00  0.00    -0.326 N 
ATOM     11  H   UNL A   1      33.051  22.150  26.361  1.00  0.00     0.347 HD
ATOM     12  H   UNL A   1      32.335  20.567  26.212  1.00  0.00     0.347 HD
BRANCH  10  13
ATOM     13  C   UNL A   1      31.097  22.068  25.824  1.00  0.00     0.363 C 
BRANCH  13  14
ATOM     14  C   UNL A   1      30.581  23.251  26.689  1.00  0.00     0.279 C 
ATOM     15  O   UNL A   1      29.814  22.953  27.626  1.00  0.00    -0.268 OA
ATOM     16  N   UNL A   1      30.977  24.568  26.718  1.00  0.00    -0.319 N 
ATOM     17  H   UNL A   1      30.772  24.973  27.590  1.00  0.00     0.170 HD
BRANCH  16  18
ATOM     18  C   UNL A   1      31.595  25.511  25.861  1.00  0.00     0.077 A 
ATOM     19  C   UNL A   1      32.962  25.751  26.040  1.00  0.00     0.030 A 
ATOM     20  C   UNL A   1      30.917  26.408  25.020  1.00  0.00     0.147 A 
ATOM     21  C   UNL A   1      33.648  26.680  25.236  1.00  0.00     0.018 A 
ATOM     22  C   UNL A   1      31.587  27.312  24.191  1.00  0.00     0.057 A 
ATOM     23  F   UNL A   1      29.584  26.488  25.006  1.00  0.00    -0.205 F 
ATOM     24  C   UNL A   1      32.961  27.417  24.275  1.00  0.00     0.021 A 
ATOM     25  Br  UNL A   1      33.890  28.578  23.111  1.00  0.00    -0.051 Br
ENDBRANCH  16  18
ENDBRANCH  13  14
ENDBRANCH  10  13
ENDBRANCH   6  10
ENDBRANCH   3   6
ENDBRANCH   1   2
BRANCH   1  26
ATOM     26  C   UNL A   1      37.833  19.872  24.855  1.00  0.00     0.042 C 
BRANCH  26  27
ATOM     27  C   UNL A   1      39.026  20.205  25.748  1.00  0.00     0.118 C 
BRANCH  27  28
ATOM     28  N   UNL A   1      40.028  19.148  25.839  1.00  0.00    -0.352 N 
ATOM     29  C   UNL A   1      41.385  19.209  26.125  1.00  0.00     0.251 C 
ATOM     30  H   UNL A   1      39.685  18.242  25.671  1.00  0.00     0.163 HD
ATOM     31  O   UNL A   1      42.056  18.193  26.088  1.00  0.00    -0.269 OA
BRANCH  29  32
ATOM     32  C   UNL A   1      42.028  20.512  26.426  1.00  0.00     0.039 A 
ATOM     33  C   UNL A   1      42.536  21.281  25.372  1.00  0.00     0.014 A 
ATOM     34  C   UNL A   1      42.103  20.995  27.731  1.00  0.00     0.014 A 
ATOM     35  C   UNL A   1      43.001  22.579  25.617  1.00  0.00     0.010 A 
ATOM     36  C   UNL A   1      42.464  22.319  27.959  1.00  0.00     0.010 A 
ATOM     37  C   UNL A   1      42.904  23.131  26.903  1.00  0.00    -0.014 A 
BRANCH  37  38
ATOM     38  C   UNL A   1      43.240  24.553  27.185  1.00  0.00     0.031 A 
ATOM     39  C   UNL A   1      44.674  25.006  27.155  1.00  0.00     0.074 A 
ATOM     40  C   UNL A   1      42.275  25.405  27.585  1.00  0.00     0.049 A 
ATOM     41  N   UNL A   1      45.193  26.144  27.539  1.00  0.00    -0.248 NA
ATOM     42  C   UNL A   1      45.663  24.030  26.669  1.00  0.00     0.031 C 
ATOM     43  C   UNL A   1      40.852  25.081  27.717  1.00  0.00     0.029 A 
ATOM     44  N   UNL A   1      42.348  26.719  27.978  1.00  0.00    -0.354 N 
ATOM     45  C   UNL A   1      46.566  26.006  27.379  1.00  0.00     0.074 A 
ATOM     46  C   UNL A   1      46.804  24.658  26.909  1.00  0.00     0.031 C 
ATOM     47  C   UNL A   1      40.188  26.169  28.137  1.00  0.00     0.029 A 
ATOM     48  C   UNL A   1      41.139  27.256  28.348  1.00  0.00     0.049 A 
ATOM     49  H   UNL A   1      43.191  27.229  27.994  1.00  0.00     0.167 HD
ATOM     50  C   UNL A   1      47.539  26.926  27.580  1.00  0.00     0.037 A 
ATOM     51  C   UNL A   1      40.830  28.479  28.816  1.00  0.00     0.037 A 
ATOM     52  C   UNL A   1      47.297  28.281  27.992  1.00  0.00     0.049 A 
ATOM     53  C   UNL A   1      41.925  29.492  29.005  1.00  0.00     0.074 A 
ATOM     54  C   UNL A   1      48.207  29.313  28.140  1.00  0.00     0.029 A 
ATOM     55  N   UNL A   1      46.051  28.796  28.313  1.00  0.00    -0.354 N 
ATOM     56  N   UNL A   1      43.212  29.365  28.792  1.00  0.00    -0.248 NA
ATOM     57  C   UNL A   1      41.525  30.818  29.499  1.00  0.00     0.031 C 
ATOM     58  C   UNL A   1      47.515  30.447  28.580  1.00  0.00     0.029 A 
ATOM     59  C   UNL A   1      46.169  30.128  28.673  1.00  0.00     0.049 A 
ATOM     60  H   UNL A   1      45.207  28.291  28.288  1.00  0.00     0.167 HD
ATOM     61  C   UNL A   1      43.773  30.596  29.105  1.00  0.00     0.074 A 
ATOM     62  C   UNL A   1      42.684  31.461  29.509  1.00  0.00     0.031 C 
ATOM     63  C   UNL A   1      45.073  30.975  29.065  1.00  0.00     0.037 A 
BRANCH  50  64
ATOM     64  C   UNL A   1      48.957  26.492  27.342  1.00  0.00     0.057 A 
ATOM     65  C   UNL A   1      49.751  25.969  28.372  1.00  0.00     0.134 A 
ATOM     66  C   UNL A   1      49.527  26.577  26.066  1.00  0.00     0.134 A 
ATOM     67  F   UNL A   1      49.269  25.873  29.620  1.00  0.00    -0.206 F 
ATOM     68  C   UNL A   1      51.073  25.578  28.148  1.00  0.00     0.040 A 
ATOM     69  C   UNL A   1      50.838  26.163  25.824  1.00  0.00     0.040 A 
ATOM     70  F   UNL A   1      48.820  27.063  25.035  1.00  0.00    -0.206 F 
ATOM     71  C   UNL A   1      51.617  25.669  26.869  1.00  0.00     0.006 A 
ENDBRANCH  50  64
BRANCH  51  72
ATOM     72  C   UNL A   1      39.419  28.827  29.120  1.00  0.00     0.057 A 
ATOM     73  C   UNL A   1      38.594  29.392  28.141  1.00  0.00     0.134 A 
ATOM     74  C   UNL A   1      38.864  28.612  30.387  1.00  0.00     0.134 A 
ATOM     75  F   UNL A   1      39.076  29.640  26.914  1.00  0.00    -0.206 F 
ATOM     76  C   UNL A   1      37.272  29.746  28.413  1.00  0.00     0.040 A 
ATOM     77  C   UNL A   1      37.536  28.940  30.667  1.00  0.00     0.040 A 
ATOM     78  F   UNL A   1      39.602  28.069  31.366  1.00  0.00    -0.206 F 
ATOM     79  C   UNL A   1      36.738  29.514  29.679  1.00  0.00     0.006 A 
ENDBRANCH  51  72
BRANCH  63  80
ATOM     80  C   UNL A   1      45.385  32.391  29.442  1.00  0.00     0.057 A 
ATOM     81  C   UNL A   1      45.746  32.741  30.750  1.00  0.00     0.134 A 
ATOM     82  C   UNL A   1      45.372  33.406  28.478  1.00  0.00     0.134 A 
ATOM     83  F   UNL A   1      45.763  31.816  31.720  1.00  0.00    -0.206 F 
ATOM     84  C   UNL A   1      46.067  34.057  31.088  1.00  0.00     0.040 A 
ATOM     85  C   UNL A   1      45.713  34.720  28.799  1.00  0.00     0.040 A 
ATOM     86  F   UNL A   1      45.042  33.133  27.207  1.00  0.00    -0.206 F 
ATOM     87  C   UNL A   1      46.059  35.048  30.109  1.00  0.00     0.006 A 
ENDBRANCH  63  80
ENDBRANCH  37  38
ENDBRANCH  29  32
ENDBRANCH  27  28
ENDBRANCH  26  27
ENDBRANCH   1  26
TORSDOF 15
ENDMDL
