MODEL 1
REMARK VINA RESULT:     -11.7      0.000      0.000
REMARK SMILES Cc1oc(-c2ccc(Cl)cc2[N+](=O)[O-])cc1C(=O)NCCCNC(=O)c1ccc(-c2c3nc(c(-c4c(F)cccc4F)c4ccc([nH]4)c(-c4c(F)cccc4F)c4nc(c(-c5c(F)cccc5F)c5ccc2[nH]5)C=C4)C=C3)cc1
REMARK SMILES IDX 21 1 20 2 19 3 17 4 18 5 16 7 1 8 2 9 3 10 4 11 15 12 5 13
REMARK SMILES IDX 6 14 11 15 7 16 10 17 8 18 9 19 12 20 13 21 14 22 22 23
REMARK SMILES IDX 23 24 24 25 25 27 26 28 27 29 79 30 28 31 78 32 29 33 30 34
REMARK SMILES IDX 31 35 72 36 32 37 77 38 71 39 73 40 33 41 76 42 70 43 69 44
REMARK SMILES IDX 34 46 60 47 43 48 59 49 44 50 47 51 58 52 74 53 45 54 46 55
REMARK SMILES IDX 57 57 75 58 48 59 35 60 36 61 41 62 37 63 38 64 40 65 42 66
REMARK SMILES IDX 39 67 61 68 62 69 67 70 63 71 64 72 66 73 68 74 65 75 49 76
REMARK SMILES IDX 50 77 55 78 51 79 52 80 54 81 56 82 53 83
REMARK H PARENT 19 6 23 26 73 45 47 56
REMARK Flexibility Score: inf
ROOT
ATOM      1  C   UNL A   1      37.513  19.535  24.983  1.00  0.00     0.042 C 
ENDROOT
BRANCH   1   2
ATOM      2  C   UNL A   1      36.367  20.492  24.664  1.00  0.00     0.118 C 
BRANCH   2   3
ATOM      3  N   UNL A   1      35.427  20.531  25.756  1.00  0.00    -0.352 N 
ATOM      4  C   UNL A   1      34.735  21.537  26.363  1.00  0.00     0.254 C 
ATOM      5  O   UNL A   1      34.012  21.170  27.298  1.00  0.00    -0.269 OA
ATOM      6  H   UNL A   1      35.246  19.646  26.145  1.00  0.00     0.163 HD
BRANCH   4   7
ATOM      7  C   UNL A   1      34.741  22.941  25.964  1.00  0.00     0.081 A 
ATOM      8  C   UNL A   1      37.181  24.050  25.757  1.00  0.00     0.088 C 
ATOM      9  C   UNL A   1      35.711  23.911  25.719  1.00  0.00     0.114 A 
ATOM     10  O   UNL A   1      35.118  25.093  25.360  1.00  0.00    -0.460 OA
ATOM     11  C   UNL A   1      33.780  24.922  25.406  1.00  0.00     0.142 A 
ATOM     12  C   UNL A   1      33.492  23.642  25.792  1.00  0.00     0.065 A 
BRANCH  11  13
ATOM     13  C   UNL A   1      32.985  26.090  25.093  1.00  0.00     0.095 A 
ATOM     14  C   UNL A   1      32.602  26.932  26.150  1.00  0.00     0.021 A 
ATOM     15  C   UNL A   1      32.600  26.444  23.791  1.00  0.00     0.281 A 
ATOM     16  C   UNL A   1      31.862  28.092  25.908  1.00  0.00     0.022 A 
ATOM     17  C   UNL A   1      31.856  27.606  23.538  1.00  0.00     0.107 A 
ATOM     18  C   UNL A   1      31.492  28.422  24.605  1.00  0.00     0.047 A 
ATOM     19  Cl  UNL A   1      30.576  29.848  24.316  1.00  0.00    -0.084 Cl
BRANCH  15  20
ATOM     20  N   UNL A   1      32.926  25.597  22.648  1.00  0.00     0.063 N 
ATOM     21  O   UNL A   1      32.220  24.591  22.477  1.00  0.00    -0.258 OA
ATOM     22  O   UNL A   1      33.919  25.891  21.971  1.00  0.00    -0.258 OA
ENDBRANCH  15  20
ENDBRANCH  11  13
ENDBRANCH   4   7
ENDBRANCH   2   3
ENDBRANCH   1   2
BRANCH   1  23
ATOM     23  C   UNL A   1      38.702  20.207  25.659  1.00  0.00     0.118 C 
BRANCH  23  24
ATOM     24  N   UNL A   1      39.844  19.310  25.756  1.00  0.00    -0.352 N 
ATOM     25  C   UNL A   1      41.156  19.584  26.046  1.00  0.00     0.251 C 
ATOM     26  H   UNL A   1      39.643  18.361  25.591  1.00  0.00     0.163 HD
ATOM     27  O   UNL A   1      42.010  18.725  25.829  1.00  0.00    -0.269 OA
BRANCH  25  28
ATOM     28  C   UNL A   1      41.556  20.891  26.607  1.00  0.00     0.039 A 
ATOM     29  C   UNL A   1      42.008  21.887  25.735  1.00  0.00     0.014 A 
ATOM     30  C   UNL A   1      41.547  21.125  27.985  1.00  0.00     0.014 A 
ATOM     31  C   UNL A   1      42.408  23.126  26.240  1.00  0.00     0.010 A 
ATOM     32  C   UNL A   1      41.870  22.385  28.481  1.00  0.00     0.010 A 
ATOM     33  C   UNL A   1      42.317  23.394  27.615  1.00  0.00    -0.014 A 
BRANCH  33  34
ATOM     34  C   UNL A   1      42.700  24.718  28.166  1.00  0.00     0.031 A 
ATOM     35  C   UNL A   1      41.656  25.779  28.378  1.00  0.00     0.074 A 
ATOM     36  C   UNL A   1      43.996  24.982  28.417  1.00  0.00     0.049 A 
ATOM     37  N   UNL A   1      41.803  27.015  28.783  1.00  0.00    -0.248 NA
ATOM     38  C   UNL A   1      40.265  25.413  28.068  1.00  0.00     0.031 C 
ATOM     39  C   UNL A   1      45.106  24.050  28.208  1.00  0.00     0.029 A 
ATOM     40  N   UNL A   1      44.601  26.117  28.895  1.00  0.00    -0.354 N 
ATOM     41  C   UNL A   1      40.532  27.575  28.760  1.00  0.00     0.074 A 
ATOM     42  C   UNL A   1      39.633  26.562  28.252  1.00  0.00     0.031 C 
ATOM     43  C   UNL A   1      46.253  24.643  28.575  1.00  0.00     0.029 A 
ATOM     44  C   UNL A   1      45.966  26.006  29.009  1.00  0.00     0.049 A 
ATOM     45  H   UNL A   1      44.105  26.933  29.131  1.00  0.00     0.167 HD
ATOM     46  C   UNL A   1      40.145  28.813  29.148  1.00  0.00     0.037 A 
ATOM     47  C   UNL A   1      46.882  26.905  29.413  1.00  0.00     0.037 A 
ATOM     48  C   UNL A   1      41.040  29.809  29.677  1.00  0.00     0.049 A 
ATOM     49  C   UNL A   1      46.428  28.272  29.840  1.00  0.00     0.074 A 
ATOM     50  C   UNL A   1      40.740  31.073  30.156  1.00  0.00     0.029 A 
ATOM     51  N   UNL A   1      42.413  29.651  29.800  1.00  0.00    -0.354 N 
ATOM     52  N   UNL A   1      45.214  28.767  29.874  1.00  0.00    -0.248 NA
ATOM     53  C   UNL A   1      47.470  29.204  30.293  1.00  0.00     0.031 C 
ATOM     54  C   UNL A   1      41.936  31.695  30.527  1.00  0.00     0.029 A 
ATOM     55  C   UNL A   1      42.976  30.801  30.326  1.00  0.00     0.049 A 
ATOM     56  H   UNL A   1      42.913  28.841  29.548  1.00  0.00     0.167 HD
ATOM     57  C   UNL A   1      45.342  30.055  30.376  1.00  0.00     0.074 A 
ATOM     58  C   UNL A   1      46.749  30.260  30.647  1.00  0.00     0.031 C 
ATOM     59  C   UNL A   1      44.379  30.985  30.594  1.00  0.00     0.037 A 
BRANCH  46  60
ATOM     60  C   UNL A   1      38.689  29.158  29.016  1.00  0.00     0.057 A 
ATOM     61  C   UNL A   1      37.812  29.087  30.107  1.00  0.00     0.134 A 
ATOM     62  C   UNL A   1      38.164  29.596  27.794  1.00  0.00     0.134 A 
ATOM     63  F   UNL A   1      38.247  28.665  31.303  1.00  0.00    -0.206 F 
ATOM     64  C   UNL A   1      36.459  29.411  29.979  1.00  0.00     0.040 A 
ATOM     65  C   UNL A   1      36.820  29.949  27.660  1.00  0.00     0.040 A 
ATOM     66  F   UNL A   1      38.949  29.694  26.711  1.00  0.00    -0.206 F 
ATOM     67  C   UNL A   1      35.962  29.850  28.754  1.00  0.00     0.006 A 
ENDBRANCH  46  60
BRANCH  47  68
ATOM     68  C   UNL A   1      48.319  26.533  29.454  1.00  0.00     0.057 A 
ATOM     69  C   UNL A   1      49.159  26.780  28.362  1.00  0.00     0.134 A 
ATOM     70  C   UNL A   1      48.886  25.926  30.581  1.00  0.00     0.134 A 
ATOM     71  F   UNL A   1      48.670  27.344  27.248  1.00  0.00    -0.206 F 
ATOM     72  C   UNL A   1      50.507  26.417  28.379  1.00  0.00     0.040 A 
ATOM     73  C   UNL A   1      50.239  25.581  30.621  1.00  0.00     0.040 A 
ATOM     74  F   UNL A   1      48.137  25.673  31.663  1.00  0.00    -0.206 F 
ATOM     75  C   UNL A   1      51.051  25.820  29.514  1.00  0.00     0.006 A 
ENDBRANCH  47  68
BRANCH  59  76
ATOM     76  C   UNL A   1      44.815  32.294  31.184  1.00  0.00     0.057 A 
ATOM     77  C   UNL A   1      45.169  33.386  30.381  1.00  0.00     0.134 A 
ATOM     78  C   UNL A   1      44.846  32.473  32.573  1.00  0.00     0.134 A 
ATOM     79  F   UNL A   1      45.173  33.275  29.045  1.00  0.00    -0.206 F 
ATOM     80  C   UNL A   1      45.561  34.604  30.940  1.00  0.00     0.040 A 
ATOM     81  C   UNL A   1      45.209  33.694  33.142  1.00  0.00     0.040 A 
ATOM     82  F   UNL A   1      44.510  31.469  33.397  1.00  0.00    -0.206 F 
ATOM     83  C   UNL A   1      45.575  34.761  32.324  1.00  0.00     0.006 A 
ENDBRANCH  59  76
ENDBRANCH  33  34
ENDBRANCH  25  28
ENDBRANCH  23  24
ENDBRANCH   1  23
TORSDOF 12
ENDMDL
MODEL 2
REMARK VINA RESULT:     -11.6      0.382      6.253
REMARK SMILES Cc1oc(-c2ccc(Cl)cc2[N+](=O)[O-])cc1C(=O)NCCCNC(=O)c1ccc(-c2c3nc(c(-c4c(F)cccc4F)c4ccc([nH]4)c(-c4c(F)cccc4F)c4nc(c(-c5c(F)cccc5F)c5ccc2[nH]5)C=C4)C=C3)cc1
REMARK SMILES IDX 21 1 20 2 19 3 17 4 18 5 16 7 1 8 2 9 3 10 4 11 15 12 5 13
REMARK SMILES IDX 6 14 11 15 7 16 10 17 8 18 9 19 12 20 13 21 14 22 22 23
REMARK SMILES IDX 23 24 24 25 25 27 26 28 27 29 79 30 28 31 78 32 29 33 30 34
REMARK SMILES IDX 31 35 72 36 32 37 77 38 71 39 73 40 33 41 76 42 70 43 69 44
REMARK SMILES IDX 34 46 60 47 43 48 59 49 44 50 47 51 58 52 74 53 45 54 46 55
REMARK SMILES IDX 57 57 75 58 48 59 35 60 36 61 41 62 37 63 38 64 40 65 42 66
REMARK SMILES IDX 39 67 61 68 62 69 67 70 63 71 64 72 66 73 68 74 65 75 49 76
REMARK SMILES IDX 50 77 55 78 51 79 52 80 54 81 56 82 53 83
REMARK H PARENT 19 6 23 26 73 45 47 56
REMARK Flexibility Score: inf
ROOT
ATOM      1  C   UNL A   1      37.333  19.384  24.995  1.00  0.00     0.042 C 
ENDROOT
BRANCH   1   2
ATOM      2  C   UNL A   1      36.149  20.286  24.654  1.00  0.00     0.118 C 
BRANCH   2   3
ATOM      3  N   UNL A   1      35.258  20.392  25.782  1.00  0.00    -0.352 N 
ATOM      4  C   UNL A   1      34.651  21.443  26.402  1.00  0.00     0.254 C 
ATOM      5  O   UNL A   1      33.947  21.130  27.370  1.00  0.00    -0.269 OA
ATOM      6  H   UNL A   1      35.043  19.524  26.190  1.00  0.00     0.163 HD
BRANCH   4   7
ATOM      7  C   UNL A   1      34.721  22.841  25.983  1.00  0.00     0.081 A 
ATOM      8  C   UNL A   1      37.206  23.768  25.542  1.00  0.00     0.088 C 
ATOM      9  C   UNL A   1      35.732  23.735  25.638  1.00  0.00     0.114 A 
ATOM     10  O   UNL A   1      35.195  24.954  25.316  1.00  0.00    -0.460 OA
ATOM     11  C   UNL A   1      33.858  24.881  25.484  1.00  0.00     0.142 A 
ATOM     12  C   UNL A   1      33.515  23.628  25.913  1.00  0.00     0.065 A 
BRANCH  11  13
ATOM     13  C   UNL A   1      33.124  26.101  25.227  1.00  0.00     0.095 A 
ATOM     14  C   UNL A   1      32.873  26.963  26.307  1.00  0.00     0.021 A 
ATOM     15  C   UNL A   1      32.673  26.485  23.954  1.00  0.00     0.281 A 
ATOM     16  C   UNL A   1      32.197  28.171  26.116  1.00  0.00     0.022 A 
ATOM     17  C   UNL A   1      31.993  27.696  23.753  1.00  0.00     0.107 A 
ATOM     18  C   UNL A   1      31.761  28.530  24.842  1.00  0.00     0.047 A 
ATOM     19  Cl  UNL A   1      30.925  30.016  24.616  1.00  0.00    -0.084 Cl
BRANCH  15  20
ATOM     20  N   UNL A   1      32.861  25.622  22.792  1.00  0.00     0.063 N 
ATOM     21  O   UNL A   1      32.002  24.749  22.598  1.00  0.00    -0.258 OA
ATOM     22  O   UNL A   1      33.892  25.766  22.122  1.00  0.00    -0.258 OA
ENDBRANCH  15  20
ENDBRANCH  11  13
ENDBRANCH   4   7
ENDBRANCH   2   3
ENDBRANCH   1   2
BRANCH   1  23
ATOM     23  C   UNL A   1      38.572  20.146  25.450  1.00  0.00     0.118 C 
BRANCH  23  24
ATOM     24  N   UNL A   1      39.702  19.256  25.671  1.00  0.00    -0.352 N 
ATOM     25  C   UNL A   1      40.989  19.542  26.043  1.00  0.00     0.251 C 
ATOM     26  H   UNL A   1      39.512  18.300  25.532  1.00  0.00     0.163 HD
ATOM     27  O   UNL A   1      41.856  18.676  25.927  1.00  0.00    -0.269 OA
BRANCH  25  28
ATOM     28  C   UNL A   1      41.350  20.874  26.574  1.00  0.00     0.039 A 
ATOM     29  C   UNL A   1      41.889  21.823  25.700  1.00  0.00     0.014 A 
ATOM     30  C   UNL A   1      41.221  21.174  27.933  1.00  0.00     0.014 A 
ATOM     31  C   UNL A   1      42.253  23.083  26.178  1.00  0.00     0.010 A 
ATOM     32  C   UNL A   1      41.510  22.455  28.395  1.00  0.00     0.010 A 
ATOM     33  C   UNL A   1      42.043  23.418  27.525  1.00  0.00    -0.014 A 
BRANCH  33  34
ATOM     34  C   UNL A   1      42.387  24.766  28.044  1.00  0.00     0.031 A 
ATOM     35  C   UNL A   1      43.801  25.084  28.445  1.00  0.00     0.074 A 
ATOM     36  C   UNL A   1      41.413  25.681  28.210  1.00  0.00     0.049 A 
ATOM     37  N   UNL A   1      44.282  26.176  28.981  1.00  0.00    -0.248 NA
ATOM     38  C   UNL A   1      44.802  24.025  28.242  1.00  0.00     0.031 C 
ATOM     39  C   UNL A   1      39.996  25.475  27.901  1.00  0.00     0.029 A 
ATOM     40  N   UNL A   1      41.465  26.966  28.690  1.00  0.00    -0.354 N 
ATOM     41  C   UNL A   1      45.633  25.930  29.194  1.00  0.00     0.074 A 
ATOM     42  C   UNL A   1      45.884  24.567  28.777  1.00  0.00     0.031 C 
ATOM     43  C   UNL A   1      39.318  26.600  28.179  1.00  0.00     0.029 A 
ATOM     44  C   UNL A   1      40.242  27.591  28.719  1.00  0.00     0.049 A 
ATOM     45  H   UNL A   1      42.298  27.397  28.985  1.00  0.00     0.167 HD
ATOM     46  C   UNL A   1      46.582  26.769  29.672  1.00  0.00     0.037 A 
ATOM     47  C   UNL A   1      39.905  28.824  29.139  1.00  0.00     0.037 A 
ATOM     48  C   UNL A   1      46.331  28.133  30.060  1.00  0.00     0.049 A 
ATOM     49  C   UNL A   1      40.976  29.738  29.663  1.00  0.00     0.074 A 
ATOM     50  C   UNL A   1      47.235  29.085  30.499  1.00  0.00     0.029 A 
ATOM     51  N   UNL A   1      45.083  28.738  30.054  1.00  0.00    -0.354 N 
ATOM     52  N   UNL A   1      42.261  29.513  29.798  1.00  0.00    -0.248 NA
ATOM     53  C   UNL A   1      40.553  31.080  30.086  1.00  0.00     0.031 C 
ATOM     54  C   UNL A   1      46.527  30.253  30.800  1.00  0.00     0.029 A 
ATOM     55  C   UNL A   1      45.189  30.044  30.501  1.00  0.00     0.049 A 
ATOM     56  H   UNL A   1      44.246  28.303  29.773  1.00  0.00     0.167 HD
ATOM     57  C   UNL A   1      42.803  30.691  30.295  1.00  0.00     0.074 A 
ATOM     58  C   UNL A   1      41.710  31.632  30.423  1.00  0.00     0.031 C 
ATOM     59  C   UNL A   1      44.091  30.968  30.616  1.00  0.00     0.037 A 
BRANCH  46  60
ATOM     60  C   UNL A   1      47.981  26.235  29.797  1.00  0.00     0.057 A 
ATOM     61  C   UNL A   1      48.466  25.709  31.002  1.00  0.00     0.134 A 
ATOM     62  C   UNL A   1      48.843  26.220  28.694  1.00  0.00     0.134 A 
ATOM     63  F   UNL A   1      47.695  25.704  32.100  1.00  0.00    -0.206 F 
ATOM     64  C   UNL A   1      49.766  25.213  31.112  1.00  0.00     0.040 A 
ATOM     65  C   UNL A   1      50.136  25.701  28.784  1.00  0.00     0.040 A 
ATOM     66  F   UNL A   1      48.442  26.701  27.508  1.00  0.00    -0.206 F 
ATOM     67  C   UNL A   1      50.603  25.202  29.999  1.00  0.00     0.006 A 
ENDBRANCH  46  60
BRANCH  47  68
ATOM     68  C   UNL A   1      38.492  29.275  29.060  1.00  0.00     0.057 A 
ATOM     69  C   UNL A   1      37.948  29.733  27.853  1.00  0.00     0.134 A 
ATOM     70  C   UNL A   1      37.654  29.258  30.180  1.00  0.00     0.134 A 
ATOM     71  F   UNL A   1      38.707  29.788  26.749  1.00  0.00    -0.206 F 
ATOM     72  C   UNL A   1      36.629  30.179  27.769  1.00  0.00     0.040 A 
ATOM     73  C   UNL A   1      36.324  29.677  30.104  1.00  0.00     0.040 A 
ATOM     74  F   UNL A   1      38.111  28.821  31.362  1.00  0.00    -0.206 F 
ATOM     75  C   UNL A   1      35.811  30.146  28.896  1.00  0.00     0.006 A 
ENDBRANCH  47  68
BRANCH  59  76
ATOM     76  C   UNL A   1      44.390  32.355  31.104  1.00  0.00     0.057 A 
ATOM     77  C   UNL A   1      44.410  32.672  32.469  1.00  0.00     0.134 A 
ATOM     78  C   UNL A   1      44.697  33.378  30.197  1.00  0.00     0.134 A 
ATOM     79  F   UNL A   1      44.111  31.741  33.387  1.00  0.00    -0.206 F 
ATOM     80  C   UNL A   1      44.702  33.963  32.912  1.00  0.00     0.040 A 
ATOM     81  C   UNL A   1      45.018  34.665  30.630  1.00  0.00     0.040 A 
ATOM     82  F   UNL A   1      44.704  33.138  28.877  1.00  0.00    -0.206 F 
ATOM     83  C   UNL A   1      45.013  34.961  31.992  1.00  0.00     0.006 A 
ENDBRANCH  59  76
ENDBRANCH  33  34
ENDBRANCH  25  28
ENDBRANCH  23  24
ENDBRANCH   1  23
TORSDOF 12
ENDMDL
MODEL 3
REMARK VINA RESULT:     -11.6      1.313      1.978
REMARK SMILES Cc1oc(-c2ccc(Cl)cc2[N+](=O)[O-])cc1C(=O)NCCCNC(=O)c1ccc(-c2c3nc(c(-c4c(F)cccc4F)c4ccc([nH]4)c(-c4c(F)cccc4F)c4nc(c(-c5c(F)cccc5F)c5ccc2[nH]5)C=C4)C=C3)cc1
REMARK SMILES IDX 21 1 20 2 19 3 17 4 18 5 16 7 1 8 2 9 3 10 4 11 15 12 5 13
REMARK SMILES IDX 6 14 11 15 7 16 10 17 8 18 9 19 12 20 13 21 14 22 22 23
REMARK SMILES IDX 23 24 24 25 25 27 26 28 27 29 79 30 28 31 78 32 29 33 30 34
REMARK SMILES IDX 31 35 72 36 32 37 77 38 71 39 73 40 33 41 76 42 70 43 69 44
REMARK SMILES IDX 34 46 60 47 43 48 59 49 44 50 47 51 58 52 74 53 45 54 46 55
REMARK SMILES IDX 57 57 75 58 48 59 35 60 36 61 41 62 37 63 38 64 40 65 42 66
REMARK SMILES IDX 39 67 61 68 62 69 67 70 63 71 64 72 66 73 68 74 65 75 49 76
REMARK SMILES IDX 50 77 55 78 51 79 52 80 54 81 56 82 53 83
REMARK H PARENT 19 6 23 26 73 45 47 56
REMARK Flexibility Score: inf
ROOT
ATOM      1  C   UNL A   1      37.585  19.546  24.994  1.00  0.00     0.042 C 
ENDROOT
BRANCH   1   2
ATOM      2  C   UNL A   1      36.368  20.467  24.928  1.00  0.00     0.118 C 
BRANCH   2   3
ATOM      3  N   UNL A   1      35.153  19.699  25.029  1.00  0.00    -0.352 N 
ATOM      4  C   UNL A   1      33.830  20.028  24.996  1.00  0.00     0.254 C 
ATOM      5  O   UNL A   1      33.060  19.069  25.129  1.00  0.00    -0.269 OA
ATOM      6  H   UNL A   1      35.310  18.736  25.147  1.00  0.00     0.163 HD
BRANCH   4   7
ATOM      7  C   UNL A   1      33.286  21.363  24.762  1.00  0.00     0.081 A 
ATOM      8  C   UNL A   1      31.870  21.628  22.492  1.00  0.00     0.088 C 
ATOM      9  C   UNL A   1      32.508  21.972  23.780  1.00  0.00     0.114 A 
ATOM     10  O   UNL A   1      32.296  23.289  24.093  1.00  0.00    -0.460 OA
ATOM     11  C   UNL A   1      32.953  23.558  25.241  1.00  0.00     0.142 A 
ATOM     12  C   UNL A   1      33.594  22.432  25.679  1.00  0.00     0.065 A 
BRANCH  11  13
ATOM     13  C   UNL A   1      32.873  24.926  25.706  1.00  0.00     0.095 A 
ATOM     14  C   UNL A   1      33.965  25.773  25.458  1.00  0.00     0.021 A 
ATOM     15  C   UNL A   1      31.755  25.460  26.365  1.00  0.00     0.281 A 
ATOM     16  C   UNL A   1      33.935  27.114  25.854  1.00  0.00     0.022 A 
ATOM     17  C   UNL A   1      31.716  26.804  26.767  1.00  0.00     0.107 A 
ATOM     18  C   UNL A   1      32.812  27.621  26.506  1.00  0.00     0.047 A 
ATOM     19  Cl  UNL A   1      32.784  29.269  26.996  1.00  0.00    -0.084 Cl
BRANCH  15  20
ATOM     20  N   UNL A   1      30.601  24.629  26.694  1.00  0.00     0.063 N 
ATOM     21  O   UNL A   1      29.491  25.044  26.329  1.00  0.00    -0.258 OA
ATOM     22  O   UNL A   1      30.792  23.610  27.370  1.00  0.00    -0.258 OA
ENDBRANCH  15  20
ENDBRANCH  11  13
ENDBRANCH   4   7
ENDBRANCH   2   3
ENDBRANCH   1   2
BRANCH   1  23
ATOM     23  C   UNL A   1      38.865  20.254  25.422  1.00  0.00     0.118 C 
BRANCH  23  24
ATOM     24  N   UNL A   1      39.940  19.310  25.687  1.00  0.00    -0.352 N 
ATOM     25  C   UNL A   1      41.225  19.535  26.109  1.00  0.00     0.251 C 
ATOM     26  H   UNL A   1      39.708  18.365  25.543  1.00  0.00     0.163 HD
ATOM     27  O   UNL A   1      42.051  18.626  26.028  1.00  0.00    -0.269 OA
BRANCH  25  28
ATOM     28  C   UNL A   1      41.631  20.848  26.651  1.00  0.00     0.039 A 
ATOM     29  C   UNL A   1      42.058  21.840  25.763  1.00  0.00     0.014 A 
ATOM     30  C   UNL A   1      41.651  21.092  28.027  1.00  0.00     0.014 A 
ATOM     31  C   UNL A   1      42.462  23.084  26.249  1.00  0.00     0.010 A 
ATOM     32  C   UNL A   1      41.978  22.357  28.507  1.00  0.00     0.010 A 
ATOM     33  C   UNL A   1      42.401  23.362  27.624  1.00  0.00    -0.014 A 
BRANCH  33  34
ATOM     34  C   UNL A   1      42.788  24.692  28.157  1.00  0.00     0.031 A 
ATOM     35  C   UNL A   1      41.744  25.751  28.381  1.00  0.00     0.074 A 
ATOM     36  C   UNL A   1      44.088  24.964  28.380  1.00  0.00     0.049 A 
ATOM     37  N   UNL A   1      41.894  26.991  28.773  1.00  0.00    -0.248 NA
ATOM     38  C   UNL A   1      40.349  25.376  28.101  1.00  0.00     0.031 C 
ATOM     39  C   UNL A   1      45.198  24.035  28.157  1.00  0.00     0.029 A 
ATOM     40  N   UNL A   1      44.698  26.106  28.837  1.00  0.00    -0.354 N 
ATOM     41  C   UNL A   1      40.621  27.545  28.770  1.00  0.00     0.074 A 
ATOM     42  C   UNL A   1      39.716  26.524  28.289  1.00  0.00     0.031 C 
ATOM     43  C   UNL A   1      46.349  24.636  28.496  1.00  0.00     0.029 A 
ATOM     44  C   UNL A   1      46.064  26.001  28.924  1.00  0.00     0.049 A 
ATOM     45  H   UNL A   1      44.203  26.921  29.077  1.00  0.00     0.167 HD
ATOM     46  C   UNL A   1      40.236  28.785  29.156  1.00  0.00     0.037 A 
ATOM     47  C   UNL A   1      46.985  26.907  29.303  1.00  0.00     0.037 A 
ATOM     48  C   UNL A   1      41.137  29.789  29.660  1.00  0.00     0.049 A 
ATOM     49  C   UNL A   1      46.533  28.276  29.729  1.00  0.00     0.074 A 
ATOM     50  C   UNL A   1      40.840  31.055  30.135  1.00  0.00     0.029 A 
ATOM     51  N   UNL A   1      42.513  29.638  29.756  1.00  0.00    -0.354 N 
ATOM     52  N   UNL A   1      45.318  28.765  29.783  1.00  0.00    -0.248 NA
ATOM     53  C   UNL A   1      47.580  29.215  30.154  1.00  0.00     0.031 C 
ATOM     54  C   UNL A   1      42.041  31.685  30.477  1.00  0.00     0.029 A 
ATOM     55  C   UNL A   1      43.081  30.794  30.262  1.00  0.00     0.049 A 
ATOM     56  H   UNL A   1      43.011  28.827  29.502  1.00  0.00     0.167 HD
ATOM     57  C   UNL A   1      45.450  30.058  30.272  1.00  0.00     0.074 A 
ATOM     58  C   UNL A   1      46.862  30.271  30.513  1.00  0.00     0.031 C 
ATOM     59  C   UNL A   1      44.488  30.986  30.501  1.00  0.00     0.037 A 
BRANCH  46  60
ATOM     60  C   UNL A   1      38.776  29.123  29.051  1.00  0.00     0.057 A 
ATOM     61  C   UNL A   1      37.915  29.033  30.153  1.00  0.00     0.134 A 
ATOM     62  C   UNL A   1      38.230  29.572  27.842  1.00  0.00     0.134 A 
ATOM     63  F   UNL A   1      38.371  28.599  31.338  1.00  0.00    -0.206 F 
ATOM     64  C   UNL A   1      36.559  29.351  30.049  1.00  0.00     0.040 A 
ATOM     65  C   UNL A   1      36.882  29.919  27.733  1.00  0.00     0.040 A 
ATOM     66  F   UNL A   1      38.998  29.688  26.748  1.00  0.00    -0.206 F 
ATOM     67  C   UNL A   1      36.041  29.801  28.838  1.00  0.00     0.006 A 
ENDBRANCH  46  60
BRANCH  47  68
ATOM     68  C   UNL A   1      48.423  26.542  29.319  1.00  0.00     0.057 A 
ATOM     69  C   UNL A   1      49.000  25.931  30.440  1.00  0.00     0.134 A 
ATOM     70  C   UNL A   1      49.255  26.790  28.221  1.00  0.00     0.134 A 
ATOM     71  F   UNL A   1      48.258  25.683  31.529  1.00  0.00    -0.206 F 
ATOM     72  C   UNL A   1      50.355  25.602  30.477  1.00  0.00     0.040 A 
ATOM     73  C   UNL A   1      50.607  26.441  28.235  1.00  0.00     0.040 A 
ATOM     74  F   UNL A   1      48.762  27.362  27.113  1.00  0.00    -0.206 F 
ATOM     75  C   UNL A   1      51.162  25.851  29.369  1.00  0.00     0.006 A 
ENDBRANCH  47  68
BRANCH  59  76
ATOM     76  C   UNL A   1      44.930  32.301  31.072  1.00  0.00     0.057 A 
ATOM     77  C   UNL A   1      45.266  33.387  30.253  1.00  0.00     0.134 A 
ATOM     78  C   UNL A   1      44.984  32.493  32.458  1.00  0.00     0.134 A 
ATOM     79  F   UNL A   1      45.247  33.265  28.918  1.00  0.00    -0.206 F 
ATOM     80  C   UNL A   1      45.663  34.611  30.795  1.00  0.00     0.040 A 
ATOM     81  C   UNL A   1      45.353  33.720  33.011  1.00  0.00     0.040 A 
ATOM     82  F   UNL A   1      44.667  31.495  33.297  1.00  0.00    -0.206 F 
ATOM     83  C   UNL A   1      45.701  34.781  32.177  1.00  0.00     0.006 A 
ENDBRANCH  59  76
ENDBRANCH  33  34
ENDBRANCH  25  28
ENDBRANCH  23  24
ENDBRANCH   1  23
TORSDOF 12
ENDMDL
