MODEL 1
REMARK VINA RESULT:     -13.1      0.000      0.000
REMARK SMILES Cc1ccc(Nc2c(Cl)cc(Cl)cc2Cl)c(CC(=O)NCCCNC(=O)c2ccc(-c3c4nc(c(-c5c(F)cccc5F)c5ccc([nH]5)c(-c5c(F)cccc5F)c5nc(c(-c6c(F)cccc6F)c6ccc3[nH]6)C=C5)C=C4)cc2)c1
REMARK SMILES IDX 21 1 20 2 18 3 19 4 17 6 16 7 1 8 2 9 3 10 81 11 4 12 5 13
REMARK SMILES IDX 6 14 7 16 8 17 14 18 9 19 10 20 13 21 15 22 11 23 12 24
REMARK SMILES IDX 22 25 23 26 24 27 25 28 26 30 27 31 28 32 80 33 29 34 79 35
REMARK SMILES IDX 30 36 31 37 32 38 73 39 33 40 78 41 72 42 74 43 34 44 77 45
REMARK SMILES IDX 71 46 70 47 35 49 61 50 44 51 60 52 45 53 48 54 59 55 75 56
REMARK SMILES IDX 46 57 47 58 58 60 76 61 49 62 36 63 37 64 42 65 38 66 39 67
REMARK SMILES IDX 41 68 43 69 40 70 62 71 63 72 68 73 64 74 65 75 67 76 69 77
REMARK SMILES IDX 66 78 50 79 51 80 56 81 52 82 53 83 55 84 57 85 54 86
REMARK H PARENT 20 5 6 15 24 29 74 48 48 59
REMARK Flexibility Score: inf
ROOT
ATOM      1  C   UNL A   1      37.879  21.326  25.551  1.00  0.00     0.117 C 
ENDROOT
BRANCH   1   2
ATOM      2  N   UNL A   1      37.711  22.060  24.306  1.00  0.00    -0.356 N 
ATOM      3  C   UNL A   1      36.640  22.793  23.876  1.00  0.00     0.224 C 
ATOM      4  O   UNL A   1      36.663  23.257  22.732  1.00  0.00    -0.275 OA
ATOM      5  H   UNL A   1      38.476  22.025  23.687  1.00  0.00     0.163 HD
BRANCH   3   6
ATOM      6  C   UNL A   1      35.421  23.001  24.762  1.00  0.00     0.137 C 
BRANCH   6   7
ATOM      7  C   UNL A   1      34.164  22.377  24.194  1.00  0.00    -0.015 A 
ATOM      8  C   UNL A   1      32.618  18.877  24.225  1.00  0.00     0.044 C 
ATOM      9  C   UNL A   1      32.838  20.333  23.941  1.00  0.00    -0.051 A 
ATOM     10  C   UNL A   1      32.014  21.000  23.038  1.00  0.00     0.005 A 
ATOM     11  C   UNL A   1      33.884  21.036  24.542  1.00  0.00     0.009 A 
ATOM     12  C   UNL A   1      32.244  22.344  22.733  1.00  0.00     0.026 A 
ATOM     13  C   UNL A   1      33.321  23.057  23.287  1.00  0.00     0.042 A 
BRANCH  13  14
ATOM     14  N   UNL A   1      33.525  24.422  22.978  1.00  0.00    -0.353 N 
ATOM     15  H   UNL A   1      34.412  24.644  22.614  1.00  0.00     0.167 HD
BRANCH  14  16
ATOM     16  C   UNL A   1      32.633  25.514  23.118  1.00  0.00     0.076 A 
ATOM     17  C   UNL A   1      32.198  25.995  24.371  1.00  0.00     0.067 A 
ATOM     18  C   UNL A   1      32.075  26.108  21.965  1.00  0.00     0.067 A 
ATOM     19  Cl  UNL A   1      32.875  25.427  25.861  1.00  0.00    -0.082 Cl
ATOM     20  C   UNL A   1      31.233  27.004  24.463  1.00  0.00     0.043 A 
ATOM     21  C   UNL A   1      31.118  27.122  22.054  1.00  0.00     0.043 A 
ATOM     22  Cl  UNL A   1      32.523  25.571  20.379  1.00  0.00    -0.082 Cl
ATOM     23  C   UNL A   1      30.696  27.556  23.305  1.00  0.00     0.044 A 
ATOM     24  Cl  UNL A   1      29.496  28.784  23.422  1.00  0.00    -0.084 Cl
ENDBRANCH  14  16
ENDBRANCH  13  14
ENDBRANCH   6   7
ENDBRANCH   3   6
ENDBRANCH   1   2
BRANCH   1  25
ATOM     25  C   UNL A   1      39.297  21.434  26.106  1.00  0.00     0.042 C 
BRANCH  25  26
ATOM     26  C   UNL A   1      39.610  22.748  26.801  1.00  0.00     0.118 C 
BRANCH  26  27
ATOM     27  N   UNL A   1      41.025  23.107  26.791  1.00  0.00    -0.352 N 
ATOM     28  C   UNL A   1      41.601  24.359  26.946  1.00  0.00     0.251 C 
ATOM     29  H   UNL A   1      41.654  22.361  26.655  1.00  0.00     0.163 HD
ATOM     30  O   UNL A   1      42.812  24.490  26.957  1.00  0.00    -0.269 OA
BRANCH  28  31
ATOM     31  C   UNL A   1      40.717  25.513  27.235  1.00  0.00     0.039 A 
ATOM     32  C   UNL A   1      40.866  26.657  26.447  1.00  0.00     0.014 A 
ATOM     33  C   UNL A   1      39.957  25.550  28.401  1.00  0.00     0.014 A 
ATOM     34  C   UNL A   1      40.493  27.891  26.971  1.00  0.00     0.010 A 
ATOM     35  C   UNL A   1      39.679  26.779  28.966  1.00  0.00     0.010 A 
ATOM     36  C   UNL A   1      40.024  27.950  28.283  1.00  0.00    -0.014 A 
BRANCH  36  37
ATOM     37  C   UNL A   1      40.016  29.183  29.065  1.00  0.00     0.031 A 
ATOM     38  C   UNL A   1      38.956  30.191  28.886  1.00  0.00     0.074 A 
ATOM     39  C   UNL A   1      40.949  29.356  30.028  1.00  0.00     0.049 A 
ATOM     40  N   UNL A   1      39.054  31.424  29.254  1.00  0.00    -0.248 NA
ATOM     41  C   UNL A   1      37.696  29.884  28.227  1.00  0.00     0.031 C 
ATOM     42  C   UNL A   1      40.963  30.364  31.085  1.00  0.00     0.029 A 
ATOM     43  N   UNL A   1      42.221  28.770  30.092  1.00  0.00    -0.354 N 
ATOM     44  C   UNL A   1      37.808  31.998  29.145  1.00  0.00     0.074 A 
ATOM     45  C   UNL A   1      37.017  31.016  28.436  1.00  0.00     0.031 C 
ATOM     46  C   UNL A   1      42.232  30.556  31.476  1.00  0.00     0.029 A 
ATOM     47  C   UNL A   1      43.078  29.782  30.584  1.00  0.00     0.049 A 
ATOM     48  H   UNL A   1      42.467  27.849  29.846  1.00  0.00     0.167 HD
ATOM     49  C   UNL A   1      37.564  33.185  29.774  1.00  0.00     0.037 A 
ATOM     50  C   UNL A   1      44.079  30.289  29.806  1.00  0.00     0.037 A 
ATOM     51  C   UNL A   1      38.786  33.742  30.361  1.00  0.00     0.049 A 
ATOM     52  C   UNL A   1      43.968  31.771  29.512  1.00  0.00     0.074 A 
ATOM     53  C   UNL A   1      39.324  33.787  31.639  1.00  0.00     0.029 A 
ATOM     54  N   UNL A   1      39.802  34.141  29.511  1.00  0.00    -0.354 N 
ATOM     55  N   UNL A   1      42.976  32.528  29.891  1.00  0.00    -0.248 NA
ATOM     56  C   UNL A   1      44.927  32.494  28.673  1.00  0.00     0.031 C 
ATOM     57  C   UNL A   1      40.684  34.200  31.536  1.00  0.00     0.029 A 
ATOM     58  C   UNL A   1      40.969  34.405  30.199  1.00  0.00     0.049 A 
ATOM     59  H   UNL A   1      39.703  34.226  28.535  1.00  0.00     0.167 HD
ATOM     60  C   UNL A   1      43.106  33.765  29.318  1.00  0.00     0.074 A 
ATOM     61  C   UNL A   1      44.349  33.703  28.575  1.00  0.00     0.031 C 
ATOM     62  C   UNL A   1      42.163  34.741  29.444  1.00  0.00     0.037 A 
BRANCH  49  63
ATOM     63  C   UNL A   1      36.180  33.725  30.068  1.00  0.00     0.057 A 
ATOM     64  C   UNL A   1      35.328  34.131  29.022  1.00  0.00     0.134 A 
ATOM     65  C   UNL A   1      35.641  33.925  31.351  1.00  0.00     0.134 A 
ATOM     66  F   UNL A   1      35.627  33.901  27.737  1.00  0.00    -0.206 F 
ATOM     67  C   UNL A   1      34.114  34.799  29.236  1.00  0.00     0.040 A 
ATOM     68  C   UNL A   1      34.458  34.642  31.583  1.00  0.00     0.040 A 
ATOM     69  F   UNL A   1      36.190  33.377  32.440  1.00  0.00    -0.206 F 
ATOM     70  C   UNL A   1      33.695  35.098  30.522  1.00  0.00     0.006 A 
ENDBRANCH  49  63
BRANCH  50  71
ATOM     71  C   UNL A   1      44.658  29.280  28.881  1.00  0.00     0.057 A 
ATOM     72  C   UNL A   1      45.572  28.338  29.389  1.00  0.00     0.134 A 
ATOM     73  C   UNL A   1      44.082  29.001  27.638  1.00  0.00     0.134 A 
ATOM     74  F   UNL A   1      46.161  28.542  30.578  1.00  0.00    -0.206 F 
ATOM     75  C   UNL A   1      45.812  27.122  28.746  1.00  0.00     0.040 A 
ATOM     76  C   UNL A   1      44.331  27.794  26.976  1.00  0.00     0.040 A 
ATOM     77  F   UNL A   1      43.183  29.836  27.098  1.00  0.00    -0.206 F 
ATOM     78  C   UNL A   1      45.164  26.835  27.549  1.00  0.00     0.006 A 
ENDBRANCH  50  71
BRANCH  62  79
ATOM     79  C   UNL A   1      42.307  36.102  28.834  1.00  0.00     0.057 A 
ATOM     80  C   UNL A   1      41.828  36.400  27.551  1.00  0.00     0.134 A 
ATOM     81  C   UNL A   1      43.047  37.117  29.468  1.00  0.00     0.134 A 
ATOM     82  F   UNL A   1      41.145  35.489  26.842  1.00  0.00    -0.206 F 
ATOM     83  C   UNL A   1      42.051  37.642  26.945  1.00  0.00     0.040 A 
ATOM     84  C   UNL A   1      43.315  38.343  28.855  1.00  0.00     0.040 A 
ATOM     85  F   UNL A   1      43.519  36.965  30.715  1.00  0.00    -0.206 F 
ATOM     86  C   UNL A   1      42.810  38.613  27.592  1.00  0.00     0.006 A 
ENDBRANCH  62  79
ENDBRANCH  36  37
ENDBRANCH  28  31
ENDBRANCH  26  27
ENDBRANCH  25  26
ENDBRANCH   1  25
TORSDOF 13
ENDMDL
MODEL 2
REMARK VINA RESULT:     -13.0      3.948      9.546
REMARK SMILES Cc1ccc(Nc2c(Cl)cc(Cl)cc2Cl)c(CC(=O)NCCCNC(=O)c2ccc(-c3c4nc(c(-c5c(F)cccc5F)c5ccc([nH]5)c(-c5c(F)cccc5F)c5nc(c(-c6c(F)cccc6F)c6ccc3[nH]6)C=C5)C=C4)cc2)c1
REMARK SMILES IDX 21 1 20 2 18 3 19 4 17 6 16 7 1 8 2 9 3 10 81 11 4 12 5 13
REMARK SMILES IDX 6 14 7 16 8 17 14 18 9 19 10 20 13 21 15 22 11 23 12 24
REMARK SMILES IDX 22 25 23 26 24 27 25 28 26 30 27 31 28 32 80 33 29 34 79 35
REMARK SMILES IDX 30 36 31 37 32 38 73 39 33 40 78 41 72 42 74 43 34 44 77 45
REMARK SMILES IDX 71 46 70 47 35 49 61 50 44 51 60 52 45 53 48 54 59 55 75 56
REMARK SMILES IDX 46 57 47 58 58 60 76 61 49 62 36 63 37 64 42 65 38 66 39 67
REMARK SMILES IDX 41 68 43 69 40 70 62 71 63 72 68 73 64 74 65 75 67 76 69 77
REMARK SMILES IDX 66 78 50 79 51 80 56 81 52 82 53 83 55 84 57 85 54 86
REMARK H PARENT 20 5 6 15 24 29 74 48 48 59
REMARK Flexibility Score: inf
ROOT
ATOM      1  C   UNL A   1      32.190  30.907  26.875  1.00  0.00     0.117 C 
ENDROOT
BRANCH   1   2
ATOM      2  N   UNL A   1      31.882  29.706  27.636  1.00  0.00    -0.356 N 
ATOM      3  C   UNL A   1      31.900  28.401  27.230  1.00  0.00     0.224 C 
ATOM      4  O   UNL A   1      31.503  27.533  28.013  1.00  0.00    -0.275 OA
ATOM      5  H   UNL A   1      31.625  29.853  28.575  1.00  0.00     0.163 HD
BRANCH   3   6
ATOM      6  C   UNL A   1      32.356  28.018  25.830  1.00  0.00     0.137 C 
BRANCH   6   7
ATOM      7  C   UNL A   1      31.215  27.588  24.933  1.00  0.00    -0.015 A 
ATOM      8  C   UNL A   1      28.850  29.367  22.507  1.00  0.00     0.044 C 
ATOM      9  C   UNL A   1      29.504  28.297  23.329  1.00  0.00    -0.051 A 
ATOM     10  C   UNL A   1      28.944  27.024  23.390  1.00  0.00     0.005 A 
ATOM     11  C   UNL A   1      30.658  28.560  24.071  1.00  0.00     0.009 A 
ATOM     12  C   UNL A   1      29.521  26.035  24.192  1.00  0.00     0.026 A 
ATOM     13  C   UNL A   1      30.652  26.293  24.986  1.00  0.00     0.042 A 
BRANCH  13  14
ATOM     14  N   UNL A   1      31.232  25.274  25.777  1.00  0.00    -0.353 N 
ATOM     15  H   UNL A   1      31.294  25.471  26.740  1.00  0.00     0.167 HD
BRANCH  14  16
ATOM     16  C   UNL A   1      31.734  24.009  25.380  1.00  0.00     0.076 A 
ATOM     17  C   UNL A   1      32.780  23.858  24.445  1.00  0.00     0.067 A 
ATOM     18  C   UNL A   1      31.121  22.834  25.864  1.00  0.00     0.067 A 
ATOM     19  Cl  UNL A   1      33.687  25.209  23.849  1.00  0.00    -0.082 Cl
ATOM     20  C   UNL A   1      33.174  22.591  23.999  1.00  0.00     0.043 A 
ATOM     21  C   UNL A   1      31.518  21.568  25.426  1.00  0.00     0.043 A 
ATOM     22  Cl  UNL A   1      29.810  22.913  26.995  1.00  0.00    -0.082 Cl
ATOM     23  C   UNL A   1      32.536  21.456  24.488  1.00  0.00     0.044 A 
ATOM     24  Cl  UNL A   1      33.009  19.902  23.923  1.00  0.00    -0.084 Cl
ENDBRANCH  14  16
ENDBRANCH  13  14
ENDBRANCH   6   7
ENDBRANCH   3   6
ENDBRANCH   1   2
BRANCH   1  25
ATOM     25  C   UNL A   1      33.667  31.285  26.954  1.00  0.00     0.042 C 
BRANCH  25  26
ATOM     26  C   UNL A   1      34.425  30.654  28.110  1.00  0.00     0.118 C 
BRANCH  26  27
ATOM     27  N   UNL A   1      35.322  31.570  28.807  1.00  0.00    -0.352 N 
ATOM     28  C   UNL A   1      36.616  31.343  29.252  1.00  0.00     0.251 C 
ATOM     29  H   UNL A   1      34.961  32.469  28.986  1.00  0.00     0.163 HD
ATOM     30  O   UNL A   1      37.257  32.232  29.784  1.00  0.00    -0.269 OA
BRANCH  28  31
ATOM     31  C   UNL A   1      37.250  30.040  28.944  1.00  0.00     0.039 A 
ATOM     32  C   UNL A   1      37.393  29.124  29.990  1.00  0.00     0.014 A 
ATOM     33  C   UNL A   1      37.909  29.839  27.734  1.00  0.00     0.014 A 
ATOM     34  C   UNL A   1      38.405  28.172  29.921  1.00  0.00     0.010 A 
ATOM     35  C   UNL A   1      38.977  28.965  27.703  1.00  0.00     0.010 A 
ATOM     36  C   UNL A   1      39.273  28.191  28.829  1.00  0.00    -0.014 A 
BRANCH  36  37
ATOM     37  C   UNL A   1      40.586  27.555  28.853  1.00  0.00     0.031 A 
ATOM     38  C   UNL A   1      40.746  26.124  28.540  1.00  0.00     0.074 A 
ATOM     39  C   UNL A   1      41.681  28.315  29.081  1.00  0.00     0.049 A 
ATOM     40  N   UNL A   1      41.772  25.415  28.870  1.00  0.00    -0.248 NA
ATOM     41  C   UNL A   1      39.716  25.361  27.850  1.00  0.00     0.031 C 
ATOM     42  C   UNL A   1      43.080  27.947  28.886  1.00  0.00     0.029 A 
ATOM     43  N   UNL A   1      41.738  29.533  29.775  1.00  0.00    -0.354 N 
ATOM     44  C   UNL A   1      41.679  24.207  28.217  1.00  0.00     0.074 A 
ATOM     45  C   UNL A   1      40.348  24.201  27.652  1.00  0.00     0.031 C 
ATOM     46  C   UNL A   1      43.840  28.709  29.687  1.00  0.00     0.029 A 
ATOM     47  C   UNL A   1      42.940  29.486  30.520  1.00  0.00     0.049 A 
ATOM     48  H   UNL A   1      41.081  30.266  29.749  1.00  0.00     0.167 HD
ATOM     49  C   UNL A   1      42.786  23.410  28.132  1.00  0.00     0.037 A 
ATOM     50  C   UNL A   1      42.914  29.471  31.885  1.00  0.00     0.037 A 
ATOM     51  C   UNL A   1      43.895  23.946  28.926  1.00  0.00     0.049 A 
ATOM     52  C   UNL A   1      43.522  28.236  32.519  1.00  0.00     0.074 A 
ATOM     53  C   UNL A   1      45.046  24.662  28.639  1.00  0.00     0.029 A 
ATOM     54  N   UNL A   1      43.755  23.994  30.302  1.00  0.00    -0.354 N 
ATOM     55  N   UNL A   1      43.980  27.212  31.854  1.00  0.00    -0.248 NA
ATOM     56  C   UNL A   1      43.564  28.020  33.968  1.00  0.00     0.031 C 
ATOM     57  C   UNL A   1      45.582  25.157  29.864  1.00  0.00     0.029 A 
ATOM     58  C   UNL A   1      44.756  24.740  30.891  1.00  0.00     0.049 A 
ATOM     59  H   UNL A   1      43.031  23.549  30.799  1.00  0.00     0.167 HD
ATOM     60  C   UNL A   1      44.297  26.209  32.730  1.00  0.00     0.074 A 
ATOM     61  C   UNL A   1      44.034  26.763  34.043  1.00  0.00     0.031 C 
ATOM     62  C   UNL A   1      44.702  24.972  32.323  1.00  0.00     0.037 A 
BRANCH  49  63
ATOM     63  C   UNL A   1      42.944  22.277  27.140  1.00  0.00     0.057 A 
ATOM     64  C   UNL A   1      42.166  21.107  27.253  1.00  0.00     0.134 A 
ATOM     65  C   UNL A   1      43.876  22.242  26.088  1.00  0.00     0.134 A 
ATOM     66  F   UNL A   1      41.148  21.015  28.117  1.00  0.00    -0.206 F 
ATOM     67  C   UNL A   1      42.390  19.960  26.478  1.00  0.00     0.040 A 
ATOM     68  C   UNL A   1      44.151  21.084  25.344  1.00  0.00     0.040 A 
ATOM     69  F   UNL A   1      44.516  23.341  25.677  1.00  0.00    -0.206 F 
ATOM     70  C   UNL A   1      43.417  19.929  25.549  1.00  0.00     0.006 A 
ENDBRANCH  49  63
BRANCH  50  71
ATOM     71  C   UNL A   1      41.777  30.245  32.450  1.00  0.00     0.057 A 
ATOM     72  C   UNL A   1      41.863  31.649  32.486  1.00  0.00     0.134 A 
ATOM     73  C   UNL A   1      40.509  29.681  32.615  1.00  0.00     0.134 A 
ATOM     74  F   UNL A   1      43.051  32.257  32.332  1.00  0.00    -0.206 F 
ATOM     75  C   UNL A   1      40.727  32.456  32.564  1.00  0.00     0.040 A 
ATOM     76  C   UNL A   1      39.366  30.481  32.714  1.00  0.00     0.040 A 
ATOM     77  F   UNL A   1      40.340  28.352  32.567  1.00  0.00    -0.206 F 
ATOM     78  C   UNL A   1      39.469  31.869  32.647  1.00  0.00     0.006 A 
ENDBRANCH  50  71
BRANCH  62  79
ATOM     79  C   UNL A   1      45.068  23.876  33.276  1.00  0.00     0.057 A 
ATOM     80  C   UNL A   1      44.149  22.895  33.673  1.00  0.00     0.134 A 
ATOM     81  C   UNL A   1      46.317  23.850  33.923  1.00  0.00     0.134 A 
ATOM     82  F   UNL A   1      42.915  22.854  33.149  1.00  0.00    -0.206 F 
ATOM     83  C   UNL A   1      44.463  21.931  34.638  1.00  0.00     0.040 A 
ATOM     84  C   UNL A   1      46.625  22.922  34.920  1.00  0.00     0.040 A 
ATOM     85  F   UNL A   1      47.293  24.711  33.597  1.00  0.00    -0.206 F 
ATOM     86  C   UNL A   1      45.699  21.952  35.276  1.00  0.00     0.006 A 
ENDBRANCH  62  79
ENDBRANCH  36  37
ENDBRANCH  28  31
ENDBRANCH  26  27
ENDBRANCH  25  26
ENDBRANCH   1  25
TORSDOF 13
ENDMDL
MODEL 3
REMARK VINA RESULT:     -12.9      3.778      9.085
REMARK SMILES Cc1ccc(Nc2c(Cl)cc(Cl)cc2Cl)c(CC(=O)NCCCNC(=O)c2ccc(-c3c4nc(c(-c5c(F)cccc5F)c5ccc([nH]5)c(-c5c(F)cccc5F)c5nc(c(-c6c(F)cccc6F)c6ccc3[nH]6)C=C5)C=C4)cc2)c1
REMARK SMILES IDX 21 1 20 2 18 3 19 4 17 6 16 7 1 8 2 9 3 10 81 11 4 12 5 13
REMARK SMILES IDX 6 14 7 16 8 17 14 18 9 19 10 20 13 21 15 22 11 23 12 24
REMARK SMILES IDX 22 25 23 26 24 27 25 28 26 30 27 31 28 32 80 33 29 34 79 35
REMARK SMILES IDX 30 36 31 37 32 38 73 39 33 40 78 41 72 42 74 43 34 44 77 45
REMARK SMILES IDX 71 46 70 47 35 49 61 50 44 51 60 52 45 53 48 54 59 55 75 56
REMARK SMILES IDX 46 57 47 58 58 60 76 61 49 62 36 63 37 64 42 65 38 66 39 67
REMARK SMILES IDX 41 68 43 69 40 70 62 71 63 72 68 73 64 74 65 75 67 76 69 77
REMARK SMILES IDX 66 78 50 79 51 80 56 81 52 82 53 83 55 84 57 85 54 86
REMARK H PARENT 20 5 6 15 24 29 74 48 48 59
REMARK Flexibility Score: inf
ROOT
ATOM      1  C   UNL A   1      34.096  28.974  27.279  1.00  0.00     0.117 C 
ENDROOT
BRANCH   1   2
ATOM      2  N   UNL A   1      34.144  28.743  25.843  1.00  0.00    -0.356 N 
ATOM      3  C   UNL A   1      33.842  27.609  25.143  1.00  0.00     0.224 C 
ATOM      4  O   UNL A   1      34.049  27.594  23.926  1.00  0.00    -0.275 OA
ATOM      5  H   UNL A   1      34.433  29.511  25.300  1.00  0.00     0.163 HD
BRANCH   3   6
ATOM      6  C   UNL A   1      33.304  26.370  25.843  1.00  0.00     0.137 C 
BRANCH   6   7
ATOM      7  C   UNL A   1      33.905  25.084  25.315  1.00  0.00    -0.015 A 
ATOM      8  C   UNL A   1      37.394  23.513  25.325  1.00  0.00     0.044 C 
ATOM      9  C   UNL A   1      35.933  23.733  25.067  1.00  0.00    -0.051 A 
ATOM     10  C   UNL A   1      35.238  22.876  24.218  1.00  0.00     0.005 A 
ATOM     11  C   UNL A   1      35.252  24.809  25.640  1.00  0.00     0.009 A 
ATOM     12  C   UNL A   1      33.887  23.103  23.937  1.00  0.00     0.026 A 
ATOM     13  C   UNL A   1      33.196  24.209  24.462  1.00  0.00     0.042 A 
BRANCH  13  14
ATOM     14  N   UNL A   1      31.826  24.410  24.179  1.00  0.00    -0.353 N 
ATOM     15  H   UNL A   1      31.238  23.646  24.377  1.00  0.00     0.167 HD
BRANCH  14  16
ATOM     16  C   UNL A   1      31.179  25.556  23.650  1.00  0.00     0.076 A 
ATOM     17  C   UNL A   1      31.540  26.141  22.418  1.00  0.00     0.067 A 
ATOM     18  C   UNL A   1      30.186  26.207  24.413  1.00  0.00     0.067 A 
ATOM     19  Cl  UNL A   1      32.668  25.392  21.337  1.00  0.00    -0.082 Cl
ATOM     20  C   UNL A   1      30.951  27.334  21.984  1.00  0.00     0.043 A 
ATOM     21  C   UNL A   1      29.591  27.394  23.978  1.00  0.00     0.043 A 
ATOM     22  Cl  UNL A   1      29.692  25.584  25.952  1.00  0.00    -0.082 Cl
ATOM     23  C   UNL A   1      29.986  27.955  22.770  1.00  0.00     0.044 A 
ATOM     24  Cl  UNL A   1      29.277  29.431  22.242  1.00  0.00    -0.084 Cl
ENDBRANCH  14  16
ENDBRANCH  13  14
ENDBRANCH   6   7
ENDBRANCH   3   6
ENDBRANCH   1   2
BRANCH   1  25
ATOM     25  C   UNL A   1      33.854  30.440  27.627  1.00  0.00     0.042 C 
BRANCH  25  26
ATOM     26  C   UNL A   1      35.078  31.332  27.511  1.00  0.00     0.118 C 
BRANCH  26  27
ATOM     27  N   UNL A   1      35.562  31.852  28.786  1.00  0.00    -0.352 N 
ATOM     28  C   UNL A   1      36.478  31.286  29.660  1.00  0.00     0.251 C 
ATOM     29  H   UNL A   1      35.188  32.720  29.063  1.00  0.00     0.163 HD
ATOM     30  O   UNL A   1      36.815  31.870  30.675  1.00  0.00    -0.269 OA
BRANCH  28  31
ATOM     31  C   UNL A   1      37.140  30.019  29.267  1.00  0.00     0.039 A 
ATOM     32  C   UNL A   1      37.288  29.033  30.247  1.00  0.00     0.014 A 
ATOM     33  C   UNL A   1      37.815  29.918  28.054  1.00  0.00     0.014 A 
ATOM     34  C   UNL A   1      38.318  28.106  30.121  1.00  0.00     0.010 A 
ATOM     35  C   UNL A   1      38.900  29.068  27.973  1.00  0.00     0.010 A 
ATOM     36  C   UNL A   1      39.198  28.220  29.044  1.00  0.00    -0.014 A 
BRANCH  36  37
ATOM     37  C   UNL A   1      40.522  27.608  29.039  1.00  0.00     0.031 A 
ATOM     38  C   UNL A   1      40.705  26.191  28.676  1.00  0.00     0.074 A 
ATOM     39  C   UNL A   1      41.604  28.380  29.285  1.00  0.00     0.049 A 
ATOM     40  N   UNL A   1      41.746  25.490  28.977  1.00  0.00    -0.248 NA
ATOM     41  C   UNL A   1      39.684  25.433  27.968  1.00  0.00     0.031 C 
ATOM     42  C   UNL A   1      43.009  28.043  29.068  1.00  0.00     0.029 A 
ATOM     43  N   UNL A   1      41.645  29.575  30.018  1.00  0.00    -0.354 N 
ATOM     44  C   UNL A   1      41.671  24.303  28.284  1.00  0.00     0.074 A 
ATOM     45  C   UNL A   1      40.336  24.292  27.727  1.00  0.00     0.031 C 
ATOM     46  C   UNL A   1      43.761  28.792  29.889  1.00  0.00     0.029 A 
ATOM     47  C   UNL A   1      42.852  29.524  30.753  1.00  0.00     0.049 A 
ATOM     48  H   UNL A   1      40.975  30.296  30.021  1.00  0.00     0.167 HD
ATOM     49  C   UNL A   1      42.790  23.530  28.165  1.00  0.00     0.037 A 
ATOM     50  C   UNL A   1      42.837  29.464  32.117  1.00  0.00     0.037 A 
ATOM     51  C   UNL A   1      43.895  24.058  28.970  1.00  0.00     0.049 A 
ATOM     52  C   UNL A   1      43.471  28.220  32.706  1.00  0.00     0.074 A 
ATOM     53  C   UNL A   1      45.031  24.805  28.699  1.00  0.00     0.029 A 
ATOM     54  N   UNL A   1      43.765  24.058  30.347  1.00  0.00    -0.354 N 
ATOM     55  N   UNL A   1      43.942  27.227  32.004  1.00  0.00    -0.248 NA
ATOM     56  C   UNL A   1      43.528  27.956  34.146  1.00  0.00     0.031 C 
ATOM     57  C   UNL A   1      45.567  25.268  29.936  1.00  0.00     0.029 A 
ATOM     58  C   UNL A   1      44.756  24.802  30.954  1.00  0.00     0.049 A 
ATOM     59  H   UNL A   1      43.052  23.584  30.834  1.00  0.00     0.167 HD
ATOM     60  C   UNL A   1      44.284  26.201  32.844  1.00  0.00     0.074 A 
ATOM     61  C   UNL A   1      44.021  26.706  34.177  1.00  0.00     0.031 C 
ATOM     62  C   UNL A   1      44.708  24.986  32.393  1.00  0.00     0.037 A 
BRANCH  49  63
ATOM     63  C   UNL A   1      42.962  22.433  27.135  1.00  0.00     0.057 A 
ATOM     64  C   UNL A   1      42.227  21.234  27.230  1.00  0.00     0.134 A 
ATOM     65  C   UNL A   1      43.868  22.462  26.060  1.00  0.00     0.134 A 
ATOM     66  F   UNL A   1      41.235  21.081  28.116  1.00  0.00    -0.206 F 
ATOM     67  C   UNL A   1      42.470  20.119  26.415  1.00  0.00     0.040 A 
ATOM     68  C   UNL A   1      44.163  21.338  25.275  1.00  0.00     0.040 A 
ATOM     69  F   UNL A   1      44.460  23.594  25.668  1.00  0.00    -0.206 F 
ATOM     70  C   UNL A   1      43.473  20.152  25.461  1.00  0.00     0.006 A 
ENDBRANCH  49  63
BRANCH  50  71
ATOM     71  C   UNL A   1      41.690  30.198  32.715  1.00  0.00     0.057 A 
ATOM     72  C   UNL A   1      41.756  31.600  32.807  1.00  0.00     0.134 A 
ATOM     73  C   UNL A   1      40.431  29.609  32.859  1.00  0.00     0.134 A 
ATOM     74  F   UNL A   1      42.935  32.232  32.676  1.00  0.00    -0.206 F 
ATOM     75  C   UNL A   1      40.608  32.387  32.920  1.00  0.00     0.040 A 
ATOM     76  C   UNL A   1      39.276  30.388  32.993  1.00  0.00     0.040 A 
ATOM     77  F   UNL A   1      40.281  28.281  32.759  1.00  0.00    -0.206 F 
ATOM     78  C   UNL A   1      39.359  31.779  32.982  1.00  0.00     0.006 A 
ENDBRANCH  50  71
BRANCH  62  79
ATOM     79  C   UNL A   1      45.100  23.866  33.307  1.00  0.00     0.057 A 
ATOM     80  C   UNL A   1      44.189  22.881  33.715  1.00  0.00     0.134 A 
ATOM     81  C   UNL A   1      46.372  23.816  33.907  1.00  0.00     0.134 A 
ATOM     82  F   UNL A   1      42.937  22.861  33.235  1.00  0.00    -0.206 F 
ATOM     83  C   UNL A   1      44.531  21.893  34.645  1.00  0.00     0.040 A 
ATOM     84  C   UNL A   1      46.709  22.863  34.871  1.00  0.00     0.040 A 
ATOM     85  F   UNL A   1      47.341  24.679  33.566  1.00  0.00    -0.206 F 
ATOM     86  C   UNL A   1      45.790  21.892  35.238  1.00  0.00     0.006 A 
ENDBRANCH  62  79
ENDBRANCH  36  37
ENDBRANCH  28  31
ENDBRANCH  26  27
ENDBRANCH  25  26
ENDBRANCH   1  25
TORSDOF 13
ENDMDL
