MODEL 1
REMARK VINA RESULT:     -11.9      0.000      0.000
REMARK SMILES Cc1cc(C)c2c(C(=O)NCCCNC(=O)c3ccc(-c4c5nc(c(-c6c(F)cccc6F)c6ccc([nH]6)c(-c6c(F)cccc6F)c6nc(c(-c7c(F)cccc7F)c7ccc4[nH]7)C=C6)C=C5)cc3)cc(-c3ccco3)nc2c1
REMARK SMILES IDX 12 1 11 2 10 3 8 4 9 5 7 7 1 8 2 9 3 10 80 11 4 12 79 13
REMARK SMILES IDX 5 14 6 15 78 16 72 17 71 18 73 19 74 20 77 21 75 22 76 23
REMARK SMILES IDX 13 24 14 25 15 26 16 28 17 29 18 30 70 31 19 32 69 33 20 34
REMARK SMILES IDX 21 35 22 36 63 37 23 38 68 39 62 40 64 41 24 42 67 43 61 44
REMARK SMILES IDX 60 45 25 47 51 48 34 49 50 50 35 51 38 52 49 53 65 54 36 55
REMARK SMILES IDX 37 56 48 58 66 59 39 60 26 61 27 62 32 63 28 64 29 65 31 66
REMARK SMILES IDX 33 67 30 68 52 69 53 70 58 71 54 72 55 73 57 74 59 75 56 76
REMARK SMILES IDX 40 77 41 78 46 79 42 80 43 81 45 82 47 83 44 84
REMARK H PARENT 10 6 14 27 64 46 38 57
REMARK Flexibility Score: inf
ROOT
ATOM      1  C   UNL A   1      34.006  28.225  25.969  1.00  0.00     0.042 C 
ENDROOT
BRANCH   1   2
ATOM      2  C   UNL A   1      32.890  27.730  25.059  1.00  0.00     0.118 C 
BRANCH   2   3
ATOM      3  N   UNL A   1      33.339  27.287  23.745  1.00  0.00    -0.352 N 
ATOM      4  C   UNL A   1      33.671  26.040  23.273  1.00  0.00     0.252 C 
ATOM      5  O   UNL A   1      33.954  25.927  22.081  1.00  0.00    -0.269 OA
ATOM      6  H   UNL A   1      33.417  28.008  23.079  1.00  0.00     0.163 HD
BRANCH   4   7
ATOM      7  C   UNL A   1      33.815  24.863  24.165  1.00  0.00     0.051 A 
ATOM      8  C   UNL A   1      29.681  22.784  27.452  1.00  0.00     0.044 C 
ATOM      9  C   UNL A   1      30.729  23.140  26.443  1.00  0.00    -0.049 A 
ATOM     10  C   UNL A   1      30.389  23.612  25.181  1.00  0.00     0.007 A 
ATOM     11  C   UNL A   1      32.084  22.977  26.748  1.00  0.00     0.032 A 
ATOM     12  C   UNL A   1      31.383  24.066  24.301  1.00  0.00    -0.041 A 
ATOM     13  C   UNL A   1      33.092  23.416  25.902  1.00  0.00     0.072 A 
ATOM     14  C   UNL A   1      30.976  24.296  22.865  1.00  0.00     0.045 C 
ATOM     15  C   UNL A   1      32.743  24.139  24.746  1.00  0.00     0.016 A 
ATOM     16  N   UNL A   1      34.360  23.141  26.245  1.00  0.00    -0.244 NA
ATOM     17  C   UNL A   1      35.359  23.633  25.485  1.00  0.00     0.107 A 
ATOM     18  C   UNL A   1      35.140  24.567  24.502  1.00  0.00     0.046 A 
BRANCH  17  19
ATOM     19  C   UNL A   1      36.683  23.096  25.739  1.00  0.00     0.152 A 
ATOM     20  C   UNL A   1      37.858  23.602  26.258  1.00  0.00     0.052 A 
ATOM     21  O   UNL A   1      36.895  21.823  25.283  1.00  0.00    -0.463 OA
ATOM     22  C   UNL A   1      38.835  22.584  26.114  1.00  0.00     0.043 A 
ATOM     23  C   UNL A   1      38.200  21.526  25.507  1.00  0.00     0.196 A 
ENDBRANCH  17  19
ENDBRANCH   4   7
ENDBRANCH   2   3
ENDBRANCH   1   2
BRANCH   1  24
ATOM     24  C   UNL A   1      33.555  28.546  27.392  1.00  0.00     0.118 C 
BRANCH  24  25
ATOM     25  N   UNL A   1      33.635  29.958  27.743  1.00  0.00    -0.352 N 
ATOM     26  C   UNL A   1      34.669  30.722  28.238  1.00  0.00     0.251 C 
ATOM     27  H   UNL A   1      32.799  30.457  27.601  1.00  0.00     0.163 HD
ATOM     28  O   UNL A   1      34.466  31.883  28.564  1.00  0.00    -0.269 OA
BRANCH  26  29
ATOM     29  C   UNL A   1      36.013  30.132  28.428  1.00  0.00     0.039 A 
ATOM     30  C   UNL A   1      36.935  30.193  27.377  1.00  0.00     0.014 A 
ATOM     31  C   UNL A   1      36.369  29.513  29.624  1.00  0.00     0.014 A 
ATOM     32  C   UNL A   1      38.240  29.729  27.568  1.00  0.00     0.010 A 
ATOM     33  C   UNL A   1      37.691  29.153  29.851  1.00  0.00     0.010 A 
ATOM     34  C   UNL A   1      38.640  29.252  28.823  1.00  0.00    -0.014 A 
BRANCH  34  35
ATOM     35  C   UNL A   1      40.030  28.806  29.094  1.00  0.00     0.031 A 
ATOM     36  C   UNL A   1      40.998  29.756  29.745  1.00  0.00     0.074 A 
ATOM     37  C   UNL A   1      40.448  27.598  28.669  1.00  0.00     0.049 A 
ATOM     38  N   UNL A   1      42.288  29.634  29.926  1.00  0.00    -0.248 NA
ATOM     39  C   UNL A   1      40.442  31.034  30.220  1.00  0.00     0.031 C 
ATOM     40  C   UNL A   1      39.620  26.601  27.986  1.00  0.00     0.029 A 
ATOM     41  N   UNL A   1      41.687  27.011  28.733  1.00  0.00    -0.354 N 
ATOM     42  C   UNL A   1      42.699  30.828  30.507  1.00  0.00     0.074 A 
ATOM     43  C   UNL A   1      41.536  31.683  30.589  1.00  0.00     0.031 C 
ATOM     44  C   UNL A   1      40.369  25.520  27.714  1.00  0.00     0.029 A 
ATOM     45  C   UNL A   1      41.735  25.761  28.165  1.00  0.00     0.049 A 
ATOM     46  H   UNL A   1      42.467  27.445  29.147  1.00  0.00     0.167 HD
ATOM     47  C   UNL A   1      43.928  31.172  30.959  1.00  0.00     0.037 A 
ATOM     48  C   UNL A   1      42.770  24.914  28.019  1.00  0.00     0.037 A 
ATOM     49  C   UNL A   1      45.074  30.305  30.913  1.00  0.00     0.049 A 
ATOM     50  C   UNL A   1      44.128  25.320  28.523  1.00  0.00     0.074 A 
ATOM     51  C   UNL A   1      46.351  30.533  31.393  1.00  0.00     0.029 A 
ATOM     52  N   UNL A   1      45.075  29.036  30.354  1.00  0.00    -0.354 N 
ATOM     53  N   UNL A   1      44.492  26.432  29.115  1.00  0.00    -0.248 NA
ATOM     54  C   UNL A   1      45.217  24.352  28.338  1.00  0.00     0.031 C 
ATOM     55  C   UNL A   1      47.133  29.409  31.100  1.00  0.00     0.029 A 
ATOM     56  C   UNL A   1      46.334  28.471  30.468  1.00  0.00     0.049 A 
ATOM     57  H   UNL A   1      44.296  28.600  29.938  1.00  0.00     0.167 HD
ATOM     58  C   UNL A   1      45.843  26.284  29.400  1.00  0.00     0.074 A 
ATOM     59  C   UNL A   1      46.231  24.972  28.926  1.00  0.00     0.031 C 
ATOM     60  C   UNL A   1      46.691  27.157  30.000  1.00  0.00     0.037 A 
BRANCH  47  61
ATOM     61  C   UNL A   1      44.076  32.542  31.552  1.00  0.00     0.057 A 
ATOM     62  C   UNL A   1      44.432  33.636  30.754  1.00  0.00     0.134 A 
ATOM     63  C   UNL A   1      43.853  32.782  32.916  1.00  0.00     0.134 A 
ATOM     64  F   UNL A   1      44.664  33.477  29.443  1.00  0.00    -0.206 F 
ATOM     65  C   UNL A   1      44.548  34.921  31.288  1.00  0.00     0.040 A 
ATOM     66  C   UNL A   1      43.938  34.067  33.455  1.00  0.00     0.040 A 
ATOM     67  F   UNL A   1      43.492  31.780  33.731  1.00  0.00    -0.206 F 
ATOM     68  C   UNL A   1      44.289  35.140  32.640  1.00  0.00     0.006 A 
ENDBRANCH  47  61
BRANCH  48  69
ATOM     69  C   UNL A   1      42.570  23.582  27.393  1.00  0.00     0.057 A 
ATOM     70  C   UNL A   1      42.715  23.385  26.016  1.00  0.00     0.134 A 
ATOM     71  C   UNL A   1      42.258  22.464  28.176  1.00  0.00     0.134 A 
ATOM     72  F   UNL A   1      43.007  24.417  25.210  1.00  0.00    -0.206 F 
ATOM     73  C   UNL A   1      42.559  22.123  25.438  1.00  0.00     0.040 A 
ATOM     74  C   UNL A   1      42.121  21.193  27.616  1.00  0.00     0.040 A 
ATOM     75  F   UNL A   1      42.125  22.588  29.505  1.00  0.00    -0.206 F 
ATOM     76  C   UNL A   1      42.271  21.021  26.242  1.00  0.00     0.006 A 
ENDBRANCH  48  69
BRANCH  60  77
ATOM     77  C   UNL A   1      48.103  26.700  30.208  1.00  0.00     0.057 A 
ATOM     78  C   UNL A   1      49.088  26.972  29.250  1.00  0.00     0.134 A 
ATOM     79  C   UNL A   1      48.482  25.965  31.339  1.00  0.00     0.134 A 
ATOM     80  F   UNL A   1      48.787  27.667  28.143  1.00  0.00    -0.206 F 
ATOM     81  C   UNL A   1      50.400  26.528  29.409  1.00  0.00     0.040 A 
ATOM     82  C   UNL A   1      49.798  25.536  31.520  1.00  0.00     0.040 A 
ATOM     83  F   UNL A   1      47.588  25.686  32.299  1.00  0.00    -0.206 F 
ATOM     84  C   UNL A   1      50.759  25.811  30.549  1.00  0.00     0.006 A 
ENDBRANCH  60  77
ENDBRANCH  34  35
ENDBRANCH  26  29
ENDBRANCH  24  25
ENDBRANCH   1  24
TORSDOF 11
ENDMDL
MODEL 2
REMARK VINA RESULT:     -11.7      4.195      8.714
REMARK SMILES Cc1cc(C)c2c(C(=O)NCCCNC(=O)c3ccc(-c4c5nc(c(-c6c(F)cccc6F)c6ccc([nH]6)c(-c6c(F)cccc6F)c6nc(c(-c7c(F)cccc7F)c7ccc4[nH]7)C=C6)C=C5)cc3)cc(-c3ccco3)nc2c1
REMARK SMILES IDX 12 1 11 2 10 3 8 4 9 5 7 7 1 8 2 9 3 10 80 11 4 12 79 13
REMARK SMILES IDX 5 14 6 15 78 16 72 17 71 18 73 19 74 20 77 21 75 22 76 23
REMARK SMILES IDX 13 24 14 25 15 26 16 28 17 29 18 30 70 31 19 32 69 33 20 34
REMARK SMILES IDX 21 35 22 36 63 37 23 38 68 39 62 40 64 41 24 42 67 43 61 44
REMARK SMILES IDX 60 45 25 47 51 48 34 49 50 50 35 51 38 52 49 53 65 54 36 55
REMARK SMILES IDX 37 56 48 58 66 59 39 60 26 61 27 62 32 63 28 64 29 65 31 66
REMARK SMILES IDX 33 67 30 68 52 69 53 70 58 71 54 72 55 73 57 74 59 75 56 76
REMARK SMILES IDX 40 77 41 78 46 79 42 80 43 81 45 82 47 83 44 84
REMARK H PARENT 10 6 14 27 64 46 38 57
REMARK Flexibility Score: inf
ROOT
ATOM      1  C   UNL A   1      38.835  22.730  26.499  1.00  0.00     0.042 C 
ENDROOT
BRANCH   1   2
ATOM      2  C   UNL A   1      37.857  23.683  25.826  1.00  0.00     0.118 C 
BRANCH   2   3
ATOM      3  N   UNL A   1      37.604  23.391  24.420  1.00  0.00    -0.352 N 
ATOM      4  C   UNL A   1      36.435  23.139  23.744  1.00  0.00     0.252 C 
ATOM      5  O   UNL A   1      36.491  22.990  22.524  1.00  0.00    -0.269 OA
ATOM      6  H   UNL A   1      38.412  23.371  23.858  1.00  0.00     0.163 HD
BRANCH   4   7
ATOM      7  C   UNL A   1      35.142  22.922  24.440  1.00  0.00     0.051 A 
ATOM      8  C   UNL A   1      32.196  18.072  24.328  1.00  0.00     0.044 C 
ATOM      9  C   UNL A   1      33.033  19.287  24.584  1.00  0.00    -0.049 A 
ATOM     10  C   UNL A   1      34.420  19.212  24.647  1.00  0.00     0.007 A 
ATOM     11  C   UNL A   1      32.426  20.529  24.792  1.00  0.00     0.032 A 
ATOM     12  C   UNL A   1      35.190  20.379  24.754  1.00  0.00    -0.041 A 
ATOM     13  C   UNL A   1      33.158  21.703  24.898  1.00  0.00     0.072 A 
ATOM     14  C   UNL A   1      36.651  20.208  25.097  1.00  0.00     0.045 C 
ATOM     15  C   UNL A   1      34.549  21.658  24.692  1.00  0.00     0.016 A 
ATOM     16  N   UNL A   1      32.490  22.833  25.179  1.00  0.00    -0.244 NA
ATOM     17  C   UNL A   1      33.167  23.998  25.200  1.00  0.00     0.107 A 
ATOM     18  C   UNL A   1      34.460  24.103  24.749  1.00  0.00     0.046 A 
BRANCH  17  19
ATOM     19  C   UNL A   1      32.466  25.138  25.761  1.00  0.00     0.152 A 
ATOM     20  C   UNL A   1      31.140  25.449  25.996  1.00  0.00     0.052 A 
ATOM     21  O   UNL A   1      33.247  26.224  26.048  1.00  0.00    -0.463 OA
ATOM     22  C   UNL A   1      31.115  26.791  26.452  1.00  0.00     0.043 A 
ATOM     23  C   UNL A   1      32.421  27.220  26.457  1.00  0.00     0.196 A 
ENDBRANCH  17  19
ENDBRANCH   4   7
ENDBRANCH   2   3
ENDBRANCH   1   2
BRANCH   1  24
ATOM     24  C   UNL A   1      40.082  23.407  27.060  1.00  0.00     0.118 C 
BRANCH  24  25
ATOM     25  N   UNL A   1      40.864  24.141  26.072  1.00  0.00    -0.352 N 
ATOM     26  C   UNL A   1      41.248  25.462  26.005  1.00  0.00     0.251 C 
ATOM     27  H   UNL A   1      41.174  23.592  25.316  1.00  0.00     0.163 HD
ATOM     28  O   UNL A   1      41.820  25.879  25.008  1.00  0.00    -0.269 OA
BRANCH  26  29
ATOM     29  C   UNL A   1      40.927  26.393  27.109  1.00  0.00     0.039 A 
ATOM     30  C   UNL A   1      39.995  26.002  28.076  1.00  0.00     0.014 A 
ATOM     31  C   UNL A   1      41.526  27.648  27.193  1.00  0.00     0.014 A 
ATOM     32  C   UNL A   1      39.749  26.826  29.179  1.00  0.00     0.010 A 
ATOM     33  C   UNL A   1      41.366  28.416  28.340  1.00  0.00     0.010 A 
ATOM     34  C   UNL A   1      40.471  28.016  29.343  1.00  0.00    -0.014 A 
BRANCH  34  35
ATOM     35  C   UNL A   1      40.291  28.894  30.527  1.00  0.00     0.031 A 
ATOM     36  C   UNL A   1      39.238  29.968  30.497  1.00  0.00     0.074 A 
ATOM     37  C   UNL A   1      41.129  28.796  31.576  1.00  0.00     0.049 A 
ATOM     38  N   UNL A   1      39.018  30.939  31.346  1.00  0.00    -0.248 NA
ATOM     39  C   UNL A   1      38.337  29.971  29.333  1.00  0.00     0.031 C 
ATOM     40  C   UNL A   1      42.219  27.825  31.708  1.00  0.00     0.029 A 
ATOM     41  N   UNL A   1      41.206  29.538  32.727  1.00  0.00    -0.354 N 
ATOM     42  C   UNL A   1      37.976  31.682  30.802  1.00  0.00     0.074 A 
ATOM     43  C   UNL A   1      37.652  31.087  29.525  1.00  0.00     0.031 C 
ATOM     44  C   UNL A   1      42.840  28.019  32.883  1.00  0.00     0.029 A 
ATOM     45  C   UNL A   1      42.223  29.150  33.567  1.00  0.00     0.049 A 
ATOM     46  H   UNL A   1      40.592  30.279  32.932  1.00  0.00     0.167 HD
ATOM     47  C   UNL A   1      37.326  32.745  31.331  1.00  0.00     0.037 A 
ATOM     48  C   UNL A   1      42.612  29.659  34.750  1.00  0.00     0.037 A 
ATOM     49  C   UNL A   1      37.624  33.310  32.619  1.00  0.00     0.049 A 
ATOM     50  C   UNL A   1      41.880  30.845  35.316  1.00  0.00     0.074 A 
ATOM     51  C   UNL A   1      36.992  34.351  33.275  1.00  0.00     0.029 A 
ATOM     52  N   UNL A   1      38.643  32.871  33.452  1.00  0.00    -0.354 N 
ATOM     53  N   UNL A   1      40.864  31.507  34.816  1.00  0.00    -0.248 NA
ATOM     54  C   UNL A   1      42.349  31.354  36.612  1.00  0.00     0.031 C 
ATOM     55  C   UNL A   1      37.647  34.560  34.495  1.00  0.00     0.029 A 
ATOM     56  C   UNL A   1      38.664  33.627  34.612  1.00  0.00     0.049 A 
ATOM     57  H   UNL A   1      39.260  32.131  33.249  1.00  0.00     0.167 HD
ATOM     58  C   UNL A   1      40.555  32.488  35.748  1.00  0.00     0.074 A 
ATOM     59  C   UNL A   1      41.483  32.329  36.848  1.00  0.00     0.031 C 
ATOM     60  C   UNL A   1      39.590  33.440  35.699  1.00  0.00     0.037 A 
BRANCH  47  61
ATOM     61  C   UNL A   1      36.224  33.347  30.511  1.00  0.00     0.057 A 
ATOM     62  C   UNL A   1      36.510  34.176  29.420  1.00  0.00     0.134 A 
ATOM     63  C   UNL A   1      34.874  33.094  30.794  1.00  0.00     0.134 A 
ATOM     64  F   UNL A   1      37.779  34.464  29.097  1.00  0.00    -0.206 F 
ATOM     65  C   UNL A   1      35.494  34.722  28.633  1.00  0.00     0.040 A 
ATOM     66  C   UNL A   1      33.851  33.610  29.996  1.00  0.00     0.040 A 
ATOM     67  F   UNL A   1      34.533  32.293  31.814  1.00  0.00    -0.206 F 
ATOM     68  C   UNL A   1      34.161  34.430  28.914  1.00  0.00     0.006 A 
ENDBRANCH  47  61
BRANCH  48  69
ATOM     69  C   UNL A   1      43.734  29.041  35.502  1.00  0.00     0.057 A 
ATOM     70  C   UNL A   1      43.532  27.970  36.379  1.00  0.00     0.134 A 
ATOM     71  C   UNL A   1      45.046  29.495  35.329  1.00  0.00     0.134 A 
ATOM     72  F   UNL A   1      42.296  27.492  36.593  1.00  0.00    -0.206 F 
ATOM     73  C   UNL A   1      44.596  27.370  37.056  1.00  0.00     0.040 A 
ATOM     74  C   UNL A   1      46.122  28.892  35.982  1.00  0.00     0.040 A 
ATOM     75  F   UNL A   1      45.305  30.506  34.486  1.00  0.00    -0.206 F 
ATOM     76  C   UNL A   1      45.897  27.826  36.850  1.00  0.00     0.006 A 
ENDBRANCH  48  69
BRANCH  60  77
ATOM     77  C   UNL A   1      39.469  34.349  36.885  1.00  0.00     0.057 A 
ATOM     78  C   UNL A   1      40.060  35.619  36.871  1.00  0.00     0.134 A 
ATOM     79  C   UNL A   1      38.797  33.957  38.049  1.00  0.00     0.134 A 
ATOM     80  F   UNL A   1      40.722  36.050  35.787  1.00  0.00    -0.206 F 
ATOM     81  C   UNL A   1      39.988  36.467  37.976  1.00  0.00     0.040 A 
ATOM     82  C   UNL A   1      38.698  34.807  39.152  1.00  0.00     0.040 A 
ATOM     83  F   UNL A   1      38.197  32.759  38.118  1.00  0.00    -0.206 F 
ATOM     84  C   UNL A   1      39.301  36.063  39.119  1.00  0.00     0.006 A 
ENDBRANCH  60  77
ENDBRANCH  34  35
ENDBRANCH  26  29
ENDBRANCH  24  25
ENDBRANCH   1  24
TORSDOF 11
ENDMDL
MODEL 3
REMARK VINA RESULT:     -11.5      2.645      6.402
REMARK SMILES Cc1cc(C)c2c(C(=O)NCCCNC(=O)c3ccc(-c4c5nc(c(-c6c(F)cccc6F)c6ccc([nH]6)c(-c6c(F)cccc6F)c6nc(c(-c7c(F)cccc7F)c7ccc4[nH]7)C=C6)C=C5)cc3)cc(-c3ccco3)nc2c1
REMARK SMILES IDX 12 1 11 2 10 3 8 4 9 5 7 7 1 8 2 9 3 10 80 11 4 12 79 13
REMARK SMILES IDX 5 14 6 15 78 16 72 17 71 18 73 19 74 20 77 21 75 22 76 23
REMARK SMILES IDX 13 24 14 25 15 26 16 28 17 29 18 30 70 31 19 32 69 33 20 34
REMARK SMILES IDX 21 35 22 36 63 37 23 38 68 39 62 40 64 41 24 42 67 43 61 44
REMARK SMILES IDX 60 45 25 47 51 48 34 49 50 50 35 51 38 52 49 53 65 54 36 55
REMARK SMILES IDX 37 56 48 58 66 59 39 60 26 61 27 62 32 63 28 64 29 65 31 66
REMARK SMILES IDX 33 67 30 68 52 69 53 70 58 71 54 72 55 73 57 74 59 75 56 76
REMARK SMILES IDX 40 77 41 78 46 79 42 80 43 81 45 82 47 83 44 84
REMARK H PARENT 10 6 14 27 64 46 38 57
REMARK Flexibility Score: inf
ROOT
ATOM      1  C   UNL A   1      34.126  21.406  27.129  1.00  0.00     0.042 C 
ENDROOT
BRANCH   1   2
ATOM      2  C   UNL A   1      33.264  22.199  28.102  1.00  0.00     0.118 C 
BRANCH   2   3
ATOM      3  N   UNL A   1      31.883  22.380  27.672  1.00  0.00    -0.352 N 
ATOM      4  C   UNL A   1      31.336  23.162  26.684  1.00  0.00     0.252 C 
ATOM      5  O   UNL A   1      30.127  23.075  26.477  1.00  0.00    -0.269 OA
ATOM      6  H   UNL A   1      31.228  21.847  28.179  1.00  0.00     0.163 HD
BRANCH   4   7
ATOM      7  C   UNL A   1      32.123  24.185  25.950  1.00  0.00     0.051 A 
ATOM      8  C   UNL A   1      36.653  23.059  22.722  1.00  0.00     0.044 C 
ATOM      9  C   UNL A   1      35.341  23.388  23.363  1.00  0.00    -0.049 A 
ATOM     10  C   UNL A   1      34.277  22.493  23.336  1.00  0.00     0.007 A 
ATOM     11  C   UNL A   1      35.152  24.625  23.986  1.00  0.00     0.032 A 
ATOM     12  C   UNL A   1      33.104  22.764  24.056  1.00  0.00    -0.041 A 
ATOM     13  C   UNL A   1      34.006  24.924  24.708  1.00  0.00     0.072 A 
ATOM     14  C   UNL A   1      31.902  21.899  23.759  1.00  0.00     0.045 C 
ATOM     15  C   UNL A   1      33.044  23.916  24.906  1.00  0.00     0.016 A 
ATOM     16  N   UNL A   1      33.883  26.167  25.200  1.00  0.00    -0.244 NA
ATOM     17  C   UNL A   1      32.820  26.454  25.978  1.00  0.00     0.107 A 
ATOM     18  C   UNL A   1      31.975  25.481  26.453  1.00  0.00     0.046 A 
BRANCH  17  19
ATOM     19  C   UNL A   1      32.594  27.859  26.263  1.00  0.00     0.152 A 
ATOM     20  C   UNL A   1      31.922  28.560  27.245  1.00  0.00     0.052 A 
ATOM     21  O   UNL A   1      33.050  28.730  25.311  1.00  0.00    -0.463 OA
ATOM     22  C   UNL A   1      31.974  29.927  26.873  1.00  0.00     0.043 A 
ATOM     23  C   UNL A   1      32.663  29.976  25.685  1.00  0.00     0.196 A 
ENDBRANCH  17  19
ENDBRANCH   4   7
ENDBRANCH   2   3
ENDBRANCH   1   2
BRANCH   1  24
ATOM     24  C   UNL A   1      35.445  22.083  26.767  1.00  0.00     0.118 C 
BRANCH  24  25
ATOM     25  N   UNL A   1      36.370  21.238  26.024  1.00  0.00    -0.352 N 
ATOM     26  C   UNL A   1      37.712  21.373  25.745  1.00  0.00     0.251 C 
ATOM     27  H   UNL A   1      35.963  20.421  25.655  1.00  0.00     0.163 HD
ATOM     28  O   UNL A   1      38.262  20.575  24.998  1.00  0.00    -0.269 OA
BRANCH  26  29
ATOM     29  C   UNL A   1      38.483  22.508  26.300  1.00  0.00     0.039 A 
ATOM     30  C   UNL A   1      39.657  22.244  27.014  1.00  0.00     0.014 A 
ATOM     31  C   UNL A   1      38.056  23.823  26.133  1.00  0.00     0.014 A 
ATOM     32  C   UNL A   1      40.451  23.303  27.464  1.00  0.00     0.010 A 
ATOM     33  C   UNL A   1      38.896  24.873  26.482  1.00  0.00     0.010 A 
ATOM     34  C   UNL A   1      40.101  24.625  27.156  1.00  0.00    -0.014 A 
BRANCH  34  35
ATOM     35  C   UNL A   1      40.942  25.781  27.557  1.00  0.00     0.031 A 
ATOM     36  C   UNL A   1      40.329  26.900  28.354  1.00  0.00     0.074 A 
ATOM     37  C   UNL A   1      42.214  25.874  27.126  1.00  0.00     0.049 A 
ATOM     38  N   UNL A   1      40.831  28.066  28.671  1.00  0.00    -0.248 NA
ATOM     39  C   UNL A   1      38.949  26.692  28.823  1.00  0.00     0.031 C 
ATOM     40  C   UNL A   1      42.913  24.876  26.311  1.00  0.00     0.029 A 
ATOM     41  N   UNL A   1      43.143  26.869  27.300  1.00  0.00    -0.354 N 
ATOM     42  C   UNL A   1      39.819  28.737  29.347  1.00  0.00     0.074 A 
ATOM     43  C   UNL A   1      38.658  27.875  29.340  1.00  0.00     0.031 C 
ATOM     44  C   UNL A   1      44.165  25.301  26.074  1.00  0.00     0.029 A 
ATOM     45  C   UNL A   1      44.345  26.615  26.683  1.00  0.00     0.049 A 
ATOM     46  H   UNL A   1      42.965  27.687  27.816  1.00  0.00     0.167 HD
ATOM     47  C   UNL A   1      39.860  29.950  29.948  1.00  0.00     0.037 A 
ATOM     48  C   UNL A   1      45.460  27.366  26.613  1.00  0.00     0.037 A 
ATOM     49  C   UNL A   1      41.027  30.789  29.988  1.00  0.00     0.049 A 
ATOM     50  C   UNL A   1      45.480  28.713  27.282  1.00  0.00     0.074 A 
ATOM     51  C   UNL A   1      41.195  32.010  30.616  1.00  0.00     0.029 A 
ATOM     52  N   UNL A   1      42.234  30.484  29.375  1.00  0.00    -0.354 N 
ATOM     53  N   UNL A   1      44.534  29.314  27.961  1.00  0.00    -0.248 NA
ATOM     54  C   UNL A   1      46.726  29.484  27.174  1.00  0.00     0.031 C 
ATOM     55  C   UNL A   1      42.496  32.457  30.359  1.00  0.00     0.029 A 
ATOM     56  C   UNL A   1      43.148  31.499  29.601  1.00  0.00     0.049 A 
ATOM     57  H   UNL A   1      42.414  29.667  28.856  1.00  0.00     0.167 HD
ATOM     58  C   UNL A   1      45.078  30.519  28.386  1.00  0.00     0.074 A 
ATOM     59  C   UNL A   1      46.441  30.558  27.897  1.00  0.00     0.031 C 
ATOM     60  C   UNL A   1      44.503  31.508  29.115  1.00  0.00     0.037 A 
BRANCH  47  61
ATOM     61  C   UNL A   1      38.603  30.423  30.616  1.00  0.00     0.057 A 
ATOM     62  C   UNL A   1      38.335  30.103  31.952  1.00  0.00     0.134 A 
ATOM     63  C   UNL A   1      37.661  31.210  29.938  1.00  0.00     0.134 A 
ATOM     64  F   UNL A   1      39.191  29.350  32.658  1.00  0.00    -0.206 F 
ATOM     65  C   UNL A   1      37.182  30.559  32.594  1.00  0.00     0.040 A 
ATOM     66  C   UNL A   1      36.519  31.696  30.578  1.00  0.00     0.040 A 
ATOM     67  F   UNL A   1      37.867  31.567  28.662  1.00  0.00    -0.206 F 
ATOM     68  C   UNL A   1      36.276  31.367  31.909  1.00  0.00     0.006 A 
ENDBRANCH  47  61
BRANCH  48  69
ATOM     69  C   UNL A   1      46.664  26.859  25.908  1.00  0.00     0.057 A 
ATOM     70  C   UNL A   1      46.928  27.183  24.573  1.00  0.00     0.134 A 
ATOM     71  C   UNL A   1      47.600  26.061  26.576  1.00  0.00     0.134 A 
ATOM     72  F   UNL A   1      46.067  27.939  23.876  1.00  0.00    -0.206 F 
ATOM     73  C   UNL A   1      48.081  26.731  23.927  1.00  0.00     0.040 A 
ATOM     74  C   UNL A   1      48.767  25.621  25.951  1.00  0.00     0.040 A 
ATOM     75  F   UNL A   1      47.411  25.734  27.864  1.00  0.00    -0.206 F 
ATOM     76  C   UNL A   1      49.009  25.956  24.620  1.00  0.00     0.006 A 
ENDBRANCH  48  69
BRANCH  60  77
ATOM     77  C   UNL A   1      45.361  32.689  29.456  1.00  0.00     0.057 A 
ATOM     78  C   UNL A   1      46.153  32.682  30.611  1.00  0.00     0.134 A 
ATOM     79  C   UNL A   1      45.381  33.841  28.661  1.00  0.00     0.134 A 
ATOM     80  F   UNL A   1      46.173  31.610  31.417  1.00  0.00    -0.206 F 
ATOM     81  C   UNL A   1      46.933  33.783  30.965  1.00  0.00     0.040 A 
ATOM     82  C   UNL A   1      46.176  34.939  28.992  1.00  0.00     0.040 A 
ATOM     83  F   UNL A   1      44.656  33.902  27.534  1.00  0.00    -0.206 F 
ATOM     84  C   UNL A   1      46.950  34.914  30.151  1.00  0.00     0.006 A 
ENDBRANCH  60  77
ENDBRANCH  34  35
ENDBRANCH  26  29
ENDBRANCH  24  25
ENDBRANCH   1  24
TORSDOF 11
ENDMDL
