MODEL 1
REMARK VINA RESULT:     -13.7      0.000      0.000
REMARK SMILES Cc1ccccc1/[NH+]=C1\S[C@@H](CC(=O)Nc2ccc(C(=O)NCCCNC(=O)c3ccc(-c4c5nc(c(-c6c(F)cccc6F)c6ccc([nH]6)c(-c6c(F)cccc6F)c6nc(c(-c7c(F)cccc7F)c7ccc4[nH]7)C=C6)C=C5)cc3)cc2)C(=O)N1C
REMARK SMILES IDX 23 1 22 2 20 3 21 4 19 6 16 7 17 8 84 9 18 10 83 11 15 12
REMARK SMILES IDX 13 13 14 14 12 16 11 17 8 18 9 19 10 21 87 22 85 23 88 24
REMARK SMILES IDX 86 25 7 26 1 27 2 28 3 29 4 30 6 31 5 32 24 33 25 34 26 35
REMARK SMILES IDX 27 36 28 38 29 39 30 40 82 41 31 42 81 43 32 44 33 45 34 46
REMARK SMILES IDX 75 47 35 48 80 49 74 50 76 51 36 52 79 53 73 54 72 55 37 57
REMARK SMILES IDX 63 58 46 59 62 60 47 61 50 62 61 63 77 64 48 65 49 66 60 68
REMARK SMILES IDX 78 69 51 70 38 71 39 72 44 73 40 74 41 75 43 76 45 77 42 78
REMARK SMILES IDX 64 79 65 80 70 81 66 82 67 83 69 84 71 85 68 86 52 87 53 88
REMARK SMILES IDX 58 89 54 90 55 91 57 92 59 93 56 94
REMARK H PARENT 22 5 15 15 8 20 26 37 76 56 50 67
REMARK Flexibility Score: inf
ROOT
ATOM      1  C   UNL A   1      32.337  31.191  26.715  1.00  0.00     0.118 C 
ENDROOT
BRANCH   1   2
ATOM      2  N   UNL A   1      31.883  29.950  27.341  1.00  0.00    -0.352 N 
ATOM      3  C   UNL A   1      31.861  28.656  26.863  1.00  0.00     0.251 C 
ATOM      4  O   UNL A   1      31.676  27.729  27.649  1.00  0.00    -0.269 OA
ATOM      5  H   UNL A   1      31.535  30.056  28.256  1.00  0.00     0.163 HD
BRANCH   3   6
ATOM      6  C   UNL A   1      32.071  28.343  25.427  1.00  0.00     0.039 A 
ATOM      7  C   UNL A   1      32.413  27.630  22.743  1.00  0.00     0.041 A 
ATOM      8  C   UNL A   1      33.510  27.783  23.584  1.00  0.00     0.027 A 
ATOM      9  C   UNL A   1      31.154  28.014  23.187  1.00  0.00     0.027 A 
ATOM     10  C   UNL A   1      33.345  28.135  24.915  1.00  0.00     0.016 A 
ATOM     11  C   UNL A   1      30.982  28.357  24.537  1.00  0.00     0.016 A 
BRANCH   7  12
ATOM     12  N   UNL A   1      32.594  27.057  21.478  1.00  0.00    -0.326 N 
ATOM     13  C   UNL A   1      32.695  25.702  21.231  1.00  0.00     0.226 C 
ATOM     14  O   UNL A   1      33.132  25.283  20.159  1.00  0.00    -0.275 OA
ATOM     15  H   UNL A   1      32.654  27.667  20.707  1.00  0.00     0.169 HD
BRANCH  13  16
ATOM     16  C   UNL A   1      32.045  24.760  22.236  1.00  0.00     0.128 C 
BRANCH  16  17
ATOM     17  C   UNL A   1      32.857  24.415  23.466  1.00  0.00     0.183 C 
ATOM     18  N   UNL A   1      34.651  21.995  25.646  1.00  0.00    -0.234 N 
ATOM     19  C   UNL A   1      33.776  22.528  24.875  1.00  0.00     0.319 C 
ATOM     20  H   UNL A   1      34.353  21.829  26.569  1.00  0.00     0.313 HD
ATOM     21  S   UNL A   1      33.798  22.863  23.176  1.00  0.00    -0.022 SA
ATOM     22  N   UNL A   1      32.602  23.000  25.385  1.00  0.00    -0.193 N 
ATOM     23  C   UNL A   1      32.112  24.127  24.758  1.00  0.00     0.324 C 
ATOM     24  C   UNL A   1      32.026  22.531  26.628  1.00  0.00     0.301 C 
ATOM     25  O   UNL A   1      31.264  24.867  25.244  1.00  0.00    -0.245 OA
BRANCH  18  26
ATOM     26  C   UNL A   1      35.973  21.617  25.367  1.00  0.00     0.128 A 
ATOM     27  C   UNL A   1      37.195  23.788  26.073  1.00  0.00     0.049 C 
ATOM     28  C   UNL A   1      37.150  22.355  25.625  1.00  0.00    -0.004 A 
ATOM     29  C   UNL A   1      38.407  21.728  25.483  1.00  0.00     0.008 A 
ATOM     30  C   UNL A   1      38.513  20.375  25.178  1.00  0.00     0.001 A 
ATOM     31  C   UNL A   1      36.114  20.254  25.044  1.00  0.00     0.052 A 
ATOM     32  C   UNL A   1      37.362  19.633  24.964  1.00  0.00     0.004 A 
ENDBRANCH  18  26
ENDBRANCH  16  17
ENDBRANCH  13  16
ENDBRANCH   7  12
ENDBRANCH   3   6
ENDBRANCH   1   2
BRANCH   1  33
ATOM     33  C   UNL A   1      33.305  31.987  27.590  1.00  0.00     0.042 C 
BRANCH  33  34
ATOM     34  C   UNL A   1      34.552  31.225  28.025  1.00  0.00     0.118 C 
BRANCH  34  35
ATOM     35  N   UNL A   1      35.379  31.930  29.004  1.00  0.00    -0.352 N 
ATOM     36  C   UNL A   1      36.536  31.501  29.646  1.00  0.00     0.251 C 
ATOM     37  H   UNL A   1      35.074  32.835  29.242  1.00  0.00     0.163 HD
ATOM     38  O   UNL A   1      37.133  32.236  30.411  1.00  0.00    -0.269 OA
BRANCH  36  39
ATOM     39  C   UNL A   1      37.110  30.183  29.271  1.00  0.00     0.039 A 
ATOM     40  C   UNL A   1      37.184  29.199  30.263  1.00  0.00     0.014 A 
ATOM     41  C   UNL A   1      37.811  30.039  28.081  1.00  0.00     0.014 A 
ATOM     42  C   UNL A   1      38.190  28.239  30.186  1.00  0.00     0.010 A 
ATOM     43  C   UNL A   1      38.885  29.175  28.065  1.00  0.00     0.010 A 
ATOM     44  C   UNL A   1      39.122  28.328  29.154  1.00  0.00    -0.014 A 
BRANCH  44  45
ATOM     45  C   UNL A   1      40.442  27.704  29.201  1.00  0.00     0.031 A 
ATOM     46  C   UNL A   1      40.629  26.295  28.792  1.00  0.00     0.074 A 
ATOM     47  C   UNL A   1      41.525  28.470  29.470  1.00  0.00     0.049 A 
ATOM     48  N   UNL A   1      41.693  25.608  29.035  1.00  0.00    -0.248 NA
ATOM     49  C   UNL A   1      39.603  25.531  28.092  1.00  0.00     0.031 C 
ATOM     50  C   UNL A   1      42.927  28.151  29.207  1.00  0.00     0.029 A 
ATOM     51  N   UNL A   1      41.580  29.642  30.238  1.00  0.00    -0.354 N 
ATOM     52  C   UNL A   1      41.607  24.427  28.337  1.00  0.00     0.074 A 
ATOM     53  C   UNL A   1      40.272  24.417  27.782  1.00  0.00     0.031 C 
ATOM     54  C   UNL A   1      43.701  28.893  30.012  1.00  0.00     0.029 A 
ATOM     55  C   UNL A   1      42.820  29.598  30.922  1.00  0.00     0.049 A 
ATOM     56  H   UNL A   1      40.897  30.349  30.292  1.00  0.00     0.167 HD
ATOM     57  C   UNL A   1      42.706  23.629  28.231  1.00  0.00     0.037 A 
ATOM     58  C   UNL A   1      42.871  29.520  32.285  1.00  0.00     0.037 A 
ATOM     59  C   UNL A   1      43.829  24.149  29.002  1.00  0.00     0.049 A 
ATOM     60  C   UNL A   1      43.542  28.274  32.828  1.00  0.00     0.074 A 
ATOM     61  C   UNL A   1      44.934  24.929  28.706  1.00  0.00     0.029 A 
ATOM     62  N   UNL A   1      43.743  24.115  30.378  1.00  0.00    -0.354 N 
ATOM     63  N   UNL A   1      43.982  27.294  32.090  1.00  0.00    -0.248 NA
ATOM     64  C   UNL A   1      43.674  27.993  34.259  1.00  0.00     0.031 C 
ATOM     65  C   UNL A   1      45.492  25.388  29.935  1.00  0.00     0.029 A 
ATOM     66  C   UNL A   1      44.728  24.878  30.968  1.00  0.00     0.049 A 
ATOM     67  H   UNL A   1      43.062  23.608  30.878  1.00  0.00     0.167 HD
ATOM     68  C   UNL A   1      44.348  26.251  32.898  1.00  0.00     0.074 A 
ATOM     69  C   UNL A   1      44.161  26.740  34.249  1.00  0.00     0.031 C 
ATOM     70  C   UNL A   1      44.718  25.034  32.411  1.00  0.00     0.037 A 
BRANCH  57  71
ATOM     71  C   UNL A   1      42.817  22.468  27.280  1.00  0.00     0.057 A 
ATOM     72  C   UNL A   1      41.987  21.340  27.425  1.00  0.00     0.134 A 
ATOM     73  C   UNL A   1      43.734  22.389  26.219  1.00  0.00     0.134 A 
ATOM     74  F   UNL A   1      41.007  21.300  28.339  1.00  0.00    -0.206 F 
ATOM     75  C   UNL A   1      42.126  20.188  26.643  1.00  0.00     0.040 A 
ATOM     76  C   UNL A   1      43.926  21.220  25.467  1.00  0.00     0.040 A 
ATOM     77  F   UNL A   1      44.447  23.453  25.829  1.00  0.00    -0.206 F 
ATOM     78  C   UNL A   1      43.125  20.110  25.685  1.00  0.00     0.006 A 
ENDBRANCH  57  71
BRANCH  58  79
ATOM     79  C   UNL A   1      41.734  30.221  32.939  1.00  0.00     0.057 A 
ATOM     80  C   UNL A   1      41.793  31.619  33.074  1.00  0.00     0.134 A 
ATOM     81  C   UNL A   1      40.481  29.617  33.067  1.00  0.00     0.134 A 
ATOM     82  F   UNL A   1      42.967  32.261  32.959  1.00  0.00    -0.206 F 
ATOM     83  C   UNL A   1      40.639  32.394  33.202  1.00  0.00     0.040 A 
ATOM     84  C   UNL A   1      39.320  30.383  33.215  1.00  0.00     0.040 A 
ATOM     85  F   UNL A   1      40.344  28.291  32.930  1.00  0.00    -0.206 F 
ATOM     86  C   UNL A   1      39.394  31.775  33.239  1.00  0.00     0.006 A 
ENDBRANCH  58  79
BRANCH  70  87
ATOM     87  C   UNL A   1      45.089  23.882  33.288  1.00  0.00     0.057 A 
ATOM     88  C   UNL A   1      44.151  22.926  33.692  1.00  0.00     0.134 A 
ATOM     89  C   UNL A   1      46.370  23.776  33.860  1.00  0.00     0.134 A 
ATOM     90  F   UNL A   1      42.896  22.954  33.218  1.00  0.00    -0.206 F 
ATOM     91  C   UNL A   1      44.469  21.920  34.610  1.00  0.00     0.040 A 
ATOM     92  C   UNL A   1      46.688  22.806  34.811  1.00  0.00     0.040 A 
ATOM     93  F   UNL A   1      47.365  24.604  33.504  1.00  0.00    -0.206 F 
ATOM     94  C   UNL A   1      45.735  21.869  35.187  1.00  0.00     0.006 A 
ENDBRANCH  70  87
ENDBRANCH  44  45
ENDBRANCH  36  39
ENDBRANCH  34  35
ENDBRANCH  33  34
ENDBRANCH   1  33
TORSDOF 14
ENDMDL
MODEL 2
REMARK VINA RESULT:     -13.2      3.846      9.719
REMARK SMILES Cc1ccccc1/[NH+]=C1\S[C@@H](CC(=O)Nc2ccc(C(=O)NCCCNC(=O)c3ccc(-c4c5nc(c(-c6c(F)cccc6F)c6ccc([nH]6)c(-c6c(F)cccc6F)c6nc(c(-c7c(F)cccc7F)c7ccc4[nH]7)C=C6)C=C5)cc3)cc2)C(=O)N1C
REMARK SMILES IDX 23 1 22 2 20 3 21 4 19 6 16 7 17 8 84 9 18 10 83 11 15 12
REMARK SMILES IDX 13 13 14 14 12 16 11 17 8 18 9 19 10 21 87 22 85 23 88 24
REMARK SMILES IDX 86 25 7 26 1 27 2 28 3 29 4 30 6 31 5 32 24 33 25 34 26 35
REMARK SMILES IDX 27 36 28 38 29 39 30 40 82 41 31 42 81 43 32 44 33 45 34 46
REMARK SMILES IDX 75 47 35 48 80 49 74 50 76 51 36 52 79 53 73 54 72 55 37 57
REMARK SMILES IDX 63 58 46 59 62 60 47 61 50 62 61 63 77 64 48 65 49 66 60 68
REMARK SMILES IDX 78 69 51 70 38 71 39 72 44 73 40 74 41 75 43 76 45 77 42 78
REMARK SMILES IDX 64 79 65 80 70 81 66 82 67 83 69 84 71 85 68 86 52 87 53 88
REMARK SMILES IDX 58 89 54 90 55 91 57 92 59 93 56 94
REMARK H PARENT 22 5 15 15 8 20 26 37 76 56 50 67
REMARK Flexibility Score: inf
ROOT
ATOM      1  C   UNL A   1      38.294  21.609  25.537  1.00  0.00     0.118 C 
ENDROOT
BRANCH   1   2
ATOM      2  N   UNL A   1      37.777  21.964  24.216  1.00  0.00    -0.352 N 
ATOM      3  C   UNL A   1      36.552  22.474  23.836  1.00  0.00     0.251 C 
ATOM      4  O   UNL A   1      36.420  22.936  22.705  1.00  0.00    -0.269 OA
ATOM      5  H   UNL A   1      38.407  21.812  23.475  1.00  0.00     0.163 HD
BRANCH   3   6
ATOM      6  C   UNL A   1      35.388  22.497  24.758  1.00  0.00     0.039 A 
ATOM      7  C   UNL A   1      33.113  22.556  26.385  1.00  0.00     0.041 A 
ATOM      8  C   UNL A   1      34.022  23.609  26.394  1.00  0.00     0.027 A 
ATOM      9  C   UNL A   1      33.430  21.386  25.706  1.00  0.00     0.027 A 
ATOM     10  C   UNL A   1      35.150  23.584  25.587  1.00  0.00     0.016 A 
ATOM     11  C   UNL A   1      34.564  21.364  24.879  1.00  0.00     0.016 A 
BRANCH   7  12
ATOM     12  N   UNL A   1      31.881  22.710  27.031  1.00  0.00    -0.326 N 
ATOM     13  C   UNL A   1      30.806  23.415  26.526  1.00  0.00     0.226 C 
ATOM     14  O   UNL A   1      29.869  23.749  27.250  1.00  0.00    -0.275 OA
ATOM     15  H   UNL A   1      31.773  22.283  27.912  1.00  0.00     0.169 HD
BRANCH  13  16
ATOM     16  C   UNL A   1      30.721  23.566  25.012  1.00  0.00     0.128 C 
BRANCH  16  17
ATOM     17  C   UNL A   1      31.178  24.888  24.435  1.00  0.00     0.183 C 
ATOM     18  N   UNL A   1      30.646  27.926  22.359  1.00  0.00    -0.234 N 
ATOM     19  C   UNL A   1      30.646  26.710  22.766  1.00  0.00     0.319 C 
ATOM     20  H   UNL A   1      31.211  28.106  21.573  1.00  0.00     0.313 HD
ATOM     21  S   UNL A   1      29.718  25.911  23.990  1.00  0.00    -0.022 SA
ATOM     22  N   UNL A   1      31.531  25.810  22.250  1.00  0.00    -0.193 N 
ATOM     23  C   UNL A   1      31.986  24.867  23.149  1.00  0.00     0.324 C 
ATOM     24  C   UNL A   1      32.148  25.952  20.948  1.00  0.00     0.301 C 
ATOM     25  O   UNL A   1      32.988  24.183  22.977  1.00  0.00    -0.245 OA
BRANCH  18  26
ATOM     26  C   UNL A   1      29.960  29.037  22.871  1.00  0.00     0.128 A 
ATOM     27  C   UNL A   1      31.410  29.505  24.964  1.00  0.00     0.049 C 
ATOM     28  C   UNL A   1      30.318  29.829  23.985  1.00  0.00    -0.004 A 
ATOM     29  C   UNL A   1      29.633  31.040  24.224  1.00  0.00     0.008 A 
ATOM     30  C   UNL A   1      28.672  31.518  23.339  1.00  0.00     0.001 A 
ATOM     31  C   UNL A   1      28.971  29.540  22.004  1.00  0.00     0.052 A 
ATOM     32  C   UNL A   1      28.344  30.769  22.220  1.00  0.00     0.004 A 
ENDBRANCH  18  26
ENDBRANCH  16  17
ENDBRANCH  13  16
ENDBRANCH   7  12
ENDBRANCH   3   6
ENDBRANCH   1   2
BRANCH   1  33
ATOM     33  C   UNL A   1      38.780  22.819  26.337  1.00  0.00     0.042 C 
BRANCH  33  34
ATOM     34  C   UNL A   1      39.913  22.528  27.313  1.00  0.00     0.118 C 
BRANCH  34  35
ATOM     35  N   UNL A   1      41.228  22.984  26.864  1.00  0.00    -0.352 N 
ATOM     36  C   UNL A   1      41.688  24.284  26.673  1.00  0.00     0.251 C 
ATOM     37  H   UNL A   1      41.879  22.272  26.669  1.00  0.00     0.163 HD
ATOM     38  O   UNL A   1      42.838  24.493  26.332  1.00  0.00    -0.269 OA
BRANCH  36  39
ATOM     39  C   UNL A   1      40.795  25.414  27.034  1.00  0.00     0.039 A 
ATOM     40  C   UNL A   1      40.799  26.538  26.202  1.00  0.00     0.014 A 
ATOM     41  C   UNL A   1      40.214  25.471  28.294  1.00  0.00     0.014 A 
ATOM     42  C   UNL A   1      40.501  27.784  26.750  1.00  0.00     0.010 A 
ATOM     43  C   UNL A   1      40.046  26.712  28.872  1.00  0.00     0.010 A 
ATOM     44  C   UNL A   1      40.266  27.872  28.120  1.00  0.00    -0.014 A 
BRANCH  44  45
ATOM     45  C   UNL A   1      40.394  29.111  28.884  1.00  0.00     0.031 A 
ATOM     46  C   UNL A   1      39.296  30.102  28.909  1.00  0.00     0.074 A 
ATOM     47  C   UNL A   1      41.461  29.277  29.701  1.00  0.00     0.049 A 
ATOM     48  N   UNL A   1      39.423  31.309  29.347  1.00  0.00    -0.248 NA
ATOM     49  C   UNL A   1      37.957  29.812  28.409  1.00  0.00     0.031 C 
ATOM     50  C   UNL A   1      41.599  30.229  30.801  1.00  0.00     0.029 A 
ATOM     51  N   UNL A   1      42.744  28.729  29.560  1.00  0.00    -0.354 N 
ATOM     52  C   UNL A   1      38.170  31.870  29.417  1.00  0.00     0.074 A 
ATOM     53  C   UNL A   1      37.291  30.904  28.799  1.00  0.00     0.031 C 
ATOM     54  C   UNL A   1      42.903  30.425  31.045  1.00  0.00     0.029 A 
ATOM     55  C   UNL A   1      43.642  29.726  30.013  1.00  0.00     0.049 A 
ATOM     56  H   UNL A   1      42.974  27.835  29.216  1.00  0.00     0.167 HD
ATOM     57  C   UNL A   1      38.002  33.053  30.071  1.00  0.00     0.037 A 
ATOM     58  C   UNL A   1      44.542  30.303  29.163  1.00  0.00     0.037 A 
ATOM     59  C   UNL A   1      39.271  33.602  30.533  1.00  0.00     0.049 A 
ATOM     60  C   UNL A   1      44.376  31.798  28.977  1.00  0.00     0.074 A 
ATOM     61  C   UNL A   1      39.970  33.568  31.728  1.00  0.00     0.029 A 
ATOM     62  N   UNL A   1      40.157  34.073  29.586  1.00  0.00    -0.354 N 
ATOM     63  N   UNL A   1      43.417  32.504  29.507  1.00  0.00    -0.248 NA
ATOM     64  C   UNL A   1      45.225  32.595  28.088  1.00  0.00     0.031 C 
ATOM     65  C   UNL A   1      41.304  33.998  31.472  1.00  0.00     0.029 A 
ATOM     66  C   UNL A   1      41.406  34.299  30.126  1.00  0.00     0.049 A 
ATOM     67  H   UNL A   1      39.927  34.228  28.641  1.00  0.00     0.167 HD
ATOM     68  C   UNL A   1      43.448  33.769  28.984  1.00  0.00     0.074 A 
ATOM     69  C   UNL A   1      44.609  33.790  28.118  1.00  0.00     0.031 C 
ATOM     70  C   UNL A   1      42.486  34.698  29.243  1.00  0.00     0.037 A 
BRANCH  57  71
ATOM     71  C   UNL A   1      36.662  33.624  30.451  1.00  0.00     0.057 A 
ATOM     72  C   UNL A   1      35.749  34.030  29.460  1.00  0.00     0.134 A 
ATOM     73  C   UNL A   1      36.223  33.822  31.771  1.00  0.00     0.134 A 
ATOM     74  F   UNL A   1      35.989  33.830  28.157  1.00  0.00    -0.206 F 
ATOM     75  C   UNL A   1      34.540  34.671  29.757  1.00  0.00     0.040 A 
ATOM     76  C   UNL A   1      35.045  34.516  32.082  1.00  0.00     0.040 A 
ATOM     77  F   UNL A   1      36.886  33.306  32.814  1.00  0.00    -0.206 F 
ATOM     78  C   UNL A   1      34.202  34.953  31.072  1.00  0.00     0.006 A 
ENDBRANCH  57  71
BRANCH  58  79
ATOM     79  C   UNL A   1      45.009  29.367  28.107  1.00  0.00     0.057 A 
ATOM     80  C   UNL A   1      46.032  28.454  28.420  1.00  0.00     0.134 A 
ATOM     81  C   UNL A   1      44.236  29.099  26.975  1.00  0.00     0.134 A 
ATOM     82  F   UNL A   1      46.810  28.654  29.496  1.00  0.00    -0.206 F 
ATOM     83  C   UNL A   1      46.193  27.261  27.714  1.00  0.00     0.040 A 
ATOM     84  C   UNL A   1      44.402  27.915  26.249  1.00  0.00     0.040 A 
ATOM     85  F   UNL A   1      43.230  29.912  26.625  1.00  0.00    -0.206 F 
ATOM     86  C   UNL A   1      45.352  26.974  26.644  1.00  0.00     0.006 A 
ENDBRANCH  58  79
BRANCH  70  87
ATOM     87  C   UNL A   1      42.495  36.071  28.651  1.00  0.00     0.057 A 
ATOM     88  C   UNL A   1      42.918  37.188  29.379  1.00  0.00     0.134 A 
ATOM     89  C   UNL A   1      41.953  36.327  27.378  1.00  0.00     0.134 A 
ATOM     90  F   UNL A   1      43.431  37.051  30.612  1.00  0.00    -0.206 F 
ATOM     91  C   UNL A   1      42.811  38.487  28.869  1.00  0.00     0.040 A 
ATOM     92  C   UNL A   1      41.799  37.619  26.876  1.00  0.00     0.040 A 
ATOM     93  F   UNL A   1      41.568  35.327  26.569  1.00  0.00    -0.206 F 
ATOM     94  C   UNL A   1      42.233  38.707  27.622  1.00  0.00     0.006 A 
ENDBRANCH  70  87
ENDBRANCH  44  45
ENDBRANCH  36  39
ENDBRANCH  34  35
ENDBRANCH  33  34
ENDBRANCH   1  33
TORSDOF 14
ENDMDL
MODEL 3
REMARK VINA RESULT:     -13.0      2.513      3.881
REMARK SMILES Cc1ccccc1/[NH+]=C1\S[C@@H](CC(=O)Nc2ccc(C(=O)NCCCNC(=O)c3ccc(-c4c5nc(c(-c6c(F)cccc6F)c6ccc([nH]6)c(-c6c(F)cccc6F)c6nc(c(-c7c(F)cccc7F)c7ccc4[nH]7)C=C6)C=C5)cc3)cc2)C(=O)N1C
REMARK SMILES IDX 23 1 22 2 20 3 21 4 19 6 16 7 17 8 84 9 18 10 83 11 15 12
REMARK SMILES IDX 13 13 14 14 12 16 11 17 8 18 9 19 10 21 87 22 85 23 88 24
REMARK SMILES IDX 86 25 7 26 1 27 2 28 3 29 4 30 6 31 5 32 24 33 25 34 26 35
REMARK SMILES IDX 27 36 28 38 29 39 30 40 82 41 31 42 81 43 32 44 33 45 34 46
REMARK SMILES IDX 75 47 35 48 80 49 74 50 76 51 36 52 79 53 73 54 72 55 37 57
REMARK SMILES IDX 63 58 46 59 62 60 47 61 50 62 61 63 77 64 48 65 49 66 60 68
REMARK SMILES IDX 78 69 51 70 38 71 39 72 44 73 40 74 41 75 43 76 45 77 42 78
REMARK SMILES IDX 64 79 65 80 70 81 66 82 67 83 69 84 71 85 68 86 52 87 53 88
REMARK SMILES IDX 58 89 54 90 55 91 57 92 59 93 56 94
REMARK H PARENT 22 5 15 15 8 20 26 37 76 56 50 67
REMARK Flexibility Score: inf
ROOT
ATOM      1  C   UNL A   1      34.442  30.768  27.391  1.00  0.00     0.118 C 
ENDROOT
BRANCH   1   2
ATOM      2  N   UNL A   1      33.161  30.172  27.765  1.00  0.00    -0.352 N 
ATOM      3  C   UNL A   1      32.393  29.215  27.133  1.00  0.00     0.251 C 
ATOM      4  O   UNL A   1      31.478  28.677  27.750  1.00  0.00    -0.269 OA
ATOM      5  H   UNL A   1      32.782  30.511  28.608  1.00  0.00     0.163 HD
BRANCH   3   6
ATOM      6  C   UNL A   1      32.649  28.802  25.730  1.00  0.00     0.039 A 
ATOM      7  C   UNL A   1      33.027  27.933  23.097  1.00  0.00     0.041 A 
ATOM      8  C   UNL A   1      33.954  27.626  24.087  1.00  0.00     0.027 A 
ATOM      9  C   UNL A   1      32.006  28.833  23.374  1.00  0.00     0.027 A 
ATOM     10  C   UNL A   1      33.770  28.053  25.394  1.00  0.00     0.016 A 
ATOM     11  C   UNL A   1      31.809  29.256  24.698  1.00  0.00     0.016 A 
BRANCH   7  12
ATOM     12  N   UNL A   1      33.122  27.302  21.851  1.00  0.00    -0.326 N 
ATOM     13  C   UNL A   1      32.750  25.997  21.595  1.00  0.00     0.226 C 
ATOM     14  O   UNL A   1      33.116  25.421  20.571  1.00  0.00    -0.275 OA
ATOM     15  H   UNL A   1      33.481  27.829  21.100  1.00  0.00     0.169 HD
BRANCH  13  16
ATOM     16  C   UNL A   1      31.699  25.380  22.510  1.00  0.00     0.128 C 
BRANCH  16  17
ATOM     17  C   UNL A   1      32.202  24.444  23.587  1.00  0.00     0.183 C 
ATOM     18  N   UNL A   1      32.315  21.129  25.270  1.00  0.00    -0.234 N 
ATOM     19  C   UNL A   1      31.890  22.182  24.671  1.00  0.00     0.319 C 
ATOM     20  H   UNL A   1      32.015  21.026  26.201  1.00  0.00     0.313 HD
ATOM     21  S   UNL A   1      32.034  22.702  23.026  1.00  0.00    -0.022 SA
ATOM     22  N   UNL A   1      31.243  23.159  25.369  1.00  0.00    -0.193 N 
ATOM     23  C   UNL A   1      31.485  24.442  24.927  1.00  0.00     0.324 C 
ATOM     24  C   UNL A   1      30.553  22.923  26.621  1.00  0.00     0.301 C 
ATOM     25  O   UNL A   1      31.258  25.450  25.587  1.00  0.00    -0.245 OA
BRANCH  18  26
ATOM     26  C   UNL A   1      33.147  20.107  24.791  1.00  0.00     0.128 A 
ATOM     27  C   UNL A   1      35.452  21.099  25.428  1.00  0.00     0.049 C 
ATOM     28  C   UNL A   1      34.551  20.011  24.919  1.00  0.00    -0.004 A 
ATOM     29  C   UNL A   1      35.198  18.805  24.572  1.00  0.00     0.008 A 
ATOM     30  C   UNL A   1      34.478  17.679  24.187  1.00  0.00     0.001 A 
ATOM     31  C   UNL A   1      32.448  18.955  24.382  1.00  0.00     0.052 A 
ATOM     32  C   UNL A   1      33.096  17.751  24.099  1.00  0.00     0.004 A 
ENDBRANCH  18  26
ENDBRANCH  16  17
ENDBRANCH  13  16
ENDBRANCH   7  12
ENDBRANCH   3   6
ENDBRANCH   1   2
BRANCH   1  33
ATOM     33  C   UNL A   1      34.664  32.152  28.002  1.00  0.00     0.042 C 
BRANCH  33  34
ATOM     34  C   UNL A   1      34.900  32.157  29.508  1.00  0.00     0.118 C 
BRANCH  34  35
ATOM     35  N   UNL A   1      34.034  33.072  30.251  1.00  0.00    -0.352 N 
ATOM     36  C   UNL A   1      34.294  33.763  31.430  1.00  0.00     0.251 C 
ATOM     37  H   UNL A   1      33.142  33.220  29.862  1.00  0.00     0.163 HD
ATOM     38  O   UNL A   1      33.470  34.527  31.899  1.00  0.00    -0.269 OA
BRANCH  36  39
ATOM     39  C   UNL A   1      35.650  33.664  32.028  1.00  0.00     0.039 A 
ATOM     40  C   UNL A   1      36.678  34.407  31.438  1.00  0.00     0.014 A 
ATOM     41  C   UNL A   1      35.941  32.654  32.935  1.00  0.00     0.014 A 
ATOM     42  C   UNL A   1      37.986  33.935  31.523  1.00  0.00     0.010 A 
ATOM     43  C   UNL A   1      37.209  32.112  32.915  1.00  0.00     0.010 A 
ATOM     44  C   UNL A   1      38.215  32.709  32.144  1.00  0.00    -0.014 A 
BRANCH  44  45
ATOM     45  C   UNL A   1      39.408  31.897  31.915  1.00  0.00     0.031 A 
ATOM     46  C   UNL A   1      39.355  30.701  31.047  1.00  0.00     0.074 A 
ATOM     47  C   UNL A   1      40.603  32.335  32.376  1.00  0.00     0.049 A 
ATOM     48  N   UNL A   1      40.283  29.807  30.993  1.00  0.00    -0.248 NA
ATOM     49  C   UNL A   1      38.222  30.403  30.179  1.00  0.00     0.031 C 
ATOM     50  C   UNL A   1      41.932  31.897  31.955  1.00  0.00     0.029 A 
ATOM     51  N   UNL A   1      40.848  33.149  33.491  1.00  0.00    -0.354 N 
ATOM     52  C   UNL A   1      40.004  28.966  29.942  1.00  0.00     0.074 A 
ATOM     53  C   UNL A   1      38.695  29.366  29.480  1.00  0.00     0.031 C 
ATOM     54  C   UNL A   1      42.812  32.182  32.927  1.00  0.00     0.029 A 
ATOM     55  C   UNL A   1      42.053  32.670  34.061  1.00  0.00     0.049 A 
ATOM     56  H   UNL A   1      40.296  33.898  33.813  1.00  0.00     0.167 HD
ATOM     57  C   UNL A   1      40.951  28.082  29.522  1.00  0.00     0.037 A 
ATOM     58  C   UNL A   1      42.073  32.126  35.314  1.00  0.00     0.037 A 
ATOM     59  C   UNL A   1      42.137  28.114  30.369  1.00  0.00     0.049 A 
ATOM     60  C   UNL A   1      42.514  30.677  35.372  1.00  0.00     0.074 A 
ATOM     61  C   UNL A   1      43.363  28.754  30.302  1.00  0.00     0.029 A 
ATOM     62  N   UNL A   1      42.029  27.628  31.655  1.00  0.00    -0.354 N 
ATOM     63  N   UNL A   1      42.789  29.948  34.326  1.00  0.00    -0.248 NA
ATOM     64  C   UNL A   1      42.579  29.907  36.617  1.00  0.00     0.031 C 
ATOM     65  C   UNL A   1      43.976  28.668  31.586  1.00  0.00     0.029 A 
ATOM     66  C   UNL A   1      43.124  27.970  32.422  1.00  0.00     0.049 A 
ATOM     67  H   UNL A   1      41.266  27.101  31.986  1.00  0.00     0.167 HD
ATOM     68  C   UNL A   1      42.961  28.647  34.717  1.00  0.00     0.074 A 
ATOM     69  C   UNL A   1      42.844  28.670  36.161  1.00  0.00     0.031 C 
ATOM     70  C   UNL A   1      43.123  27.625  33.831  1.00  0.00     0.037 A 
BRANCH  57  71
ATOM     71  C   UNL A   1      40.873  27.312  28.231  1.00  0.00     0.057 A 
ATOM     72  C   UNL A   1      40.105  26.136  28.142  1.00  0.00     0.134 A 
ATOM     73  C   UNL A   1      41.548  27.663  27.049  1.00  0.00     0.134 A 
ATOM     74  F   UNL A   1      39.340  25.716  29.159  1.00  0.00    -0.206 F 
ATOM     75  C   UNL A   1      40.090  25.321  27.003  1.00  0.00     0.040 A 
ATOM     76  C   UNL A   1      41.591  26.828  25.923  1.00  0.00     0.040 A 
ATOM     77  F   UNL A   1      42.151  28.851  26.914  1.00  0.00    -0.206 F 
ATOM     78  C   UNL A   1      40.866  25.646  25.901  1.00  0.00     0.006 A 
ENDBRANCH  57  71
BRANCH  58  79
ATOM     79  C   UNL A   1      41.066  32.739  36.218  1.00  0.00     0.057 A 
ATOM     80  C   UNL A   1      41.369  33.969  36.829  1.00  0.00     0.134 A 
ATOM     81  C   UNL A   1      39.723  32.356  36.182  1.00  0.00     0.134 A 
ATOM     82  F   UNL A   1      42.641  34.396  36.895  1.00  0.00    -0.206 F 
ATOM     83  C   UNL A   1      40.369  34.838  37.268  1.00  0.00     0.040 A 
ATOM     84  C   UNL A   1      38.714  33.211  36.637  1.00  0.00     0.040 A 
ATOM     85  F   UNL A   1      39.355  31.207  35.598  1.00  0.00    -0.206 F 
ATOM     86  C   UNL A   1      39.033  34.471  37.140  1.00  0.00     0.006 A 
ENDBRANCH  58  79
BRANCH  70  87
ATOM     87  C   UNL A   1      43.280  26.199  34.249  1.00  0.00     0.057 A 
ATOM     88  C   UNL A   1      42.241  25.486  34.858  1.00  0.00     0.134 A 
ATOM     89  C   UNL A   1      44.523  25.543  34.173  1.00  0.00     0.134 A 
ATOM     90  F   UNL A   1      41.023  26.033  34.997  1.00  0.00    -0.206 F 
ATOM     91  C   UNL A   1      42.426  24.194  35.361  1.00  0.00     0.040 A 
ATOM     92  C   UNL A   1      44.732  24.272  34.710  1.00  0.00     0.040 A 
ATOM     93  F   UNL A   1      45.574  26.108  33.559  1.00  0.00    -0.206 F 
ATOM     94  C   UNL A   1      43.679  23.590  35.305  1.00  0.00     0.006 A 
ENDBRANCH  70  87
ENDBRANCH  44  45
ENDBRANCH  36  39
ENDBRANCH  34  35
ENDBRANCH  33  34
ENDBRANCH   1  33
TORSDOF 14
ENDMDL
