MODEL 1
REMARK VINA RESULT:     -12.8      0.000      0.000
REMARK SMILES Cc1nc(N2CCCC[C@H]2C(=O)NCCCNC(=O)c2ccc(-c3c4nc(c(-c5c(F)cccc5F)c5ccc([nH]5)c(-c5c(F)cccc5F)c5nc(c(-c6c(F)cccc6F)c6ccc3[nH]6)C=C5)C=C4)cc2)c2oc3ccccc3c2n1
REMARK SMILES IDX 15 1 14 2 13 3 11 4 12 5 10 7 5 8 6 9 7 10 9 11 8 12 4 13
REMARK SMILES IDX 1 14 2 15 3 16 83 17 82 18 74 19 81 20 75 21 76 22 80 23
REMARK SMILES IDX 77 24 79 25 78 26 16 27 17 28 18 29 19 31 20 32 21 33 73 34
REMARK SMILES IDX 22 35 72 36 23 37 24 38 25 39 66 40 26 41 71 42 65 43 67 44
REMARK SMILES IDX 27 45 70 46 64 47 63 48 28 50 54 51 37 52 53 53 38 54 41 55
REMARK SMILES IDX 52 56 68 57 39 58 40 59 51 61 69 62 42 63 29 64 30 65 35 66
REMARK SMILES IDX 31 67 32 68 34 69 36 70 33 71 55 72 56 73 61 74 57 75 58 76
REMARK SMILES IDX 60 77 62 78 59 79 43 80 44 81 49 82 45 83 46 84 48 85 50 86
REMARK SMILES IDX 47 87
REMARK H PARENT 13 6 17 30 67 49 41 60
REMARK Flexibility Score: inf
ROOT
ATOM      1  C   UNL A   1      36.876  23.767  25.528  1.00  0.00     0.042 C 
ENDROOT
BRANCH   1   2
ATOM      2  C   UNL A   1      36.974  23.099  24.152  1.00  0.00     0.117 C 
BRANCH   2   3
ATOM      3  N   UNL A   1      35.691  23.095  23.475  1.00  0.00    -0.354 N 
ATOM      4  C   UNL A   1      34.517  22.437  23.678  1.00  0.00     0.242 C 
ATOM      5  O   UNL A   1      33.735  22.494  22.721  1.00  0.00    -0.273 OA
ATOM      6  H   UNL A   1      35.663  23.702  22.700  1.00  0.00     0.163 HD
BRANCH   4   7
ATOM      7  C   UNL A   1      34.165  21.742  25.024  1.00  0.00     0.173 C 
ATOM      8  N   UNL A   1      32.718  21.463  25.127  1.00  0.00    -0.341 N 
ATOM      9  C   UNL A   1      32.162  20.442  24.241  1.00  0.00     0.119 C 
ATOM     10  C   UNL A   1      32.831  19.112  24.554  1.00  0.00     0.022 C 
ATOM     11  C   UNL A   1      34.876  20.403  25.306  1.00  0.00     0.035 C 
ATOM     12  C   UNL A   1      34.350  19.238  24.462  1.00  0.00     0.004 C 
BRANCH   8  13
ATOM     13  C   UNL A   1      31.864  22.358  25.733  1.00  0.00     0.176 A 
ATOM     14  C   UNL A   1      28.594  22.343  27.451  1.00  0.00     0.090 C 
ATOM     15  C   UNL A   1      29.852  22.872  26.831  1.00  0.00     0.128 A 
ATOM     16  N   UNL A   1      30.644  21.975  26.191  1.00  0.00    -0.212 NA
ATOM     17  N   UNL A   1      30.102  24.186  27.023  1.00  0.00    -0.229 NA
ATOM     18  C   UNL A   1      31.284  24.586  26.501  1.00  0.00     0.123 A 
ATOM     19  C   UNL A   1      32.160  23.713  25.882  1.00  0.00     0.196 A 
ATOM     20  C   UNL A   1      31.887  25.872  26.441  1.00  0.00     0.047 A 
ATOM     21  O   UNL A   1      33.264  24.382  25.438  1.00  0.00    -0.450 OA
ATOM     22  C   UNL A   1      33.094  25.687  25.775  1.00  0.00     0.137 A 
ATOM     23  C   UNL A   1      31.549  27.172  26.859  1.00  0.00     0.014 A 
ATOM     24  C   UNL A   1      33.997  26.708  25.488  1.00  0.00     0.048 A 
ATOM     25  C   UNL A   1      32.439  28.222  26.583  1.00  0.00     0.001 A 
ATOM     26  C   UNL A   1      33.641  27.992  25.908  1.00  0.00     0.004 A 
ENDBRANCH   8  13
ENDBRANCH   4   7
ENDBRANCH   2   3
ENDBRANCH   1   2
BRANCH   1  27
ATOM     27  C   UNL A   1      38.183  23.772  26.327  1.00  0.00     0.118 C 
BRANCH  27  28
ATOM     28  N   UNL A   1      38.824  22.468  26.447  1.00  0.00    -0.352 N 
ATOM     29  C   UNL A   1      40.110  22.152  26.845  1.00  0.00     0.251 C 
ATOM     30  H   UNL A   1      38.259  21.698  26.207  1.00  0.00     0.163 HD
ATOM     31  O   UNL A   1      40.501  21.001  26.877  1.00  0.00    -0.269 OA
BRANCH  29  32
ATOM     32  C   UNL A   1      41.024  23.263  27.168  1.00  0.00     0.039 A 
ATOM     33  C   UNL A   1      40.861  23.979  28.356  1.00  0.00     0.014 A 
ATOM     34  C   UNL A   1      41.923  23.679  26.185  1.00  0.00     0.014 A 
ATOM     35  C   UNL A   1      41.443  25.233  28.467  1.00  0.00     0.010 A 
ATOM     36  C   UNL A   1      42.546  24.914  26.320  1.00  0.00     0.010 A 
ATOM     37  C   UNL A   1      42.238  25.724  27.423  1.00  0.00    -0.014 A 
BRANCH  37  38
ATOM     38  C   UNL A   1      42.636  27.136  27.481  1.00  0.00     0.031 A 
ATOM     39  C   UNL A   1      41.527  28.124  27.476  1.00  0.00     0.074 A 
ATOM     40  C   UNL A   1      43.790  27.495  28.082  1.00  0.00     0.049 A 
ATOM     41  N   UNL A   1      40.847  28.416  28.545  1.00  0.00    -0.248 NA
ATOM     42  C   UNL A   1      40.976  28.677  26.242  1.00  0.00     0.031 C 
ATOM     43  C   UNL A   1      44.437  26.722  29.153  1.00  0.00     0.029 A 
ATOM     44  N   UNL A   1      44.482  28.680  28.056  1.00  0.00    -0.354 N 
ATOM     45  C   UNL A   1      39.744  29.135  28.135  1.00  0.00     0.074 A 
ATOM     46  C   UNL A   1      39.874  29.291  26.701  1.00  0.00     0.031 C 
ATOM     47  C   UNL A   1      45.299  27.527  29.805  1.00  0.00     0.029 A 
ATOM     48  C   UNL A   1      45.400  28.796  29.095  1.00  0.00     0.049 A 
ATOM     49  H   UNL A   1      44.344  29.376  27.373  1.00  0.00     0.167 HD
ATOM     50  C   UNL A   1      38.771  29.549  28.985  1.00  0.00     0.037 A 
ATOM     51  C   UNL A   1      45.801  29.960  29.669  1.00  0.00     0.037 A 
ATOM     52  C   UNL A   1      38.963  29.236  30.368  1.00  0.00     0.049 A 
ATOM     53  C   UNL A   1      44.539  30.423  30.341  1.00  0.00     0.074 A 
ATOM     54  C   UNL A   1      38.611  28.219  31.229  1.00  0.00     0.029 A 
ATOM     55  N   UNL A   1      39.754  30.076  31.116  1.00  0.00    -0.354 N 
ATOM     56  N   UNL A   1      44.102  30.011  31.501  1.00  0.00    -0.248 NA
ATOM     57  C   UNL A   1      43.544  31.132  29.534  1.00  0.00     0.031 C 
ATOM     58  C   UNL A   1      39.561  28.274  32.297  1.00  0.00     0.029 A 
ATOM     59  C   UNL A   1      40.469  29.282  31.979  1.00  0.00     0.049 A 
ATOM     60  H   UNL A   1      39.800  31.056  31.047  1.00  0.00     0.167 HD
ATOM     61  C   UNL A   1      42.715  30.164  31.450  1.00  0.00     0.074 A 
ATOM     62  C   UNL A   1      42.441  30.894  30.231  1.00  0.00     0.031 C 
ATOM     63  C   UNL A   1      41.859  29.518  32.294  1.00  0.00     0.037 A 
BRANCH  50  64
ATOM     64  C   UNL A   1      37.634  30.384  28.574  1.00  0.00     0.057 A 
ATOM     65  C   UNL A   1      36.445  29.835  28.093  1.00  0.00     0.134 A 
ATOM     66  C   UNL A   1      37.670  31.756  28.841  1.00  0.00     0.134 A 
ATOM     67  F   UNL A   1      36.356  28.523  27.831  1.00  0.00    -0.206 F 
ATOM     68  C   UNL A   1      35.311  30.628  27.911  1.00  0.00     0.040 A 
ATOM     69  C   UNL A   1      36.546  32.559  28.668  1.00  0.00     0.040 A 
ATOM     70  F   UNL A   1      38.792  32.321  29.319  1.00  0.00    -0.206 F 
ATOM     71  C   UNL A   1      35.358  31.992  28.213  1.00  0.00     0.006 A 
ENDBRANCH  50  64
BRANCH  51  72
ATOM     72  C   UNL A   1      46.659  30.820  28.799  1.00  0.00     0.057 A 
ATOM     73  C   UNL A   1      46.275  31.413  27.592  1.00  0.00     0.134 A 
ATOM     74  C   UNL A   1      47.978  31.089  29.219  1.00  0.00     0.134 A 
ATOM     75  F   UNL A   1      45.015  31.337  27.144  1.00  0.00    -0.206 F 
ATOM     76  C   UNL A   1      47.182  32.113  26.785  1.00  0.00     0.040 A 
ATOM     77  C   UNL A   1      48.889  31.802  28.435  1.00  0.00     0.040 A 
ATOM     78  F   UNL A   1      48.412  30.659  30.415  1.00  0.00    -0.206 F 
ATOM     79  C   UNL A   1      48.498  32.294  27.197  1.00  0.00     0.006 A 
ENDBRANCH  51  72
BRANCH  63  80
ATOM     80  C   UNL A   1      42.505  28.803  33.430  1.00  0.00     0.057 A 
ATOM     81  C   UNL A   1      43.045  27.519  33.289  1.00  0.00     0.134 A 
ATOM     82  C   UNL A   1      42.582  29.403  34.692  1.00  0.00     0.134 A 
ATOM     83  F   UNL A   1      43.031  26.889  32.103  1.00  0.00    -0.206 F 
ATOM     84  C   UNL A   1      43.605  26.840  34.372  1.00  0.00     0.040 A 
ATOM     85  C   UNL A   1      43.162  28.744  35.777  1.00  0.00     0.040 A 
ATOM     86  F   UNL A   1      42.078  30.630  34.895  1.00  0.00    -0.206 F 
ATOM     87  C   UNL A   1      43.667  27.453  35.621  1.00  0.00     0.006 A 
ENDBRANCH  63  80
ENDBRANCH  37  38
ENDBRANCH  29  32
ENDBRANCH  27  28
ENDBRANCH   1  27
TORSDOF 11
ENDMDL
MODEL 2
REMARK VINA RESULT:     -12.6      3.186      7.203
REMARK SMILES Cc1nc(N2CCCC[C@H]2C(=O)NCCCNC(=O)c2ccc(-c3c4nc(c(-c5c(F)cccc5F)c5ccc([nH]5)c(-c5c(F)cccc5F)c5nc(c(-c6c(F)cccc6F)c6ccc3[nH]6)C=C5)C=C4)cc2)c2oc3ccccc3c2n1
REMARK SMILES IDX 15 1 14 2 13 3 11 4 12 5 10 7 5 8 6 9 7 10 9 11 8 12 4 13
REMARK SMILES IDX 1 14 2 15 3 16 83 17 82 18 74 19 81 20 75 21 76 22 80 23
REMARK SMILES IDX 77 24 79 25 78 26 16 27 17 28 18 29 19 31 20 32 21 33 73 34
REMARK SMILES IDX 22 35 72 36 23 37 24 38 25 39 66 40 26 41 71 42 65 43 67 44
REMARK SMILES IDX 27 45 70 46 64 47 63 48 28 50 54 51 37 52 53 53 38 54 41 55
REMARK SMILES IDX 52 56 68 57 39 58 40 59 51 61 69 62 42 63 29 64 30 65 35 66
REMARK SMILES IDX 31 67 32 68 34 69 36 70 33 71 55 72 56 73 61 74 57 75 58 76
REMARK SMILES IDX 60 77 62 78 59 79 43 80 44 81 49 82 45 83 46 84 48 85 50 86
REMARK SMILES IDX 47 87
REMARK H PARENT 13 6 17 30 67 49 41 60
REMARK Flexibility Score: inf
ROOT
ATOM      1  C   UNL A   1      39.778  24.266  26.359  1.00  0.00     0.042 C 
ENDROOT
BRANCH   1   2
ATOM      2  C   UNL A   1      38.252  24.148  26.437  1.00  0.00     0.117 C 
BRANCH   2   3
ATOM      3  N   UNL A   1      37.693  23.706  25.173  1.00  0.00    -0.354 N 
ATOM      4  C   UNL A   1      36.440  23.371  24.759  1.00  0.00     0.242 C 
ATOM      5  O   UNL A   1      36.410  22.778  23.674  1.00  0.00    -0.273 OA
ATOM      6  H   UNL A   1      38.366  23.633  24.459  1.00  0.00     0.163 HD
BRANCH   4   7
ATOM      7  C   UNL A   1      35.160  23.768  25.548  1.00  0.00     0.173 C 
ATOM      8  N   UNL A   1      33.949  23.647  24.712  1.00  0.00    -0.341 N 
ATOM      9  C   UNL A   1      33.521  22.302  24.331  1.00  0.00     0.119 C 
ATOM     10  C   UNL A   1      33.192  21.523  25.595  1.00  0.00     0.022 C 
ATOM     11  C   UNL A   1      34.871  22.960  26.830  1.00  0.00     0.035 C 
ATOM     12  C   UNL A   1      34.374  21.537  26.561  1.00  0.00     0.004 C 
BRANCH   8  13
ATOM     13  C   UNL A   1      33.463  24.727  24.007  1.00  0.00     0.176 A 
ATOM     14  C   UNL A   1      32.670  25.628  20.513  1.00  0.00     0.090 C 
ATOM     15  C   UNL A   1      32.862  25.775  21.993  1.00  0.00     0.128 A 
ATOM     16  N   UNL A   1      33.396  24.715  22.650  1.00  0.00    -0.212 NA
ATOM     17  N   UNL A   1      32.426  26.933  22.535  1.00  0.00    -0.229 NA
ATOM     18  C   UNL A   1      32.562  26.976  23.880  1.00  0.00     0.123 A 
ATOM     19  C   UNL A   1      33.051  25.912  24.615  1.00  0.00     0.196 A 
ATOM     20  C   UNL A   1      32.279  28.013  24.811  1.00  0.00     0.047 A 
ATOM     21  O   UNL A   1      33.094  26.230  25.942  1.00  0.00    -0.450 OA
ATOM     22  C   UNL A   1      32.629  27.502  26.057  1.00  0.00     0.137 A 
ATOM     23  C   UNL A   1      31.781  29.328  24.746  1.00  0.00     0.014 A 
ATOM     24  C   UNL A   1      32.524  28.206  27.253  1.00  0.00     0.048 A 
ATOM     25  C   UNL A   1      31.665  30.063  25.936  1.00  0.00     0.001 A 
ATOM     26  C   UNL A   1      32.032  29.511  27.166  1.00  0.00     0.004 A 
ENDBRANCH   8  13
ENDBRANCH   4   7
ENDBRANCH   2   3
ENDBRANCH   1   2
BRANCH   1  27
ATOM     27  C   UNL A   1      40.330  25.642  26.748  1.00  0.00     0.118 C 
BRANCH  27  28
ATOM     28  N   UNL A   1      41.254  26.219  25.778  1.00  0.00    -0.352 N 
ATOM     29  C   UNL A   1      41.726  27.514  25.675  1.00  0.00     0.251 C 
ATOM     30  H   UNL A   1      41.590  25.594  25.095  1.00  0.00     0.163 HD
ATOM     31  O   UNL A   1      42.490  27.844  24.788  1.00  0.00    -0.269 OA
BRANCH  29  32
ATOM     32  C   UNL A   1      41.220  28.511  26.636  1.00  0.00     0.039 A 
ATOM     33  C   UNL A   1      42.021  28.922  27.704  1.00  0.00     0.014 A 
ATOM     34  C   UNL A   1      39.879  28.887  26.545  1.00  0.00     0.014 A 
ATOM     35  C   UNL A   1      41.420  29.532  28.795  1.00  0.00     0.010 A 
ATOM     36  C   UNL A   1      39.289  29.544  27.619  1.00  0.00     0.010 A 
ATOM     37  C   UNL A   1      40.043  29.789  28.775  1.00  0.00    -0.014 A 
BRANCH  37  38
ATOM     38  C   UNL A   1      39.416  30.216  30.032  1.00  0.00     0.031 A 
ATOM     39  C   UNL A   1      39.828  29.472  31.249  1.00  0.00     0.074 A 
ATOM     40  C   UNL A   1      39.004  31.493  30.190  1.00  0.00     0.049 A 
ATOM     41  N   UNL A   1      40.937  29.724  31.879  1.00  0.00    -0.248 NA
ATOM     42  C   UNL A   1      39.137  28.269  31.703  1.00  0.00     0.031 C 
ATOM     43  C   UNL A   1      39.583  32.641  29.474  1.00  0.00     0.029 A 
ATOM     44  N   UNL A   1      38.196  32.062  31.142  1.00  0.00    -0.354 N 
ATOM     45  C   UNL A   1      41.135  28.689  32.770  1.00  0.00     0.074 A 
ATOM     46  C   UNL A   1      39.984  27.819  32.642  1.00  0.00     0.031 C 
ATOM     47  C   UNL A   1      39.262  33.768  30.138  1.00  0.00     0.029 A 
ATOM     48  C   UNL A   1      38.318  33.446  31.201  1.00  0.00     0.049 A 
ATOM     49  H   UNL A   1      37.593  31.544  31.724  1.00  0.00     0.167 HD
ATOM     50  C   UNL A   1      42.239  28.586  33.552  1.00  0.00     0.037 A 
ATOM     51  C   UNL A   1      38.129  34.209  32.309  1.00  0.00     0.037 A 
ATOM     52  C   UNL A   1      43.195  29.645  33.443  1.00  0.00     0.049 A 
ATOM     53  C   UNL A   1      39.276  33.778  33.180  1.00  0.00     0.074 A 
ATOM     54  C   UNL A   1      44.332  29.904  32.707  1.00  0.00     0.029 A 
ATOM     55  N   UNL A   1      42.978  30.789  34.173  1.00  0.00    -0.354 N 
ATOM     56  N   UNL A   1      40.502  34.219  33.094  1.00  0.00    -0.248 NA
ATOM     57  C   UNL A   1      39.126  32.551  33.966  1.00  0.00     0.031 C 
ATOM     58  C   UNL A   1      44.472  31.328  32.706  1.00  0.00     0.029 A 
ATOM     59  C   UNL A   1      43.370  31.843  33.386  1.00  0.00     0.049 A 
ATOM     60  H   UNL A   1      42.610  30.843  35.085  1.00  0.00     0.167 HD
ATOM     61  C   UNL A   1      41.304  33.183  33.576  1.00  0.00     0.074 A 
ATOM     62  C   UNL A   1      40.394  32.204  34.133  1.00  0.00     0.031 C 
ATOM     63  C   UNL A   1      42.641  33.088  33.318  1.00  0.00     0.037 A 
BRANCH  50  64
ATOM     64  C   UNL A   1      42.425  27.534  34.561  1.00  0.00     0.057 A 
ATOM     65  C   UNL A   1      41.838  27.606  35.824  1.00  0.00     0.134 A 
ATOM     66  C   UNL A   1      43.054  26.342  34.189  1.00  0.00     0.134 A 
ATOM     67  F   UNL A   1      41.215  28.723  36.225  1.00  0.00    -0.206 F 
ATOM     68  C   UNL A   1      41.852  26.506  36.684  1.00  0.00     0.040 A 
ATOM     69  C   UNL A   1      43.072  25.236  35.034  1.00  0.00     0.040 A 
ATOM     70  F   UNL A   1      43.619  26.228  32.974  1.00  0.00    -0.206 F 
ATOM     71  C   UNL A   1      42.458  25.313  36.282  1.00  0.00     0.006 A 
ENDBRANCH  50  64
BRANCH  51  72
ATOM     72  C   UNL A   1      36.710  34.303  32.767  1.00  0.00     0.057 A 
ATOM     73  C   UNL A   1      36.278  34.423  34.092  1.00  0.00     0.134 A 
ATOM     74  C   UNL A   1      35.692  34.289  31.792  1.00  0.00     0.134 A 
ATOM     75  F   UNL A   1      37.147  34.571  35.100  1.00  0.00    -0.206 F 
ATOM     76  C   UNL A   1      34.920  34.391  34.437  1.00  0.00     0.040 A 
ATOM     77  C   UNL A   1      34.334  34.277  32.119  1.00  0.00     0.040 A 
ATOM     78  F   UNL A   1      36.002  34.287  30.484  1.00  0.00    -0.206 F 
ATOM     79  C   UNL A   1      33.944  34.300  33.451  1.00  0.00     0.006 A 
ENDBRANCH  51  72
BRANCH  63  80
ATOM     80  C   UNL A   1      43.249  34.283  32.670  1.00  0.00     0.057 A 
ATOM     81  C   UNL A   1      43.847  35.308  33.413  1.00  0.00     0.134 A 
ATOM     82  C   UNL A   1      43.232  34.419  31.277  1.00  0.00     0.134 A 
ATOM     83  F   UNL A   1      43.924  35.238  34.752  1.00  0.00    -0.206 F 
ATOM     84  C   UNL A   1      44.372  36.446  32.797  1.00  0.00     0.040 A 
ATOM     85  C   UNL A   1      43.775  35.539  30.648  1.00  0.00     0.040 A 
ATOM     86  F   UNL A   1      42.669  33.473  30.508  1.00  0.00    -0.206 F 
ATOM     87  C   UNL A   1      44.338  36.563  31.409  1.00  0.00     0.006 A 
ENDBRANCH  63  80
ENDBRANCH  37  38
ENDBRANCH  29  32
ENDBRANCH  27  28
ENDBRANCH   1  27
TORSDOF 11
ENDMDL
MODEL 3
REMARK VINA RESULT:     -12.4      2.648      6.713
REMARK SMILES Cc1nc(N2CCCC[C@H]2C(=O)NCCCNC(=O)c2ccc(-c3c4nc(c(-c5c(F)cccc5F)c5ccc([nH]5)c(-c5c(F)cccc5F)c5nc(c(-c6c(F)cccc6F)c6ccc3[nH]6)C=C5)C=C4)cc2)c2oc3ccccc3c2n1
REMARK SMILES IDX 15 1 14 2 13 3 11 4 12 5 10 7 5 8 6 9 7 10 9 11 8 12 4 13
REMARK SMILES IDX 1 14 2 15 3 16 83 17 82 18 74 19 81 20 75 21 76 22 80 23
REMARK SMILES IDX 77 24 79 25 78 26 16 27 17 28 18 29 19 31 20 32 21 33 73 34
REMARK SMILES IDX 22 35 72 36 23 37 24 38 25 39 66 40 26 41 71 42 65 43 67 44
REMARK SMILES IDX 27 45 70 46 64 47 63 48 28 50 54 51 37 52 53 53 38 54 41 55
REMARK SMILES IDX 52 56 68 57 39 58 40 59 51 61 69 62 42 63 29 64 30 65 35 66
REMARK SMILES IDX 31 67 32 68 34 69 36 70 33 71 55 72 56 73 61 74 57 75 58 76
REMARK SMILES IDX 60 77 62 78 59 79 43 80 44 81 49 82 45 83 46 84 48 85 50 86
REMARK SMILES IDX 47 87
REMARK H PARENT 13 6 17 30 67 49 41 60
REMARK Flexibility Score: inf
ROOT
ATOM      1  C   UNL A   1      34.769  30.965  28.005  1.00  0.00     0.042 C 
ENDROOT
BRANCH   1   2
ATOM      2  C   UNL A   1      34.723  29.507  27.533  1.00  0.00     0.117 C 
BRANCH   2   3
ATOM      3  N   UNL A   1      33.419  28.917  27.774  1.00  0.00    -0.354 N 
ATOM      4  C   UNL A   1      32.570  28.163  27.025  1.00  0.00     0.242 C 
ATOM      5  O   UNL A   1      31.426  28.081  27.488  1.00  0.00    -0.273 OA
ATOM      6  H   UNL A   1      33.075  29.101  28.678  1.00  0.00     0.163 HD
BRANCH   4   7
ATOM      7  C   UNL A   1      33.024  27.411  25.741  1.00  0.00     0.173 C 
ATOM      8  N   UNL A   1      31.968  26.508  25.241  1.00  0.00    -0.341 N 
ATOM      9  C   UNL A   1      30.764  27.120  24.681  1.00  0.00     0.119 C 
ATOM     10  C   UNL A   1      31.162  27.951  23.470  1.00  0.00     0.022 C 
ATOM     11  C   UNL A   1      33.430  28.292  24.543  1.00  0.00     0.035 C 
ATOM     12  C   UNL A   1      32.244  28.961  23.842  1.00  0.00     0.004 C 
BRANCH   8  13
ATOM     13  C   UNL A   1      31.929  25.183  25.618  1.00  0.00     0.176 A 
ATOM     14  C   UNL A   1      29.596  22.833  27.254  1.00  0.00     0.090 C 
ATOM     15  C   UNL A   1      30.853  23.354  26.625  1.00  0.00     0.128 A 
ATOM     16  N   UNL A   1      30.881  24.676  26.318  1.00  0.00    -0.212 NA
ATOM     17  N   UNL A   1      31.814  22.440  26.372  1.00  0.00    -0.229 NA
ATOM     18  C   UNL A   1      32.892  22.960  25.741  1.00  0.00     0.123 A 
ATOM     19  C   UNL A   1      32.963  24.285  25.355  1.00  0.00     0.196 A 
ATOM     20  C   UNL A   1      34.119  22.359  25.350  1.00  0.00     0.047 A 
ATOM     21  O   UNL A   1      34.161  24.542  24.755  1.00  0.00    -0.450 OA
ATOM     22  C   UNL A   1      34.859  23.376  24.755  1.00  0.00     0.137 A 
ATOM     23  C   UNL A   1      34.697  21.079  25.439  1.00  0.00     0.014 A 
ATOM     24  C   UNL A   1      36.143  23.216  24.241  1.00  0.00     0.048 A 
ATOM     25  C   UNL A   1      35.991  20.887  24.930  1.00  0.00     0.001 A 
ATOM     26  C   UNL A   1      36.701  21.939  24.343  1.00  0.00     0.004 A 
ENDBRANCH   8  13
ENDBRANCH   4   7
ENDBRANCH   2   3
ENDBRANCH   1   2
BRANCH   1  27
ATOM     27  C   UNL A   1      35.896  31.277  28.995  1.00  0.00     0.118 C 
BRANCH  27  28
ATOM     28  N   UNL A   1      36.025  30.318  30.087  1.00  0.00    -0.352 N 
ATOM     29  C   UNL A   1      37.098  29.521  30.437  1.00  0.00     0.251 C 
ATOM     30  H   UNL A   1      35.228  30.224  30.658  1.00  0.00     0.163 HD
ATOM     31  O   UNL A   1      37.040  28.753  31.377  1.00  0.00    -0.269 OA
BRANCH  29  32
ATOM     32  C   UNL A   1      38.303  29.577  29.588  1.00  0.00     0.039 A 
ATOM     33  C   UNL A   1      38.263  29.076  28.284  1.00  0.00     0.014 A 
ATOM     34  C   UNL A   1      39.503  29.975  30.179  1.00  0.00     0.014 A 
ATOM     35  C   UNL A   1      39.458  28.772  27.648  1.00  0.00     0.010 A 
ATOM     36  C   UNL A   1      40.698  29.715  29.518  1.00  0.00     0.010 A 
ATOM     37  C   UNL A   1      40.674  29.038  28.291  1.00  0.00    -0.014 A 
BRANCH  37  38
ATOM     38  C   UNL A   1      41.894  28.488  27.685  1.00  0.00     0.031 A 
ATOM     39  C   UNL A   1      43.043  29.422  27.577  1.00  0.00     0.074 A 
ATOM     40  C   UNL A   1      42.167  27.169  27.781  1.00  0.00     0.049 A 
ATOM     41  N   UNL A   1      43.826  29.685  28.580  1.00  0.00    -0.248 NA
ATOM     42  C   UNL A   1      43.251  30.275  26.410  1.00  0.00     0.031 C 
ATOM     43  C   UNL A   1      41.681  26.302  28.865  1.00  0.00     0.029 A 
ATOM     44  N   UNL A   1      43.084  26.394  27.115  1.00  0.00    -0.354 N 
ATOM     45  C   UNL A   1      44.591  30.774  28.217  1.00  0.00     0.074 A 
ATOM     46  C   UNL A   1      44.215  31.095  26.856  1.00  0.00     0.031 C 
ATOM     47  C   UNL A   1      42.444  25.192  28.905  1.00  0.00     0.029 A 
ATOM     48  C   UNL A   1      43.338  25.184  27.753  1.00  0.00     0.049 A 
ATOM     49  H   UNL A   1      43.518  26.667  26.274  1.00  0.00     0.167 HD
ATOM     50  C   UNL A   1      45.477  31.369  29.055  1.00  0.00     0.037 A 
ATOM     51  C   UNL A   1      44.506  24.493  27.700  1.00  0.00     0.037 A 
ATOM     52  C   UNL A   1      45.620  30.779  30.350  1.00  0.00     0.049 A 
ATOM     53  C   UNL A   1      45.441  25.412  28.435  1.00  0.00     0.074 A 
ATOM     54  C   UNL A   1      45.064  30.946  31.600  1.00  0.00     0.029 A 
ATOM     55  N   UNL A   1      46.463  29.701  30.479  1.00  0.00    -0.354 N 
ATOM     56  N   UNL A   1      45.559  25.497  29.733  1.00  0.00    -0.248 NA
ATOM     57  C   UNL A   1      46.037  26.529  27.698  1.00  0.00     0.031 C 
ATOM     58  C   UNL A   1      45.265  29.703  32.279  1.00  0.00     0.029 A 
ATOM     59  C   UNL A   1      45.873  28.840  31.370  1.00  0.00     0.049 A 
ATOM     60  H   UNL A   1      47.325  29.572  30.020  1.00  0.00     0.167 HD
ATOM     61  C   UNL A   1      45.992  26.800  29.982  1.00  0.00     0.074 A 
ATOM     62  C   UNL A   1      46.305  27.368  28.688  1.00  0.00     0.031 C 
ATOM     63  C   UNL A   1      45.883  27.405  31.201  1.00  0.00     0.037 A 
BRANCH  50  64
ATOM     64  C   UNL A   1      46.354  32.478  28.654  1.00  0.00     0.057 A 
ATOM     65  C   UNL A   1      47.531  32.271  27.934  1.00  0.00     0.134 A 
ATOM     66  C   UNL A   1      45.912  33.792  28.837  1.00  0.00     0.134 A 
ATOM     67  F   UNL A   1      47.992  31.029  27.723  1.00  0.00    -0.206 F 
ATOM     68  C   UNL A   1      48.233  33.345  27.384  1.00  0.00     0.040 A 
ATOM     69  C   UNL A   1      46.600  34.872  28.292  1.00  0.00     0.040 A 
ATOM     70  F   UNL A   1      44.776  34.033  29.513  1.00  0.00    -0.206 F 
ATOM     71  C   UNL A   1      47.759  34.648  27.552  1.00  0.00     0.006 A 
ENDBRANCH  50  64
BRANCH  51  72
ATOM     72  C   UNL A   1      44.802  23.870  26.375  1.00  0.00     0.057 A 
ATOM     73  C   UNL A   1      46.069  23.714  25.802  1.00  0.00     0.134 A 
ATOM     74  C   UNL A   1      43.724  23.369  25.617  1.00  0.00     0.134 A 
ATOM     75  F   UNL A   1      47.183  24.036  26.471  1.00  0.00    -0.206 F 
ATOM     76  C   UNL A   1      46.242  23.219  24.503  1.00  0.00     0.040 A 
ATOM     77  C   UNL A   1      43.882  22.854  24.328  1.00  0.00     0.040 A 
ATOM     78  F   UNL A   1      42.478  23.370  26.122  1.00  0.00    -0.206 F 
ATOM     79  C   UNL A   1      45.145  22.804  23.755  1.00  0.00     0.006 A 
ENDBRANCH  51  72
BRANCH  63  80
ATOM     80  C   UNL A   1      45.473  26.512  32.319  1.00  0.00     0.057 A 
ATOM     81  C   UNL A   1      44.133  26.368  32.702  1.00  0.00     0.134 A 
ATOM     82  C   UNL A   1      46.432  25.788  33.036  1.00  0.00     0.134 A 
ATOM     83  F   UNL A   1      43.153  27.012  32.047  1.00  0.00    -0.206 F 
ATOM     84  C   UNL A   1      43.765  25.565  33.784  1.00  0.00     0.040 A 
ATOM     85  C   UNL A   1      46.074  24.962  34.103  1.00  0.00     0.040 A 
ATOM     86  F   UNL A   1      47.734  25.887  32.723  1.00  0.00    -0.206 F 
ATOM     87  C   UNL A   1      44.738  24.858  34.486  1.00  0.00     0.006 A 
ENDBRANCH  63  80
ENDBRANCH  37  38
ENDBRANCH  29  32
ENDBRANCH  27  28
ENDBRANCH   1  27
TORSDOF 11
ENDMDL
