MODEL 1
REMARK VINA RESULT:     -10.8      0.000      0.000
REMARK SMILES N#CCNC(=O)C[N@@H+]1CCO[C@H](CC(=O)NCCCNC(=O)c2ccc(-c3c4nc(c(-c5c(F)cccc5F)c5ccc([nH]5)c(-c5c(F)cccc5F)c5nc(c(-c6c(F)cccc6F)c6ccc3[nH]6)C=C5)C=C4)cc2)C1
REMARK SMILES IDX 14 1 15 2 16 3 13 5 12 6 8 7 9 8 77 9 10 11 11 12 7 13 5 14
REMARK SMILES IDX 4 15 6 17 3 18 2 19 1 20 17 21 18 22 19 23 20 24 21 25 22 27
REMARK SMILES IDX 23 28 24 29 76 30 25 31 75 32 26 33 27 34 28 35 69 36 29 37
REMARK SMILES IDX 74 38 68 39 70 40 30 41 73 42 67 43 66 44 31 46 57 47 40 48
REMARK SMILES IDX 56 49 41 50 44 51 55 52 71 53 42 54 43 55 54 57 72 58 45 59
REMARK SMILES IDX 32 60 33 61 38 62 34 63 35 64 37 65 39 66 36 67 58 68 59 69
REMARK SMILES IDX 64 70 60 71 61 72 63 73 65 74 62 75 46 76 47 77 52 78 48 79
REMARK SMILES IDX 49 80 51 81 53 82 50 83
REMARK H PARENT 16 4 8 10 4 16 20 26 70 45 44 56
REMARK Flexibility Score: inf
ROOT
ATOM      1  C   UNL A   1      32.903  28.940  27.104  1.00  0.00     0.222 C 
ATOM      2  O   UNL A   1      33.975  28.624  27.617  1.00  0.00    -0.275 OA
ATOM      3  N   UNL A   1      32.736  30.201  26.614  1.00  0.00    -0.356 N 
ATOM      4  H   UNL A   1      33.539  30.771  26.619  1.00  0.00     0.163 HD
ENDROOT
BRANCH   1   5
ATOM      5  C   UNL A   1      31.753  27.968  27.028  1.00  0.00     0.138 C 
BRANCH   5   6
ATOM      6  C   UNL A   1      32.167  26.711  26.267  1.00  0.00     0.182 C 
ATOM      7  N   UNL A   1      30.993  26.864  24.007  1.00  0.00    -0.323 N 
ATOM      8  C   UNL A   1      30.170  25.730  24.469  1.00  0.00     0.291 C 
ATOM      9  C   UNL A   1      32.265  26.885  24.742  1.00  0.00     0.295 C 
ATOM     10  H   UNL A   1      31.217  26.733  23.021  1.00  0.00     0.348 HD
ATOM     11  C   UNL A   1      30.051  25.645  26.000  1.00  0.00     0.222 C 
ATOM     12  O   UNL A   1      31.338  25.594  26.626  1.00  0.00    -0.366 OA
BRANCH   7  13
ATOM     13  C   UNL A   1      30.259  28.140  24.041  1.00  0.00     0.363 C 
BRANCH  13  14
ATOM     14  C   UNL A   1      30.217  28.727  22.633  1.00  0.00     0.276 C 
ATOM     15  N   UNL A   1      29.642  29.954  22.460  1.00  0.00    -0.338 N 
ATOM     16  H   UNL A   1      29.577  30.281  21.533  1.00  0.00     0.164 HD
ATOM     17  O   UNL A   1      30.650  28.117  21.656  1.00  0.00    -0.268 OA
BRANCH  15  18
ATOM     18  C   UNL A   1      29.114  30.832  23.491  1.00  0.00     0.237 C 
BRANCH  18  19
ATOM     19  C   UNL A   1      28.726  32.189  22.927  1.00  0.00     0.084 C 
ATOM     20  N   UNL A   1      28.404  33.315  22.459  1.00  0.00    -0.196 NA
ENDBRANCH  18  19
ENDBRANCH  15  18
ENDBRANCH  13  14
ENDBRANCH   7  13
ENDBRANCH   5   6
ENDBRANCH   1   5
BRANCH   3  21
ATOM     21  C   UNL A   1      31.527  30.814  26.085  1.00  0.00     0.117 C 
BRANCH  21  22
ATOM     22  C   UNL A   1      31.398  32.276  26.505  1.00  0.00     0.042 C 
BRANCH  22  23
ATOM     23  C   UNL A   1      32.605  32.804  27.264  1.00  0.00     0.118 C 
BRANCH  23  24
ATOM     24  N   UNL A   1      32.453  34.204  27.625  1.00  0.00    -0.352 N 
ATOM     25  C   UNL A   1      33.051  34.912  28.633  1.00  0.00     0.251 C 
ATOM     26  H   UNL A   1      31.829  34.718  27.063  1.00  0.00     0.163 HD
ATOM     27  O   UNL A   1      32.633  36.033  28.915  1.00  0.00    -0.269 OA
BRANCH  25  28
ATOM     28  C   UNL A   1      34.190  34.341  29.381  1.00  0.00     0.039 A 
ATOM     29  C   UNL A   1      35.476  34.471  28.850  1.00  0.00     0.014 A 
ATOM     30  C   UNL A   1      33.991  33.627  30.568  1.00  0.00     0.014 A 
ATOM     31  C   UNL A   1      36.564  33.908  29.518  1.00  0.00     0.010 A 
ATOM     32  C   UNL A   1      35.084  33.129  31.271  1.00  0.00     0.010 A 
ATOM     33  C   UNL A   1      36.377  33.241  30.738  1.00  0.00    -0.014 A 
BRANCH  33  34
ATOM     34  C   UNL A   1      37.511  32.593  31.439  1.00  0.00     0.031 A 
ATOM     35  C   UNL A   1      38.230  31.444  30.786  1.00  0.00     0.074 A 
ATOM     36  C   UNL A   1      37.862  33.000  32.673  1.00  0.00     0.049 A 
ATOM     37  N   UNL A   1      39.191  30.691  31.258  1.00  0.00    -0.248 NA
ATOM     38  C   UNL A   1      37.790  31.074  29.431  1.00  0.00     0.031 C 
ATOM     39  C   UNL A   1      37.217  34.075  33.427  1.00  0.00     0.029 A 
ATOM     40  N   UNL A   1      38.847  32.547  33.513  1.00  0.00    -0.354 N 
ATOM     41  C   UNL A   1      39.448  29.746  30.273  1.00  0.00     0.074 A 
ATOM     42  C   UNL A   1      38.515  29.990  29.195  1.00  0.00     0.031 C 
ATOM     43  C   UNL A   1      37.835  34.211  34.613  1.00  0.00     0.029 A 
ATOM     44  C   UNL A   1      38.899  33.215  34.711  1.00  0.00     0.049 A 
ATOM     45  H   UNL A   1      39.458  31.811  33.280  1.00  0.00     0.167 HD
ATOM     46  C   UNL A   1      40.391  28.775  30.259  1.00  0.00     0.037 A 
ATOM     47  C   UNL A   1      39.713  33.044  35.768  1.00  0.00     0.037 A 
ATOM     48  C   UNL A   1      41.349  28.563  31.310  1.00  0.00     0.049 A 
ATOM     49  C   UNL A   1      40.777  31.982  35.711  1.00  0.00     0.074 A 
ATOM     50  C   UNL A   1      42.379  27.642  31.367  1.00  0.00     0.029 A 
ATOM     51  N   UNL A   1      41.398  29.294  32.487  1.00  0.00    -0.354 N 
ATOM     52  N   UNL A   1      41.039  31.126  34.755  1.00  0.00    -0.248 NA
ATOM     53  C   UNL A   1      41.663  31.871  36.879  1.00  0.00     0.031 C 
ATOM     54  C   UNL A   1      43.039  27.800  32.590  1.00  0.00     0.029 A 
ATOM     55  C   UNL A   1      42.439  28.841  33.280  1.00  0.00     0.049 A 
ATOM     56  H   UNL A   1      40.783  30.025  32.725  1.00  0.00     0.167 HD
ATOM     57  C   UNL A   1      42.138  30.396  35.189  1.00  0.00     0.074 A 
ATOM     58  C   UNL A   1      42.498  30.915  36.493  1.00  0.00     0.031 C 
ATOM     59  C   UNL A   1      42.791  29.386  34.565  1.00  0.00     0.037 A 
BRANCH  46  60
ATOM     60  C   UNL A   1      40.435  27.875  29.059  1.00  0.00     0.057 A 
ATOM     61  C   UNL A   1      39.677  26.701  28.989  1.00  0.00     0.134 A 
ATOM     62  C   UNL A   1      41.228  28.200  27.952  1.00  0.00     0.134 A 
ATOM     63  F   UNL A   1      38.909  26.325  30.024  1.00  0.00    -0.206 F 
ATOM     64  C   UNL A   1      39.723  25.867  27.871  1.00  0.00     0.040 A 
ATOM     65  C   UNL A   1      41.265  27.388  26.817  1.00  0.00     0.040 A 
ATOM     66  F   UNL A   1      41.976  29.314  27.952  1.00  0.00    -0.206 F 
ATOM     67  C   UNL A   1      40.515  26.214  26.778  1.00  0.00     0.006 A 
ENDBRANCH  46  60
BRANCH  47  68
ATOM     68  C   UNL A   1      39.580  33.919  36.958  1.00  0.00     0.057 A 
ATOM     69  C   UNL A   1      38.819  33.519  38.062  1.00  0.00     0.134 A 
ATOM     70  C   UNL A   1      40.203  35.170  37.019  1.00  0.00     0.134 A 
ATOM     71  F   UNL A   1      38.185  32.337  38.052  1.00  0.00    -0.206 F 
ATOM     72  C   UNL A   1      38.664  34.341  39.179  1.00  0.00     0.040 A 
ATOM     73  C   UNL A   1      40.074  35.994  38.139  1.00  0.00     0.040 A 
ATOM     74  F   UNL A   1      40.952  35.604  35.996  1.00  0.00    -0.206 F 
ATOM     75  C   UNL A   1      39.296  35.583  39.221  1.00  0.00     0.006 A 
ENDBRANCH  47  68
BRANCH  59  76
ATOM     76  C   UNL A   1      43.987  28.811  35.261  1.00  0.00     0.057 A 
ATOM     77  C   UNL A   1      45.277  29.309  35.046  1.00  0.00     0.134 A 
ATOM     78  C   UNL A   1      43.836  27.773  36.188  1.00  0.00     0.134 A 
ATOM     79  F   UNL A   1      45.486  30.296  34.160  1.00  0.00    -0.206 F 
ATOM     80  C   UNL A   1      46.381  28.780  35.715  1.00  0.00     0.040 A 
ATOM     81  C   UNL A   1      44.930  27.250  36.879  1.00  0.00     0.040 A 
ATOM     82  F   UNL A   1      42.624  27.257  36.445  1.00  0.00    -0.206 F 
ATOM     83  C   UNL A   1      46.208  27.752  36.640  1.00  0.00     0.006 A 
ENDBRANCH  59  76
ENDBRANCH  33  34
ENDBRANCH  25  28
ENDBRANCH  23  24
ENDBRANCH  22  23
ENDBRANCH  21  22
ENDBRANCH   3  21
TORSDOF 15
ENDMDL
MODEL 2
REMARK VINA RESULT:     -10.6      1.741      3.361
REMARK SMILES N#CCNC(=O)C[N@@H+]1CCO[C@H](CC(=O)NCCCNC(=O)c2ccc(-c3c4nc(c(-c5c(F)cccc5F)c5ccc([nH]5)c(-c5c(F)cccc5F)c5nc(c(-c6c(F)cccc6F)c6ccc3[nH]6)C=C5)C=C4)cc2)C1
REMARK SMILES IDX 14 1 15 2 16 3 13 5 12 6 8 7 9 8 77 9 10 11 11 12 7 13 5 14
REMARK SMILES IDX 4 15 6 17 3 18 2 19 1 20 17 21 18 22 19 23 20 24 21 25 22 27
REMARK SMILES IDX 23 28 24 29 76 30 25 31 75 32 26 33 27 34 28 35 69 36 29 37
REMARK SMILES IDX 74 38 68 39 70 40 30 41 73 42 67 43 66 44 31 46 57 47 40 48
REMARK SMILES IDX 56 49 41 50 44 51 55 52 71 53 42 54 43 55 54 57 72 58 45 59
REMARK SMILES IDX 32 60 33 61 38 62 34 63 35 64 37 65 39 66 36 67 58 68 59 69
REMARK SMILES IDX 64 70 60 71 61 72 63 73 65 74 62 75 46 76 47 77 52 78 48 79
REMARK SMILES IDX 49 80 51 81 53 82 50 83
REMARK H PARENT 16 4 8 10 4 16 20 26 70 45 44 56
REMARK Flexibility Score: inf
ROOT
ATOM      1  C   UNL A   1      31.641  28.053  26.702  1.00  0.00     0.222 C 
ATOM      2  O   UNL A   1      31.431  27.280  27.634  1.00  0.00    -0.275 OA
ATOM      3  N   UNL A   1      31.561  29.398  26.910  1.00  0.00    -0.356 N 
ATOM      4  H   UNL A   1      31.424  29.678  27.844  1.00  0.00     0.163 HD
ENDROOT
BRANCH   1   5
ATOM      5  C   UNL A   1      31.962  27.546  25.318  1.00  0.00     0.138 C 
BRANCH   5   6
ATOM      6  C   UNL A   1      30.678  27.277  24.538  1.00  0.00     0.182 C 
ATOM      7  N   UNL A   1      30.296  24.759  24.702  1.00  0.00    -0.323 N 
ATOM      8  C   UNL A   1      30.610  24.718  23.260  1.00  0.00     0.291 C 
ATOM      9  C   UNL A   1      29.836  26.105  25.070  1.00  0.00     0.295 C 
ATOM     10  H   UNL A   1      29.529  24.115  24.894  1.00  0.00     0.348 HD
ATOM     11  C   UNL A   1      31.511  25.876  22.798  1.00  0.00     0.222 C 
ATOM     12  O   UNL A   1      30.946  27.149  23.132  1.00  0.00    -0.366 OA
BRANCH   7  13
ATOM     13  C   UNL A   1      31.403  24.257  25.531  1.00  0.00     0.363 C 
BRANCH  13  14
ATOM     14  C   UNL A   1      30.881  23.143  26.435  1.00  0.00     0.276 C 
ATOM     15  N   UNL A   1      31.226  21.855  26.141  1.00  0.00    -0.338 N 
ATOM     16  H   UNL A   1      30.827  21.154  26.707  1.00  0.00     0.164 HD
ATOM     17  O   UNL A   1      30.137  23.369  27.389  1.00  0.00    -0.268 OA
BRANCH  15  18
ATOM     18  C   UNL A   1      32.116  21.401  25.086  1.00  0.00     0.237 C 
BRANCH  18  19
ATOM     19  C   UNL A   1      32.304  19.893  25.120  1.00  0.00     0.084 C 
ATOM     20  N   UNL A   1      32.459  18.642  25.148  1.00  0.00    -0.196 NA
ENDBRANCH  18  19
ENDBRANCH  15  18
ENDBRANCH  13  14
ENDBRANCH   7  13
ENDBRANCH   5   6
ENDBRANCH   1   5
BRANCH   3  21
ATOM     21  C   UNL A   1      31.650  30.472  25.933  1.00  0.00     0.117 C 
BRANCH  21  22
ATOM     22  C   UNL A   1      31.459  31.845  26.575  1.00  0.00     0.042 C 
BRANCH  22  23
ATOM     23  C   UNL A   1      32.753  32.479  27.060  1.00  0.00     0.118 C 
BRANCH  23  24
ATOM     24  N   UNL A   1      32.556  33.851  27.498  1.00  0.00    -0.352 N 
ATOM     25  C   UNL A   1      33.142  34.525  28.536  1.00  0.00     0.251 C 
ATOM     26  H   UNL A   1      31.908  34.372  26.971  1.00  0.00     0.163 HD
ATOM     27  O   UNL A   1      32.689  35.614  28.883  1.00  0.00    -0.269 OA
BRANCH  25  28
ATOM     28  C   UNL A   1      34.309  33.955  29.241  1.00  0.00     0.039 A 
ATOM     29  C   UNL A   1      35.590  34.348  28.845  1.00  0.00     0.014 A 
ATOM     30  C   UNL A   1      34.150  32.992  30.245  1.00  0.00     0.014 A 
ATOM     31  C   UNL A   1      36.710  33.796  29.469  1.00  0.00     0.010 A 
ATOM     32  C   UNL A   1      35.264  32.498  30.915  1.00  0.00     0.010 A 
ATOM     33  C   UNL A   1      36.555  32.874  30.515  1.00  0.00    -0.014 A 
BRANCH  33  34
ATOM     34  C   UNL A   1      37.730  32.239  31.158  1.00  0.00     0.031 A 
ATOM     35  C   UNL A   1      38.479  31.154  30.431  1.00  0.00     0.074 A 
ATOM     36  C   UNL A   1      38.094  32.598  32.402  1.00  0.00     0.049 A 
ATOM     37  N   UNL A   1      39.479  30.419  30.844  1.00  0.00    -0.248 NA
ATOM     38  C   UNL A   1      38.021  30.835  29.069  1.00  0.00     0.031 C 
ATOM     39  C   UNL A   1      37.424  33.607  33.224  1.00  0.00     0.029 A 
ATOM     40  N   UNL A   1      39.115  32.144  33.197  1.00  0.00    -0.354 N 
ATOM     41  C   UNL A   1      39.750  29.535  29.807  1.00  0.00     0.074 A 
ATOM     42  C   UNL A   1      38.784  29.795  28.763  1.00  0.00     0.031 C 
ATOM     43  C   UNL A   1      38.064  33.708  34.401  1.00  0.00     0.029 A 
ATOM     44  C   UNL A   1      39.169  32.754  34.426  1.00  0.00     0.049 A 
ATOM     45  H   UNL A   1      39.750  31.446  32.914  1.00  0.00     0.167 HD
ATOM     46  C   UNL A   1      40.731  28.605  29.723  1.00  0.00     0.037 A 
ATOM     47  C   UNL A   1      40.014  32.563  35.455  1.00  0.00     0.037 A 
ATOM     48  C   UNL A   1      41.721  28.381  30.741  1.00  0.00     0.049 A 
ATOM     49  C   UNL A   1      41.117  31.550  35.322  1.00  0.00     0.074 A 
ATOM     50  C   UNL A   1      42.788  27.501  30.729  1.00  0.00     0.029 A 
ATOM     51  N   UNL A   1      41.768  29.053  31.953  1.00  0.00    -0.354 N 
ATOM     52  N   UNL A   1      41.391  30.754  34.317  1.00  0.00    -0.248 NA
ATOM     53  C   UNL A   1      42.035  31.417  36.463  1.00  0.00     0.031 C 
ATOM     54  C   UNL A   1      43.470  27.624  31.944  1.00  0.00     0.029 A 
ATOM     55  C   UNL A   1      42.845  28.605  32.698  1.00  0.00     0.049 A 
ATOM     56  H   UNL A   1      41.131  29.746  32.240  1.00  0.00     0.167 HD
ATOM     57  C   UNL A   1      42.527  30.049  34.690  1.00  0.00     0.074 A 
ATOM     58  C   UNL A   1      42.897  30.517  36.011  1.00  0.00     0.031 C 
ATOM     59  C   UNL A   1      43.206  29.099  34.002  1.00  0.00     0.037 A 
BRANCH  46  60
ATOM     60  C   UNL A   1      40.782  27.770  28.478  1.00  0.00     0.057 A 
ATOM     61  C   UNL A   1      40.091  26.557  28.375  1.00  0.00     0.134 A 
ATOM     62  C   UNL A   1      41.514  28.195  27.362  1.00  0.00     0.134 A 
ATOM     63  F   UNL A   1      39.385  26.086  29.415  1.00  0.00    -0.206 F 
ATOM     64  C   UNL A   1      40.144  25.783  27.215  1.00  0.00     0.040 A 
ATOM     65  C   UNL A   1      41.555  27.442  26.188  1.00  0.00     0.040 A 
ATOM     66  F   UNL A   1      42.195  29.350  27.393  1.00  0.00    -0.206 F 
ATOM     67  C   UNL A   1      40.873  26.229  26.114  1.00  0.00     0.006 A 
ENDBRANCH  46  60
BRANCH  47  68
ATOM     68  C   UNL A   1      39.874  33.371  36.691  1.00  0.00     0.057 A 
ATOM     69  C   UNL A   1      39.017  32.967  37.721  1.00  0.00     0.134 A 
ATOM     70  C   UNL A   1      40.585  34.562  36.869  1.00  0.00     0.134 A 
ATOM     71  F   UNL A   1      38.297  31.842  37.597  1.00  0.00    -0.206 F 
ATOM     72  C   UNL A   1      38.857  33.729  38.878  1.00  0.00     0.040 A 
ATOM     73  C   UNL A   1      40.450  35.324  38.032  1.00  0.00     0.040 A 
ATOM     74  F   UNL A   1      41.428  34.997  35.922  1.00  0.00    -0.206 F 
ATOM     75  C   UNL A   1      39.578  34.911  39.038  1.00  0.00     0.006 A 
ENDBRANCH  47  68
BRANCH  59  76
ATOM     76  C   UNL A   1      44.439  28.539  34.642  1.00  0.00     0.057 A 
ATOM     77  C   UNL A   1      44.403  27.376  35.421  1.00  0.00     0.134 A 
ATOM     78  C   UNL A   1      45.683  29.149  34.442  1.00  0.00     0.134 A 
ATOM     79  F   UNL A   1      43.238  26.753  35.658  1.00  0.00    -0.206 F 
ATOM     80  C   UNL A   1      45.560  26.851  35.996  1.00  0.00     0.040 A 
ATOM     81  C   UNL A   1      46.850  28.621  34.994  1.00  0.00     0.040 A 
ATOM     82  F   UNL A   1      45.785  30.262  33.699  1.00  0.00    -0.206 F 
ATOM     83  C   UNL A   1      46.789  27.470  35.777  1.00  0.00     0.006 A 
ENDBRANCH  59  76
ENDBRANCH  33  34
ENDBRANCH  25  28
ENDBRANCH  23  24
ENDBRANCH  22  23
ENDBRANCH  21  22
ENDBRANCH   3  21
TORSDOF 15
ENDMDL
MODEL 3
REMARK VINA RESULT:     -10.6      1.970      7.177
REMARK SMILES N#CCNC(=O)C[N@@H+]1CCO[C@H](CC(=O)NCCCNC(=O)c2ccc(-c3c4nc(c(-c5c(F)cccc5F)c5ccc([nH]5)c(-c5c(F)cccc5F)c5nc(c(-c6c(F)cccc6F)c6ccc3[nH]6)C=C5)C=C4)cc2)C1
REMARK SMILES IDX 14 1 15 2 16 3 13 5 12 6 8 7 9 8 77 9 10 11 11 12 7 13 5 14
REMARK SMILES IDX 4 15 6 17 3 18 2 19 1 20 17 21 18 22 19 23 20 24 21 25 22 27
REMARK SMILES IDX 23 28 24 29 76 30 25 31 75 32 26 33 27 34 28 35 69 36 29 37
REMARK SMILES IDX 74 38 68 39 70 40 30 41 73 42 67 43 66 44 31 46 57 47 40 48
REMARK SMILES IDX 56 49 41 50 44 51 55 52 71 53 42 54 43 55 54 57 72 58 45 59
REMARK SMILES IDX 32 60 33 61 38 62 34 63 35 64 37 65 39 66 36 67 58 68 59 69
REMARK SMILES IDX 64 70 60 71 61 72 63 73 65 74 62 75 46 76 47 77 52 78 48 79
REMARK SMILES IDX 49 80 51 81 53 82 50 83
REMARK H PARENT 16 4 8 10 4 16 20 26 70 45 44 56
REMARK Flexibility Score: inf
ROOT
ATOM      1  C   UNL A   1      32.484  28.955  24.384  1.00  0.00     0.222 C 
ATOM      2  O   UNL A   1      33.243  28.974  23.417  1.00  0.00    -0.275 OA
ATOM      3  N   UNL A   1      32.197  30.116  25.039  1.00  0.00    -0.356 N 
ATOM      4  H   UNL A   1      32.556  30.936  24.630  1.00  0.00     0.163 HD
ENDROOT
BRANCH   1   5
ATOM      5  C   UNL A   1      31.879  27.666  24.881  1.00  0.00     0.138 C 
BRANCH   5   6
ATOM      6  C   UNL A   1      30.655  27.296  24.046  1.00  0.00     0.182 C 
ATOM      7  N   UNL A   1      30.160  24.857  24.604  1.00  0.00    -0.323 N 
ATOM      8  C   UNL A   1      30.593  24.556  23.226  1.00  0.00     0.291 C 
ATOM      9  C   UNL A   1      29.725  26.257  24.693  1.00  0.00     0.295 C 
ATOM     10  H   UNL A   1      29.355  24.275  24.835  1.00  0.00     0.348 HD
ATOM     11  C   UNL A   1      31.575  25.593  22.655  1.00  0.00     0.222 C 
ATOM     12  O   UNL A   1      31.036  26.918  22.713  1.00  0.00    -0.366 OA
BRANCH   7  13
ATOM     13  C   UNL A   1      31.172  24.479  25.604  1.00  0.00     0.363 C 
BRANCH  13  14
ATOM     14  C   UNL A   1      30.641  23.314  26.435  1.00  0.00     0.276 C 
ATOM     15  N   UNL A   1      31.011  22.047  26.084  1.00  0.00    -0.338 N 
ATOM     16  H   UNL A   1      30.606  21.313  26.601  1.00  0.00     0.164 HD
ATOM     17  O   UNL A   1      29.868  23.481  27.378  1.00  0.00    -0.268 OA
BRANCH  15  18
ATOM     18  C   UNL A   1      31.936  21.659  25.032  1.00  0.00     0.237 C 
BRANCH  18  19
ATOM     19  C   UNL A   1      32.200  20.162  25.040  1.00  0.00     0.084 C 
ATOM     20  N   UNL A   1      32.418  18.921  25.047  1.00  0.00    -0.196 NA
ENDBRANCH  18  19
ENDBRANCH  15  18
ENDBRANCH  13  14
ENDBRANCH   7  13
ENDBRANCH   5   6
ENDBRANCH   1   5
BRANCH   3  21
ATOM     21  C   UNL A   1      31.433  30.298  26.263  1.00  0.00     0.117 C 
BRANCH  21  22
ATOM     22  C   UNL A   1      31.283  31.774  26.627  1.00  0.00     0.042 C 
BRANCH  22  23
ATOM     23  C   UNL A   1      32.591  32.548  26.597  1.00  0.00     0.118 C 
BRANCH  23  24
ATOM     24  N   UNL A   1      32.485  33.825  27.281  1.00  0.00    -0.352 N 
ATOM     25  C   UNL A   1      33.160  34.282  28.382  1.00  0.00     0.251 C 
ATOM     26  H   UNL A   1      31.833  34.455  26.897  1.00  0.00     0.163 HD
ATOM     27  O   UNL A   1      32.779  35.307  28.944  1.00  0.00    -0.269 OA
BRANCH  25  28
ATOM     28  C   UNL A   1      34.337  33.553  28.899  1.00  0.00     0.039 A 
ATOM     29  C   UNL A   1      34.139  32.331  29.547  1.00  0.00     0.014 A 
ATOM     30  C   UNL A   1      35.624  34.095  28.802  1.00  0.00     0.014 A 
ATOM     31  C   UNL A   1      35.230  31.641  30.078  1.00  0.00     0.010 A 
ATOM     32  C   UNL A   1      36.718  33.372  29.266  1.00  0.00     0.010 A 
ATOM     33  C   UNL A   1      36.528  32.152  29.932  1.00  0.00    -0.014 A 
BRANCH  33  34
ATOM     34  C   UNL A   1      37.696  31.461  30.531  1.00  0.00     0.031 A 
ATOM     35  C   UNL A   1      38.093  31.766  31.949  1.00  0.00     0.074 A 
ATOM     36  C   UNL A   1      38.422  30.602  29.792  1.00  0.00     0.049 A 
ATOM     37  N   UNL A   1      39.122  31.333  32.633  1.00  0.00    -0.248 NA
ATOM     38  C   UNL A   1      37.235  32.706  32.688  1.00  0.00     0.031 C 
ATOM     39  C   UNL A   1      38.161  30.254  28.394  1.00  0.00     0.029 A 
ATOM     40  N   UNL A   1      39.536  29.871  30.115  1.00  0.00    -0.354 N 
ATOM     41  C   UNL A   1      39.049  31.968  33.866  1.00  0.00     0.074 A 
ATOM     42  C   UNL A   1      37.902  32.848  33.824  1.00  0.00     0.031 C 
ATOM     43  C   UNL A   1      39.080  29.363  27.986  1.00  0.00     0.029 A 
ATOM     44  C   UNL A   1      40.008  29.100  29.083  1.00  0.00     0.049 A 
ATOM     45  H   UNL A   1      39.960  29.899  31.004  1.00  0.00     0.167 HD
ATOM     46  C   UNL A   1      39.853  31.816  34.945  1.00  0.00     0.037 A 
ATOM     47  C   UNL A   1      41.069  28.274  29.028  1.00  0.00     0.037 A 
ATOM     48  C   UNL A   1      40.964  30.905  35.002  1.00  0.00     0.049 A 
ATOM     49  C   UNL A   1      41.923  28.094  30.252  1.00  0.00     0.074 A 
ATOM     50  C   UNL A   1      41.807  30.637  36.066  1.00  0.00     0.029 A 
ATOM     51  N   UNL A   1      41.380  30.106  33.948  1.00  0.00    -0.354 N 
ATOM     52  N   UNL A   1      41.815  28.665  31.426  1.00  0.00    -0.248 NA
ATOM     53  C   UNL A   1      43.042  27.146  30.143  1.00  0.00     0.031 C 
ATOM     54  C   UNL A   1      42.748  29.689  35.649  1.00  0.00     0.029 A 
ATOM     55  C   UNL A   1      42.470  29.346  34.336  1.00  0.00     0.049 A 
ATOM     56  H   UNL A   1      40.962  30.083  33.057  1.00  0.00     0.167 HD
ATOM     57  C   UNL A   1      42.829  28.125  32.206  1.00  0.00     0.074 A 
ATOM     58  C   UNL A   1      43.538  27.175  31.373  1.00  0.00     0.031 C 
ATOM     59  C   UNL A   1      43.147  28.391  33.496  1.00  0.00     0.037 A 
BRANCH  46  60
ATOM     60  C   UNL A   1      39.547  32.648  36.155  1.00  0.00     0.057 A 
ATOM     61  C   UNL A   1      40.157  33.890  36.369  1.00  0.00     0.134 A 
ATOM     62  C   UNL A   1      38.614  32.213  37.105  1.00  0.00     0.134 A 
ATOM     63  F   UNL A   1      41.071  34.356  35.505  1.00  0.00    -0.206 F 
ATOM     64  C   UNL A   1      39.870  34.659  37.498  1.00  0.00     0.040 A 
ATOM     65  C   UNL A   1      38.301  32.984  38.225  1.00  0.00     0.040 A 
ATOM     66  F   UNL A   1      37.991  31.034  36.958  1.00  0.00    -0.206 F 
ATOM     67  C   UNL A   1      38.934  34.209  38.426  1.00  0.00     0.006 A 
ENDBRANCH  46  60
BRANCH  47  68
ATOM     68  C   UNL A   1      41.364  27.526  27.782  1.00  0.00     0.057 A 
ATOM     69  C   UNL A   1      40.854  26.238  27.579  1.00  0.00     0.134 A 
ATOM     70  C   UNL A   1      42.160  28.074  26.771  1.00  0.00     0.134 A 
ATOM     71  F   UNL A   1      40.099  25.656  28.522  1.00  0.00    -0.206 F 
ATOM     72  C   UNL A   1      41.143  25.512  26.423  1.00  0.00     0.040 A 
ATOM     73  C   UNL A   1      42.440  27.367  25.600  1.00  0.00     0.040 A 
ATOM     74  F   UNL A   1      42.670  29.306  26.903  1.00  0.00    -0.206 F 
ATOM     75  C   UNL A   1      41.935  26.079  25.427  1.00  0.00     0.006 A 
ENDBRANCH  47  68
BRANCH  59  76
ATOM     76  C   UNL A   1      44.277  27.612  34.098  1.00  0.00     0.057 A 
ATOM     77  C   UNL A   1      45.593  28.089  34.082  1.00  0.00     0.134 A 
ATOM     78  C   UNL A   1      44.035  26.390  34.737  1.00  0.00     0.134 A 
ATOM     79  F   UNL A   1      45.888  29.249  33.475  1.00  0.00    -0.206 F 
ATOM     80  C   UNL A   1      46.634  27.367  34.663  1.00  0.00     0.040 A 
ATOM     81  C   UNL A   1      45.066  25.669  35.341  1.00  0.00     0.040 A 
ATOM     82  F   UNL A   1      42.794  25.883  34.793  1.00  0.00    -0.206 F 
ATOM     83  C   UNL A   1      46.371  26.155  35.301  1.00  0.00     0.006 A 
ENDBRANCH  59  76
ENDBRANCH  33  34
ENDBRANCH  25  28
ENDBRANCH  23  24
ENDBRANCH  22  23
ENDBRANCH  21  22
ENDBRANCH   3  21
TORSDOF 15
ENDMDL
