MODEL 1
REMARK VINA RESULT:     -14.4      0.000      0.000
REMARK SMILES C[C@@H](NC(=O)CCCN1C(=O)/C(=C/c2c3ccccc3cc3ccccc23)SC1=S)C(=O)NCCCNC(=O)c1ccc(-c2c3nc(c(-c4c(F)cccc4F)c4ccc([nH]4)c(-c4c(F)cccc4F)c4nc(c(-c5c(F)cccc5F)c5ccc2[nH]5)C=C4)C=C3)cc1
REMARK SMILES IDX 31 1 32 2 33 3 2 5 1 6 3 7 4 8 5 10 6 11 7 12 8 13 9 14
REMARK SMILES IDX 10 15 29 16 11 17 12 18 28 19 30 20 13 21 14 22 15 23 27 24
REMARK SMILES IDX 16 25 20 26 22 27 26 28 17 29 19 30 21 31 23 32 25 33 18 34
REMARK SMILES IDX 24 35 34 36 35 37 36 38 37 39 38 40 39 42 40 43 41 44 93 45
REMARK SMILES IDX 42 46 92 47 43 48 44 49 45 50 86 51 46 52 91 53 85 54 87 55
REMARK SMILES IDX 47 56 90 57 84 58 83 59 48 61 74 62 57 63 73 64 58 65 61 66
REMARK SMILES IDX 72 67 88 68 59 69 60 70 71 72 89 73 62 74 49 75 50 76 55 77
REMARK SMILES IDX 51 78 52 79 54 80 56 81 53 82 75 83 76 84 81 85 77 86 78 87
REMARK SMILES IDX 80 88 82 89 79 90 63 91 64 92 69 93 65 94 66 95 68 96 70 97
REMARK SMILES IDX 67 98
REMARK H PARENT 33 4 3 9 37 41 87 60 61 71
REMARK Flexibility Score: inf
ROOT
ATOM      1  C   UNL A   1      34.490  31.511  28.131  1.00  0.00     0.242 C 
ATOM      2  O   UNL A   1      35.209  30.558  28.508  1.00  0.00    -0.273 OA
ATOM      3  N   UNL A   1      35.014  32.711  28.651  1.00  0.00    -0.354 N 
ATOM      4  H   UNL A   1      35.386  32.513  29.541  1.00  0.00     0.163 HD
ENDROOT
BRANCH   1   5
ATOM      5  C   UNL A   1      33.103  30.985  27.122  1.00  0.00     0.168 C 
ATOM      6  C   UNL A   1      31.733  31.614  26.578  1.00  0.00     0.041 C 
BRANCH   5   7
ATOM      7  N   UNL A   1      33.494  30.157  26.016  1.00  0.00    -0.345 N 
ATOM      8  C   UNL A   1      33.409  28.821  26.182  1.00  0.00     0.220 C 
ATOM      9  H   UNL A   1      33.811  30.549  25.171  1.00  0.00     0.164 HD
ATOM     10  O   UNL A   1      34.002  28.030  25.433  1.00  0.00    -0.275 OA
BRANCH   8  11
ATOM     11  C   UNL A   1      32.478  28.417  27.293  1.00  0.00     0.102 C 
BRANCH  11  12
ATOM     12  C   UNL A   1      31.149  27.558  26.862  1.00  0.00     0.032 C 
BRANCH  12  13
ATOM     13  C   UNL A   1      30.755  26.256  25.695  1.00  0.00     0.128 C 
BRANCH  13  14
ATOM     14  N   UNL A   1      31.564  25.010  24.961  1.00  0.00    -0.293 N 
ATOM     15  C   UNL A   1      32.393  24.029  25.497  1.00  0.00     0.266 C 
ATOM     16  C   UNL A   1      31.864  25.010  23.597  1.00  0.00     0.148 C 
ATOM     17  O   UNL A   1      33.144  24.126  26.461  1.00  0.00    -0.268 OA
ATOM     18  C   UNL A   1      32.623  22.833  24.624  1.00  0.00     0.081 C 
ATOM     19  S   UNL A   1      32.622  23.452  23.050  1.00  0.00    -0.054 SA
ATOM     20  S   UNL A   1      31.701  26.264  22.504  1.00  0.00    -0.052 S 
ATOM     21  C   UNL A   1      33.058  21.707  25.239  1.00  0.00     0.030 C 
BRANCH  21  22
ATOM     22  C   UNL A   1      34.117  20.692  24.906  1.00  0.00    -0.009 A 
ATOM     23  C   UNL A   1      35.482  21.110  25.090  1.00  0.00    -0.010 A 
ATOM     24  C   UNL A   1      33.835  19.288  24.746  1.00  0.00    -0.010 A 
ATOM     25  C   UNL A   1      35.869  22.394  25.550  1.00  0.00     0.009 A 
ATOM     26  C   UNL A   1      36.533  20.185  24.901  1.00  0.00    -0.017 A 
ATOM     27  C   UNL A   1      34.924  18.381  24.599  1.00  0.00    -0.017 A 
ATOM     28  C   UNL A   1      32.544  18.702  24.789  1.00  0.00     0.009 A 
ATOM     29  C   UNL A   1      37.198  22.769  25.743  1.00  0.00     0.001 A 
ATOM     30  C   UNL A   1      37.876  20.579  25.056  1.00  0.00     0.009 A 
ATOM     31  C   UNL A   1      36.239  18.849  24.626  1.00  0.00     0.017 A 
ATOM     32  C   UNL A   1      34.714  16.995  24.481  1.00  0.00     0.009 A 
ATOM     33  C   UNL A   1      32.350  17.311  24.695  1.00  0.00     0.001 A 
ATOM     34  C   UNL A   1      38.207  21.866  25.469  1.00  0.00     0.001 A 
ATOM     35  C   UNL A   1      33.434  16.459  24.535  1.00  0.00     0.001 A 
ENDBRANCH  21  22
ENDBRANCH  13  14
ENDBRANCH  12  13
ENDBRANCH  11  12
ENDBRANCH   8  11
ENDBRANCH   5   7
ENDBRANCH   1   5
BRANCH   3  36
ATOM     36  C   UNL A   1      35.234  34.206  28.374  1.00  0.00     0.117 C 
BRANCH  36  37
ATOM     37  C   UNL A   1      34.100  35.248  28.541  1.00  0.00     0.042 C 
BRANCH  37  38
ATOM     38  C   UNL A   1      32.900  34.864  29.397  1.00  0.00     0.118 C 
BRANCH  38  39
ATOM     39  N   UNL A   1      32.630  35.853  30.437  1.00  0.00    -0.352 N 
ATOM     40  C   UNL A   1      32.937  35.869  31.778  1.00  0.00     0.251 C 
ATOM     41  H   UNL A   1      32.144  36.649  30.123  1.00  0.00     0.163 HD
ATOM     42  O   UNL A   1      32.278  36.571  32.539  1.00  0.00    -0.269 OA
BRANCH  40  43
ATOM     43  C   UNL A   1      34.056  35.058  32.301  1.00  0.00     0.039 A 
ATOM     44  C   UNL A   1      33.822  33.822  32.915  1.00  0.00     0.014 A 
ATOM     45  C   UNL A   1      35.354  35.547  32.200  1.00  0.00     0.014 A 
ATOM     46  C   UNL A   1      34.906  33.046  33.338  1.00  0.00     0.010 A 
ATOM     47  C   UNL A   1      36.423  34.712  32.461  1.00  0.00     0.010 A 
ATOM     48  C   UNL A   1      36.218  33.465  33.063  1.00  0.00    -0.014 A 
BRANCH  48  49
ATOM     49  C   UNL A   1      37.414  32.663  33.414  1.00  0.00     0.031 A 
ATOM     50  C   UNL A   1      38.154  32.964  34.694  1.00  0.00     0.074 A 
ATOM     51  C   UNL A   1      37.903  31.770  32.531  1.00  0.00     0.049 A 
ATOM     52  N   UNL A   1      39.309  32.515  35.110  1.00  0.00    -0.248 NA
ATOM     53  C   UNL A   1      37.542  33.956  35.597  1.00  0.00     0.031 C 
ATOM     54  C   UNL A   1      37.315  31.454  31.226  1.00  0.00     0.029 A 
ATOM     55  N   UNL A   1      39.018  30.975  32.590  1.00  0.00    -0.354 N 
ATOM     56  C   UNL A   1      39.571  33.197  36.293  1.00  0.00     0.074 A 
ATOM     57  C   UNL A   1      38.506  34.154  36.481  1.00  0.00     0.031 C 
ATOM     58  C   UNL A   1      38.050  30.504  30.628  1.00  0.00     0.029 A 
ATOM     59  C   UNL A   1      39.188  30.182  31.481  1.00  0.00     0.049 A 
ATOM     60  H   UNL A   1      39.638  30.973  33.355  1.00  0.00     0.167 HD
ATOM     61  C   UNL A   1      40.584  33.011  37.170  1.00  0.00     0.037 A 
ATOM     62  C   UNL A   1      40.161  29.299  31.189  1.00  0.00     0.037 A 
ATOM     63  C   UNL A   1      41.607  32.018  36.994  1.00  0.00     0.049 A 
ATOM     64  C   UNL A   1      41.268  29.096  32.185  1.00  0.00     0.074 A 
ATOM     65  C   UNL A   1      42.635  31.676  37.851  1.00  0.00     0.029 A 
ATOM     66  N   UNL A   1      41.721  31.201  35.877  1.00  0.00    -0.354 N 
ATOM     67  N   UNL A   1      41.458  29.683  33.344  1.00  0.00    -0.248 NA
ATOM     68  C   UNL A   1      42.295  28.105  31.839  1.00  0.00     0.031 C 
ATOM     69  C   UNL A   1      43.407  30.690  37.228  1.00  0.00     0.029 A 
ATOM     70  C   UNL A   1      42.822  30.375  36.009  1.00  0.00     0.049 A 
ATOM     71  H   UNL A   1      41.110  31.210  35.105  1.00  0.00     0.167 HD
ATOM     72  C   UNL A   1      42.609  29.118  33.874  1.00  0.00     0.074 A 
ATOM     73  C   UNL A   1      43.060  28.124  32.921  1.00  0.00     0.031 C 
ATOM     74  C   UNL A   1      43.243  29.395  35.041  1.00  0.00     0.037 A 
BRANCH  61  75
ATOM     75  C   UNL A   1      40.615  33.882  38.393  1.00  0.00     0.057 A 
ATOM     76  C   UNL A   1      41.367  35.066  38.444  1.00  0.00     0.134 A 
ATOM     77  C   UNL A   1      39.874  33.545  39.533  1.00  0.00     0.134 A 
ATOM     78  F   UNL A   1      42.114  35.442  37.395  1.00  0.00    -0.206 F 
ATOM     79  C   UNL A   1      41.411  35.858  39.592  1.00  0.00     0.040 A 
ATOM     80  C   UNL A   1      39.883  34.348  40.676  1.00  0.00     0.040 A 
ATOM     81  F   UNL A   1      39.130  32.429  39.556  1.00  0.00    -0.206 F 
ATOM     82  C   UNL A   1      40.660  35.504  40.710  1.00  0.00     0.006 A 
ENDBRANCH  61  75
BRANCH  62  83
ATOM     83  C   UNL A   1      40.114  28.523  29.922  1.00  0.00     0.057 A 
ATOM     84  C   UNL A   1      39.368  27.342  29.828  1.00  0.00     0.134 A 
ATOM     85  C   UNL A   1      40.806  28.937  28.778  1.00  0.00     0.134 A 
ATOM     86  F   UNL A   1      38.692  26.885  30.892  1.00  0.00    -0.206 F 
ATOM     87  C   UNL A   1      39.333  26.587  28.654  1.00  0.00     0.040 A 
ATOM     88  C   UNL A   1      40.756  28.208  27.587  1.00  0.00     0.040 A 
ATOM     89  F   UNL A   1      41.527  30.068  28.793  1.00  0.00    -0.206 F 
ATOM     90  C   UNL A   1      40.025  27.024  27.527  1.00  0.00     0.006 A 
ENDBRANCH  62  83
BRANCH  74  91
ATOM     91  C   UNL A   1      44.472  28.596  35.355  1.00  0.00     0.057 A 
ATOM     92  C   UNL A   1      44.405  27.376  36.038  1.00  0.00     0.134 A 
ATOM     93  C   UNL A   1      45.732  29.032  34.927  1.00  0.00     0.134 A 
ATOM     94  F   UNL A   1      43.227  26.910  36.484  1.00  0.00    -0.206 F 
ATOM     95  C   UNL A   1      45.551  26.629  36.309  1.00  0.00     0.040 A 
ATOM     96  C   UNL A   1      46.882  28.277  35.161  1.00  0.00     0.040 A 
ATOM     97  F   UNL A   1      45.864  30.185  34.254  1.00  0.00    -0.206 F 
ATOM     98  C   UNL A   1      46.794  27.077  35.862  1.00  0.00     0.006 A 
ENDBRANCH  74  91
ENDBRANCH  48  49
ENDBRANCH  40  43
ENDBRANCH  38  39
ENDBRANCH  37  38
ENDBRANCH  36  37
ENDBRANCH   3  36
TORSDOF 16
ENDMDL
MODEL 2
REMARK VINA RESULT:     -13.2      1.640      2.505
REMARK SMILES C[C@@H](NC(=O)CCCN1C(=O)/C(=C/c2c3ccccc3cc3ccccc23)SC1=S)C(=O)NCCCNC(=O)c1ccc(-c2c3nc(c(-c4c(F)cccc4F)c4ccc([nH]4)c(-c4c(F)cccc4F)c4nc(c(-c5c(F)cccc5F)c5ccc2[nH]5)C=C4)C=C3)cc1
REMARK SMILES IDX 31 1 32 2 33 3 2 5 1 6 3 7 4 8 5 10 6 11 7 12 8 13 9 14
REMARK SMILES IDX 10 15 29 16 11 17 12 18 28 19 30 20 13 21 14 22 15 23 27 24
REMARK SMILES IDX 16 25 20 26 22 27 26 28 17 29 19 30 21 31 23 32 25 33 18 34
REMARK SMILES IDX 24 35 34 36 35 37 36 38 37 39 38 40 39 42 40 43 41 44 93 45
REMARK SMILES IDX 42 46 92 47 43 48 44 49 45 50 86 51 46 52 91 53 85 54 87 55
REMARK SMILES IDX 47 56 90 57 84 58 83 59 48 61 74 62 57 63 73 64 58 65 61 66
REMARK SMILES IDX 72 67 88 68 59 69 60 70 71 72 89 73 62 74 49 75 50 76 55 77
REMARK SMILES IDX 51 78 52 79 54 80 56 81 53 82 75 83 76 84 81 85 77 86 78 87
REMARK SMILES IDX 80 88 82 89 79 90 63 91 64 92 69 93 65 94 66 95 68 96 70 97
REMARK SMILES IDX 67 98
REMARK H PARENT 33 4 3 9 37 41 87 60 61 71
REMARK Flexibility Score: inf
ROOT
ATOM      1  C   UNL A   1      35.097  31.186  27.616  1.00  0.00     0.242 C 
ATOM      2  O   UNL A   1      35.955  30.277  27.546  1.00  0.00    -0.273 OA
ATOM      3  N   UNL A   1      35.684  32.321  28.209  1.00  0.00    -0.354 N 
ATOM      4  H   UNL A   1      36.327  32.005  28.885  1.00  0.00     0.163 HD
ENDROOT
BRANCH   1   5
ATOM      5  C   UNL A   1      33.498  30.693  26.968  1.00  0.00     0.168 C 
ATOM      6  C   UNL A   1      32.052  31.353  26.766  1.00  0.00     0.041 C 
BRANCH   5   7
ATOM      7  N   UNL A   1      33.596  29.860  25.803  1.00  0.00    -0.345 N 
ATOM      8  C   UNL A   1      33.291  28.554  25.947  1.00  0.00     0.220 C 
ATOM      9  H   UNL A   1      33.875  30.228  24.934  1.00  0.00     0.164 HD
ATOM     10  O   UNL A   1      33.635  27.706  25.111  1.00  0.00    -0.275 OA
BRANCH   8  11
ATOM     11  C   UNL A   1      32.444  28.272  27.158  1.00  0.00     0.102 C 
BRANCH  11  12
ATOM     12  C   UNL A   1      31.121  27.329  26.926  1.00  0.00     0.032 C 
BRANCH  12  13
ATOM     13  C   UNL A   1      30.648  25.986  25.838  1.00  0.00     0.128 C 
BRANCH  13  14
ATOM     14  N   UNL A   1      31.406  24.715  25.090  1.00  0.00    -0.293 N 
ATOM     15  C   UNL A   1      32.343  23.808  25.576  1.00  0.00     0.266 C 
ATOM     16  C   UNL A   1      31.519  24.622  23.701  1.00  0.00     0.148 C 
ATOM     17  O   UNL A   1      33.212  24.004  26.417  1.00  0.00    -0.268 OA
ATOM     18  C   UNL A   1      32.506  22.557  24.766  1.00  0.00     0.081 C 
ATOM     19  S   UNL A   1      32.266  23.053  23.167  1.00  0.00    -0.054 SA
ATOM     20  S   UNL A   1      31.155  25.782  22.554  1.00  0.00    -0.052 S 
ATOM     21  C   UNL A   1      33.071  21.498  25.395  1.00  0.00     0.030 C 
BRANCH  21  22
ATOM     22  C   UNL A   1      34.119  20.497  24.992  1.00  0.00    -0.009 A 
ATOM     23  C   UNL A   1      35.489  20.913  25.143  1.00  0.00    -0.010 A 
ATOM     24  C   UNL A   1      33.835  19.099  24.795  1.00  0.00    -0.010 A 
ATOM     25  C   UNL A   1      35.890  22.183  25.633  1.00  0.00     0.009 A 
ATOM     26  C   UNL A   1      36.535  19.998  24.888  1.00  0.00    -0.017 A 
ATOM     27  C   UNL A   1      34.919  18.201  24.581  1.00  0.00    -0.017 A 
ATOM     28  C   UNL A   1      32.547  18.507  24.863  1.00  0.00     0.009 A 
ATOM     29  C   UNL A   1      37.223  22.555  25.793  1.00  0.00     0.001 A 
ATOM     30  C   UNL A   1      37.881  20.390  25.010  1.00  0.00     0.009 A 
ATOM     31  C   UNL A   1      36.234  18.671  24.579  1.00  0.00     0.017 A 
ATOM     32  C   UNL A   1      34.708  16.818  24.425  1.00  0.00     0.009 A 
ATOM     33  C   UNL A   1      32.352  17.120  24.729  1.00  0.00     0.001 A 
ATOM     34  C   UNL A   1      38.224  21.664  25.454  1.00  0.00     0.001 A 
ATOM     35  C   UNL A   1      33.432  16.277  24.504  1.00  0.00     0.001 A 
ENDBRANCH  21  22
ENDBRANCH  13  14
ENDBRANCH  12  13
ENDBRANCH  11  12
ENDBRANCH   8  11
ENDBRANCH   5   7
ENDBRANCH   1   5
BRANCH   3  36
ATOM     36  C   UNL A   1      35.715  33.857  28.216  1.00  0.00     0.117 C 
BRANCH  36  37
ATOM     37  C   UNL A   1      34.422  34.705  28.309  1.00  0.00     0.042 C 
BRANCH  37  38
ATOM     38  C   UNL A   1      33.322  34.225  29.246  1.00  0.00     0.118 C 
BRANCH  38  39
ATOM     39  N   UNL A   1      33.332  34.944  30.517  1.00  0.00    -0.352 N 
ATOM     40  C   UNL A   1      34.009  34.706  31.691  1.00  0.00     0.251 C 
ATOM     41  H   UNL A   1      32.753  35.740  30.538  1.00  0.00     0.163 HD
ATOM     42  O   UNL A   1      33.575  35.168  32.742  1.00  0.00    -0.269 OA
BRANCH  40  43
ATOM     43  C   UNL A   1      35.254  33.911  31.690  1.00  0.00     0.039 A 
ATOM     44  C   UNL A   1      36.484  34.500  31.375  1.00  0.00     0.014 A 
ATOM     45  C   UNL A   1      35.193  32.552  31.984  1.00  0.00     0.014 A 
ATOM     46  C   UNL A   1      37.654  33.738  31.449  1.00  0.00     0.010 A 
ATOM     47  C   UNL A   1      36.358  31.849  32.222  1.00  0.00     0.010 A 
ATOM     48  C   UNL A   1      37.602  32.419  31.927  1.00  0.00    -0.014 A 
BRANCH  48  49
ATOM     49  C   UNL A   1      38.808  31.574  32.104  1.00  0.00     0.031 A 
ATOM     50  C   UNL A   1      39.807  31.932  33.175  1.00  0.00     0.074 A 
ATOM     51  C   UNL A   1      39.063  30.582  31.229  1.00  0.00     0.049 A 
ATOM     52  N   UNL A   1      41.002  31.446  33.391  1.00  0.00    -0.248 NA
ATOM     53  C   UNL A   1      39.441  33.032  34.087  1.00  0.00     0.031 C 
ATOM     54  C   UNL A   1      38.205  30.198  30.104  1.00  0.00     0.029 A 
ATOM     55  N   UNL A   1      40.128  29.725  31.136  1.00  0.00    -0.354 N 
ATOM     56  C   UNL A   1      41.532  32.205  34.429  1.00  0.00     0.074 A 
ATOM     57  C   UNL A   1      40.574  33.239  34.736  1.00  0.00     0.031 C 
ATOM     58  C   UNL A   1      38.757  29.157  29.462  1.00  0.00     0.029 A 
ATOM     59  C   UNL A   1      40.031  28.834  30.096  1.00  0.00     0.049 A 
ATOM     60  H   UNL A   1      40.892  29.746  31.758  1.00  0.00     0.167 HD
ATOM     61  C   UNL A   1      42.694  32.027  35.098  1.00  0.00     0.037 A 
ATOM     62  C   UNL A   1      40.881  27.870  29.697  1.00  0.00     0.037 A 
ATOM     63  C   UNL A   1      43.613  30.959  34.813  1.00  0.00     0.049 A 
ATOM     64  C   UNL A   1      42.159  27.679  30.466  1.00  0.00     0.074 A 
ATOM     65  C   UNL A   1      44.779  30.624  35.474  1.00  0.00     0.029 A 
ATOM     66  N   UNL A   1      43.457  30.049  33.777  1.00  0.00    -0.354 N 
ATOM     67  N   UNL A   1      42.610  28.346  31.502  1.00  0.00    -0.248 NA
ATOM     68  C   UNL A   1      43.046  26.600  30.015  1.00  0.00     0.031 C 
ATOM     69  C   UNL A   1      45.360  29.543  34.804  1.00  0.00     0.029 A 
ATOM     70  C   UNL A   1      44.524  29.167  33.763  1.00  0.00     0.049 A 
ATOM     71  H   UNL A   1      42.702  30.033  33.147  1.00  0.00     0.167 HD
ATOM     72  C   UNL A   1      43.818  27.755  31.841  1.00  0.00     0.074 A 
ATOM     73  C   UNL A   1      44.017  26.659  30.914  1.00  0.00     0.031 C 
ATOM     74  C   UNL A   1      44.691  28.086  32.825  1.00  0.00     0.037 A 
BRANCH  61  75
ATOM     75  C   UNL A   1      43.016  32.993  36.203  1.00  0.00     0.057 A 
ATOM     76  C   UNL A   1      43.664  34.213  35.958  1.00  0.00     0.134 A 
ATOM     77  C   UNL A   1      42.664  32.709  37.528  1.00  0.00     0.134 A 
ATOM     78  F   UNL A   1      44.046  34.543  34.715  1.00  0.00    -0.206 F 
ATOM     79  C   UNL A   1      43.982  35.095  36.992  1.00  0.00     0.040 A 
ATOM     80  C   UNL A   1      42.946  33.599  38.567  1.00  0.00     0.040 A 
ATOM     81  F   UNL A   1      42.040  31.562  37.837  1.00  0.00    -0.206 F 
ATOM     82  C   UNL A   1      43.615  34.792  38.301  1.00  0.00     0.006 A 
ENDBRANCH  61  75
BRANCH  62  83
ATOM     83  C   UNL A   1      40.538  26.997  28.544  1.00  0.00     0.057 A 
ATOM     84  C   UNL A   1      41.183  27.147  27.311  1.00  0.00     0.134 A 
ATOM     85  C   UNL A   1      39.565  25.996  28.641  1.00  0.00     0.134 A 
ATOM     86  F   UNL A   1      42.117  28.095  27.149  1.00  0.00    -0.206 F 
ATOM     87  C   UNL A   1      40.856  26.353  26.210  1.00  0.00     0.040 A 
ATOM     88  C   UNL A   1      39.248  25.174  27.557  1.00  0.00     0.040 A 
ATOM     89  F   UNL A   1      38.919  25.787  29.798  1.00  0.00    -0.206 F 
ATOM     90  C   UNL A   1      39.888  25.359  26.334  1.00  0.00     0.006 A 
ENDBRANCH  62  83
BRANCH  74  91
ATOM     91  C   UNL A   1      45.920  27.238  32.960  1.00  0.00     0.057 A 
ATOM     92  C   UNL A   1      47.120  27.572  32.320  1.00  0.00     0.134 A 
ATOM     93  C   UNL A   1      45.914  26.101  33.777  1.00  0.00     0.134 A 
ATOM     94  F   UNL A   1      47.187  28.643  31.514  1.00  0.00    -0.206 F 
ATOM     95  C   UNL A   1      48.264  26.788  32.466  1.00  0.00     0.040 A 
ATOM     96  C   UNL A   1      47.061  25.329  33.958  1.00  0.00     0.040 A 
ATOM     97  F   UNL A   1      44.800  25.734  34.429  1.00  0.00    -0.206 F 
ATOM     98  C   UNL A   1      48.238  25.667  33.295  1.00  0.00     0.006 A 
ENDBRANCH  74  91
ENDBRANCH  48  49
ENDBRANCH  40  43
ENDBRANCH  38  39
ENDBRANCH  37  38
ENDBRANCH  36  37
ENDBRANCH   3  36
TORSDOF 16
ENDMDL
MODEL 3
REMARK VINA RESULT:     -12.9      4.717      6.806
REMARK SMILES C[C@@H](NC(=O)CCCN1C(=O)/C(=C/c2c3ccccc3cc3ccccc23)SC1=S)C(=O)NCCCNC(=O)c1ccc(-c2c3nc(c(-c4c(F)cccc4F)c4ccc([nH]4)c(-c4c(F)cccc4F)c4nc(c(-c5c(F)cccc5F)c5ccc2[nH]5)C=C4)C=C3)cc1
REMARK SMILES IDX 31 1 32 2 33 3 2 5 1 6 3 7 4 8 5 10 6 11 7 12 8 13 9 14
REMARK SMILES IDX 10 15 29 16 11 17 12 18 28 19 30 20 13 21 14 22 15 23 27 24
REMARK SMILES IDX 16 25 20 26 22 27 26 28 17 29 19 30 21 31 23 32 25 33 18 34
REMARK SMILES IDX 24 35 34 36 35 37 36 38 37 39 38 40 39 42 40 43 41 44 93 45
REMARK SMILES IDX 42 46 92 47 43 48 44 49 45 50 86 51 46 52 91 53 85 54 87 55
REMARK SMILES IDX 47 56 90 57 84 58 83 59 48 61 74 62 57 63 73 64 58 65 61 66
REMARK SMILES IDX 72 67 88 68 59 69 60 70 71 72 89 73 62 74 49 75 50 76 55 77
REMARK SMILES IDX 51 78 52 79 54 80 56 81 53 82 75 83 76 84 81 85 77 86 78 87
REMARK SMILES IDX 80 88 82 89 79 90 63 91 64 92 69 93 65 94 66 95 68 96 70 97
REMARK SMILES IDX 67 98
REMARK H PARENT 33 4 3 9 37 41 87 60 61 71
REMARK Flexibility Score: inf
ROOT
ATOM      1  C   UNL A   1      35.256  29.805  28.296  1.00  0.00     0.242 C 
ATOM      2  O   UNL A   1      35.796  28.977  27.527  1.00  0.00    -0.273 OA
ATOM      3  N   UNL A   1      35.911  29.762  29.542  1.00  0.00    -0.354 N 
ATOM      4  H   UNL A   1      36.181  28.829  29.706  1.00  0.00     0.163 HD
ENDROOT
BRANCH   1   5
ATOM      5  C   UNL A   1      33.888  30.681  27.535  1.00  0.00     0.168 C 
ATOM      6  C   UNL A   1      33.227  32.139  27.617  1.00  0.00     0.041 C 
BRANCH   5   7
ATOM      7  N   UNL A   1      33.731  30.376  26.141  1.00  0.00    -0.345 N 
ATOM      8  C   UNL A   1      32.935  29.335  25.819  1.00  0.00     0.220 C 
ATOM      9  H   UNL A   1      34.186  30.906  25.447  1.00  0.00     0.164 HD
ATOM     10  O   UNL A   1      32.977  28.800  24.702  1.00  0.00    -0.275 OA
BRANCH   8  11
ATOM     11  C   UNL A   1      31.968  28.967  26.912  1.00  0.00     0.102 C 
BRANCH  11  12
ATOM     12  C   UNL A   1      31.390  27.432  26.894  1.00  0.00     0.032 C 
BRANCH  12  13
ATOM     13  C   UNL A   1      30.959  26.211  25.655  1.00  0.00     0.128 C 
BRANCH  13  14
ATOM     14  N   UNL A   1      31.697  24.916  24.930  1.00  0.00    -0.293 N 
ATOM     15  C   UNL A   1      32.500  23.915  25.468  1.00  0.00     0.266 C 
ATOM     16  C   UNL A   1      31.959  24.872  23.559  1.00  0.00     0.148 C 
ATOM     17  O   UNL A   1      33.281  24.003  26.409  1.00  0.00    -0.268 OA
ATOM     18  C   UNL A   1      32.658  22.690  24.618  1.00  0.00     0.081 C 
ATOM     19  S   UNL A   1      32.639  23.272  23.030  1.00  0.00    -0.054 SA
ATOM     20  S   UNL A   1      31.817  26.106  22.440  1.00  0.00    -0.052 S 
ATOM     21  C   UNL A   1      33.064  21.562  25.249  1.00  0.00     0.030 C 
BRANCH  21  22
ATOM     22  C   UNL A   1      34.071  20.497  24.913  1.00  0.00    -0.009 A 
ATOM     23  C   UNL A   1      35.457  20.859  25.063  1.00  0.00    -0.010 A 
ATOM     24  C   UNL A   1      33.727  19.104  24.782  1.00  0.00    -0.010 A 
ATOM     25  C   UNL A   1      35.908  22.133  25.494  1.00  0.00     0.009 A 
ATOM     26  C   UNL A   1      36.463  19.886  24.870  1.00  0.00    -0.017 A 
ATOM     27  C   UNL A   1      34.772  18.149  24.630  1.00  0.00    -0.017 A 
ATOM     28  C   UNL A   1      32.413  18.575  24.860  1.00  0.00     0.009 A 
ATOM     29  C   UNL A   1      37.254  22.453  25.655  1.00  0.00     0.001 A 
ATOM     30  C   UNL A   1      37.824  20.224  24.993  1.00  0.00     0.009 A 
ATOM     31  C   UNL A   1      36.107  18.560  24.624  1.00  0.00     0.017 A 
ATOM     32  C   UNL A   1      34.501  16.771  24.540  1.00  0.00     0.009 A 
ATOM     33  C   UNL A   1      32.158  17.192  24.794  1.00  0.00     0.001 A 
ATOM     34  C   UNL A   1      38.219  21.503  25.377  1.00  0.00     0.001 A 
ATOM     35  C   UNL A   1      33.201  16.292  24.627  1.00  0.00     0.001 A 
ENDBRANCH  21  22
ENDBRANCH  13  14
ENDBRANCH  12  13
ENDBRANCH  11  12
ENDBRANCH   8  11
ENDBRANCH   5   7
ENDBRANCH   1   5
BRANCH   3  36
ATOM     36  C   UNL A   1      36.371  30.599  30.746  1.00  0.00     0.117 C 
BRANCH  36  37
ATOM     37  C   UNL A   1      35.499  31.733  31.339  1.00  0.00     0.042 C 
BRANCH  37  38
ATOM     38  C   UNL A   1      35.702  32.095  32.805  1.00  0.00     0.118 C 
BRANCH  38  39
ATOM     39  N   UNL A   1      36.257  33.437  32.966  1.00  0.00    -0.352 N 
ATOM     40  C   UNL A   1      37.547  33.905  32.869  1.00  0.00     0.251 C 
ATOM     41  H   UNL A   1      35.589  34.128  33.181  1.00  0.00     0.163 HD
ATOM     42  O   UNL A   1      37.852  34.952  33.434  1.00  0.00    -0.269 OA
BRANCH  40  43
ATOM     43  C   UNL A   1      38.556  33.165  32.085  1.00  0.00     0.039 A 
ATOM     44  C   UNL A   1      38.656  33.334  30.699  1.00  0.00     0.014 A 
ATOM     45  C   UNL A   1      39.400  32.270  32.736  1.00  0.00     0.014 A 
ATOM     46  C   UNL A   1      39.666  32.672  29.994  1.00  0.00     0.010 A 
ATOM     47  C   UNL A   1      40.495  31.754  32.071  1.00  0.00     0.010 A 
ATOM     48  C   UNL A   1      40.627  31.919  30.688  1.00  0.00    -0.014 A 
BRANCH  48  49
ATOM     49  C   UNL A   1      41.769  31.250  30.019  1.00  0.00     0.031 A 
ATOM     50  C   UNL A   1      43.005  32.050  29.694  1.00  0.00     0.074 A 
ATOM     51  C   UNL A   1      41.641  29.978  29.591  1.00  0.00     0.049 A 
ATOM     52  N   UNL A   1      44.039  31.721  28.965  1.00  0.00    -0.248 NA
ATOM     53  C   UNL A   1      43.054  33.433  30.204  1.00  0.00     0.031 C 
ATOM     54  C   UNL A   1      40.459  29.132  29.779  1.00  0.00     0.029 A 
ATOM     55  N   UNL A   1      42.509  29.179  28.894  1.00  0.00    -0.354 N 
ATOM     56  C   UNL A   1      44.831  32.862  28.903  1.00  0.00     0.074 A 
ATOM     57  C   UNL A   1      44.117  33.916  29.584  1.00  0.00     0.031 C 
ATOM     58  C   UNL A   1      40.693  27.922  29.249  1.00  0.00     0.029 A 
ATOM     59  C   UNL A   1      42.018  27.923  28.638  1.00  0.00     0.049 A 
ATOM     60  H   UNL A   1      43.402  29.478  28.604  1.00  0.00     0.167 HD
ATOM     61  C   UNL A   1      46.064  33.008  28.366  1.00  0.00     0.037 A 
ATOM     62  C   UNL A   1      42.576  26.891  27.978  1.00  0.00     0.037 A 
ATOM     63  C   UNL A   1      46.782  31.934  27.737  1.00  0.00     0.049 A 
ATOM     64  C   UNL A   1      43.954  27.069  27.404  1.00  0.00     0.074 A 
ATOM     65  C   UNL A   1      48.068  31.934  27.231  1.00  0.00     0.029 A 
ATOM     66  N   UNL A   1      46.267  30.661  27.536  1.00  0.00    -0.354 N 
ATOM     67  N   UNL A   1      44.731  28.127  27.428  1.00  0.00    -0.248 NA
ATOM     68  C   UNL A   1      44.537  25.912  26.715  1.00  0.00     0.031 C 
ATOM     69  C   UNL A   1      48.312  30.676  26.673  1.00  0.00     0.029 A 
ATOM     70  C   UNL A   1      47.201  29.874  26.886  1.00  0.00     0.049 A 
ATOM     71  H   UNL A   1      45.371  30.363  27.813  1.00  0.00     0.167 HD
ATOM     72  C   UNL A   1      45.900  27.757  26.780  1.00  0.00     0.074 A 
ATOM     73  C   UNL A   1      45.739  26.368  26.396  1.00  0.00     0.031 C 
ATOM     74  C   UNL A   1      47.008  28.494  26.518  1.00  0.00     0.037 A 
BRANCH  61  75
ATOM     75  C   UNL A   1      46.707  34.363  28.456  1.00  0.00     0.057 A 
ATOM     76  C   UNL A   1      47.520  34.729  29.540  1.00  0.00     0.134 A 
ATOM     77  C   UNL A   1      46.524  35.312  27.443  1.00  0.00     0.134 A 
ATOM     78  F   UNL A   1      47.725  33.876  30.555  1.00  0.00    -0.206 F 
ATOM     79  C   UNL A   1      48.095  35.997  29.629  1.00  0.00     0.040 A 
ATOM     80  C   UNL A   1      47.122  36.573  27.505  1.00  0.00     0.040 A 
ATOM     81  F   UNL A   1      45.761  35.032  26.375  1.00  0.00    -0.206 F 
ATOM     82  C   UNL A   1      47.903  36.921  28.605  1.00  0.00     0.006 A 
ENDBRANCH  61  75
BRANCH  62  83
ATOM     83  C   UNL A   1      41.852  25.598  27.856  1.00  0.00     0.057 A 
ATOM     84  C   UNL A   1      42.177  24.511  28.674  1.00  0.00     0.134 A 
ATOM     85  C   UNL A   1      40.823  25.416  26.925  1.00  0.00     0.134 A 
ATOM     86  F   UNL A   1      43.162  24.617  29.579  1.00  0.00    -0.206 F 
ATOM     87  C   UNL A   1      41.525  23.281  28.556  1.00  0.00     0.040 A 
ATOM     88  C   UNL A   1      40.142  24.201  26.815  1.00  0.00     0.040 A 
ATOM     89  F   UNL A   1      40.450  26.421  26.120  1.00  0.00    -0.206 F 
ATOM     90  C   UNL A   1      40.500  23.127  27.626  1.00  0.00     0.006 A 
ENDBRANCH  62  83
BRANCH  74  91
ATOM     91  C   UNL A   1      48.134  27.804  25.808  1.00  0.00     0.057 A 
ATOM     92  C   UNL A   1      49.204  27.230  26.503  1.00  0.00     0.134 A 
ATOM     93  C   UNL A   1      48.121  27.674  24.413  1.00  0.00     0.134 A 
ATOM     94  F   UNL A   1      49.280  27.331  27.839  1.00  0.00    -0.206 F 
ATOM     95  C   UNL A   1      50.237  26.574  25.835  1.00  0.00     0.040 A 
ATOM     96  C   UNL A   1      49.130  26.990  23.736  1.00  0.00     0.040 A 
ATOM     97  F   UNL A   1      47.116  28.190  23.688  1.00  0.00    -0.206 F 
ATOM     98  C   UNL A   1      50.197  26.445  24.447  1.00  0.00     0.006 A 
ENDBRANCH  74  91
ENDBRANCH  48  49
ENDBRANCH  40  43
ENDBRANCH  38  39
ENDBRANCH  37  38
ENDBRANCH  36  37
ENDBRANCH   3  36
TORSDOF 16
ENDMDL
