MODEL 1
REMARK VINA RESULT:     -12.2      0.000      0.000
REMARK SMILES O=C(C[C@@H]1C[N@@H+]([C@H]2CCO[C@]3(CCOC3)C2)CCO1)NCCCNC(=O)c1ccc(-c2c3nc(c(-c4c(F)cccc4F)c4ccc([nH]4)c(-c4c(F)cccc4F)c4nc(c(-c5c(F)cccc5F)c5ccc2[nH]5)C=C4)C=C3)cc1
REMARK SMILES IDX 22 1 21 2 20 3 1 4 2 5 3 7 4 8 5 9 19 10 6 11 18 12 17 13
REMARK SMILES IDX 7 15 8 16 16 17 9 18 11 19 10 20 12 21 15 22 13 23 14 24
REMARK SMILES IDX 23 25 24 26 25 27 26 29 27 30 28 31 80 32 29 33 79 34 30 35
REMARK SMILES IDX 31 36 32 37 73 38 33 39 78 40 72 41 74 42 34 43 77 44 71 45
REMARK SMILES IDX 70 46 35 48 61 49 44 50 60 51 45 52 48 53 59 54 75 55 46 56
REMARK SMILES IDX 47 57 58 59 76 60 49 61 36 62 37 63 42 64 38 65 39 66 41 67
REMARK SMILES IDX 43 68 40 69 62 70 63 71 68 72 64 73 65 74 67 75 69 76 66 77
REMARK SMILES IDX 50 78 51 79 56 80 52 81 53 82 55 83 57 84 54 85
REMARK H PARENT 20 6 6 14 24 28 74 47 48 58
REMARK Flexibility Score: inf
ROOT
ATOM      1  C   UNL A   1      35.177  23.112  25.672  1.00  0.00     0.042 C 
ENDROOT
BRANCH   1   2
ATOM      2  C   UNL A   1      34.062  23.719  26.512  1.00  0.00     0.117 C 
BRANCH   2   3
ATOM      3  N   UNL A   1      32.912  24.056  25.706  1.00  0.00    -0.356 N 
ATOM      4  O   UNL A   1      31.308  23.895  27.341  1.00  0.00    -0.275 OA
ATOM      5  C   UNL A   1      31.626  24.131  26.181  1.00  0.00     0.222 C 
ATOM      6  H   UNL A   1      33.060  24.244  24.751  1.00  0.00     0.163 HD
BRANCH   5   7
ATOM      7  C   UNL A   1      30.605  24.497  25.118  1.00  0.00     0.138 C 
BRANCH   7   8
ATOM      8  C   UNL A   1      30.596  26.010  24.902  1.00  0.00     0.182 C 
ATOM      9  C   UNL A   1      30.857  26.389  23.430  1.00  0.00     0.295 C 
ATOM     10  O   UNL A   1      31.602  26.606  25.752  1.00  0.00    -0.366 OA
ATOM     11  N   UNL A   1      30.887  27.847  23.190  1.00  0.00    -0.328 N 
ATOM     12  C   UNL A   1      31.551  28.037  25.641  1.00  0.00     0.222 C 
ATOM     13  C   UNL A   1      31.751  28.500  24.189  1.00  0.00     0.291 C 
ATOM     14  H   UNL A   1      31.343  28.041  22.298  1.00  0.00     0.348 HD
BRANCH  11  15
ATOM     15  C   UNL A   1      29.572  28.450  22.874  1.00  0.00     0.189 C 
ATOM     16  C   UNL A   1      28.339  27.795  23.510  1.00  0.00     0.093 C 
ATOM     17  C   UNL A   1      29.537  29.977  23.107  1.00  0.00     0.103 C 
ATOM     18  C   UNL A   1      27.054  28.516  23.141  1.00  0.00     0.167 C 
ATOM     19  C   UNL A   1      28.168  30.592  22.752  1.00  0.00     0.099 C 
ATOM     20  O   UNL A   1      27.134  29.899  23.456  1.00  0.00    -0.372 OA
ATOM     21  C   UNL A   1      27.895  30.673  21.253  1.00  0.00     0.066 C 
ATOM     22  C   UNL A   1      28.123  32.068  23.145  1.00  0.00     0.195 C 
ATOM     23  C   UNL A   1      28.280  32.085  20.852  1.00  0.00     0.163 C 
ATOM     24  O   UNL A   1      28.660  32.792  22.035  1.00  0.00    -0.378 OA
ENDBRANCH  11  15
ENDBRANCH   7   8
ENDBRANCH   5   7
ENDBRANCH   2   3
ENDBRANCH   1   2
BRANCH   1  25
ATOM     25  C   UNL A   1      36.563  23.689  25.953  1.00  0.00     0.118 C 
BRANCH  25  26
ATOM     26  N   UNL A   1      37.610  22.679  26.013  1.00  0.00    -0.352 N 
ATOM     27  C   UNL A   1      38.930  22.796  26.370  1.00  0.00     0.251 C 
ATOM     28  H   UNL A   1      37.327  21.772  25.757  1.00  0.00     0.163 HD
ATOM     29  O   UNL A   1      39.682  21.835  26.236  1.00  0.00    -0.269 OA
BRANCH  27  30
ATOM     30  C   UNL A   1      39.465  24.077  26.888  1.00  0.00     0.039 A 
ATOM     31  C   UNL A   1      40.004  24.990  25.978  1.00  0.00     0.014 A 
ATOM     32  C   UNL A   1      39.467  24.373  28.253  1.00  0.00     0.014 A 
ATOM     33  C   UNL A   1      40.488  26.222  26.429  1.00  0.00     0.010 A 
ATOM     34  C   UNL A   1      39.877  25.632  28.693  1.00  0.00     0.010 A 
ATOM     35  C   UNL A   1      40.399  26.568  27.787  1.00  0.00    -0.014 A 
BRANCH  35  36
ATOM     36  C   UNL A   1      40.851  27.902  28.267  1.00  0.00     0.031 A 
ATOM     37  C   UNL A   1      42.314  28.256  28.273  1.00  0.00     0.074 A 
ATOM     38  C   UNL A   1      39.948  28.783  28.738  1.00  0.00     0.049 A 
ATOM     39  N   UNL A   1      42.897  29.358  28.675  1.00  0.00    -0.248 NA
ATOM     40  C   UNL A   1      43.248  27.229  27.784  1.00  0.00     0.031 C 
ATOM     41  C   UNL A   1      38.506  28.548  28.834  1.00  0.00     0.029 A 
ATOM     42  N   UNL A   1      40.110  30.056  29.227  1.00  0.00    -0.354 N 
ATOM     43  C   UNL A   1      44.259  29.153  28.499  1.00  0.00     0.074 A 
ATOM     44  C   UNL A   1      44.421  27.802  28.007  1.00  0.00     0.031 C 
ATOM     45  C   UNL A   1      37.912  29.648  29.323  1.00  0.00     0.029 A 
ATOM     46  C   UNL A   1      38.932  30.653  29.606  1.00  0.00     0.049 A 
ATOM     47  H   UNL A   1      40.985  30.497  29.299  1.00  0.00     0.167 HD
ATOM     48  C   UNL A   1      45.283  30.018  28.704  1.00  0.00     0.037 A 
ATOM     49  C   UNL A   1      38.699  31.874  30.126  1.00  0.00     0.037 A 
ATOM     50  C   UNL A   1      45.122  31.369  29.175  1.00  0.00     0.049 A 
ATOM     51  C   UNL A   1      39.851  32.814  30.344  1.00  0.00     0.074 A 
ATOM     52  C   UNL A   1      46.093  32.337  29.366  1.00  0.00     0.029 A 
ATOM     53  N   UNL A   1      43.912  31.942  29.533  1.00  0.00    -0.354 N 
ATOM     54  N   UNL A   1      41.127  32.631  30.109  1.00  0.00    -0.248 NA
ATOM     55  C   UNL A   1      39.526  34.140  30.890  1.00  0.00     0.031 C 
ATOM     56  C   UNL A   1      45.476  33.482  29.882  1.00  0.00     0.029 A 
ATOM     57  C   UNL A   1      44.113  33.246  29.961  1.00  0.00     0.049 A 
ATOM     58  H   UNL A   1      43.038  31.491  29.491  1.00  0.00     0.167 HD
ATOM     59  C   UNL A   1      41.753  33.825  30.445  1.00  0.00     0.074 A 
ATOM     60  C   UNL A   1      40.713  34.731  30.885  1.00  0.00     0.031 C 
ATOM     61  C   UNL A   1      43.070  34.142  30.392  1.00  0.00     0.037 A 
BRANCH  48  62
ATOM     62  C   UNL A   1      46.672  29.526  28.413  1.00  0.00     0.057 A 
ATOM     63  C   UNL A   1      47.239  29.625  27.135  1.00  0.00     0.134 A 
ATOM     64  C   UNL A   1      47.466  28.976  29.428  1.00  0.00     0.134 A 
ATOM     65  F   UNL A   1      46.530  30.130  26.114  1.00  0.00    -0.206 F 
ATOM     66  C   UNL A   1      48.533  29.169  26.871  1.00  0.00     0.040 A 
ATOM     67  C   UNL A   1      48.771  28.545  29.184  1.00  0.00     0.040 A 
ATOM     68  F   UNL A   1      46.989  28.859  30.677  1.00  0.00    -0.206 F 
ATOM     69  C   UNL A   1      49.304  28.635  27.900  1.00  0.00     0.006 A 
ENDBRANCH  48  62
BRANCH  49  70
ATOM     70  C   UNL A   1      37.311  32.292  30.450  1.00  0.00     0.057 A 
ATOM     71  C   UNL A   1      36.507  32.929  29.496  1.00  0.00     0.134 A 
ATOM     72  C   UNL A   1      36.760  32.082  31.720  1.00  0.00     0.134 A 
ATOM     73  F   UNL A   1      36.985  33.176  28.268  1.00  0.00    -0.206 F 
ATOM     74  C   UNL A   1      35.217  33.364  29.799  1.00  0.00     0.040 A 
ATOM     75  C   UNL A   1      35.461  32.487  32.029  1.00  0.00     0.040 A 
ATOM     76  F   UNL A   1      37.475  31.471  32.675  1.00  0.00    -0.206 F 
ATOM     77  C   UNL A   1      34.689  33.138  31.069  1.00  0.00     0.006 A 
ENDBRANCH  49  70
BRANCH  61  78
ATOM     78  C   UNL A   1      43.453  35.542  30.777  1.00  0.00     0.057 A 
ATOM     79  C   UNL A   1      43.509  36.583  29.843  1.00  0.00     0.134 A 
ATOM     80  C   UNL A   1      43.757  35.853  32.110  1.00  0.00     0.134 A 
ATOM     81  F   UNL A   1      43.241  36.350  28.548  1.00  0.00    -0.206 F 
ATOM     82  C   UNL A   1      43.885  37.876  30.212  1.00  0.00     0.040 A 
ATOM     83  C   UNL A   1      44.105  37.148  32.495  1.00  0.00     0.040 A 
ATOM     84  F   UNL A   1      43.714  34.907  33.059  1.00  0.00    -0.206 F 
ATOM     85  C   UNL A   1      44.180  38.162  31.543  1.00  0.00     0.006 A 
ENDBRANCH  61  78
ENDBRANCH  35  36
ENDBRANCH  27  30
ENDBRANCH  25  26
ENDBRANCH   1  25
TORSDOF 12
ENDMDL
MODEL 2
REMARK VINA RESULT:     -12.1      4.096      8.844
REMARK SMILES O=C(C[C@@H]1C[N@@H+]([C@H]2CCO[C@]3(CCOC3)C2)CCO1)NCCCNC(=O)c1ccc(-c2c3nc(c(-c4c(F)cccc4F)c4ccc([nH]4)c(-c4c(F)cccc4F)c4nc(c(-c5c(F)cccc5F)c5ccc2[nH]5)C=C4)C=C3)cc1
REMARK SMILES IDX 22 1 21 2 20 3 1 4 2 5 3 7 4 8 5 9 19 10 6 11 18 12 17 13
REMARK SMILES IDX 7 15 8 16 16 17 9 18 11 19 10 20 12 21 15 22 13 23 14 24
REMARK SMILES IDX 23 25 24 26 25 27 26 29 27 30 28 31 80 32 29 33 79 34 30 35
REMARK SMILES IDX 31 36 32 37 73 38 33 39 78 40 72 41 74 42 34 43 77 44 71 45
REMARK SMILES IDX 70 46 35 48 61 49 44 50 60 51 45 52 48 53 59 54 75 55 46 56
REMARK SMILES IDX 47 57 58 59 76 60 49 61 36 62 37 63 42 64 38 65 39 66 41 67
REMARK SMILES IDX 43 68 40 69 62 70 63 71 68 72 64 73 65 74 67 75 69 76 66 77
REMARK SMILES IDX 50 78 51 79 56 80 52 81 53 82 55 83 57 84 54 85
REMARK H PARENT 20 6 6 14 24 28 74 47 48 58
REMARK Flexibility Score: inf
ROOT
ATOM      1  C   UNL A   1      31.401  32.188  26.501  1.00  0.00     0.042 C 
ENDROOT
BRANCH   1   2
ATOM      2  C   UNL A   1      31.406  30.668  26.572  1.00  0.00     0.117 C 
BRANCH   2   3
ATOM      3  N   UNL A   1      32.070  30.084  25.430  1.00  0.00    -0.356 N 
ATOM      4  O   UNL A   1      33.815  29.087  26.540  1.00  0.00    -0.275 OA
ATOM      5  C   UNL A   1      33.215  29.330  25.499  1.00  0.00     0.222 C 
ATOM      6  H   UNL A   1      31.675  30.238  24.541  1.00  0.00     0.163 HD
BRANCH   5   7
ATOM      7  C   UNL A   1      33.707  28.845  24.147  1.00  0.00     0.138 C 
BRANCH   7   8
ATOM      8  C   UNL A   1      32.790  27.739  23.623  1.00  0.00     0.182 C 
ATOM      9  C   UNL A   1      33.524  26.784  22.658  1.00  0.00     0.295 C 
ATOM     10  O   UNL A   1      31.664  28.349  22.953  1.00  0.00    -0.366 OA
ATOM     11  N   UNL A   1      32.659  25.721  22.107  1.00  0.00    -0.328 N 
ATOM     12  C   UNL A   1      30.737  27.336  22.535  1.00  0.00     0.222 C 
ATOM     13  C   UNL A   1      31.403  26.307  21.607  1.00  0.00     0.291 C 
ATOM     14  H   UNL A   1      33.095  25.315  21.279  1.00  0.00     0.348 HD
BRANCH  11  15
ATOM     15  C   UNL A   1      32.599  24.486  22.922  1.00  0.00     0.189 C 
ATOM     16  C   UNL A   1      33.618  23.388  22.589  1.00  0.00     0.093 C 
ATOM     17  C   UNL A   1      32.601  24.764  24.441  1.00  0.00     0.103 C 
ATOM     18  C   UNL A   1      33.483  22.186  23.508  1.00  0.00     0.167 C 
ATOM     19  C   UNL A   1      32.516  23.468  25.274  1.00  0.00     0.099 C 
ATOM     20  O   UNL A   1      33.555  22.572  24.873  1.00  0.00    -0.372 OA
ATOM     21  C   UNL A   1      31.141  22.808  25.255  1.00  0.00     0.066 C 
ATOM     22  C   UNL A   1      32.681  23.775  26.762  1.00  0.00     0.195 C 
ATOM     23  C   UNL A   1      30.447  23.291  26.516  1.00  0.00     0.163 C 
ATOM     24  O   UNL A   1      31.375  24.093  27.250  1.00  0.00    -0.378 OA
ENDBRANCH  11  15
ENDBRANCH   7   8
ENDBRANCH   5   7
ENDBRANCH   2   3
ENDBRANCH   1   2
BRANCH   1  25
ATOM     25  C   UNL A   1      32.692  32.846  26.980  1.00  0.00     0.118 C 
BRANCH  25  26
ATOM     26  N   UNL A   1      32.482  34.135  27.625  1.00  0.00    -0.352 N 
ATOM     27  C   UNL A   1      33.133  34.706  28.690  1.00  0.00     0.251 C 
ATOM     28  H   UNL A   1      31.760  34.680  27.237  1.00  0.00     0.163 HD
ATOM     29  O   UNL A   1      32.717  35.762  29.159  1.00  0.00    -0.269 OA
BRANCH  27  30
ATOM     30  C   UNL A   1      34.314  34.051  29.297  1.00  0.00     0.039 A 
ATOM     31  C   UNL A   1      34.104  33.059  30.260  1.00  0.00     0.014 A 
ATOM     32  C   UNL A   1      35.617  34.419  28.952  1.00  0.00     0.014 A 
ATOM     33  C   UNL A   1      35.196  32.398  30.829  1.00  0.00     0.010 A 
ATOM     34  C   UNL A   1      36.702  33.705  29.463  1.00  0.00     0.010 A 
ATOM     35  C   UNL A   1      36.504  32.691  30.413  1.00  0.00    -0.014 A 
BRANCH  35  36
ATOM     36  C   UNL A   1      37.667  31.947  30.965  1.00  0.00     0.031 A 
ATOM     37  C   UNL A   1      38.180  32.248  32.348  1.00  0.00     0.074 A 
ATOM     38  C   UNL A   1      38.292  31.026  30.206  1.00  0.00     0.049 A 
ATOM     39  N   UNL A   1      39.194  31.720  32.988  1.00  0.00    -0.248 NA
ATOM     40  C   UNL A   1      37.476  33.296  33.104  1.00  0.00     0.031 C 
ATOM     41  C   UNL A   1      37.929  30.673  28.833  1.00  0.00     0.029 A 
ATOM     42  N   UNL A   1      39.367  30.217  30.483  1.00  0.00    -0.354 N 
ATOM     43  C   UNL A   1      39.255  32.376  34.210  1.00  0.00     0.074 A 
ATOM     44  C   UNL A   1      38.212  33.380  34.201  1.00  0.00     0.031 C 
ATOM     45  C   UNL A   1      38.747  29.701  28.397  1.00  0.00     0.029 A 
ATOM     46  C   UNL A   1      39.712  29.386  29.445  1.00  0.00     0.049 A 
ATOM     47  H   UNL A   1      39.845  30.233  31.343  1.00  0.00     0.167 HD
ATOM     48  C   UNL A   1      40.086  32.150  35.257  1.00  0.00     0.037 A 
ATOM     49  C   UNL A   1      40.698  28.473  29.347  1.00  0.00     0.037 A 
ATOM     50  C   UNL A   1      41.112  31.139  35.274  1.00  0.00     0.049 A 
ATOM     51  C   UNL A   1      41.607  28.241  30.521  1.00  0.00     0.074 A 
ATOM     52  C   UNL A   1      41.971  30.800  36.306  1.00  0.00     0.029 A 
ATOM     53  N   UNL A   1      41.420  30.307  34.210  1.00  0.00    -0.354 N 
ATOM     54  N   UNL A   1      41.609  28.822  31.696  1.00  0.00    -0.248 NA
ATOM     55  C   UNL A   1      42.645  27.213  30.359  1.00  0.00     0.031 C 
ATOM     56  C   UNL A   1      42.828  29.793  35.850  1.00  0.00     0.029 A 
ATOM     57  C   UNL A   1      42.468  29.466  34.553  1.00  0.00     0.049 A 
ATOM     58  H   UNL A   1      40.963  30.312  33.338  1.00  0.00     0.167 HD
ATOM     59  C   UNL A   1      42.623  28.210  32.423  1.00  0.00     0.074 A 
ATOM     60  C   UNL A   1      43.202  27.201  31.561  1.00  0.00     0.031 C 
ATOM     61  C   UNL A   1      43.034  28.461  33.690  1.00  0.00     0.037 A 
BRANCH  48  62
ATOM     62  C   UNL A   1      39.916  33.012  36.475  1.00  0.00     0.057 A 
ATOM     63  C   UNL A   1      40.684  34.166  36.678  1.00  0.00     0.134 A 
ATOM     64  C   UNL A   1      38.949  32.704  37.442  1.00  0.00     0.134 A 
ATOM     65  F   UNL A   1      41.636  34.513  35.797  1.00  0.00    -0.206 F 
ATOM     66  C   UNL A   1      40.518  34.966  37.811  1.00  0.00     0.040 A 
ATOM     67  C   UNL A   1      38.754  33.512  38.563  1.00  0.00     0.040 A 
ATOM     68  F   UNL A   1      38.173  31.618  37.308  1.00  0.00    -0.206 F 
ATOM     69  C   UNL A   1      39.545  34.643  38.753  1.00  0.00     0.006 A 
ENDBRANCH  48  62
BRANCH  49  70
ATOM     70  C   UNL A   1      40.860  27.685  28.098  1.00  0.00     0.057 A 
ATOM     71  C   UNL A   1      40.231  26.444  27.941  1.00  0.00     0.134 A 
ATOM     72  C   UNL A   1      41.657  28.142  27.043  1.00  0.00     0.134 A 
ATOM     73  F   UNL A   1      39.470  25.943  28.926  1.00  0.00    -0.206 F 
ATOM     74  C   UNL A   1      40.408  25.674  26.791  1.00  0.00     0.040 A 
ATOM     75  C   UNL A   1      41.822  27.396  25.875  1.00  0.00     0.040 A 
ATOM     76  F   UNL A   1      42.281  29.325  27.128  1.00  0.00    -0.206 F 
ATOM     77  C   UNL A   1      41.202  26.153  25.751  1.00  0.00     0.006 A 
ENDBRANCH  49  70
BRANCH  61  78
ATOM     78  C   UNL A   1      44.136  27.597  34.236  1.00  0.00     0.057 A 
ATOM     79  C   UNL A   1      45.483  27.970  34.155  1.00  0.00     0.134 A 
ATOM     80  C   UNL A   1      43.839  26.381  34.864  1.00  0.00     0.134 A 
ATOM     81  F   UNL A   1      45.836  29.118  33.554  1.00  0.00    -0.206 F 
ATOM     82  C   UNL A   1      46.498  27.149  34.649  1.00  0.00     0.040 A 
ATOM     83  C   UNL A   1      44.843  25.566  35.388  1.00  0.00     0.040 A 
ATOM     84  F   UNL A   1      42.569  25.967  34.985  1.00  0.00    -0.206 F 
ATOM     85  C   UNL A   1      46.179  25.945  35.273  1.00  0.00     0.006 A 
ENDBRANCH  61  78
ENDBRANCH  35  36
ENDBRANCH  27  30
ENDBRANCH  25  26
ENDBRANCH   1  25
TORSDOF 12
ENDMDL
MODEL 3
REMARK VINA RESULT:     -12.1      3.918      7.409
REMARK SMILES O=C(C[C@@H]1C[N@@H+]([C@H]2CCO[C@]3(CCOC3)C2)CCO1)NCCCNC(=O)c1ccc(-c2c3nc(c(-c4c(F)cccc4F)c4ccc([nH]4)c(-c4c(F)cccc4F)c4nc(c(-c5c(F)cccc5F)c5ccc2[nH]5)C=C4)C=C3)cc1
REMARK SMILES IDX 22 1 21 2 20 3 1 4 2 5 3 7 4 8 5 9 19 10 6 11 18 12 17 13
REMARK SMILES IDX 7 15 8 16 16 17 9 18 11 19 10 20 12 21 15 22 13 23 14 24
REMARK SMILES IDX 23 25 24 26 25 27 26 29 27 30 28 31 80 32 29 33 79 34 30 35
REMARK SMILES IDX 31 36 32 37 73 38 33 39 78 40 72 41 74 42 34 43 77 44 71 45
REMARK SMILES IDX 70 46 35 48 61 49 44 50 60 51 45 52 48 53 59 54 75 55 46 56
REMARK SMILES IDX 47 57 58 59 76 60 49 61 36 62 37 63 42 64 38 65 39 66 41 67
REMARK SMILES IDX 43 68 40 69 62 70 63 71 68 72 64 73 65 74 67 75 69 76 66 77
REMARK SMILES IDX 50 78 51 79 56 80 52 81 53 82 55 83 57 84 54 85
REMARK H PARENT 20 6 6 14 24 28 74 47 48 58
REMARK Flexibility Score: inf
ROOT
ATOM      1  C   UNL A   1      36.997  23.408  25.250  1.00  0.00     0.042 C 
ENDROOT
BRANCH   1   2
ATOM      2  C   UNL A   1      36.075  22.370  25.875  1.00  0.00     0.117 C 
BRANCH   2   3
ATOM      3  N   UNL A   1      34.776  22.925  26.177  1.00  0.00    -0.356 N 
ATOM      4  O   UNL A   1      33.941  21.162  27.389  1.00  0.00    -0.275 OA
ATOM      5  C   UNL A   1      33.813  22.287  26.919  1.00  0.00     0.222 C 
ATOM      6  H   UNL A   1      34.567  23.821  25.826  1.00  0.00     0.163 HD
BRANCH   5   7
ATOM      7  C   UNL A   1      32.535  23.092  27.077  1.00  0.00     0.138 C 
BRANCH   7   8
ATOM      8  C   UNL A   1      32.196  23.798  25.764  1.00  0.00     0.182 C 
ATOM      9  C   UNL A   1      30.865  24.574  25.847  1.00  0.00     0.295 C 
ATOM     10  O   UNL A   1      32.126  22.809  24.711  1.00  0.00    -0.366 OA
ATOM     11  N   UNL A   1      30.490  25.244  24.585  1.00  0.00    -0.328 N 
ATOM     12  C   UNL A   1      31.904  23.456  23.448  1.00  0.00     0.222 C 
ATOM     13  C   UNL A   1      30.618  24.298  23.462  1.00  0.00     0.291 C 
ATOM     14  H   UNL A   1      29.498  25.482  24.601  1.00  0.00     0.348 HD
BRANCH  11  15
ATOM     15  C   UNL A   1      31.020  26.617  24.430  1.00  0.00     0.189 C 
ATOM     16  C   UNL A   1      30.223  27.569  23.528  1.00  0.00     0.093 C 
ATOM     17  C   UNL A   1      31.324  27.303  25.781  1.00  0.00     0.103 C 
ATOM     18  C   UNL A   1      30.842  28.955  23.471  1.00  0.00     0.167 C 
ATOM     19  C   UNL A   1      31.895  28.724  25.600  1.00  0.00     0.099 C 
ATOM     20  O   UNL A   1      31.017  29.492  24.774  1.00  0.00    -0.372 OA
ATOM     21  C   UNL A   1      33.337  28.754  25.101  1.00  0.00     0.066 C 
ATOM     22  C   UNL A   1      32.032  29.424  26.953  1.00  0.00     0.195 C 
ATOM     23  C   UNL A   1      34.189  28.909  26.348  1.00  0.00     0.163 C 
ATOM     24  O   UNL A   1      33.312  29.049  27.468  1.00  0.00    -0.378 OA
ENDBRANCH  11  15
ENDBRANCH   7   8
ENDBRANCH   5   7
ENDBRANCH   2   3
ENDBRANCH   1   2
BRANCH   1  25
ATOM     25  C   UNL A   1      37.934  24.096  26.240  1.00  0.00     0.118 C 
BRANCH  25  26
ATOM     26  N   UNL A   1      39.339  23.782  26.022  1.00  0.00    -0.352 N 
ATOM     27  C   UNL A   1      40.466  24.401  26.502  1.00  0.00     0.251 C 
ATOM     28  H   UNL A   1      39.505  23.006  25.441  1.00  0.00     0.163 HD
ATOM     29  O   UNL A   1      41.570  24.048  26.098  1.00  0.00    -0.269 OA
BRANCH  27  30
ATOM     30  C   UNL A   1      40.366  25.508  27.481  1.00  0.00     0.039 A 
ATOM     31  C   UNL A   1      39.455  25.386  28.534  1.00  0.00     0.014 A 
ATOM     32  C   UNL A   1      41.134  26.670  27.358  1.00  0.00     0.014 A 
ATOM     33  C   UNL A   1      39.358  26.398  29.493  1.00  0.00     0.010 A 
ATOM     34  C   UNL A   1      41.092  27.642  28.358  1.00  0.00     0.010 A 
ATOM     35  C   UNL A   1      40.199  27.521  29.433  1.00  0.00    -0.014 A 
BRANCH  35  36
ATOM     36  C   UNL A   1      40.148  28.571  30.485  1.00  0.00     0.031 A 
ATOM     37  C   UNL A   1      39.145  29.689  30.401  1.00  0.00     0.074 A 
ATOM     38  C   UNL A   1      41.035  28.543  31.499  1.00  0.00     0.049 A 
ATOM     39  N   UNL A   1      38.967  30.705  31.210  1.00  0.00    -0.248 NA
ATOM     40  C   UNL A   1      38.236  29.680  29.244  1.00  0.00     0.031 C 
ATOM     41  C   UNL A   1      42.091  27.545  31.673  1.00  0.00     0.029 A 
ATOM     42  N   UNL A   1      41.191  29.381  32.576  1.00  0.00    -0.354 N 
ATOM     43  C   UNL A   1      37.939  31.456  30.656  1.00  0.00     0.074 A 
ATOM     44  C   UNL A   1      37.570  30.812  29.413  1.00  0.00     0.031 C 
ATOM     45  C   UNL A   1      42.767  27.810  32.803  1.00  0.00     0.029 A 
ATOM     46  C   UNL A   1      42.215  29.015  33.415  1.00  0.00     0.049 A 
ATOM     47  H   UNL A   1      40.623  30.169  32.731  1.00  0.00     0.167 HD
ATOM     48  C   UNL A   1      37.338  32.567  31.147  1.00  0.00     0.037 A 
ATOM     49  C   UNL A   1      42.662  29.586  34.550  1.00  0.00     0.037 A 
ATOM     50  C   UNL A   1      37.691  33.198  32.392  1.00  0.00     0.049 A 
ATOM     51  C   UNL A   1      41.979  30.819  35.073  1.00  0.00     0.074 A 
ATOM     52  C   UNL A   1      37.107  34.297  32.998  1.00  0.00     0.029 A 
ATOM     53  N   UNL A   1      38.723  32.788  33.221  1.00  0.00    -0.354 N 
ATOM     54  N   UNL A   1      40.963  31.479  34.573  1.00  0.00    -0.248 NA
ATOM     55  C   UNL A   1      42.498  31.378  36.330  1.00  0.00     0.031 C 
ATOM     56  C   UNL A   1      37.814  34.579  34.172  1.00  0.00     0.029 A 
ATOM     57  C   UNL A   1      38.805  33.623  34.325  1.00  0.00     0.049 A 
ATOM     58  H   UNL A   1      39.312  32.017  33.051  1.00  0.00     0.167 HD
ATOM     59  C   UNL A   1      40.701  32.510  35.468  1.00  0.00     0.074 A 
ATOM     60  C   UNL A   1      41.655  32.376  36.549  1.00  0.00     0.031 C 
ATOM     61  C   UNL A   1      39.754  33.477  35.399  1.00  0.00     0.037 A 
BRANCH  48  62
ATOM     62  C   UNL A   1      36.228  33.170  30.333  1.00  0.00     0.057 A 
ATOM     63  C   UNL A   1      34.881  33.005  30.681  1.00  0.00     0.134 A 
ATOM     64  C   UNL A   1      36.510  33.952  29.205  1.00  0.00     0.134 A 
ATOM     65  F   UNL A   1      34.540  32.259  31.743  1.00  0.00    -0.206 F 
ATOM     66  C   UNL A   1      33.854  33.571  29.923  1.00  0.00     0.040 A 
ATOM     67  C   UNL A   1      35.494  34.548  28.455  1.00  0.00     0.040 A 
ATOM     68  F   UNL A   1      37.778  34.158  28.817  1.00  0.00    -0.206 F 
ATOM     69  C   UNL A   1      34.161  34.351  28.811  1.00  0.00     0.006 A 
ENDBRANCH  48  62
BRANCH  49  70
ATOM     70  C   UNL A   1      43.801  28.982  35.288  1.00  0.00     0.057 A 
ATOM     71  C   UNL A   1      43.587  28.020  36.282  1.00  0.00     0.134 A 
ATOM     72  C   UNL A   1      45.123  29.362  35.033  1.00  0.00     0.134 A 
ATOM     73  F   UNL A   1      42.340  27.629  36.587  1.00  0.00    -0.206 F 
ATOM     74  C   UNL A   1      44.643  27.474  37.012  1.00  0.00     0.040 A 
ATOM     75  C   UNL A   1      46.192  28.805  35.736  1.00  0.00     0.040 A 
ATOM     76  F   UNL A   1      45.396  30.274  34.089  1.00  0.00    -0.206 F 
ATOM     77  C   UNL A   1      45.952  27.864  36.736  1.00  0.00     0.006 A 
ENDBRANCH  49  70
BRANCH  61  78
ATOM     78  C   UNL A   1      39.675  34.440  36.550  1.00  0.00     0.057 A 
ATOM     79  C   UNL A   1      40.297  35.695  36.515  1.00  0.00     0.134 A 
ATOM     80  C   UNL A   1      38.952  34.110  37.704  1.00  0.00     0.134 A 
ATOM     81  F   UNL A   1      41.015  36.068  35.444  1.00  0.00    -0.206 F 
ATOM     82  C   UNL A   1      40.232  36.572  37.598  1.00  0.00     0.040 A 
ATOM     83  C   UNL A   1      38.855  34.991  38.781  1.00  0.00     0.040 A 
ATOM     84  F   UNL A   1      38.324  32.929  37.800  1.00  0.00    -0.206 F 
ATOM     85  C   UNL A   1      39.504  36.223  38.734  1.00  0.00     0.006 A 
ENDBRANCH  61  78
ENDBRANCH  35  36
ENDBRANCH  27  30
ENDBRANCH  25  26
ENDBRANCH   1  25
TORSDOF 12
ENDMDL
