MODEL 1
REMARK VINA RESULT:     -12.4      0.000      0.000
REMARK SMILES O=C(Cc1cccc(-c2ccn(C(F)F)c(=O)c2)c1)NCCCNC(=O)c1ccc(-c2c3nc(c(-c4c(F)cccc4F)c4ccc([nH]4)c(-c4c(F)cccc4F)c4nc(c(-c5c(F)cccc5F)c5ccc2[nH]5)C=C4)C=C3)cc1
REMARK SMILES IDX 21 1 20 2 1 3 2 4 3 6 4 7 5 8 19 9 6 10 8 11 7 12 9 13 10 14
REMARK SMILES IDX 18 15 11 16 16 17 12 18 17 19 13 20 14 21 15 22 22 23 23 24
REMARK SMILES IDX 24 25 25 26 26 28 27 29 28 30 80 31 29 32 79 33 30 34 31 35
REMARK SMILES IDX 32 36 73 37 33 38 78 39 72 40 74 41 34 42 77 43 71 44 70 45
REMARK SMILES IDX 35 47 61 48 44 49 60 50 45 51 48 52 59 53 75 54 46 55 47 56
REMARK SMILES IDX 58 58 76 59 49 60 36 61 37 62 42 63 38 64 39 65 41 66 43 67
REMARK SMILES IDX 40 68 62 69 63 70 68 71 64 72 65 73 67 74 69 75 66 76 50 77
REMARK SMILES IDX 51 78 56 79 52 80 53 81 55 82 57 83 54 84
REMARK H PARENT 20 5 24 27 74 46 48 57
REMARK Flexibility Score: inf
ROOT
ATOM      1  C   UNL A   1      35.778  23.348  23.507  1.00  0.00     0.117 C 
ENDROOT
BRANCH   1   2
ATOM      2  N   UNL A   1      34.370  23.156  23.780  1.00  0.00    -0.356 N 
ATOM      3  O   UNL A   1      33.652  23.581  21.637  1.00  0.00    -0.275 OA
ATOM      4  C   UNL A   1      33.419  23.208  22.781  1.00  0.00     0.224 C 
ATOM      5  H   UNL A   1      34.083  22.983  24.706  1.00  0.00     0.163 HD
BRANCH   4   6
ATOM      6  C   UNL A   1      32.056  22.701  23.223  1.00  0.00     0.135 C 
BRANCH   6   7
ATOM      7  C   UNL A   1      31.302  23.699  24.075  1.00  0.00    -0.038 A 
ATOM      8  C   UNL A   1      31.126  23.516  25.456  1.00  0.00     0.004 A 
ATOM      9  C   UNL A   1      30.797  24.867  23.487  1.00  0.00     0.013 A 
ATOM     10  C   UNL A   1      30.432  24.454  26.220  1.00  0.00     0.001 A 
ATOM     11  C   UNL A   1      30.102  25.818  24.249  1.00  0.00    -0.018 A 
ATOM     12  C   UNL A   1      29.917  25.599  25.619  1.00  0.00     0.009 A 
BRANCH  11  13
ATOM     13  C   UNL A   1      29.559  27.020  23.591  1.00  0.00    -0.011 A 
ATOM     14  C   UNL A   1      30.394  27.936  22.840  1.00  0.00     0.027 A 
ATOM     15  C   UNL A   1      28.248  27.284  23.722  1.00  0.00     0.080 A 
ATOM     16  C   UNL A   1      29.871  29.043  22.299  1.00  0.00     0.095 A 
ATOM     17  C   UNL A   1      27.650  28.506  23.115  1.00  0.00     0.255 A 
ATOM     18  N   UNL A   1      28.527  29.333  22.433  1.00  0.00    -0.258 N 
ATOM     19  O   UNL A   1      26.448  28.700  23.261  1.00  0.00    -0.269 OA
BRANCH  18  20
ATOM     20  C   UNL A   1      27.980  30.536  21.863  1.00  0.00     0.451 C 
ATOM     21  F   UNL A   1      27.771  31.478  22.815  1.00  0.00    -0.185 F 
ATOM     22  F   UNL A   1      28.816  31.056  20.932  1.00  0.00    -0.185 F 
ENDBRANCH  18  20
ENDBRANCH  11  13
ENDBRANCH   6   7
ENDBRANCH   4   6
ENDBRANCH   1   2
BRANCH   1  23
ATOM     23  C   UNL A   1      36.606  22.100  23.780  1.00  0.00     0.042 C 
BRANCH  23  24
ATOM     24  C   UNL A   1      36.979  21.877  25.241  1.00  0.00     0.118 C 
BRANCH  24  25
ATOM     25  N   UNL A   1      37.960  20.821  25.447  1.00  0.00    -0.352 N 
ATOM     26  C   UNL A   1      39.207  20.897  26.025  1.00  0.00     0.251 C 
ATOM     27  H   UNL A   1      37.694  19.929  25.130  1.00  0.00     0.163 HD
ATOM     28  O   UNL A   1      39.946  19.917  26.032  1.00  0.00    -0.269 OA
BRANCH  26  29
ATOM     29  C   UNL A   1      39.674  22.178  26.598  1.00  0.00     0.039 A 
ATOM     30  C   UNL A   1      40.656  22.151  27.592  1.00  0.00     0.014 A 
ATOM     31  C   UNL A   1      39.184  23.399  26.127  1.00  0.00     0.014 A 
ATOM     32  C   UNL A   1      41.217  23.348  28.044  1.00  0.00     0.010 A 
ATOM     33  C   UNL A   1      39.790  24.586  26.530  1.00  0.00     0.010 A 
ATOM     34  C   UNL A   1      40.826  24.571  27.478  1.00  0.00    -0.014 A 
BRANCH  34  35
ATOM     35  C   UNL A   1      41.516  25.840  27.826  1.00  0.00     0.031 A 
ATOM     36  C   UNL A   1      40.791  26.919  28.578  1.00  0.00     0.074 A 
ATOM     37  C   UNL A   1      42.771  26.055  27.387  1.00  0.00     0.049 A 
ATOM     38  N   UNL A   1      41.191  28.129  28.878  1.00  0.00    -0.248 NA
ATOM     39  C   UNL A   1      39.427  26.606  29.033  1.00  0.00     0.031 C 
ATOM     40  C   UNL A   1      43.571  25.108  26.607  1.00  0.00     0.029 A 
ATOM     41  N   UNL A   1      43.589  27.150  27.516  1.00  0.00    -0.354 N 
ATOM     42  C   UNL A   1      40.127  28.726  29.541  1.00  0.00     0.074 A 
ATOM     43  C   UNL A   1      39.048  27.761  29.561  1.00  0.00     0.031 C 
ATOM     44  C   UNL A   1      44.768  25.655  26.343  1.00  0.00     0.029 A 
ATOM     45  C   UNL A   1      44.808  27.005  26.895  1.00  0.00     0.049 A 
ATOM     46  H   UNL A   1      43.330  27.962  28.008  1.00  0.00     0.167 HD
ATOM     47  C   UNL A   1      40.060  29.959  30.097  1.00  0.00     0.037 A 
ATOM     48  C   UNL A   1      45.834  27.867  26.771  1.00  0.00     0.037 A 
ATOM     49  C   UNL A   1      41.140  30.910  30.099  1.00  0.00     0.049 A 
ATOM     50  C   UNL A   1      45.729  29.235  27.384  1.00  0.00     0.074 A 
ATOM     51  C   UNL A   1      41.189  32.157  30.697  1.00  0.00     0.029 A 
ATOM     52  N   UNL A   1      42.361  30.722  29.469  1.00  0.00    -0.354 N 
ATOM     53  N   UNL A   1      44.739  29.761  28.062  1.00  0.00    -0.248 NA
ATOM     54  C   UNL A   1      46.884  30.128  27.212  1.00  0.00     0.031 C 
ATOM     55  C   UNL A   1      42.424  32.740  30.395  1.00  0.00     0.029 A 
ATOM     56  C   UNL A   1      43.160  31.839  29.642  1.00  0.00     0.049 A 
ATOM     57  H   UNL A   1      42.621  29.912  28.972  1.00  0.00     0.167 HD
ATOM     58  C   UNL A   1      45.158  31.038  28.416  1.00  0.00     0.074 A 
ATOM     59  C   UNL A   1      46.497  31.201  27.890  1.00  0.00     0.031 C 
ATOM     60  C   UNL A   1      44.491  31.988  29.113  1.00  0.00     0.037 A 
BRANCH  47  61
ATOM     61  C   UNL A   1      38.771  30.349  30.758  1.00  0.00     0.057 A 
ATOM     62  C   UNL A   1      38.520  30.069  32.107  1.00  0.00     0.134 A 
ATOM     63  C   UNL A   1      37.785  31.045  30.047  1.00  0.00     0.134 A 
ATOM     64  F   UNL A   1      39.419  29.395  32.840  1.00  0.00    -0.206 F 
ATOM     65  C   UNL A   1      37.324  30.447  32.720  1.00  0.00     0.040 A 
ATOM     66  C   UNL A   1      36.597  31.451  30.656  1.00  0.00     0.040 A 
ATOM     67  F   UNL A   1      37.966  31.350  28.753  1.00  0.00    -0.206 F 
ATOM     68  C   UNL A   1      36.361  31.146  31.995  1.00  0.00     0.006 A 
ENDBRANCH  47  61
BRANCH  48  69
ATOM     69  C   UNL A   1      47.060  27.460  26.040  1.00  0.00     0.057 A 
ATOM     70  C   UNL A   1      47.153  27.610  24.651  1.00  0.00     0.134 A 
ATOM     71  C   UNL A   1      48.159  26.904  26.704  1.00  0.00     0.134 A 
ATOM     72  F   UNL A   1      46.124  28.118  23.957  1.00  0.00    -0.206 F 
ATOM     73  C   UNL A   1      48.288  27.209  23.947  1.00  0.00     0.040 A 
ATOM     74  C   UNL A   1      49.311  26.518  26.016  1.00  0.00     0.040 A 
ATOM     75  F   UNL A   1      48.133  26.739  28.035  1.00  0.00    -0.206 F 
ATOM     76  C   UNL A   1      49.374  26.665  24.631  1.00  0.00     0.006 A 
ENDBRANCH  48  69
BRANCH  60  77
ATOM     77  C   UNL A   1      45.208  33.282  29.367  1.00  0.00     0.057 A 
ATOM     78  C   UNL A   1      45.083  34.374  28.501  1.00  0.00     0.134 A 
ATOM     79  C   UNL A   1      46.000  33.447  30.510  1.00  0.00     0.134 A 
ATOM     80  F   UNL A   1      44.350  34.274  27.381  1.00  0.00    -0.206 F 
ATOM     81  C   UNL A   1      45.735  35.583  28.753  1.00  0.00     0.040 A 
ATOM     82  C   UNL A   1      46.638  34.657  30.786  1.00  0.00     0.040 A 
ATOM     83  F   UNL A   1      46.155  32.441  31.383  1.00  0.00    -0.206 F 
ATOM     84  C   UNL A   1      46.510  35.728  29.903  1.00  0.00     0.006 A 
ENDBRANCH  60  77
ENDBRANCH  34  35
ENDBRANCH  26  29
ENDBRANCH  24  25
ENDBRANCH  23  24
ENDBRANCH   1  23
TORSDOF 13
ENDMDL
MODEL 2
REMARK VINA RESULT:     -12.4      3.163      6.759
REMARK SMILES O=C(Cc1cccc(-c2ccn(C(F)F)c(=O)c2)c1)NCCCNC(=O)c1ccc(-c2c3nc(c(-c4c(F)cccc4F)c4ccc([nH]4)c(-c4c(F)cccc4F)c4nc(c(-c5c(F)cccc5F)c5ccc2[nH]5)C=C4)C=C3)cc1
REMARK SMILES IDX 21 1 20 2 1 3 2 4 3 6 4 7 5 8 19 9 6 10 8 11 7 12 9 13 10 14
REMARK SMILES IDX 18 15 11 16 16 17 12 18 17 19 13 20 14 21 15 22 22 23 23 24
REMARK SMILES IDX 24 25 25 26 26 28 27 29 28 30 80 31 29 32 79 33 30 34 31 35
REMARK SMILES IDX 32 36 73 37 33 38 78 39 72 40 74 41 34 42 77 43 71 44 70 45
REMARK SMILES IDX 35 47 61 48 44 49 60 50 45 51 48 52 59 53 75 54 46 55 47 56
REMARK SMILES IDX 58 58 76 59 49 60 36 61 37 62 42 63 38 64 39 65 41 66 43 67
REMARK SMILES IDX 40 68 62 69 63 70 68 71 64 72 65 73 67 74 69 75 66 76 50 77
REMARK SMILES IDX 51 78 56 79 52 80 53 81 55 82 57 83 54 84
REMARK H PARENT 20 5 24 27 74 46 48 57
REMARK Flexibility Score: inf
ROOT
ATOM      1  C   UNL A   1      35.220  21.799  24.724  1.00  0.00     0.117 C 
ENDROOT
BRANCH   1   2
ATOM      2  N   UNL A   1      34.170  22.311  23.870  1.00  0.00    -0.356 N 
ATOM      3  O   UNL A   1      32.606  20.722  24.438  1.00  0.00    -0.275 OA
ATOM      4  C   UNL A   1      32.901  21.766  23.866  1.00  0.00     0.224 C 
ATOM      5  H   UNL A   1      34.365  23.071  23.276  1.00  0.00     0.163 HD
BRANCH   4   6
ATOM      6  C   UNL A   1      31.884  22.618  23.126  1.00  0.00     0.135 C 
BRANCH   6   7
ATOM      7  C   UNL A   1      31.241  23.667  24.006  1.00  0.00    -0.038 A 
ATOM      8  C   UNL A   1      31.135  23.510  25.397  1.00  0.00     0.004 A 
ATOM      9  C   UNL A   1      30.771  24.857  23.432  1.00  0.00     0.013 A 
ATOM     10  C   UNL A   1      30.543  24.496  26.187  1.00  0.00     0.001 A 
ATOM     11  C   UNL A   1      30.178  25.855  24.219  1.00  0.00    -0.018 A 
ATOM     12  C   UNL A   1      30.061  25.663  25.601  1.00  0.00     0.009 A 
BRANCH  11  13
ATOM     13  C   UNL A   1      29.669  27.080  23.577  1.00  0.00    -0.011 A 
ATOM     14  C   UNL A   1      30.541  28.022  22.904  1.00  0.00     0.027 A 
ATOM     15  C   UNL A   1      28.352  27.340  23.648  1.00  0.00     0.080 A 
ATOM     16  C   UNL A   1      30.045  29.148  22.376  1.00  0.00     0.095 A 
ATOM     17  C   UNL A   1      27.785  28.583  23.054  1.00  0.00     0.255 A 
ATOM     18  N   UNL A   1      28.696  29.433  22.449  1.00  0.00    -0.258 N 
ATOM     19  O   UNL A   1      26.577  28.773  23.144  1.00  0.00    -0.269 OA
BRANCH  18  20
ATOM     20  C   UNL A   1      28.177  30.656  21.894  1.00  0.00     0.451 C 
ATOM     21  F   UNL A   1      29.148  31.595  21.785  1.00  0.00    -0.185 F 
ATOM     22  F   UNL A   1      27.654  30.446  20.662  1.00  0.00    -0.185 F 
ENDBRANCH  18  20
ENDBRANCH  11  13
ENDBRANCH   6   7
ENDBRANCH   4   6
ENDBRANCH   1   2
BRANCH   1  23
ATOM     23  C   UNL A   1      35.832  22.873  25.613  1.00  0.00     0.042 C 
BRANCH  23  24
ATOM     24  C   UNL A   1      37.145  23.461  25.107  1.00  0.00     0.118 C 
BRANCH  24  25
ATOM     25  N   UNL A   1      38.312  22.643  25.404  1.00  0.00    -0.352 N 
ATOM     26  C   UNL A   1      39.438  22.970  26.126  1.00  0.00     0.251 C 
ATOM     27  H   UNL A   1      38.295  21.731  25.037  1.00  0.00     0.163 HD
ATOM     28  O   UNL A   1      40.376  22.183  26.199  1.00  0.00    -0.269 OA
BRANCH  26  29
ATOM     29  C   UNL A   1      39.533  24.294  26.779  1.00  0.00     0.039 A 
ATOM     30  C   UNL A   1      38.989  24.454  28.056  1.00  0.00     0.014 A 
ATOM     31  C   UNL A   1      40.193  25.357  26.158  1.00  0.00     0.014 A 
ATOM     32  C   UNL A   1      39.192  25.649  28.751  1.00  0.00     0.010 A 
ATOM     33  C   UNL A   1      40.453  26.522  26.876  1.00  0.00     0.010 A 
ATOM     34  C   UNL A   1      39.972  26.671  28.187  1.00  0.00    -0.014 A 
BRANCH  34  35
ATOM     35  C   UNL A   1      40.336  27.884  28.965  1.00  0.00     0.031 A 
ATOM     36  C   UNL A   1      41.639  27.950  29.708  1.00  0.00     0.074 A 
ATOM     37  C   UNL A   1      39.450  28.894  29.072  1.00  0.00     0.049 A 
ATOM     38  N   UNL A   1      42.080  28.875  30.522  1.00  0.00    -0.248 NA
ATOM     39  C   UNL A   1      42.557  26.813  29.534  1.00  0.00     0.031 C 
ATOM     40  C   UNL A   1      38.131  28.936  28.437  1.00  0.00     0.029 A 
ATOM     41  N   UNL A   1      39.518  30.073  29.771  1.00  0.00    -0.354 N 
ATOM     42  C   UNL A   1      43.317  28.428  30.967  1.00  0.00     0.074 A 
ATOM     43  C   UNL A   1      43.537  27.129  30.368  1.00  0.00     0.031 C 
ATOM     44  C   UNL A   1      37.522  30.087  28.762  1.00  0.00     0.029 A 
ATOM     45  C   UNL A   1      38.386  30.846  29.660  1.00  0.00     0.049 A 
ATOM     46  H   UNL A   1      40.303  30.341  30.301  1.00  0.00     0.167 HD
ATOM     47  C   UNL A   1      44.198  29.051  31.786  1.00  0.00     0.037 A 
ATOM     48  C   UNL A   1      38.073  32.025  30.230  1.00  0.00     0.037 A 
ATOM     49  C   UNL A   1      43.991  30.354  32.363  1.00  0.00     0.049 A 
ATOM     50  C   UNL A   1      39.060  32.688  31.148  1.00  0.00     0.074 A 
ATOM     51  C   UNL A   1      44.856  31.095  33.149  1.00  0.00     0.029 A 
ATOM     52  N   UNL A   1      42.837  31.109  32.218  1.00  0.00    -0.354 N 
ATOM     53  N   UNL A   1      40.252  32.281  31.510  1.00  0.00    -0.248 NA
ATOM     54  C   UNL A   1      38.658  33.973  31.738  1.00  0.00     0.031 C 
ATOM     55  C   UNL A   1      44.209  32.280  33.514  1.00  0.00     0.029 A 
ATOM     56  C   UNL A   1      42.957  32.295  32.922  1.00  0.00     0.049 A 
ATOM     57  H   UNL A   1      42.049  30.840  31.693  1.00  0.00     0.167 HD
ATOM     58  C   UNL A   1      40.751  33.268  32.351  1.00  0.00     0.074 A 
ATOM     59  C   UNL A   1      39.738  34.299  32.435  1.00  0.00     0.031 C 
ATOM     60  C   UNL A   1      41.941  33.313  32.996  1.00  0.00     0.037 A 
BRANCH  47  61
ATOM     61  C   UNL A   1      45.473  28.329  32.105  1.00  0.00     0.057 A 
ATOM     62  C   UNL A   1      45.579  27.471  33.207  1.00  0.00     0.134 A 
ATOM     63  C   UNL A   1      46.596  28.463  31.279  1.00  0.00     0.134 A 
ATOM     64  F   UNL A   1      44.542  27.308  34.043  1.00  0.00    -0.206 F 
ATOM     65  C   UNL A   1      46.764  26.790  33.491  1.00  0.00     0.040 A 
ATOM     66  C   UNL A   1      47.779  27.768  31.538  1.00  0.00     0.040 A 
ATOM     67  F   UNL A   1      46.560  29.264  30.204  1.00  0.00    -0.206 F 
ATOM     68  C   UNL A   1      47.867  26.934  32.651  1.00  0.00     0.006 A 
ENDBRANCH  47  61
BRANCH  48  69
ATOM     69  C   UNL A   1      36.764  32.663  29.943  1.00  0.00     0.057 A 
ATOM     70  C   UNL A   1      35.646  32.404  30.745  1.00  0.00     0.134 A 
ATOM     71  C   UNL A   1      36.595  33.534  28.861  1.00  0.00     0.134 A 
ATOM     72  F   UNL A   1      35.742  31.561  31.783  1.00  0.00    -0.206 F 
ATOM     73  C   UNL A   1      34.403  32.976  30.472  1.00  0.00     0.040 A 
ATOM     74  C   UNL A   1      35.363  34.132  28.590  1.00  0.00     0.040 A 
ATOM     75  F   UNL A   1      37.629  33.827  28.059  1.00  0.00    -0.206 F 
ATOM     76  C   UNL A   1      34.261  33.846  29.394  1.00  0.00     0.006 A 
ENDBRANCH  48  69
BRANCH  60  77
ATOM     77  C   UNL A   1      42.222  34.527  33.832  1.00  0.00     0.057 A 
ATOM     78  C   UNL A   1      41.935  34.560  35.202  1.00  0.00     0.134 A 
ATOM     79  C   UNL A   1      42.822  35.660  33.268  1.00  0.00     0.134 A 
ATOM     80  F   UNL A   1      41.346  33.512  35.799  1.00  0.00    -0.206 F 
ATOM     81  C   UNL A   1      42.218  35.685  35.979  1.00  0.00     0.040 A 
ATOM     82  C   UNL A   1      43.131  36.781  34.039  1.00  0.00     0.040 A 
ATOM     83  F   UNL A   1      43.128  35.690  31.963  1.00  0.00    -0.206 F 
ATOM     84  C   UNL A   1      42.824  36.797  35.398  1.00  0.00     0.006 A 
ENDBRANCH  60  77
ENDBRANCH  34  35
ENDBRANCH  26  29
ENDBRANCH  24  25
ENDBRANCH  23  24
ENDBRANCH   1  23
TORSDOF 13
ENDMDL
MODEL 3
REMARK VINA RESULT:     -12.4      2.142      2.777
REMARK SMILES O=C(Cc1cccc(-c2ccn(C(F)F)c(=O)c2)c1)NCCCNC(=O)c1ccc(-c2c3nc(c(-c4c(F)cccc4F)c4ccc([nH]4)c(-c4c(F)cccc4F)c4nc(c(-c5c(F)cccc5F)c5ccc2[nH]5)C=C4)C=C3)cc1
REMARK SMILES IDX 21 1 20 2 1 3 2 4 3 6 4 7 5 8 19 9 6 10 8 11 7 12 9 13 10 14
REMARK SMILES IDX 18 15 11 16 16 17 12 18 17 19 13 20 14 21 15 22 22 23 23 24
REMARK SMILES IDX 24 25 25 26 26 28 27 29 28 30 80 31 29 32 79 33 30 34 31 35
REMARK SMILES IDX 32 36 73 37 33 38 78 39 72 40 74 41 34 42 77 43 71 44 70 45
REMARK SMILES IDX 35 47 61 48 44 49 60 50 45 51 48 52 59 53 75 54 46 55 47 56
REMARK SMILES IDX 58 58 76 59 49 60 36 61 37 62 42 63 38 64 39 65 41 66 43 67
REMARK SMILES IDX 40 68 62 69 63 70 68 71 64 72 65 73 67 74 69 75 66 76 50 77
REMARK SMILES IDX 51 78 56 79 52 80 53 81 55 82 57 83 54 84
REMARK H PARENT 20 5 24 27 74 46 48 57
REMARK Flexibility Score: inf
ROOT
ATOM      1  C   UNL A   1      35.929  21.425  25.670  1.00  0.00     0.117 C 
ENDROOT
BRANCH   1   2
ATOM      2  N   UNL A   1      34.907  21.848  24.738  1.00  0.00    -0.356 N 
ATOM      3  O   UNL A   1      33.740  19.865  24.749  1.00  0.00    -0.275 OA
ATOM      4  C   UNL A   1      33.832  21.042  24.418  1.00  0.00     0.224 C 
ATOM      5  H   UNL A   1      34.979  22.736  24.320  1.00  0.00     0.163 HD
BRANCH   4   6
ATOM      6  C   UNL A   1      32.738  21.773  23.657  1.00  0.00     0.135 C 
BRANCH   6   7
ATOM      7  C   UNL A   1      31.874  22.636  24.550  1.00  0.00    -0.038 A 
ATOM      8  C   UNL A   1      31.420  22.192  25.802  1.00  0.00     0.004 A 
ATOM      9  C   UNL A   1      31.546  23.938  24.145  1.00  0.00     0.013 A 
ATOM     10  C   UNL A   1      30.629  23.010  26.609  1.00  0.00     0.001 A 
ATOM     11  C   UNL A   1      30.754  24.768  24.952  1.00  0.00    -0.018 A 
ATOM     12  C   UNL A   1      30.292  24.292  26.185  1.00  0.00     0.009 A 
BRANCH  11  13
ATOM     13  C   UNL A   1      30.404  26.120  24.480  1.00  0.00    -0.011 A 
ATOM     14  C   UNL A   1      29.111  26.428  23.901  1.00  0.00     0.027 A 
ATOM     15  C   UNL A   1      31.333  27.087  24.565  1.00  0.00     0.080 A 
ATOM     16  C   UNL A   1      28.851  27.657  23.438  1.00  0.00     0.095 A 
ATOM     17  C   UNL A   1      31.053  28.462  24.065  1.00  0.00     0.255 A 
ATOM     18  N   UNL A   1      29.799  28.659  23.510  1.00  0.00    -0.258 N 
ATOM     19  O   UNL A   1      31.933  29.310  24.168  1.00  0.00    -0.269 OA
BRANCH  18  20
ATOM     20  C   UNL A   1      29.514  29.972  22.992  1.00  0.00     0.451 C 
ATOM     21  F   UNL A   1      29.369  29.946  21.645  1.00  0.00    -0.185 F 
ATOM     22  F   UNL A   1      28.373  30.468  23.529  1.00  0.00    -0.185 F 
ENDBRANCH  18  20
ENDBRANCH  11  13
ENDBRANCH   6   7
ENDBRANCH   4   6
ENDBRANCH   1   2
BRANCH   1  23
ATOM     23  C   UNL A   1      37.135  20.804  24.980  1.00  0.00     0.042 C 
BRANCH  23  24
ATOM     24  C   UNL A   1      38.472  21.041  25.675  1.00  0.00     0.118 C 
BRANCH  24  25
ATOM     25  N   UNL A   1      39.388  19.912  25.595  1.00  0.00    -0.352 N 
ATOM     26  C   UNL A   1      40.716  19.847  25.953  1.00  0.00     0.251 C 
ATOM     27  H   UNL A   1      39.005  19.081  25.235  1.00  0.00     0.163 HD
ATOM     28  O   UNL A   1      41.367  18.831  25.728  1.00  0.00    -0.269 OA
BRANCH  26  29
ATOM     29  C   UNL A   1      41.369  21.022  26.569  1.00  0.00     0.039 A 
ATOM     30  C   UNL A   1      41.970  21.970  25.736  1.00  0.00     0.014 A 
ATOM     31  C   UNL A   1      41.349  21.214  27.953  1.00  0.00     0.014 A 
ATOM     32  C   UNL A   1      42.465  23.157  26.281  1.00  0.00     0.010 A 
ATOM     33  C   UNL A   1      41.781  22.425  28.487  1.00  0.00     0.010 A 
ATOM     34  C   UNL A   1      42.325  23.417  27.654  1.00  0.00    -0.014 A 
BRANCH  34  35
ATOM     35  C   UNL A   1      42.697  24.734  28.233  1.00  0.00     0.031 A 
ATOM     36  C   UNL A   1      41.657  25.798  28.436  1.00  0.00     0.074 A 
ATOM     37  C   UNL A   1      43.991  25.001  28.496  1.00  0.00     0.049 A 
ATOM     38  N   UNL A   1      41.809  27.038  28.827  1.00  0.00    -0.248 NA
ATOM     39  C   UNL A   1      40.265  25.427  28.136  1.00  0.00     0.031 C 
ATOM     40  C   UNL A   1      45.106  24.071  28.301  1.00  0.00     0.029 A 
ATOM     41  N   UNL A   1      44.592  26.142  28.966  1.00  0.00    -0.354 N 
ATOM     42  C   UNL A   1      40.539  27.599  28.806  1.00  0.00     0.074 A 
ATOM     43  C   UNL A   1      39.634  26.578  28.322  1.00  0.00     0.031 C 
ATOM     44  C   UNL A   1      46.250  24.673  28.663  1.00  0.00     0.029 A 
ATOM     45  C   UNL A   1      45.959  26.042  29.075  1.00  0.00     0.049 A 
ATOM     46  H   UNL A   1      44.091  26.956  29.203  1.00  0.00     0.167 HD
ATOM     47  C   UNL A   1      40.158  28.846  29.173  1.00  0.00     0.037 A 
ATOM     48  C   UNL A   1      46.875  26.954  29.450  1.00  0.00     0.037 A 
ATOM     49  C   UNL A   1      41.053  29.854  29.678  1.00  0.00     0.049 A 
ATOM     50  C   UNL A   1      46.429  28.335  29.837  1.00  0.00     0.074 A 
ATOM     51  C   UNL A   1      40.748  31.123  30.140  1.00  0.00     0.029 A 
ATOM     52  N   UNL A   1      42.427  29.710  29.784  1.00  0.00    -0.354 N 
ATOM     53  N   UNL A   1      45.216  28.831  29.871  1.00  0.00    -0.248 NA
ATOM     54  C   UNL A   1      47.479  29.284  30.235  1.00  0.00     0.031 C 
ATOM     55  C   UNL A   1      41.943  31.761  30.487  1.00  0.00     0.029 A 
ATOM     56  C   UNL A   1      42.989  30.875  30.279  1.00  0.00     0.049 A 
ATOM     57  H   UNL A   1      42.930  28.899  29.542  1.00  0.00     0.167 HD
ATOM     58  C   UNL A   1      45.354  30.140  30.315  1.00  0.00     0.074 A 
ATOM     59  C   UNL A   1      46.767  30.357  30.550  1.00  0.00     0.031 C 
ATOM     60  C   UNL A   1      44.395  31.078  30.508  1.00  0.00     0.037 A 
BRANCH  47  61
ATOM     61  C   UNL A   1      38.703  29.188  29.046  1.00  0.00     0.057 A 
ATOM     62  C   UNL A   1      37.830  29.117  30.140  1.00  0.00     0.134 A 
ATOM     63  C   UNL A   1      38.177  29.631  27.826  1.00  0.00     0.134 A 
ATOM     64  F   UNL A   1      38.270  28.690  31.333  1.00  0.00    -0.206 F 
ATOM     65  C   UNL A   1      36.481  29.451  30.019  1.00  0.00     0.040 A 
ATOM     66  C   UNL A   1      36.834  29.992  27.699  1.00  0.00     0.040 A 
ATOM     67  F   UNL A   1      38.960  29.729  26.741  1.00  0.00    -0.206 F 
ATOM     68  C   UNL A   1      35.980  29.895  28.796  1.00  0.00     0.006 A 
ENDBRANCH  47  61
BRANCH  48  69
ATOM     69  C   UNL A   1      48.313  26.588  29.485  1.00  0.00     0.057 A 
ATOM     70  C   UNL A   1      48.872  25.973  30.613  1.00  0.00     0.134 A 
ATOM     71  C   UNL A   1      49.163  26.851  28.406  1.00  0.00     0.134 A 
ATOM     72  F   UNL A   1      48.110  25.715  31.687  1.00  0.00    -0.206 F 
ATOM     73  C   UNL A   1      50.226  25.646  30.671  1.00  0.00     0.040 A 
ATOM     74  C   UNL A   1      50.516  26.509  28.441  1.00  0.00     0.040 A 
ATOM     75  F   UNL A   1      48.688  27.433  27.295  1.00  0.00    -0.206 F 
ATOM     76  C   UNL A   1      51.052  25.910  29.580  1.00  0.00     0.006 A 
ENDBRANCH  48  69
BRANCH  60  77
ATOM     77  C   UNL A   1      44.839  32.417  31.020  1.00  0.00     0.057 A 
ATOM     78  C   UNL A   1      45.157  33.467  30.151  1.00  0.00     0.134 A 
ATOM     79  C   UNL A   1      44.912  32.668  32.396  1.00  0.00     0.134 A 
ATOM     80  F   UNL A   1      45.122  33.286  28.821  1.00  0.00    -0.206 F 
ATOM     81  C   UNL A   1      45.549  34.718  30.633  1.00  0.00     0.040 A 
ATOM     82  C   UNL A   1      45.279  33.920  32.889  1.00  0.00     0.040 A 
ATOM     83  F   UNL A   1      44.614  31.706  33.280  1.00  0.00    -0.206 F 
ATOM     84  C   UNL A   1      45.604  34.948  32.006  1.00  0.00     0.006 A 
ENDBRANCH  60  77
ENDBRANCH  34  35
ENDBRANCH  26  29
ENDBRANCH  24  25
ENDBRANCH  23  24
ENDBRANCH   1  23
TORSDOF 13
ENDMDL
