MODEL 1
REMARK VINA RESULT:     -11.7      0.000      0.000
REMARK SMILES COc1ccccc1NC(=O)[C@H](C)c1nc(CC(=O)NCCCNC(=O)c2ccc(-c3c4nc(c(-c5c(F)cccc5F)c5ccc([nH]5)c(-c5c(F)cccc5F)c5nc(c(-c6c(F)cccc6F)c6ccc3[nH]6)C=C5)C=C4)cc2)cs1
REMARK SMILES IDX 18 1 19 2 20 3 17 5 16 6 14 7 15 8 82 9 81 10 12 11 13 12
REMARK SMILES IDX 10 13 9 14 11 16 8 17 3 18 4 19 5 20 7 21 6 22 2 23 1 24
REMARK SMILES IDX 21 25 22 26 23 27 24 28 25 29 26 31 27 32 28 33 80 34 29 35
REMARK SMILES IDX 79 36 30 37 31 38 32 39 73 40 33 41 78 42 72 43 74 44 34 45
REMARK SMILES IDX 77 46 71 47 70 48 35 50 61 51 44 52 60 53 45 54 48 55 59 56
REMARK SMILES IDX 75 57 46 58 47 59 58 61 76 62 49 63 36 64 37 65 42 66 38 67
REMARK SMILES IDX 39 68 41 69 43 70 40 71 62 72 63 73 68 74 64 75 65 76 67 77
REMARK SMILES IDX 69 78 66 79 50 80 51 81 56 82 52 83 53 84 55 85 57 86 54 87
REMARK H PARENT 20 4 9 15 24 30 74 49 48 60
REMARK Flexibility Score: inf
ROOT
ATOM      1  C   UNL A   1      37.497  23.457  25.862  1.00  0.00     0.226 C 
ATOM      2  O   UNL A   1      38.201  24.453  26.050  1.00  0.00    -0.275 OA
ATOM      3  N   UNL A   1      37.972  22.475  25.041  1.00  0.00    -0.356 N 
ATOM      4  H   UNL A   1      38.896  22.596  24.721  1.00  0.00     0.163 HD
ENDROOT
BRANCH   1   5
ATOM      5  C   UNL A   1      36.162  23.295  26.552  1.00  0.00     0.157 C 
BRANCH   5   6
ATOM      6  C   UNL A   1      35.013  23.648  25.672  1.00  0.00     0.061 A 
ATOM      7  C   UNL A   1      32.845  23.553  25.159  1.00  0.00     0.105 A 
ATOM      8  N   UNL A   1      33.789  23.054  25.928  1.00  0.00    -0.245 NA
ATOM      9  S   UNL A   1      33.405  24.730  24.025  1.00  0.00    -0.126 S 
ATOM     10  C   UNL A   1      35.004  24.530  24.611  1.00  0.00     0.091 A 
BRANCH   7  11
ATOM     11  C   UNL A   1      31.394  23.095  25.145  1.00  0.00     0.135 C 
ATOM     12  C   UNL A   1      31.401  21.560  25.081  1.00  0.00     0.026 C 
BRANCH  11  13
ATOM     13  C   UNL A   1      30.683  23.699  26.383  1.00  0.00     0.234 C 
ATOM     14  N   UNL A   1      29.904  24.819  26.266  1.00  0.00    -0.322 N 
ATOM     15  H   UNL A   1      29.084  24.820  26.810  1.00  0.00     0.170 HD
ATOM     16  O   UNL A   1      30.767  23.215  27.517  1.00  0.00    -0.274 OA
BRANCH  14  17
ATOM     17  C   UNL A   1      30.104  25.967  25.482  1.00  0.00     0.083 A 
ATOM     18  C   UNL A   1      31.046  26.947  25.841  1.00  0.00     0.142 A 
ATOM     19  C   UNL A   1      31.176  28.097  25.051  1.00  0.00     0.048 A 
ATOM     20  C   UNL A   1      30.423  28.254  23.886  1.00  0.00     0.004 A 
ATOM     21  C   UNL A   1      29.374  26.122  24.294  1.00  0.00     0.030 A 
ATOM     22  C   UNL A   1      29.529  27.261  23.502  1.00  0.00     0.002 A 
BRANCH  18  23
ATOM     23  O   UNL A   1      31.745  27.003  27.019  1.00  0.00    -0.495 OA
ATOM     24  C   UNL A   1      31.766  28.260  27.683  1.00  0.00     0.278 C 
ENDBRANCH  18  23
ENDBRANCH  14  17
ENDBRANCH  11  13
ENDBRANCH   7  11
ENDBRANCH   5   6
ENDBRANCH   1   5
BRANCH   3  25
ATOM     25  C   UNL A   1      37.298  21.275  24.576  1.00  0.00     0.117 C 
BRANCH  25  26
ATOM     26  C   UNL A   1      38.044  20.007  24.986  1.00  0.00     0.042 C 
BRANCH  26  27
ATOM     27  C   UNL A   1      39.209  20.253  25.943  1.00  0.00     0.118 C 
BRANCH  27  28
ATOM     28  N   UNL A   1      40.203  19.189  25.905  1.00  0.00    -0.352 N 
ATOM     29  C   UNL A   1      41.567  19.237  26.060  1.00  0.00     0.251 C 
ATOM     30  H   UNL A   1      39.840  18.288  25.743  1.00  0.00     0.163 HD
ATOM     31  O   UNL A   1      42.244  18.246  25.810  1.00  0.00    -0.269 OA
BRANCH  29  32
ATOM     32  C   UNL A   1      42.230  20.485  26.500  1.00  0.00     0.039 A 
ATOM     33  C   UNL A   1      42.906  21.256  25.550  1.00  0.00     0.014 A 
ATOM     34  C   UNL A   1      42.196  20.891  27.836  1.00  0.00     0.014 A 
ATOM     35  C   UNL A   1      43.464  22.481  25.921  1.00  0.00     0.010 A 
ATOM     36  C   UNL A   1      42.696  22.142  28.192  1.00  0.00     0.010 A 
ATOM     37  C   UNL A   1      43.312  22.959  27.232  1.00  0.00    -0.014 A 
BRANCH  37  38
ATOM     38  C   UNL A   1      43.720  24.338  27.602  1.00  0.00     0.031 A 
ATOM     39  C   UNL A   1      42.696  25.368  27.981  1.00  0.00     0.074 A 
ATOM     40  C   UNL A   1      45.019  24.685  27.502  1.00  0.00     0.049 A 
ATOM     41  N   UNL A   1      42.856  26.645  28.218  1.00  0.00    -0.248 NA
ATOM     42  C   UNL A   1      41.303  24.905  28.092  1.00  0.00     0.031 C 
ATOM     43  C   UNL A   1      46.106  23.784  27.111  1.00  0.00     0.029 A 
ATOM     44  N   UNL A   1      45.644  25.892  27.697  1.00  0.00    -0.354 N 
ATOM     45  C   UNL A   1      41.589  27.142  28.495  1.00  0.00     0.074 A 
ATOM     46  C   UNL A   1      40.664  26.037  28.357  1.00  0.00     0.031 C 
ATOM     47  C   UNL A   1      47.263  24.465  27.107  1.00  0.00     0.029 A 
ATOM     48  C   UNL A   1      46.994  25.859  27.439  1.00  0.00     0.049 A 
ATOM     49  H   UNL A   1      45.171  26.703  27.993  1.00  0.00     0.167 HD
ATOM     50  C   UNL A   1      41.234  28.401  28.848  1.00  0.00     0.037 A 
ATOM     51  C   UNL A   1      47.909  26.847  27.441  1.00  0.00     0.037 A 
ATOM     52  C   UNL A   1      42.160  29.495  28.990  1.00  0.00     0.049 A 
ATOM     53  C   UNL A   1      47.478  28.248  27.778  1.00  0.00     0.074 A 
ATOM     54  C   UNL A   1      41.905  30.792  29.402  1.00  0.00     0.029 A 
ATOM     55  N   UNL A   1      43.517  29.427  28.708  1.00  0.00    -0.354 N 
ATOM     56  N   UNL A   1      46.289  28.689  28.110  1.00  0.00    -0.248 NA
ATOM     57  C   UNL A   1      48.514  29.290  27.733  1.00  0.00     0.031 C 
ATOM     58  C   UNL A   1      43.093  31.523  29.311  1.00  0.00     0.029 A 
ATOM     59  C   UNL A   1      44.102  30.668  28.896  1.00  0.00     0.049 A 
ATOM     60  H   UNL A   1      43.993  28.615  28.418  1.00  0.00     0.167 HD
ATOM     61  C   UNL A   1      46.436  30.053  28.330  1.00  0.00     0.074 A 
ATOM     62  C   UNL A   1      47.834  30.363  28.116  1.00  0.00     0.031 C 
ATOM     63  C   UNL A   1      45.495  30.966  28.674  1.00  0.00     0.037 A 
BRANCH  50  64
ATOM     64  C   UNL A   1      39.778  28.670  29.099  1.00  0.00     0.057 A 
ATOM     65  C   UNL A   1      39.203  28.511  30.366  1.00  0.00     0.134 A 
ATOM     66  C   UNL A   1      38.951  29.143  28.070  1.00  0.00     0.134 A 
ATOM     67  F   UNL A   1      39.936  28.055  31.393  1.00  0.00    -0.206 F 
ATOM     68  C   UNL A   1      37.854  28.787  30.597  1.00  0.00     0.040 A 
ATOM     69  C   UNL A   1      37.607  29.450  28.296  1.00  0.00     0.040 A 
ATOM     70  F   UNL A   1      39.438  29.329  26.835  1.00  0.00    -0.206 F 
ATOM     71  C   UNL A   1      37.054  29.266  29.561  1.00  0.00     0.006 A 
ENDBRANCH  50  64
BRANCH  51  72
ATOM     72  C   UNL A   1      49.323  26.549  27.100  1.00  0.00     0.057 A 
ATOM     73  C   UNL A   1      49.791  26.675  25.787  1.00  0.00     0.134 A 
ATOM     74  C   UNL A   1      50.240  26.127  28.072  1.00  0.00     0.134 A 
ATOM     75  F   UNL A   1      48.957  27.055  24.808  1.00  0.00    -0.206 F 
ATOM     76  C   UNL A   1      51.111  26.372  25.447  1.00  0.00     0.040 A 
ATOM     77  C   UNL A   1      51.571  25.851  27.752  1.00  0.00     0.040 A 
ATOM     78  F   UNL A   1      49.859  25.992  29.350  1.00  0.00    -0.206 F 
ATOM     79  C   UNL A   1      52.007  25.965  26.433  1.00  0.00     0.006 A 
ENDBRANCH  51  72
BRANCH  63  80
ATOM     80  C   UNL A   1      45.945  32.388  28.849  1.00  0.00     0.057 A 
ATOM     81  C   UNL A   1      45.894  33.311  27.797  1.00  0.00     0.134 A 
ATOM     82  C   UNL A   1      46.384  32.852  30.096  1.00  0.00     0.134 A 
ATOM     83  F   UNL A   1      45.499  32.927  26.574  1.00  0.00    -0.206 F 
ATOM     84  C   UNL A   1      46.276  34.641  27.975  1.00  0.00     0.040 A 
ATOM     85  C   UNL A   1      46.742  34.187  30.294  1.00  0.00     0.040 A 
ATOM     86  F   UNL A   1      46.451  32.022  31.148  1.00  0.00    -0.206 F 
ATOM     87  C   UNL A   1      46.692  35.084  29.229  1.00  0.00     0.006 A 
ENDBRANCH  63  80
ENDBRANCH  37  38
ENDBRANCH  29  32
ENDBRANCH  27  28
ENDBRANCH  26  27
ENDBRANCH  25  26
ENDBRANCH   3  25
TORSDOF 15
ENDMDL
MODEL 2
REMARK VINA RESULT:     -11.7      1.484      6.213
REMARK SMILES COc1ccccc1NC(=O)[C@H](C)c1nc(CC(=O)NCCCNC(=O)c2ccc(-c3c4nc(c(-c5c(F)cccc5F)c5ccc([nH]5)c(-c5c(F)cccc5F)c5nc(c(-c6c(F)cccc6F)c6ccc3[nH]6)C=C5)C=C4)cc2)cs1
REMARK SMILES IDX 18 1 19 2 20 3 17 5 16 6 14 7 15 8 82 9 81 10 12 11 13 12
REMARK SMILES IDX 10 13 9 14 11 16 8 17 3 18 4 19 5 20 7 21 6 22 2 23 1 24
REMARK SMILES IDX 21 25 22 26 23 27 24 28 25 29 26 31 27 32 28 33 80 34 29 35
REMARK SMILES IDX 79 36 30 37 31 38 32 39 73 40 33 41 78 42 72 43 74 44 34 45
REMARK SMILES IDX 77 46 71 47 70 48 35 50 61 51 44 52 60 53 45 54 48 55 59 56
REMARK SMILES IDX 75 57 46 58 47 59 58 61 76 62 49 63 36 64 37 65 42 66 38 67
REMARK SMILES IDX 39 68 41 69 43 70 40 71 62 72 63 73 68 74 64 75 65 76 67 77
REMARK SMILES IDX 69 78 66 79 50 80 51 81 56 82 52 83 53 84 55 85 57 86 54 87
REMARK H PARENT 20 4 9 15 24 30 74 49 48 60
REMARK Flexibility Score: inf
ROOT
ATOM      1  C   UNL A   1      36.400  23.198  25.464  1.00  0.00     0.226 C 
ATOM      2  O   UNL A   1      36.595  24.125  26.254  1.00  0.00    -0.275 OA
ATOM      3  N   UNL A   1      36.436  21.921  25.943  1.00  0.00    -0.356 N 
ATOM      4  H   UNL A   1      36.532  21.835  26.920  1.00  0.00     0.163 HD
ENDROOT
BRANCH   1   5
ATOM      5  C   UNL A   1      36.084  23.458  24.008  1.00  0.00     0.157 C 
BRANCH   5   6
ATOM      6  C   UNL A   1      34.635  23.711  23.771  1.00  0.00     0.061 A 
ATOM      7  C   UNL A   1      32.505  23.623  24.425  1.00  0.00     0.105 A 
ATOM      8  N   UNL A   1      33.728  23.217  24.693  1.00  0.00    -0.245 NA
ATOM      9  S   UNL A   1      32.375  24.576  22.990  1.00  0.00    -0.126 S 
ATOM     10  C   UNL A   1      34.061  24.408  22.728  1.00  0.00     0.091 A 
BRANCH   7  11
ATOM     11  C   UNL A   1      31.261  23.229  25.208  1.00  0.00     0.135 C 
ATOM     12  C   UNL A   1      31.338  21.715  25.455  1.00  0.00     0.026 C 
BRANCH  11  13
ATOM     13  C   UNL A   1      31.196  24.103  26.487  1.00  0.00     0.234 C 
ATOM     14  N   UNL A   1      30.507  25.286  26.492  1.00  0.00    -0.322 N 
ATOM     15  H   UNL A   1      30.008  25.479  27.319  1.00  0.00     0.170 HD
ATOM     16  O   UNL A   1      31.739  23.788  27.551  1.00  0.00    -0.274 OA
BRANCH  14  17
ATOM     17  C   UNL A   1      30.408  26.266  25.491  1.00  0.00     0.083 A 
ATOM     18  C   UNL A   1      31.380  27.271  25.347  1.00  0.00     0.142 A 
ATOM     19  C   UNL A   1      31.213  28.252  24.361  1.00  0.00     0.048 A 
ATOM     20  C   UNL A   1      30.125  28.212  23.488  1.00  0.00     0.004 A 
ATOM     21  C   UNL A   1      29.334  26.218  24.589  1.00  0.00     0.030 A 
ATOM     22  C   UNL A   1      29.190  27.188  23.596  1.00  0.00     0.002 A 
BRANCH  18  23
ATOM     23  O   UNL A   1      32.414  27.524  26.211  1.00  0.00    -0.495 OA
ATOM     24  C   UNL A   1      33.652  26.890  25.920  1.00  0.00     0.278 C 
ENDBRANCH  18  23
ENDBRANCH  14  17
ENDBRANCH  11  13
ENDBRANCH   7  11
ENDBRANCH   5   6
ENDBRANCH   1   5
BRANCH   3  25
ATOM     25  C   UNL A   1      36.352  20.672  25.207  1.00  0.00     0.117 C 
BRANCH  25  26
ATOM     26  C   UNL A   1      37.730  20.164  24.788  1.00  0.00     0.042 C 
BRANCH  26  27
ATOM     27  C   UNL A   1      38.855  20.552  25.745  1.00  0.00     0.118 C 
BRANCH  27  28
ATOM     28  N   UNL A   1      39.888  19.530  25.846  1.00  0.00    -0.352 N 
ATOM     29  C   UNL A   1      41.227  19.641  26.132  1.00  0.00     0.251 C 
ATOM     30  H   UNL A   1      39.577  18.610  25.683  1.00  0.00     0.163 HD
ATOM     31  O   UNL A   1      41.962  18.670  25.987  1.00  0.00    -0.269 OA
BRANCH  29  32
ATOM     32  C   UNL A   1      41.794  20.928  26.587  1.00  0.00     0.039 A 
ATOM     33  C   UNL A   1      42.310  21.809  25.632  1.00  0.00     0.014 A 
ATOM     34  C   UNL A   1      41.828  21.267  27.942  1.00  0.00     0.014 A 
ATOM     35  C   UNL A   1      42.771  23.067  26.025  1.00  0.00     0.010 A 
ATOM     36  C   UNL A   1      42.227  22.546  28.326  1.00  0.00     0.010 A 
ATOM     37  C   UNL A   1      42.678  23.466  27.368  1.00  0.00    -0.014 A 
BRANCH  37  38
ATOM     38  C   UNL A   1      42.974  24.862  27.780  1.00  0.00     0.031 A 
ATOM     39  C   UNL A   1      44.373  25.282  28.129  1.00  0.00     0.074 A 
ATOM     40  C   UNL A   1      41.953  25.729  27.930  1.00  0.00     0.049 A 
ATOM     41  N   UNL A   1      44.796  26.418  28.619  1.00  0.00    -0.248 NA
ATOM     42  C   UNL A   1      45.434  24.285  27.914  1.00  0.00     0.031 C 
ATOM     43  C   UNL A   1      40.545  25.432  27.656  1.00  0.00     0.029 A 
ATOM     44  N   UNL A   1      41.937  27.029  28.373  1.00  0.00    -0.354 N 
ATOM     45  C   UNL A   1      46.168  26.274  28.782  1.00  0.00     0.074 A 
ATOM     46  C   UNL A   1      46.500  24.924  28.377  1.00  0.00     0.031 C 
ATOM     47  C   UNL A   1      39.805  26.520  27.924  1.00  0.00     0.029 A 
ATOM     48  C   UNL A   1      40.675  27.570  28.441  1.00  0.00     0.049 A 
ATOM     49  H   UNL A   1      42.750  27.526  28.618  1.00  0.00     0.167 HD
ATOM     50  C   UNL A   1      47.068  27.189  29.215  1.00  0.00     0.037 A 
ATOM     51  C   UNL A   1      40.260  28.768  28.895  1.00  0.00     0.037 A 
ATOM     52  C   UNL A   1      46.732  28.533  29.612  1.00  0.00     0.049 A 
ATOM     53  C   UNL A   1      41.273  29.744  29.427  1.00  0.00     0.074 A 
ATOM     54  C   UNL A   1      47.581  29.552  30.007  1.00  0.00     0.029 A 
ATOM     55  N   UNL A   1      45.443  29.039  29.679  1.00  0.00    -0.354 N 
ATOM     56  N   UNL A   1      42.576  29.620  29.507  1.00  0.00    -0.248 NA
ATOM     57  C   UNL A   1      40.759  31.022  29.938  1.00  0.00     0.031 C 
ATOM     58  C   UNL A   1      46.803  30.654  30.372  1.00  0.00     0.029 A 
ATOM     59  C   UNL A   1      45.471  30.342  30.150  1.00  0.00     0.049 A 
ATOM     60  H   UNL A   1      44.628  28.546  29.428  1.00  0.00     0.167 HD
ATOM     61  C   UNL A   1      43.038  30.808  30.060  1.00  0.00     0.074 A 
ATOM     62  C   UNL A   1      41.878  31.648  30.275  1.00  0.00     0.031 C 
ATOM     63  C   UNL A   1      44.309  31.167  30.366  1.00  0.00     0.037 A 
BRANCH  50  64
ATOM     64  C   UNL A   1      48.508  26.768  29.294  1.00  0.00     0.057 A 
ATOM     65  C   UNL A   1      49.026  26.103  30.413  1.00  0.00     0.134 A 
ATOM     66  C   UNL A   1      49.376  26.986  28.215  1.00  0.00     0.134 A 
ATOM     67  F   UNL A   1      48.250  25.868  31.482  1.00  0.00    -0.206 F 
ATOM     68  C   UNL A   1      50.359  25.693  30.468  1.00  0.00     0.040 A 
ATOM     69  C   UNL A   1      50.704  26.556  28.247  1.00  0.00     0.040 A 
ATOM     70  F   UNL A   1      48.945  27.608  27.107  1.00  0.00    -0.206 F 
ATOM     71  C   UNL A   1      51.200  25.913  29.379  1.00  0.00     0.006 A 
ENDBRANCH  50  64
BRANCH  51  72
ATOM     72  C   UNL A   1      38.814  29.107  28.880  1.00  0.00     0.057 A 
ATOM     73  C   UNL A   1      38.191  29.557  27.711  1.00  0.00     0.134 A 
ATOM     74  C   UNL A   1      38.022  28.998  30.030  1.00  0.00     0.134 A 
ATOM     75  F   UNL A   1      38.900  29.703  26.582  1.00  0.00    -0.206 F 
ATOM     76  C   UNL A   1      36.839  29.904  27.688  1.00  0.00     0.040 A 
ATOM     77  C   UNL A   1      36.661  29.312  30.015  1.00  0.00     0.040 A 
ATOM     78  F   UNL A   1      38.555  28.567  31.182  1.00  0.00    -0.206 F 
ATOM     79  C   UNL A   1      36.068  29.776  28.842  1.00  0.00     0.006 A 
ENDBRANCH  51  72
BRANCH  63  80
ATOM     80  C   UNL A   1      44.516  32.531  30.959  1.00  0.00     0.057 A 
ATOM     81  C   UNL A   1      44.680  33.666  30.155  1.00  0.00     0.134 A 
ATOM     82  C   UNL A   1      44.498  32.719  32.347  1.00  0.00     0.134 A 
ATOM     83  F   UNL A   1      44.722  33.552  28.819  1.00  0.00    -0.206 F 
ATOM     84  C   UNL A   1      44.832  34.937  30.710  1.00  0.00     0.040 A 
ATOM     85  C   UNL A   1      44.621  33.989  32.914  1.00  0.00     0.040 A 
ATOM     86  F   UNL A   1      44.339  31.675  33.175  1.00  0.00    -0.206 F 
ATOM     87  C   UNL A   1      44.793  35.102  32.093  1.00  0.00     0.006 A 
ENDBRANCH  63  80
ENDBRANCH  37  38
ENDBRANCH  29  32
ENDBRANCH  27  28
ENDBRANCH  26  27
ENDBRANCH  25  26
ENDBRANCH   3  25
TORSDOF 15
ENDMDL
MODEL 3
REMARK VINA RESULT:     -11.4      0.776      6.382
REMARK SMILES COc1ccccc1NC(=O)[C@H](C)c1nc(CC(=O)NCCCNC(=O)c2ccc(-c3c4nc(c(-c5c(F)cccc5F)c5ccc([nH]5)c(-c5c(F)cccc5F)c5nc(c(-c6c(F)cccc6F)c6ccc3[nH]6)C=C5)C=C4)cc2)cs1
REMARK SMILES IDX 18 1 19 2 20 3 17 5 16 6 14 7 15 8 82 9 81 10 12 11 13 12
REMARK SMILES IDX 10 13 9 14 11 16 8 17 3 18 4 19 5 20 7 21 6 22 2 23 1 24
REMARK SMILES IDX 21 25 22 26 23 27 24 28 25 29 26 31 27 32 28 33 80 34 29 35
REMARK SMILES IDX 79 36 30 37 31 38 32 39 73 40 33 41 78 42 72 43 74 44 34 45
REMARK SMILES IDX 77 46 71 47 70 48 35 50 61 51 44 52 60 53 45 54 48 55 59 56
REMARK SMILES IDX 75 57 46 58 47 59 58 61 76 62 49 63 36 64 37 65 42 66 38 67
REMARK SMILES IDX 39 68 41 69 43 70 40 71 62 72 63 73 68 74 64 75 65 76 67 77
REMARK SMILES IDX 69 78 66 79 50 80 51 81 56 82 52 83 53 84 55 85 57 86 54 87
REMARK H PARENT 20 4 9 15 24 30 74 49 48 60
REMARK Flexibility Score: inf
ROOT
ATOM      1  C   UNL A   1      37.438  23.116  25.749  1.00  0.00     0.226 C 
ATOM      2  O   UNL A   1      38.100  24.128  25.994  1.00  0.00    -0.275 OA
ATOM      3  N   UNL A   1      38.042  22.097  25.071  1.00  0.00    -0.356 N 
ATOM      4  H   UNL A   1      39.005  22.211  24.899  1.00  0.00     0.163 HD
ENDROOT
BRANCH   1   5
ATOM      5  C   UNL A   1      36.009  22.977  26.222  1.00  0.00     0.157 C 
BRANCH   5   6
ATOM      6  C   UNL A   1      35.029  23.575  25.273  1.00  0.00     0.061 A 
ATOM      7  C   UNL A   1      32.961  24.231  24.758  1.00  0.00     0.105 A 
ATOM      8  N   UNL A   1      33.690  23.560  25.623  1.00  0.00    -0.245 NA
ATOM      9  S   UNL A   1      33.855  24.866  23.423  1.00  0.00    -0.126 S 
ATOM     10  C   UNL A   1      35.291  24.177  24.059  1.00  0.00     0.091 A 
BRANCH   7  11
ATOM     11  C   UNL A   1      31.447  24.375  24.813  1.00  0.00     0.135 C 
ATOM     12  C   UNL A   1      30.845  23.024  24.402  1.00  0.00     0.026 C 
BRANCH  11  13
ATOM     13  C   UNL A   1      31.058  24.865  26.233  1.00  0.00     0.234 C 
ATOM     14  N   UNL A   1      30.932  26.202  26.501  1.00  0.00    -0.322 N 
ATOM     15  H   UNL A   1      30.190  26.442  27.102  1.00  0.00     0.170 HD
ATOM     16  O   UNL A   1      30.837  24.100  27.176  1.00  0.00    -0.274 OA
BRANCH  14  17
ATOM     17  C   UNL A   1      31.707  27.281  26.046  1.00  0.00     0.083 A 
ATOM     18  C   UNL A   1      31.302  28.068  24.954  1.00  0.00     0.142 A 
ATOM     19  C   UNL A   1      32.132  29.105  24.509  1.00  0.00     0.048 A 
ATOM     20  C   UNL A   1      33.327  29.400  25.169  1.00  0.00     0.004 A 
ATOM     21  C   UNL A   1      32.895  27.604  26.719  1.00  0.00     0.030 A 
ATOM     22  C   UNL A   1      33.703  28.654  26.281  1.00  0.00     0.002 A 
BRANCH  18  23
ATOM     23  O   UNL A   1      30.242  27.813  24.124  1.00  0.00    -0.495 OA
ATOM     24  C   UNL A   1      30.559  27.393  22.803  1.00  0.00     0.278 C 
ENDBRANCH  18  23
ENDBRANCH  14  17
ENDBRANCH  11  13
ENDBRANCH   7  11
ENDBRANCH   5   6
ENDBRANCH   1   5
BRANCH   3  25
ATOM     25  C   UNL A   1      37.455  20.866  24.569  1.00  0.00     0.117 C 
BRANCH  25  26
ATOM     26  C   UNL A   1      38.269  19.639  24.975  1.00  0.00     0.042 C 
BRANCH  26  27
ATOM     27  C   UNL A   1      39.368  19.931  25.994  1.00  0.00     0.118 C 
BRANCH  27  28
ATOM     28  N   UNL A   1      40.420  18.923  25.993  1.00  0.00    -0.352 N 
ATOM     29  C   UNL A   1      41.784  19.057  26.078  1.00  0.00     0.251 C 
ATOM     30  H   UNL A   1      40.101  17.994  25.921  1.00  0.00     0.163 HD
ATOM     31  O   UNL A   1      42.505  18.086  25.875  1.00  0.00    -0.269 OA
BRANCH  29  32
ATOM     32  C   UNL A   1      42.392  20.370  26.385  1.00  0.00     0.039 A 
ATOM     33  C   UNL A   1      43.089  21.039  25.374  1.00  0.00     0.014 A 
ATOM     34  C   UNL A   1      42.288  20.937  27.657  1.00  0.00     0.014 A 
ATOM     35  C   UNL A   1      43.596  22.318  25.611  1.00  0.00     0.010 A 
ATOM     36  C   UNL A   1      42.737  22.238  27.873  1.00  0.00     0.010 A 
ATOM     37  C   UNL A   1      43.374  22.950  26.845  1.00  0.00    -0.014 A 
BRANCH  37  38
ATOM     38  C   UNL A   1      43.727  24.377  27.056  1.00  0.00     0.031 A 
ATOM     39  C   UNL A   1      45.154  24.836  26.975  1.00  0.00     0.074 A 
ATOM     40  C   UNL A   1      42.759  25.243  27.416  1.00  0.00     0.049 A 
ATOM     41  N   UNL A   1      45.660  26.012  27.245  1.00  0.00    -0.248 NA
ATOM     42  C   UNL A   1      46.147  23.836  26.552  1.00  0.00     0.031 C 
ATOM     43  C   UNL A   1      41.340  24.912  27.561  1.00  0.00     0.029 A 
ATOM     44  N   UNL A   1      42.824  26.574  27.749  1.00  0.00    -0.354 N 
ATOM     45  C   UNL A   1      47.028  25.895  27.035  1.00  0.00     0.074 A 
ATOM     46  C   UNL A   1      47.279  24.520  26.656  1.00  0.00     0.031 C 
ATOM     47  C   UNL A   1      40.668  26.010  27.942  1.00  0.00     0.029 A 
ATOM     48  C   UNL A   1      41.613  27.106  28.121  1.00  0.00     0.049 A 
ATOM     49  H   UNL A   1      43.658  27.096  27.724  1.00  0.00     0.167 HD
ATOM     50  C   UNL A   1      47.983  26.850  27.136  1.00  0.00     0.037 A 
ATOM     51  C   UNL A   1      41.300  28.333  28.582  1.00  0.00     0.037 A 
ATOM     52  C   UNL A   1      47.726  28.218  27.509  1.00  0.00     0.049 A 
ATOM     53  C   UNL A   1      42.389  29.357  28.741  1.00  0.00     0.074 A 
ATOM     54  C   UNL A   1      48.618  29.274  27.579  1.00  0.00     0.029 A 
ATOM     55  N   UNL A   1      46.489  28.716  27.890  1.00  0.00    -0.354 N 
ATOM     56  N   UNL A   1      43.668  29.253  28.469  1.00  0.00    -0.248 NA
ATOM     57  C   UNL A   1      41.994  30.667  29.278  1.00  0.00     0.031 C 
ATOM     58  C   UNL A   1      47.935  30.394  28.061  1.00  0.00     0.029 A 
ATOM     59  C   UNL A   1      46.604  30.052  28.238  1.00  0.00     0.049 A 
ATOM     60  H   UNL A   1      45.653  28.197  27.910  1.00  0.00     0.167 HD
ATOM     61  C   UNL A   1      44.226  30.485  28.785  1.00  0.00     0.074 A 
ATOM     62  C   UNL A   1      43.143  31.329  29.248  1.00  0.00     0.031 C 
ATOM     63  C   UNL A   1      45.520  30.880  28.703  1.00  0.00     0.037 A 
BRANCH  50  64
ATOM     64  C   UNL A   1      49.402  26.451  26.847  1.00  0.00     0.057 A 
ATOM     65  C   UNL A   1      49.964  26.587  25.571  1.00  0.00     0.134 A 
ATOM     66  C   UNL A   1      50.232  25.970  27.869  1.00  0.00     0.134 A 
ATOM     67  F   UNL A   1      49.223  27.034  24.546  1.00  0.00    -0.206 F 
ATOM     68  C   UNL A   1      51.291  26.237  25.316  1.00  0.00     0.040 A 
ATOM     69  C   UNL A   1      51.569  25.644  27.632  1.00  0.00     0.040 A 
ATOM     70  F   UNL A   1      49.762  25.825  29.117  1.00  0.00    -0.206 F 
ATOM     71  C   UNL A   1      52.100  25.771  26.351  1.00  0.00     0.006 A 
ENDBRANCH  50  64
BRANCH  51  72
ATOM     72  C   UNL A   1      39.895  28.655  28.939  1.00  0.00     0.057 A 
ATOM     73  C   UNL A   1      39.413  28.438  30.235  1.00  0.00     0.134 A 
ATOM     74  C   UNL A   1      39.000  29.180  27.998  1.00  0.00     0.134 A 
ATOM     75  F   UNL A   1      40.215  27.918  31.175  1.00  0.00    -0.206 F 
ATOM     76  C   UNL A   1      38.087  28.713  30.578  1.00  0.00     0.040 A 
ATOM     77  C   UNL A   1      37.680  29.488  28.336  1.00  0.00     0.040 A 
ATOM     78  F   UNL A   1      39.400  29.417  26.741  1.00  0.00    -0.206 F 
ATOM     79  C   UNL A   1      37.218  29.245  29.628  1.00  0.00     0.006 A 
ENDBRANCH  51  72
BRANCH  63  80
ATOM     80  C   UNL A   1      45.839  32.289  29.114  1.00  0.00     0.057 A 
ATOM     81  C   UNL A   1      46.241  32.601  30.419  1.00  0.00     0.134 A 
ATOM     82  C   UNL A   1      45.795  33.334  28.183  1.00  0.00     0.134 A 
ATOM     83  F   UNL A   1      46.288  31.649  31.362  1.00  0.00    -0.206 F 
ATOM     84  C   UNL A   1      46.575  33.906  30.786  1.00  0.00     0.040 A 
ATOM     85  C   UNL A   1      46.154  34.638  28.531  1.00  0.00     0.040 A 
ATOM     86  F   UNL A   1      45.424  33.104  26.915  1.00  0.00    -0.206 F 
ATOM     87  C   UNL A   1      46.542  34.926  29.839  1.00  0.00     0.006 A 
ENDBRANCH  63  80
ENDBRANCH  37  38
ENDBRANCH  29  32
ENDBRANCH  27  28
ENDBRANCH  26  27
ENDBRANCH  25  26
ENDBRANCH   3  25
TORSDOF 15
ENDMDL
