MODEL 1
REMARK VINA RESULT:     -13.9      0.000      0.000
REMARK SMILES O=C(NCCCNC(=O)[C@H]1[C@H]2CC[C@H](CC2)[C@@H]1C(=O)Nc1sc2c(c1C(=O)N1CCCCC1)CCCC2)c1ccc(-c2c3nc(c(-c4c(F)cccc4F)c4ccc([nH]4)c(-c4c(F)cccc4F)c4nc(c(-c5c(F)cccc5F)c5ccc2[nH]5)C=C4)C=C3)cc1
REMARK SMILES IDX 5 1 4 2 3 3 1 4 2 5 38 7 39 8 91 9 40 10 90 11 41 12 42 13
REMARK SMILES IDX 43 14 84 15 44 16 89 17 83 18 85 19 45 20 88 21 82 22 81 23
REMARK SMILES IDX 46 25 72 26 55 27 71 28 56 29 59 30 70 31 86 32 57 33 58 34
REMARK SMILES IDX 69 36 87 37 60 38 47 39 48 40 53 41 49 42 50 43 52 44 54 45
REMARK SMILES IDX 51 46 73 47 74 48 79 49 75 50 76 51 78 52 80 53 77 54 61 55
REMARK SMILES IDX 62 56 67 57 63 58 64 59 66 60 68 61 65 62 6 63 7 64 8 65
REMARK SMILES IDX 9 67 10 68 11 69 17 70 12 71 16 72 14 73 13 74 15 75 18 76
REMARK SMILES IDX 19 77 20 78 21 80 22 81 25 82 23 83 24 84 37 85 34 86 36 87
REMARK SMILES IDX 35 88 26 89 27 90 28 91 29 92 33 93 30 94 32 95 31 96
REMARK H PARENT 3 6 85 24 59 35 7 66 20 79
REMARK Flexibility Score: inf
ROOT
ATOM      1  C   UNL A   1      37.358  20.627  24.795  1.00  0.00     0.042 C 
ENDROOT
BRANCH   1   2
ATOM      2  C   UNL A   1      38.568  20.721  25.713  1.00  0.00     0.118 C 
BRANCH   2   3
ATOM      3  N   UNL A   1      39.587  19.710  25.535  1.00  0.00    -0.352 N 
ATOM      4  O   UNL A   1      41.585  18.701  25.804  1.00  0.00    -0.269 OA
ATOM      5  C   UNL A   1      40.891  19.700  25.979  1.00  0.00     0.251 C 
ATOM      6  H   UNL A   1      39.311  18.916  25.022  1.00  0.00     0.163 HD
BRANCH   5   7
ATOM      7  C   UNL A   1      41.497  20.909  26.592  1.00  0.00     0.039 A 
ATOM      8  C   UNL A   1      41.576  21.102  27.973  1.00  0.00     0.014 A 
ATOM      9  C   UNL A   1      41.981  21.895  25.728  1.00  0.00     0.014 A 
ATOM     10  C   UNL A   1      41.971  22.342  28.481  1.00  0.00     0.010 A 
ATOM     11  C   UNL A   1      42.454  23.106  26.241  1.00  0.00     0.010 A 
ATOM     12  C   UNL A   1      42.403  23.364  27.618  1.00  0.00    -0.014 A 
BRANCH  12  13
ATOM     13  C   UNL A   1      42.795  24.699  28.149  1.00  0.00     0.031 A 
ATOM     14  C   UNL A   1      41.753  25.749  28.439  1.00  0.00     0.074 A 
ATOM     15  C   UNL A   1      44.096  24.979  28.357  1.00  0.00     0.049 A 
ATOM     16  N   UNL A   1      41.914  26.988  28.836  1.00  0.00    -0.248 NA
ATOM     17  C   UNL A   1      40.346  25.363  28.244  1.00  0.00     0.031 C 
ATOM     18  C   UNL A   1      45.209  24.063  28.110  1.00  0.00     0.029 A 
ATOM     19  N   UNL A   1      44.701  26.120  28.821  1.00  0.00    -0.354 N 
ATOM     20  C   UNL A   1      40.638  27.538  28.902  1.00  0.00     0.074 A 
ATOM     21  C   UNL A   1      39.714  26.503  28.491  1.00  0.00     0.031 C 
ATOM     22  C   UNL A   1      46.358  24.665  28.452  1.00  0.00     0.029 A 
ATOM     23  C   UNL A   1      46.069  26.027  28.892  1.00  0.00     0.049 A 
ATOM     24  H   UNL A   1      44.202  26.929  29.079  1.00  0.00     0.167 HD
ATOM     25  C   UNL A   1      40.270  28.788  29.276  1.00  0.00     0.037 A 
ATOM     26  C   UNL A   1      46.992  26.937  29.253  1.00  0.00     0.037 A 
ATOM     27  C   UNL A   1      41.181  29.810  29.724  1.00  0.00     0.049 A 
ATOM     28  C   UNL A   1      46.557  28.312  29.667  1.00  0.00     0.074 A 
ATOM     29  C   UNL A   1      40.892  31.088  30.170  1.00  0.00     0.029 A 
ATOM     30  N   UNL A   1      42.558  29.669  29.785  1.00  0.00    -0.354 N 
ATOM     31  N   UNL A   1      45.347  28.806  29.749  1.00  0.00    -0.248 NA
ATOM     32  C   UNL A   1      47.619  29.257  30.038  1.00  0.00     0.031 C 
ATOM     33  C   UNL A   1      42.097  31.732  30.473  1.00  0.00     0.029 A 
ATOM     34  C   UNL A   1      43.133  30.841  30.251  1.00  0.00     0.049 A 
ATOM     35  H   UNL A   1      43.055  28.857  29.536  1.00  0.00     0.167 HD
ATOM     36  C   UNL A   1      45.498  30.109  30.204  1.00  0.00     0.074 A 
ATOM     37  C   UNL A   1      46.918  30.325  30.391  1.00  0.00     0.031 C 
ATOM     38  C   UNL A   1      44.546  31.041  30.446  1.00  0.00     0.037 A 
BRANCH  25  39
ATOM     39  C   UNL A   1      38.810  29.132  29.206  1.00  0.00     0.057 A 
ATOM     40  C   UNL A   1      37.974  29.050  30.326  1.00  0.00     0.134 A 
ATOM     41  C   UNL A   1      38.245  29.597  28.011  1.00  0.00     0.134 A 
ATOM     42  F   UNL A   1      38.450  28.602  31.498  1.00  0.00    -0.206 F 
ATOM     43  C   UNL A   1      36.624  29.401  30.257  1.00  0.00     0.040 A 
ATOM     44  C   UNL A   1      36.903  29.972  27.934  1.00  0.00     0.040 A 
ATOM     45  F   UNL A   1      38.992  29.708  26.902  1.00  0.00    -0.206 F 
ATOM     46  C   UNL A   1      36.087  29.870  29.059  1.00  0.00     0.006 A 
ENDBRANCH  25  39
BRANCH  26  47
ATOM     47  C   UNL A   1      48.429  26.567  29.253  1.00  0.00     0.057 A 
ATOM     48  C   UNL A   1      49.242  26.847  28.150  1.00  0.00     0.134 A 
ATOM     49  C   UNL A   1      49.021  25.934  30.352  1.00  0.00     0.134 A 
ATOM     50  F   UNL A   1      48.724  27.435  27.061  1.00  0.00    -0.206 F 
ATOM     51  C   UNL A   1      50.592  26.499  28.133  1.00  0.00     0.040 A 
ATOM     52  C   UNL A   1      50.375  25.602  30.358  1.00  0.00     0.040 A 
ATOM     53  F   UNL A   1      48.293  25.646  31.441  1.00  0.00    -0.206 F 
ATOM     54  C   UNL A   1      51.164  25.880  29.243  1.00  0.00     0.006 A 
ENDBRANCH  26  47
BRANCH  38  55
ATOM     55  C   UNL A   1      45.005  32.363  30.984  1.00  0.00     0.057 A 
ATOM     56  C   UNL A   1      45.318  33.437  30.141  1.00  0.00     0.134 A 
ATOM     57  C   UNL A   1      45.122  32.567  32.364  1.00  0.00     0.134 A 
ATOM     58  F   UNL A   1      45.240  33.300  28.808  1.00  0.00    -0.206 F 
ATOM     59  C   UNL A   1      45.754  34.660  30.652  1.00  0.00     0.040 A 
ATOM     60  C   UNL A   1      45.536  33.792  32.887  1.00  0.00     0.040 A 
ATOM     61  F   UNL A   1      44.834  31.580  33.226  1.00  0.00    -0.206 F 
ATOM     62  C   UNL A   1      45.860  34.842  32.030  1.00  0.00     0.006 A 
ENDBRANCH  38  55
ENDBRANCH  12  13
ENDBRANCH   5   7
ENDBRANCH   2   3
ENDBRANCH   1   2
BRANCH   1  63
ATOM     63  C   UNL A   1      37.009  21.890  24.017  1.00  0.00     0.117 C 
BRANCH  63  64
ATOM     64  N   UNL A   1      36.556  22.990  24.853  1.00  0.00    -0.356 N 
ATOM     65  C   UNL A   1      35.423  23.749  24.821  1.00  0.00     0.224 C 
ATOM     66  H   UNL A   1      37.182  23.231  25.573  1.00  0.00     0.163 HD
ATOM     67  O   UNL A   1      35.319  24.613  25.696  1.00  0.00    -0.275 OA
BRANCH  65  68
ATOM     68  C   UNL A   1      34.332  23.502  23.764  1.00  0.00     0.094 C 
ATOM     69  C   UNL A   1      33.611  22.171  24.131  1.00  0.00     0.002 C 
ATOM     70  C   UNL A   1      33.298  24.681  23.698  1.00  0.00     0.094 C 
ATOM     71  C   UNL A   1      32.898  22.296  25.489  1.00  0.00     0.005 C 
ATOM     72  C   UNL A   1      32.569  21.882  23.045  1.00  0.00     0.005 C 
ATOM     73  C   UNL A   1      31.881  24.093  24.054  1.00  0.00     0.002 C 
ATOM     74  C   UNL A   1      31.943  23.492  25.473  1.00  0.00     0.005 C 
ATOM     75  C   UNL A   1      31.471  22.942  23.102  1.00  0.00     0.005 C 
BRANCH  70  76
ATOM     76  C   UNL A   1      33.188  25.532  22.388  1.00  0.00     0.229 C 
ATOM     77  O   UNL A   1      33.525  25.060  21.296  1.00  0.00    -0.274 OA
ATOM     78  N   UNL A   1      32.495  26.720  22.344  1.00  0.00    -0.317 N 
ATOM     79  H   UNL A   1      31.940  26.842  21.540  1.00  0.00     0.170 HD
BRANCH  78  80
ATOM     80  C   UNL A   1      32.449  27.770  23.238  1.00  0.00     0.108 A 
ATOM     81  S   UNL A   1      33.915  28.345  23.847  1.00  0.00    -0.122 S 
ATOM     82  C   UNL A   1      31.383  28.610  23.589  1.00  0.00     0.078 A 
ATOM     83  C   UNL A   1      33.121  29.238  25.023  1.00  0.00     0.011 A 
ATOM     84  C   UNL A   1      31.807  29.479  24.686  1.00  0.00    -0.019 A 
ATOM     85  C   UNL A   1      33.817  29.720  26.241  1.00  0.00     0.047 C 
ATOM     86  C   UNL A   1      31.008  30.449  25.503  1.00  0.00     0.037 C 
ATOM     87  C   UNL A   1      32.821  30.246  27.269  1.00  0.00     0.006 C 
ATOM     88  C   UNL A   1      31.814  31.169  26.597  1.00  0.00     0.005 C 
BRANCH  82  89
ATOM     89  C   UNL A   1      30.039  28.445  22.997  1.00  0.00     0.257 C 
ATOM     90  O   UNL A   1      29.554  27.328  22.808  1.00  0.00    -0.269 OA
ATOM     91  N   UNL A   1      29.285  29.599  22.783  1.00  0.00    -0.339 N 
ATOM     92  C   UNL A   1      27.909  29.579  23.251  1.00  0.00     0.120 C 
ATOM     93  C   UNL A   1      29.492  30.407  21.584  1.00  0.00     0.120 C 
ATOM     94  C   UNL A   1      27.472  30.993  23.612  1.00  0.00     0.022 C 
ATOM     95  C   UNL A   1      29.003  31.850  21.778  1.00  0.00     0.022 C 
ATOM     96  C   UNL A   1      27.615  31.932  22.415  1.00  0.00     0.004 C 
ENDBRANCH  82  89
ENDBRANCH  78  80
ENDBRANCH  70  76
ENDBRANCH  65  68
ENDBRANCH  63  64
ENDBRANCH   1  63
TORSDOF 13
ENDMDL
MODEL 2
REMARK VINA RESULT:     -13.0      1.710      5.825
REMARK SMILES O=C(NCCCNC(=O)[C@H]1[C@H]2CC[C@H](CC2)[C@@H]1C(=O)Nc1sc2c(c1C(=O)N1CCCCC1)CCCC2)c1ccc(-c2c3nc(c(-c4c(F)cccc4F)c4ccc([nH]4)c(-c4c(F)cccc4F)c4nc(c(-c5c(F)cccc5F)c5ccc2[nH]5)C=C4)C=C3)cc1
REMARK SMILES IDX 5 1 4 2 3 3 1 4 2 5 38 7 39 8 91 9 40 10 90 11 41 12 42 13
REMARK SMILES IDX 43 14 84 15 44 16 89 17 83 18 85 19 45 20 88 21 82 22 81 23
REMARK SMILES IDX 46 25 72 26 55 27 71 28 56 29 59 30 70 31 86 32 57 33 58 34
REMARK SMILES IDX 69 36 87 37 60 38 47 39 48 40 53 41 49 42 50 43 52 44 54 45
REMARK SMILES IDX 51 46 73 47 74 48 79 49 75 50 76 51 78 52 80 53 77 54 61 55
REMARK SMILES IDX 62 56 67 57 63 58 64 59 66 60 68 61 65 62 6 63 7 64 8 65
REMARK SMILES IDX 9 67 10 68 11 69 17 70 12 71 16 72 14 73 13 74 15 75 18 76
REMARK SMILES IDX 19 77 20 78 21 80 22 81 25 82 23 83 24 84 37 85 34 86 36 87
REMARK SMILES IDX 35 88 26 89 27 90 28 91 29 92 33 93 30 94 32 95 31 96
REMARK H PARENT 3 6 85 24 59 35 7 66 20 79
REMARK Flexibility Score: inf
ROOT
ATOM      1  C   UNL A   1      37.265  20.092  24.573  1.00  0.00     0.042 C 
ENDROOT
BRANCH   1   2
ATOM      2  C   UNL A   1      38.093  19.933  25.840  1.00  0.00     0.118 C 
BRANCH   2   3
ATOM      3  N   UNL A   1      39.361  19.250  25.696  1.00  0.00    -0.352 N 
ATOM      4  O   UNL A   1      41.578  18.915  25.917  1.00  0.00    -0.269 OA
ATOM      5  C   UNL A   1      40.625  19.681  26.033  1.00  0.00     0.251 C 
ATOM      6  H   UNL A   1      39.313  18.350  25.300  1.00  0.00     0.163 HD
BRANCH   5   7
ATOM      7  C   UNL A   1      40.865  21.084  26.454  1.00  0.00     0.039 A 
ATOM      8  C   UNL A   1      40.028  22.141  26.088  1.00  0.00     0.014 A 
ATOM      9  C   UNL A   1      41.998  21.339  27.232  1.00  0.00     0.014 A 
ATOM     10  C   UNL A   1      40.416  23.458  26.345  1.00  0.00     0.010 A 
ATOM     11  C   UNL A   1      42.343  22.653  27.559  1.00  0.00     0.010 A 
ATOM     12  C   UNL A   1      41.587  23.730  27.073  1.00  0.00    -0.014 A 
BRANCH  12  13
ATOM     13  C   UNL A   1      42.024  25.130  27.324  1.00  0.00     0.031 A 
ATOM     14  C   UNL A   1      43.347  25.630  26.800  1.00  0.00     0.074 A 
ATOM     15  C   UNL A   1      41.240  25.957  28.042  1.00  0.00     0.049 A 
ATOM     16  N   UNL A   1      43.923  26.793  26.980  1.00  0.00    -0.248 NA
ATOM     17  C   UNL A   1      44.132  24.697  25.976  1.00  0.00     0.031 C 
ATOM     18  C   UNL A   1      39.943  25.604  28.619  1.00  0.00     0.029 A 
ATOM     19  N   UNL A   1      41.424  27.266  28.412  1.00  0.00    -0.354 N 
ATOM     20  C   UNL A   1      45.149  26.719  26.328  1.00  0.00     0.074 A 
ATOM     21  C   UNL A   1      45.240  25.392  25.758  1.00  0.00     0.031 C 
ATOM     22  C   UNL A   1      39.434  26.676  29.245  1.00  0.00     0.029 A 
ATOM     23  C   UNL A   1      40.391  27.776  29.158  1.00  0.00     0.049 A 
ATOM     24  H   UNL A   1      42.220  27.789  28.166  1.00  0.00     0.167 HD
ATOM     25  C   UNL A   1      46.107  27.670  26.209  1.00  0.00     0.037 A 
ATOM     26  C   UNL A   1      40.233  28.986  29.727  1.00  0.00     0.037 A 
ATOM     27  C   UNL A   1      46.005  29.006  26.739  1.00  0.00     0.049 A 
ATOM     28  C   UNL A   1      41.308  30.022  29.576  1.00  0.00     0.074 A 
ATOM     29  C   UNL A   1      46.906  30.051  26.623  1.00  0.00     0.029 A 
ATOM     30  N   UNL A   1      44.938  29.481  27.483  1.00  0.00    -0.354 N 
ATOM     31  N   UNL A   1      42.447  29.944  28.933  1.00  0.00    -0.248 NA
ATOM     32  C   UNL A   1      41.074  31.316  30.231  1.00  0.00     0.031 C 
ATOM     33  C   UNL A   1      46.397  31.151  27.324  1.00  0.00     0.029 A 
ATOM     34  C   UNL A   1      45.162  30.800  27.843  1.00  0.00     0.049 A 
ATOM     35  H   UNL A   1      44.137  28.959  27.721  1.00  0.00     0.167 HD
ATOM     36  C   UNL A   1      43.054  31.183  29.085  1.00  0.00     0.074 A 
ATOM     37  C   UNL A   1      42.152  31.999  29.871  1.00  0.00     0.031 C 
ATOM     38  C   UNL A   1      44.252  31.607  28.614  1.00  0.00     0.037 A 
BRANCH  25  39
ATOM     39  C   UNL A   1      47.369  27.299  25.482  1.00  0.00     0.057 A 
ATOM     40  C   UNL A   1      47.552  27.582  24.123  1.00  0.00     0.134 A 
ATOM     41  C   UNL A   1      48.430  26.693  26.165  1.00  0.00     0.134 A 
ATOM     42  F   UNL A   1      46.570  28.152  23.409  1.00  0.00    -0.206 F 
ATOM     43  C   UNL A   1      48.740  27.258  23.464  1.00  0.00     0.040 A 
ATOM     44  C   UNL A   1      49.632  26.385  25.523  1.00  0.00     0.040 A 
ATOM     45  F   UNL A   1      48.324  26.402  27.470  1.00  0.00    -0.206 F 
ATOM     46  C   UNL A   1      49.787  26.664  24.167  1.00  0.00     0.006 A 
ENDBRANCH  25  39
BRANCH  26  47
ATOM     47  C   UNL A   1      38.994  29.288  30.483  1.00  0.00     0.057 A 
ATOM     48  C   UNL A   1      38.892  28.988  31.845  1.00  0.00     0.134 A 
ATOM     49  C   UNL A   1      37.889  29.885  29.866  1.00  0.00     0.134 A 
ATOM     50  F   UNL A   1      39.914  28.397  32.484  1.00  0.00    -0.206 F 
ATOM     51  C   UNL A   1      37.731  29.260  32.567  1.00  0.00     0.040 A 
ATOM     52  C   UNL A   1      36.729  30.185  30.582  1.00  0.00     0.040 A 
ATOM     53  F   UNL A   1      37.929  30.202  28.564  1.00  0.00    -0.206 F 
ATOM     54  C   UNL A   1      36.647  29.866  31.936  1.00  0.00     0.006 A 
ENDBRANCH  26  47
BRANCH  38  55
ATOM     55  C   UNL A   1      44.632  33.029  28.897  1.00  0.00     0.057 A 
ATOM     56  C   UNL A   1      44.301  34.072  28.023  1.00  0.00     0.134 A 
ATOM     57  C   UNL A   1      45.326  33.360  30.067  1.00  0.00     0.134 A 
ATOM     58  F   UNL A   1      43.650  33.818  26.878  1.00  0.00    -0.206 F 
ATOM     59  C   UNL A   1      44.669  35.391  28.292  1.00  0.00     0.040 A 
ATOM     60  C   UNL A   1      45.679  34.678  30.358  1.00  0.00     0.040 A 
ATOM     61  F   UNL A   1      45.669  32.408  30.948  1.00  0.00    -0.206 F 
ATOM     62  C   UNL A   1      45.357  35.698  29.465  1.00  0.00     0.006 A 
ENDBRANCH  38  55
ENDBRANCH  12  13
ENDBRANCH   5   7
ENDBRANCH   2   3
ENDBRANCH   1   2
BRANCH   1  63
ATOM     63  C   UNL A   1      35.904  20.754  24.741  1.00  0.00     0.117 C 
BRANCH  63  64
ATOM     64  N   UNL A   1      35.967  22.092  25.308  1.00  0.00    -0.356 N 
ATOM     65  C   UNL A   1      35.202  23.204  25.101  1.00  0.00     0.224 C 
ATOM     66  H   UNL A   1      36.694  22.219  25.958  1.00  0.00     0.163 HD
ATOM     67  O   UNL A   1      35.501  24.203  25.759  1.00  0.00    -0.275 OA
BRANCH  65  68
ATOM     68  C   UNL A   1      34.015  23.179  24.121  1.00  0.00     0.094 C 
ATOM     69  C   UNL A   1      33.025  22.078  24.606  1.00  0.00     0.002 C 
ATOM     70  C   UNL A   1      33.288  24.568  24.041  1.00  0.00     0.094 C 
ATOM     71  C   UNL A   1      32.455  22.432  25.991  1.00  0.00     0.005 C 
ATOM     72  C   UNL A   1      31.874  22.000  23.598  1.00  0.00     0.005 C 
ATOM     73  C   UNL A   1      31.799  24.354  24.508  1.00  0.00     0.002 C 
ATOM     74  C   UNL A   1      31.812  23.821  25.955  1.00  0.00     0.005 C 
ATOM     75  C   UNL A   1      31.065  23.295  23.651  1.00  0.00     0.005 C 
BRANCH  70  76
ATOM     76  C   UNL A   1      33.296  25.360  22.691  1.00  0.00     0.229 C 
ATOM     77  O   UNL A   1      33.697  24.830  21.648  1.00  0.00    -0.274 OA
ATOM     78  N   UNL A   1      32.642  26.562  22.545  1.00  0.00    -0.317 N 
ATOM     79  H   UNL A   1      32.149  26.661  21.698  1.00  0.00     0.170 HD
BRANCH  78  80
ATOM     80  C   UNL A   1      32.562  27.652  23.386  1.00  0.00     0.108 A 
ATOM     81  S   UNL A   1      34.005  28.261  24.018  1.00  0.00    -0.122 S 
ATOM     82  C   UNL A   1      31.483  28.505  23.659  1.00  0.00     0.078 A 
ATOM     83  C   UNL A   1      33.167  29.206  25.122  1.00  0.00     0.011 A 
ATOM     84  C   UNL A   1      31.866  29.426  24.728  1.00  0.00    -0.019 A 
ATOM     85  C   UNL A   1      33.819  29.747  26.339  1.00  0.00     0.047 C 
ATOM     86  C   UNL A   1      31.037  30.430  25.470  1.00  0.00     0.037 C 
ATOM     87  C   UNL A   1      32.786  30.317  27.306  1.00  0.00     0.006 C 
ATOM     88  C   UNL A   1      31.802  31.204  26.556  1.00  0.00     0.005 C 
BRANCH  82  89
ATOM     89  C   UNL A   1      30.161  28.306  23.028  1.00  0.00     0.257 C 
ATOM     90  O   UNL A   1      29.710  27.178  22.824  1.00  0.00    -0.269 OA
ATOM     91  N   UNL A   1      29.385  29.442  22.795  1.00  0.00    -0.339 N 
ATOM     92  C   UNL A   1      27.996  29.386  23.222  1.00  0.00     0.120 C 
ATOM     93  C   UNL A   1      29.605  30.257  21.602  1.00  0.00     0.120 C 
ATOM     94  C   UNL A   1      27.514  30.788  23.572  1.00  0.00     0.022 C 
ATOM     95  C   UNL A   1      29.075  31.687  21.784  1.00  0.00     0.022 C 
ATOM     96  C   UNL A   1      27.667  31.733  22.381  1.00  0.00     0.004 C 
ENDBRANCH  82  89
ENDBRANCH  78  80
ENDBRANCH  70  76
ENDBRANCH  65  68
ENDBRANCH  63  64
ENDBRANCH   1  63
TORSDOF 13
ENDMDL
MODEL 3
REMARK VINA RESULT:     -12.8      1.998      6.428
REMARK SMILES O=C(NCCCNC(=O)[C@H]1[C@H]2CC[C@H](CC2)[C@@H]1C(=O)Nc1sc2c(c1C(=O)N1CCCCC1)CCCC2)c1ccc(-c2c3nc(c(-c4c(F)cccc4F)c4ccc([nH]4)c(-c4c(F)cccc4F)c4nc(c(-c5c(F)cccc5F)c5ccc2[nH]5)C=C4)C=C3)cc1
REMARK SMILES IDX 5 1 4 2 3 3 1 4 2 5 38 7 39 8 91 9 40 10 90 11 41 12 42 13
REMARK SMILES IDX 43 14 84 15 44 16 89 17 83 18 85 19 45 20 88 21 82 22 81 23
REMARK SMILES IDX 46 25 72 26 55 27 71 28 56 29 59 30 70 31 86 32 57 33 58 34
REMARK SMILES IDX 69 36 87 37 60 38 47 39 48 40 53 41 49 42 50 43 52 44 54 45
REMARK SMILES IDX 51 46 73 47 74 48 79 49 75 50 76 51 78 52 80 53 77 54 61 55
REMARK SMILES IDX 62 56 67 57 63 58 64 59 66 60 68 61 65 62 6 63 7 64 8 65
REMARK SMILES IDX 9 67 10 68 11 69 17 70 12 71 16 72 14 73 13 74 15 75 18 76
REMARK SMILES IDX 19 77 20 78 21 80 22 81 25 82 23 83 24 84 37 85 34 86 36 87
REMARK SMILES IDX 35 88 26 89 27 90 28 91 29 92 33 93 30 94 32 95 31 96
REMARK H PARENT 3 6 85 24 59 35 7 66 20 79
REMARK Flexibility Score: inf
ROOT
ATOM      1  C   UNL A   1      37.602  21.925  24.939  1.00  0.00     0.042 C 
ENDROOT
BRANCH   1   2
ATOM      2  C   UNL A   1      38.600  22.401  25.985  1.00  0.00     0.118 C 
BRANCH   2   3
ATOM      3  N   UNL A   1      39.954  21.909  25.849  1.00  0.00    -0.352 N 
ATOM      4  O   UNL A   1      42.190  21.872  26.126  1.00  0.00    -0.269 OA
ATOM      5  C   UNL A   1      41.136  22.491  26.249  1.00  0.00     0.251 C 
ATOM      6  H   UNL A   1      40.043  21.033  25.407  1.00  0.00     0.163 HD
BRANCH   5   7
ATOM      7  C   UNL A   1      41.166  23.889  26.747  1.00  0.00     0.039 A 
ATOM      8  C   UNL A   1      40.914  24.993  25.929  1.00  0.00     0.014 A 
ATOM      9  C   UNL A   1      41.488  24.087  28.094  1.00  0.00     0.014 A 
ATOM     10  C   UNL A   1      41.155  26.284  26.408  1.00  0.00     0.010 A 
ATOM     11  C   UNL A   1      41.649  25.381  28.593  1.00  0.00     0.010 A 
ATOM     12  C   UNL A   1      41.539  26.492  27.744  1.00  0.00    -0.014 A 
BRANCH  12  13
ATOM     13  C   UNL A   1      41.828  27.860  28.252  1.00  0.00     0.031 A 
ATOM     14  C   UNL A   1      43.240  28.389  28.281  1.00  0.00     0.074 A 
ATOM     15  C   UNL A   1      40.822  28.631  28.708  1.00  0.00     0.049 A 
ATOM     16  N   UNL A   1      43.689  29.526  28.754  1.00  0.00    -0.248 NA
ATOM     17  C   UNL A   1      44.287  27.523  27.718  1.00  0.00     0.031 C 
ATOM     18  C   UNL A   1      39.412  28.243  28.749  1.00  0.00     0.029 A 
ATOM     19  N   UNL A   1      40.833  29.901  29.229  1.00  0.00    -0.354 N 
ATOM     20  C   UNL A   1      45.068  29.495  28.581  1.00  0.00     0.074 A 
ATOM     21  C   UNL A   1      45.385  28.221  27.972  1.00  0.00     0.031 C 
ATOM     22  C   UNL A   1      38.690  29.263  29.239  1.00  0.00     0.029 A 
ATOM     23  C   UNL A   1      39.591  30.355  29.595  1.00  0.00     0.049 A 
ATOM     24  H   UNL A   1      41.654  30.435  29.330  1.00  0.00     0.167 HD
ATOM     25  C   UNL A   1      45.986  30.442  28.894  1.00  0.00     0.037 A 
ATOM     26  C   UNL A   1      39.215  31.513  30.169  1.00  0.00     0.037 A 
ATOM     27  C   UNL A   1      45.673  31.728  29.464  1.00  0.00     0.049 A 
ATOM     28  C   UNL A   1      40.251  32.547  30.502  1.00  0.00     0.074 A 
ATOM     29  C   UNL A   1      46.533  32.770  29.767  1.00  0.00     0.029 A 
ATOM     30  N   UNL A   1      44.400  32.149  29.813  1.00  0.00    -0.354 N 
ATOM     31  N   UNL A   1      41.545  32.512  30.307  1.00  0.00    -0.248 NA
ATOM     32  C   UNL A   1      39.770  33.782  31.137  1.00  0.00     0.031 C 
ATOM     33  C   UNL A   1      45.784  33.810  30.329  1.00  0.00     0.029 A 
ATOM     34  C   UNL A   1      44.453  33.430  30.340  1.00  0.00     0.049 A 
ATOM     35  H   UNL A   1      43.578  31.617  29.703  1.00  0.00     0.167 HD
ATOM     36  C   UNL A   1      42.032  33.727  30.770  1.00  0.00     0.074 A 
ATOM     37  C   UNL A   1      40.891  34.482  31.246  1.00  0.00     0.031 C 
ATOM     38  C   UNL A   1      43.310  34.177  30.798  1.00  0.00     0.037 A 
BRANCH  25  39
ATOM     39  C   UNL A   1      47.431  30.122  28.640  1.00  0.00     0.057 A 
ATOM     40  C   UNL A   1      48.069  30.473  27.444  1.00  0.00     0.134 A 
ATOM     41  C   UNL A   1      48.204  29.495  29.625  1.00  0.00     0.134 A 
ATOM     42  F   UNL A   1      47.382  31.066  26.456  1.00  0.00    -0.206 F 
ATOM     43  C   UNL A   1      49.421  30.196  27.230  1.00  0.00     0.040 A 
ATOM     44  C   UNL A   1      49.562  29.233  29.432  1.00  0.00     0.040 A 
ATOM     45  F   UNL A   1      47.657  29.139  30.797  1.00  0.00    -0.206 F 
ATOM     46  C   UNL A   1      50.173  29.580  28.229  1.00  0.00     0.006 A 
ENDBRANCH  25  39
BRANCH  26  47
ATOM     47  C   UNL A   1      37.781  31.762  30.453  1.00  0.00     0.057 A 
ATOM     48  C   UNL A   1      37.211  31.373  31.669  1.00  0.00     0.134 A 
ATOM     49  C   UNL A   1      36.951  32.398  29.522  1.00  0.00     0.134 A 
ATOM     50  F   UNL A   1      37.955  30.743  32.592  1.00  0.00    -0.206 F 
ATOM     51  C   UNL A   1      35.863  31.594  31.948  1.00  0.00     0.040 A 
ATOM     52  C   UNL A   1      35.606  32.647  29.796  1.00  0.00     0.040 A 
ATOM     53  F   UNL A   1      37.442  32.800  28.341  1.00  0.00    -0.206 F 
ATOM     54  C   UNL A   1      35.058  32.240  31.011  1.00  0.00     0.006 A 
ENDBRANCH  26  47
BRANCH  38  55
ATOM     55  C   UNL A   1      43.534  35.565  31.318  1.00  0.00     0.057 A 
ATOM     56  C   UNL A   1      43.651  36.666  30.461  1.00  0.00     0.134 A 
ATOM     57  C   UNL A   1      43.620  35.803  32.695  1.00  0.00     0.134 A 
ATOM     58  F   UNL A   1      43.592  36.502  29.130  1.00  0.00    -0.206 F 
ATOM     59  C   UNL A   1      43.869  37.953  30.955  1.00  0.00     0.040 A 
ATOM     60  C   UNL A   1      43.815  37.088  33.202  1.00  0.00     0.040 A 
ATOM     61  F   UNL A   1      43.512  34.791  33.569  1.00  0.00    -0.206 F 
ATOM     62  C   UNL A   1      43.948  38.168  32.330  1.00  0.00     0.006 A 
ENDBRANCH  38  55
ENDBRANCH  12  13
ENDBRANCH   5   7
ENDBRANCH   2   3
ENDBRANCH   1   2
BRANCH   1  63
ATOM     63  C   UNL A   1      36.177  21.698  25.428  1.00  0.00     0.117 C 
BRANCH  63  64
ATOM     64  N   UNL A   1      35.558  22.880  26.007  1.00  0.00    -0.356 N 
ATOM     65  C   UNL A   1      34.519  23.660  25.589  1.00  0.00     0.224 C 
ATOM     66  H   UNL A   1      35.964  23.171  26.855  1.00  0.00     0.163 HD
ATOM     67  O   UNL A   1      34.212  24.602  26.324  1.00  0.00    -0.275 OA
BRANCH  65  68
ATOM     68  C   UNL A   1      33.764  23.343  24.285  1.00  0.00     0.094 C 
ATOM     69  C   UNL A   1      33.035  21.981  24.481  1.00  0.00     0.002 C 
ATOM     70  C   UNL A   1      32.731  24.466  23.915  1.00  0.00     0.094 C 
ATOM     71  C   UNL A   1      31.979  22.085  25.596  1.00  0.00     0.005 C 
ATOM     72  C   UNL A   1      32.337  21.625  23.165  1.00  0.00     0.005 C 
ATOM     73  C   UNL A   1      31.300  23.809  23.895  1.00  0.00     0.002 C 
ATOM     74  C   UNL A   1      31.008  23.230  25.294  1.00  0.00     0.005 C 
ATOM     75  C   UNL A   1      31.215  22.627  22.899  1.00  0.00     0.005 C 
BRANCH  70  76
ATOM     76  C   UNL A   1      32.936  25.294  22.602  1.00  0.00     0.229 C 
ATOM     77  O   UNL A   1      33.344  24.751  21.569  1.00  0.00    -0.274 OA
ATOM     78  N   UNL A   1      32.449  26.573  22.461  1.00  0.00    -0.317 N 
ATOM     79  H   UNL A   1      32.037  26.760  21.587  1.00  0.00     0.170 HD
BRANCH  78  80
ATOM     80  C   UNL A   1      32.444  27.637  23.339  1.00  0.00     0.108 A 
ATOM     81  S   UNL A   1      33.933  28.186  23.913  1.00  0.00    -0.122 S 
ATOM     82  C   UNL A   1      31.404  28.508  23.693  1.00  0.00     0.078 A 
ATOM     83  C   UNL A   1      33.180  29.116  25.088  1.00  0.00     0.011 A 
ATOM     84  C   UNL A   1      31.867  29.384  24.769  1.00  0.00    -0.019 A 
ATOM     85  C   UNL A   1      33.909  29.600  26.286  1.00  0.00     0.047 C 
ATOM     86  C   UNL A   1      31.106  30.385  25.585  1.00  0.00     0.037 C 
ATOM     87  C   UNL A   1      32.943  30.165  27.323  1.00  0.00     0.006 C 
ATOM     88  C   UNL A   1      31.948  31.103  26.653  1.00  0.00     0.005 C 
BRANCH  82  89
ATOM     89  C   UNL A   1      30.047  28.366  23.127  1.00  0.00     0.257 C 
ATOM     90  O   UNL A   1      29.511  27.262  23.014  1.00  0.00    -0.269 OA
ATOM     91  N   UNL A   1      29.341  29.537  22.849  1.00  0.00    -0.339 N 
ATOM     92  C   UNL A   1      27.971  29.606  23.332  1.00  0.00     0.120 C 
ATOM     93  C   UNL A   1      29.567  30.259  21.600  1.00  0.00     0.120 C 
ATOM     94  C   UNL A   1      27.601  31.058  23.607  1.00  0.00     0.022 C 
ATOM     95  C   UNL A   1      29.144  31.731  21.708  1.00  0.00     0.022 C 
ATOM     96  C   UNL A   1      27.769  31.914  22.352  1.00  0.00     0.004 C 
ENDBRANCH  82  89
ENDBRANCH  78  80
ENDBRANCH  70  76
ENDBRANCH  65  68
ENDBRANCH  63  64
ENDBRANCH   1  63
TORSDOF 13
ENDMDL
