MODEL 1
REMARK VINA RESULT:     -13.5      0.000      0.000
REMARK SMILES COc1cc([C@@H]2CC(=O)Nc3c(C(=O)NCCCNC(=O)c4ccc(-c5c6nc(c(-c7c(F)cccc7F)c7ccc([nH]7)c(-c7c(F)cccc7F)c7nc(c(-c8c(F)cccc8F)c8ccc5[nH]8)C=C7)C=C6)cc4)cn(-c4ccc(F)cc4)c32)c(OC)c2c1OCO2
REMARK SMILES IDX 17 1 16 2 15 3 13 4 14 5 12 7 6 8 7 9 85 10 8 11 11 12 77 13
REMARK SMILES IDX 9 14 10 15 76 16 5 18 3 19 4 20 90 21 89 22 91 23 86 24
REMARK SMILES IDX 93 25 92 26 2 27 1 28 87 29 88 30 78 31 79 32 84 33 80 34
REMARK SMILES IDX 83 35 81 36 82 37 18 38 19 39 20 40 21 42 22 43 23 44 75 45
REMARK SMILES IDX 24 46 74 47 25 48 26 49 27 50 68 51 28 52 73 53 67 54 69 55
REMARK SMILES IDX 29 56 72 57 66 58 65 59 30 61 56 62 39 63 55 64 40 65 43 66
REMARK SMILES IDX 54 67 70 68 41 69 42 70 53 72 71 73 44 74 31 75 32 76 37 77
REMARK SMILES IDX 33 78 34 79 36 80 38 81 35 82 57 83 58 84 63 85 59 86 60 87
REMARK SMILES IDX 62 88 64 89 61 90 45 91 46 92 51 93 47 94 48 95 50 96 52 97
REMARK SMILES IDX 49 98
REMARK H PARENT 15 6 10 17 19 41 69 60 43 71
REMARK Flexibility Score: inf
ROOT
ATOM      1  C   UNL A   1      37.952  22.717  25.765  1.00  0.00     0.042 C 
ENDROOT
BRANCH   1   2
ATOM      2  C   UNL A   1      36.811  23.715  25.489  1.00  0.00     0.118 C 
BRANCH   2   3
ATOM      3  N   UNL A   1      35.507  23.114  25.674  1.00  0.00    -0.352 N 
ATOM      4  C   UNL A   1      34.225  23.577  25.515  1.00  0.00     0.254 C 
ATOM      5  O   UNL A   1      33.346  22.724  25.678  1.00  0.00    -0.269 OA
ATOM      6  H   UNL A   1      35.548  22.178  25.977  1.00  0.00     0.163 HD
BRANCH   4   7
ATOM      7  C   UNL A   1      33.864  24.954  25.151  1.00  0.00     0.081 A 
ATOM      8  C   UNL A   1      32.793  28.002  23.276  1.00  0.00     0.082 C 
ATOM      9  C   UNL A   1      33.360  27.641  21.897  1.00  0.00     0.115 C 
ATOM     10  C   UNL A   1      33.214  26.972  24.287  1.00  0.00     0.055 A 
ATOM     11  C   UNL A   1      33.210  26.174  21.605  1.00  0.00     0.225 C 
ATOM     12  C   UNL A   1      33.517  25.668  23.967  1.00  0.00     0.076 A 
ATOM     13  N   UNL A   1      33.459  27.153  25.626  1.00  0.00    -0.317 N 
ATOM     14  O   UNL A   1      33.040  25.733  20.468  1.00  0.00    -0.275 OA
ATOM     15  N   UNL A   1      33.396  25.314  22.650  1.00  0.00    -0.324 N 
ATOM     16  C   UNL A   1      33.905  25.954  26.130  1.00  0.00     0.107 A 
ATOM     17  H   UNL A   1      33.447  24.355  22.437  1.00  0.00     0.170 HD
BRANCH   8  18
ATOM     18  C   UNL A   1      31.284  28.260  23.196  1.00  0.00     0.012 A 
ATOM     19  C   UNL A   1      29.575  29.916  22.612  1.00  0.00     0.165 A 
ATOM     20  C   UNL A   1      30.905  29.515  22.655  1.00  0.00     0.059 A 
ATOM     21  C   UNL A   1      28.612  29.013  23.009  1.00  0.00     0.211 A 
ATOM     22  C   UNL A   1      28.950  27.766  23.493  1.00  0.00     0.211 A 
ATOM     23  O   UNL A   1      27.265  29.213  22.979  1.00  0.00    -0.449 OA
ATOM     24  C   UNL A   1      30.272  27.357  23.616  1.00  0.00     0.168 A 
ATOM     25  O   UNL A   1      27.837  27.052  23.830  1.00  0.00    -0.449 OA
ATOM     26  C   UNL A   1      26.786  27.929  23.402  1.00  0.00     0.468 C 
BRANCH  19  27
ATOM     27  O   UNL A   1      29.325  31.175  22.152  1.00  0.00    -0.493 OA
ATOM     28  C   UNL A   1      28.895  32.045  23.200  1.00  0.00     0.278 C 
ENDBRANCH  19  27
BRANCH  24  29
ATOM     29  O   UNL A   1      30.677  26.161  24.127  1.00  0.00    -0.492 OA
ATOM     30  C   UNL A   1      30.171  25.724  25.380  1.00  0.00     0.278 C 
ENDBRANCH  24  29
ENDBRANCH   8  18
BRANCH  13  31
ATOM     31  C   UNL A   1      33.383  28.372  26.332  1.00  0.00     0.046 A 
ATOM     32  C   UNL A   1      32.155  29.029  26.442  1.00  0.00     0.029 A 
ATOM     33  C   UNL A   1      34.556  28.964  26.810  1.00  0.00     0.029 A 
ATOM     34  C   UNL A   1      32.106  30.332  26.926  1.00  0.00     0.041 A 
ATOM     35  C   UNL A   1      34.501  30.272  27.295  1.00  0.00     0.041 A 
ATOM     36  C   UNL A   1      33.283  30.950  27.327  1.00  0.00     0.123 A 
ATOM     37  F   UNL A   1      33.246  32.222  27.745  1.00  0.00    -0.207 F 
ENDBRANCH  13  31
ENDBRANCH   4   7
ENDBRANCH   2   3
ENDBRANCH   1   2
BRANCH   1  38
ATOM     38  C   UNL A   1      39.021  23.258  26.675  1.00  0.00     0.118 C 
BRANCH  38  39
ATOM     39  N   UNL A   1      40.318  22.619  26.391  1.00  0.00    -0.352 N 
ATOM     40  C   UNL A   1      41.528  23.225  26.120  1.00  0.00     0.251 C 
ATOM     41  H   UNL A   1      40.321  21.635  26.395  1.00  0.00     0.163 HD
ATOM     42  O   UNL A   1      42.442  22.622  25.567  1.00  0.00    -0.269 OA
BRANCH  40  43
ATOM     43  C   UNL A   1      41.681  24.622  26.526  1.00  0.00     0.039 A 
ATOM     44  C   UNL A   1      41.151  25.685  25.792  1.00  0.00     0.014 A 
ATOM     45  C   UNL A   1      42.244  24.814  27.777  1.00  0.00     0.014 A 
ATOM     46  C   UNL A   1      41.127  26.941  26.389  1.00  0.00     0.010 A 
ATOM     47  C   UNL A   1      41.917  25.945  28.457  1.00  0.00     0.010 A 
ATOM     48  C   UNL A   1      41.496  27.050  27.739  1.00  0.00    -0.014 A 
BRANCH  48  49
ATOM     49  C   UNL A   1      41.420  28.294  28.482  1.00  0.00     0.031 A 
ATOM     50  C   UNL A   1      42.528  29.242  28.219  1.00  0.00     0.074 A 
ATOM     51  C   UNL A   1      40.302  28.646  29.158  1.00  0.00     0.049 A 
ATOM     52  N   UNL A   1      43.490  29.568  29.016  1.00  0.00    -0.248 NA
ATOM     53  C   UNL A   1      42.677  29.775  26.856  1.00  0.00     0.031 C 
ATOM     54  C   UNL A   1      38.995  27.969  29.216  1.00  0.00     0.029 A 
ATOM     55  N   UNL A   1      40.072  29.772  29.879  1.00  0.00    -0.354 N 
ATOM     56  C   UNL A   1      44.239  30.523  28.337  1.00  0.00     0.074 A 
ATOM     57  C   UNL A   1      43.824  30.452  26.962  1.00  0.00     0.031 C 
ATOM     58  C   UNL A   1      38.064  28.807  29.721  1.00  0.00     0.029 A 
ATOM     59  C   UNL A   1      38.740  29.989  30.210  1.00  0.00     0.049 A 
ATOM     60  H   UNL A   1      40.794  30.387  30.146  1.00  0.00     0.167 HD
ATOM     61  C   UNL A   1      44.950  31.465  29.018  1.00  0.00     0.037 A 
ATOM     62  C   UNL A   1      38.240  31.081  30.836  1.00  0.00     0.037 A 
ATOM     63  C   UNL A   1      45.084  31.100  30.409  1.00  0.00     0.049 A 
ATOM     64  C   UNL A   1      39.382  31.762  31.497  1.00  0.00     0.074 A 
ATOM     65  C   UNL A   1      45.642  30.029  31.081  1.00  0.00     0.029 A 
ATOM     66  N   UNL A   1      44.237  31.701  31.308  1.00  0.00    -0.354 N 
ATOM     67  N   UNL A   1      40.049  31.249  32.494  1.00  0.00    -0.248 NA
ATOM     68  C   UNL A   1      40.088  32.775  30.727  1.00  0.00     0.031 C 
ATOM     69  C   UNL A   1      44.735  29.755  32.149  1.00  0.00     0.029 A 
ATOM     70  C   UNL A   1      43.725  30.719  32.116  1.00  0.00     0.049 A 
ATOM     71  H   UNL A   1      44.035  32.664  31.362  1.00  0.00     0.167 HD
ATOM     72  C   UNL A   1      41.378  31.550  32.226  1.00  0.00     0.074 A 
ATOM     73  C   UNL A   1      41.332  32.554  31.164  1.00  0.00     0.031 C 
ATOM     74  C   UNL A   1      42.391  30.748  32.675  1.00  0.00     0.037 A 
BRANCH  61  75
ATOM     75  C   UNL A   1      45.184  32.879  28.539  1.00  0.00     0.057 A 
ATOM     76  C   UNL A   1      46.503  33.363  28.469  1.00  0.00     0.134 A 
ATOM     77  C   UNL A   1      44.182  33.864  28.422  1.00  0.00     0.134 A 
ATOM     78  F   UNL A   1      47.549  32.529  28.571  1.00  0.00    -0.206 F 
ATOM     79  C   UNL A   1      46.800  34.729  28.380  1.00  0.00     0.040 A 
ATOM     80  C   UNL A   1      44.467  35.225  28.280  1.00  0.00     0.040 A 
ATOM     81  F   UNL A   1      42.879  33.588  28.540  1.00  0.00    -0.206 F 
ATOM     82  C   UNL A   1      45.779  35.666  28.295  1.00  0.00     0.006 A 
ENDBRANCH  61  75
BRANCH  62  83
ATOM     83  C   UNL A   1      36.931  31.735  30.625  1.00  0.00     0.057 A 
ATOM     84  C   UNL A   1      35.936  31.700  31.610  1.00  0.00     0.134 A 
ATOM     85  C   UNL A   1      36.731  32.646  29.573  1.00  0.00     0.134 A 
ATOM     86  F   UNL A   1      36.061  30.891  32.671  1.00  0.00    -0.206 F 
ATOM     87  C   UNL A   1      34.817  32.542  31.567  1.00  0.00     0.040 A 
ATOM     88  C   UNL A   1      35.617  33.490  29.515  1.00  0.00     0.040 A 
ATOM     89  F   UNL A   1      37.656  32.809  28.615  1.00  0.00    -0.206 F 
ATOM     90  C   UNL A   1      34.663  33.451  30.523  1.00  0.00     0.006 A 
ENDBRANCH  62  83
BRANCH  74  91
ATOM     91  C   UNL A   1      42.046  29.659  33.659  1.00  0.00     0.057 A 
ATOM     92  C   UNL A   1      41.752  28.333  33.304  1.00  0.00     0.134 A 
ATOM     93  C   UNL A   1      42.175  29.925  35.026  1.00  0.00     0.134 A 
ATOM     94  F   UNL A   1      41.701  27.953  32.023  1.00  0.00    -0.206 F 
ATOM     95  C   UNL A   1      41.556  27.333  34.262  1.00  0.00     0.040 A 
ATOM     96  C   UNL A   1      42.015  28.929  35.993  1.00  0.00     0.040 A 
ATOM     97  F   UNL A   1      42.511  31.156  35.445  1.00  0.00    -0.206 F 
ATOM     98  C   UNL A   1      41.696  27.628  35.613  1.00  0.00     0.006 A 
ENDBRANCH  74  91
ENDBRANCH  48  49
ENDBRANCH  40  43
ENDBRANCH  38  39
ENDBRANCH   1  38
TORSDOF 14
ENDMDL
MODEL 2
REMARK VINA RESULT:     -13.0      2.540      6.019
REMARK SMILES COc1cc([C@@H]2CC(=O)Nc3c(C(=O)NCCCNC(=O)c4ccc(-c5c6nc(c(-c7c(F)cccc7F)c7ccc([nH]7)c(-c7c(F)cccc7F)c7nc(c(-c8c(F)cccc8F)c8ccc5[nH]8)C=C7)C=C6)cc4)cn(-c4ccc(F)cc4)c32)c(OC)c2c1OCO2
REMARK SMILES IDX 17 1 16 2 15 3 13 4 14 5 12 7 6 8 7 9 85 10 8 11 11 12 77 13
REMARK SMILES IDX 9 14 10 15 76 16 5 18 3 19 4 20 90 21 89 22 91 23 86 24
REMARK SMILES IDX 93 25 92 26 2 27 1 28 87 29 88 30 78 31 79 32 84 33 80 34
REMARK SMILES IDX 83 35 81 36 82 37 18 38 19 39 20 40 21 42 22 43 23 44 75 45
REMARK SMILES IDX 24 46 74 47 25 48 26 49 27 50 68 51 28 52 73 53 67 54 69 55
REMARK SMILES IDX 29 56 72 57 66 58 65 59 30 61 56 62 39 63 55 64 40 65 43 66
REMARK SMILES IDX 54 67 70 68 41 69 42 70 53 72 71 73 44 74 31 75 32 76 37 77
REMARK SMILES IDX 33 78 34 79 36 80 38 81 35 82 57 83 58 84 63 85 59 86 60 87
REMARK SMILES IDX 62 88 64 89 61 90 45 91 46 92 51 93 47 94 48 95 50 96 52 97
REMARK SMILES IDX 49 98
REMARK H PARENT 15 6 10 17 19 41 69 60 43 71
REMARK Flexibility Score: inf
ROOT
ATOM      1  C   UNL A   1      37.063  21.353  24.597  1.00  0.00     0.042 C 
ENDROOT
BRANCH   1   2
ATOM      2  C   UNL A   1      36.121  22.567  24.716  1.00  0.00     0.118 C 
BRANCH   2   3
ATOM      3  N   UNL A   1      34.846  22.210  25.300  1.00  0.00    -0.352 N 
ATOM      4  C   UNL A   1      33.666  22.889  25.474  1.00  0.00     0.254 C 
ATOM      5  O   UNL A   1      32.744  22.209  25.935  1.00  0.00    -0.269 OA
ATOM      6  H   UNL A   1      34.819  21.288  25.644  1.00  0.00     0.163 HD
BRANCH   4   7
ATOM      7  C   UNL A   1      33.446  24.301  25.131  1.00  0.00     0.081 A 
ATOM      8  C   UNL A   1      32.697  27.471  23.301  1.00  0.00     0.082 C 
ATOM      9  C   UNL A   1      33.236  27.077  21.920  1.00  0.00     0.115 C 
ATOM     10  C   UNL A   1      33.006  26.387  24.297  1.00  0.00     0.055 A 
ATOM     11  C   UNL A   1      32.944  25.637  21.602  1.00  0.00     0.225 C 
ATOM     12  C   UNL A   1      33.181  25.065  23.957  1.00  0.00     0.076 A 
ATOM     13  N   UNL A   1      33.258  26.521  25.640  1.00  0.00    -0.317 N 
ATOM     14  O   UNL A   1      32.740  25.234  20.458  1.00  0.00    -0.275 OA
ATOM     15  N   UNL A   1      33.035  24.746  22.633  1.00  0.00    -0.324 N 
ATOM     16  C   UNL A   1      33.579  25.276  26.128  1.00  0.00     0.107 A 
ATOM     17  H   UNL A   1      32.992  23.790  22.405  1.00  0.00     0.170 HD
BRANCH   8  18
ATOM     18  C   UNL A   1      31.222  27.878  23.217  1.00  0.00     0.012 A 
ATOM     19  C   UNL A   1      29.690  29.698  22.628  1.00  0.00     0.165 A 
ATOM     20  C   UNL A   1      30.973  29.165  22.675  1.00  0.00     0.059 A 
ATOM     21  C   UNL A   1      28.641  28.895  23.022  1.00  0.00     0.211 A 
ATOM     22  C   UNL A   1      28.850  27.621  23.506  1.00  0.00     0.211 A 
ATOM     23  O   UNL A   1      27.320  29.230  22.988  1.00  0.00    -0.449 OA
ATOM     24  C   UNL A   1      30.124  27.081  23.633  1.00  0.00     0.168 A 
ATOM     25  O   UNL A   1      27.669  27.022  23.839  1.00  0.00    -0.449 OA
ATOM     26  C   UNL A   1      26.713  28.000  23.408  1.00  0.00     0.468 C 
BRANCH  19  27
ATOM     27  O   UNL A   1      29.569  30.975  22.168  1.00  0.00    -0.493 OA
ATOM     28  C   UNL A   1      28.794  31.034  20.970  1.00  0.00     0.278 C 
ENDBRANCH  19  27
BRANCH  24  29
ATOM     29  O   UNL A   1      30.405  25.851  24.145  1.00  0.00    -0.492 OA
ATOM     30  C   UNL A   1      29.900  25.488  25.421  1.00  0.00     0.278 C 
ENDBRANCH  24  29
ENDBRANCH   8  18
BRANCH  13  31
ATOM     31  C   UNL A   1      33.299  27.730  26.367  1.00  0.00     0.046 A 
ATOM     32  C   UNL A   1      32.103  28.345  26.748  1.00  0.00     0.029 A 
ATOM     33  C   UNL A   1      34.528  28.357  26.591  1.00  0.00     0.029 A 
ATOM     34  C   UNL A   1      32.119  29.641  27.253  1.00  0.00     0.041 A 
ATOM     35  C   UNL A   1      34.538  29.657  27.099  1.00  0.00     0.041 A 
ATOM     36  C   UNL A   1      33.335  30.294  27.403  1.00  0.00     0.123 A 
ATOM     37  F   UNL A   1      33.350  31.559  27.840  1.00  0.00    -0.207 F 
ENDBRANCH  13  31
ENDBRANCH   4   7
ENDBRANCH   2   3
ENDBRANCH   1   2
BRANCH   1  38
ATOM     38  C   UNL A   1      38.339  21.499  25.379  1.00  0.00     0.118 C 
BRANCH  38  39
ATOM     39  N   UNL A   1      39.011  20.196  25.526  1.00  0.00    -0.352 N 
ATOM     40  C   UNL A   1      40.333  19.946  25.832  1.00  0.00     0.251 C 
ATOM     41  H   UNL A   1      38.444  19.404  25.389  1.00  0.00     0.163 HD
ATOM     42  O   UNL A   1      40.857  18.862  25.593  1.00  0.00    -0.269 OA
BRANCH  40  43
ATOM     43  C   UNL A   1      41.089  21.028  26.464  1.00  0.00     0.039 A 
ATOM     44  C   UNL A   1      41.819  21.967  25.733  1.00  0.00     0.014 A 
ATOM     45  C   UNL A   1      40.898  21.161  27.830  1.00  0.00     0.014 A 
ATOM     46  C   UNL A   1      42.284  23.094  26.402  1.00  0.00     0.010 A 
ATOM     47  C   UNL A   1      41.065  22.392  28.379  1.00  0.00     0.010 A 
ATOM     48  C   UNL A   1      41.877  23.304  27.728  1.00  0.00    -0.014 A 
BRANCH  48  49
ATOM     49  C   UNL A   1      42.229  24.491  28.486  1.00  0.00     0.031 A 
ATOM     50  C   UNL A   1      41.277  25.618  28.350  1.00  0.00     0.074 A 
ATOM     51  C   UNL A   1      43.205  24.466  29.423  1.00  0.00     0.049 A 
ATOM     52  N   UNL A   1      41.466  26.735  27.732  1.00  0.00    -0.248 NA
ATOM     53  C   UNL A   1      39.897  25.423  28.821  1.00  0.00     0.031 C 
ATOM     54  C   UNL A   1      43.995  23.326  29.918  1.00  0.00     0.029 A 
ATOM     55  N   UNL A   1      43.635  25.478  30.218  1.00  0.00    -0.354 N 
ATOM     56  C   UNL A   1      40.308  27.480  27.933  1.00  0.00     0.074 A 
ATOM     57  C   UNL A   1      39.318  26.556  28.416  1.00  0.00     0.031 C 
ATOM     58  C   UNL A   1      44.617  23.661  31.069  1.00  0.00     0.029 A 
ATOM     59  C   UNL A   1      44.440  25.081  31.279  1.00  0.00     0.049 A 
ATOM     60  H   UNL A   1      43.395  26.419  30.055  1.00  0.00     0.167 HD
ATOM     61  C   UNL A   1      40.345  28.842  27.926  1.00  0.00     0.037 A 
ATOM     62  C   UNL A   1      44.914  25.880  32.264  1.00  0.00     0.037 A 
ATOM     63  C   UNL A   1      41.582  29.319  27.354  1.00  0.00     0.049 A 
ATOM     64  C   UNL A   1      44.815  27.278  31.773  1.00  0.00     0.074 A 
ATOM     65  C   UNL A   1      42.200  29.182  26.126  1.00  0.00     0.029 A 
ATOM     66  N   UNL A   1      42.570  29.720  28.223  1.00  0.00    -0.354 N 
ATOM     67  N   UNL A   1      45.521  27.746  30.780  1.00  0.00    -0.248 NA
ATOM     68  C   UNL A   1      43.583  27.997  32.057  1.00  0.00     0.031 C 
ATOM     69  C   UNL A   1      43.586  29.018  26.428  1.00  0.00     0.029 A 
ATOM     70  C   UNL A   1      43.744  29.143  27.809  1.00  0.00     0.049 A 
ATOM     71  H   UNL A   1      42.455  30.314  29.000  1.00  0.00     0.167 HD
ATOM     72  C   UNL A   1      44.638  28.535  30.055  1.00  0.00     0.074 A 
ATOM     73  C   UNL A   1      43.480  28.709  30.931  1.00  0.00     0.031 C 
ATOM     74  C   UNL A   1      44.795  28.722  28.710  1.00  0.00     0.037 A 
BRANCH  61  75
ATOM     75  C   UNL A   1      39.464  29.731  28.773  1.00  0.00     0.057 A 
ATOM     76  C   UNL A   1      38.261  30.215  28.227  1.00  0.00     0.134 A 
ATOM     77  C   UNL A   1      39.869  30.359  29.969  1.00  0.00     0.134 A 
ATOM     78  F   UNL A   1      37.767  29.706  27.087  1.00  0.00    -0.206 F 
ATOM     79  C   UNL A   1      37.565  31.297  28.779  1.00  0.00     0.040 A 
ATOM     80  C   UNL A   1      39.153  31.405  30.557  1.00  0.00     0.040 A 
ATOM     81  F   UNL A   1      41.022  30.072  30.582  1.00  0.00    -0.206 F 
ATOM     82  C   UNL A   1      38.017  31.903  29.944  1.00  0.00     0.006 A 
ENDBRANCH  61  75
BRANCH  62  83
ATOM     83  C   UNL A   1      45.129  25.545  33.688  1.00  0.00     0.057 A 
ATOM     84  C   UNL A   1      44.049  25.364  34.560  1.00  0.00     0.134 A 
ATOM     85  C   UNL A   1      46.384  25.119  34.157  1.00  0.00     0.134 A 
ATOM     86  F   UNL A   1      42.808  25.704  34.183  1.00  0.00    -0.206 F 
ATOM     87  C   UNL A   1      44.202  24.767  35.819  1.00  0.00     0.040 A 
ATOM     88  C   UNL A   1      46.552  24.525  35.412  1.00  0.00     0.040 A 
ATOM     89  F   UNL A   1      47.472  25.183  33.375  1.00  0.00    -0.206 F 
ATOM     90  C   UNL A   1      45.455  24.333  36.243  1.00  0.00     0.006 A 
ENDBRANCH  62  83
BRANCH  74  91
ATOM     91  C   UNL A   1      46.076  28.244  28.075  1.00  0.00     0.057 A 
ATOM     92  C   UNL A   1      46.243  26.985  27.476  1.00  0.00     0.134 A 
ATOM     93  C   UNL A   1      47.130  29.151  27.924  1.00  0.00     0.134 A 
ATOM     94  F   UNL A   1      45.258  26.079  27.479  1.00  0.00    -0.206 F 
ATOM     95  C   UNL A   1      47.414  26.634  26.795  1.00  0.00     0.040 A 
ATOM     96  C   UNL A   1      48.292  28.826  27.219  1.00  0.00     0.040 A 
ATOM     97  F   UNL A   1      47.025  30.394  28.420  1.00  0.00    -0.206 F 
ATOM     98  C   UNL A   1      48.441  27.560  26.658  1.00  0.00     0.006 A 
ENDBRANCH  74  91
ENDBRANCH  48  49
ENDBRANCH  40  43
ENDBRANCH  38  39
ENDBRANCH   1  38
TORSDOF 14
ENDMDL
MODEL 3
REMARK VINA RESULT:     -12.2      5.587     10.211
REMARK SMILES COc1cc([C@@H]2CC(=O)Nc3c(C(=O)NCCCNC(=O)c4ccc(-c5c6nc(c(-c7c(F)cccc7F)c7ccc([nH]7)c(-c7c(F)cccc7F)c7nc(c(-c8c(F)cccc8F)c8ccc5[nH]8)C=C7)C=C6)cc4)cn(-c4ccc(F)cc4)c32)c(OC)c2c1OCO2
REMARK SMILES IDX 17 1 16 2 15 3 13 4 14 5 12 7 6 8 7 9 85 10 8 11 11 12 77 13
REMARK SMILES IDX 9 14 10 15 76 16 5 18 3 19 4 20 90 21 89 22 91 23 86 24
REMARK SMILES IDX 93 25 92 26 2 27 1 28 87 29 88 30 78 31 79 32 84 33 80 34
REMARK SMILES IDX 83 35 81 36 82 37 18 38 19 39 20 40 21 42 22 43 23 44 75 45
REMARK SMILES IDX 24 46 74 47 25 48 26 49 27 50 68 51 28 52 73 53 67 54 69 55
REMARK SMILES IDX 29 56 72 57 66 58 65 59 30 61 56 62 39 63 55 64 40 65 43 66
REMARK SMILES IDX 54 67 70 68 41 69 42 70 53 72 71 73 44 74 31 75 32 76 37 77
REMARK SMILES IDX 33 78 34 79 36 80 38 81 35 82 57 83 58 84 63 85 59 86 60 87
REMARK SMILES IDX 62 88 64 89 61 90 45 91 46 92 51 93 47 94 48 95 50 96 52 97
REMARK SMILES IDX 49 98
REMARK H PARENT 15 6 10 17 19 41 69 60 43 71
REMARK Flexibility Score: inf
ROOT
ATOM      1  C   UNL A   1      41.792  27.026  35.620  1.00  0.00     0.042 C 
ENDROOT
BRANCH   1   2
ATOM      2  C   UNL A   1      42.649  28.285  35.387  1.00  0.00     0.118 C 
BRANCH   2   3
ATOM      3  N   UNL A   1      42.182  29.413  36.164  1.00  0.00    -0.352 N 
ATOM      4  C   UNL A   1      41.405  30.504  35.869  1.00  0.00     0.254 C 
ATOM      5  O   UNL A   1      41.133  31.220  36.839  1.00  0.00    -0.269 OA
ATOM      6  H   UNL A   1      42.486  29.393  37.101  1.00  0.00     0.163 HD
BRANCH   4   7
ATOM      7  C   UNL A   1      40.882  30.833  34.535  1.00  0.00     0.081 A 
ATOM      8  C   UNL A   1      38.866  30.895  31.391  1.00  0.00     0.082 C 
ATOM      9  C   UNL A   1      38.494  29.408  31.322  1.00  0.00     0.115 C 
ATOM     10  C   UNL A   1      39.822  31.129  32.529  1.00  0.00     0.055 A 
ATOM     11  C   UNL A   1      38.215  28.843  32.687  1.00  0.00     0.225 C 
ATOM     12  C   UNL A   1      39.886  30.331  33.648  1.00  0.00     0.076 A 
ATOM     13  N   UNL A   1      40.821  32.067  32.613  1.00  0.00    -0.317 N 
ATOM     14  O   UNL A   1      37.401  27.942  32.883  1.00  0.00    -0.275 OA
ATOM     15  N   UNL A   1      39.001  29.288  33.711  1.00  0.00    -0.324 N 
ATOM     16  C   UNL A   1      41.494  31.850  33.793  1.00  0.00     0.107 A 
ATOM     17  H   UNL A   1      38.924  28.817  34.572  1.00  0.00     0.170 HD
BRANCH   8  18
ATOM     18  C   UNL A   1      37.610  31.773  31.403  1.00  0.00     0.012 A 
ATOM     19  C   UNL A   1      35.963  32.873  32.847  1.00  0.00     0.165 A 
ATOM     20  C   UNL A   1      37.144  32.157  32.687  1.00  0.00     0.059 A 
ATOM     21  C   UNL A   1      35.306  33.301  31.714  1.00  0.00     0.211 A 
ATOM     22  C   UNL A   1      35.765  32.985  30.452  1.00  0.00     0.211 A 
ATOM     23  O   UNL A   1      34.174  34.059  31.682  1.00  0.00    -0.449 OA
ATOM     24  C   UNL A   1      36.903  32.212  30.254  1.00  0.00     0.168 A 
ATOM     25  O   UNL A   1      34.952  33.509  29.488  1.00  0.00    -0.449 OA
ATOM     26  C   UNL A   1      34.022  34.269  30.272  1.00  0.00     0.468 C 
BRANCH  19  27
ATOM     27  O   UNL A   1      35.559  33.117  34.126  1.00  0.00    -0.493 OA
ATOM     28  C   UNL A   1      36.669  33.302  35.005  1.00  0.00     0.278 C 
ENDBRANCH  19  27
BRANCH  24  29
ATOM     29  O   UNL A   1      37.384  31.825  29.040  1.00  0.00    -0.492 OA
ATOM     30  C   UNL A   1      36.703  30.822  28.301  1.00  0.00     0.278 C 
ENDBRANCH  24  29
ENDBRANCH   8  18
BRANCH  13  31
ATOM     31  C   UNL A   1      41.172  33.006  31.621  1.00  0.00     0.046 A 
ATOM     32  C   UNL A   1      40.363  34.128  31.416  1.00  0.00     0.029 A 
ATOM     33  C   UNL A   1      42.255  32.743  30.776  1.00  0.00     0.029 A 
ATOM     34  C   UNL A   1      40.561  34.932  30.299  1.00  0.00     0.041 A 
ATOM     35  C   UNL A   1      42.449  33.554  29.657  1.00  0.00     0.041 A 
ATOM     36  C   UNL A   1      41.588  34.624  29.417  1.00  0.00     0.123 A 
ATOM     37  F   UNL A   1      41.749  35.366  28.313  1.00  0.00    -0.207 F 
ENDBRANCH  13  31
ENDBRANCH   4   7
ENDBRANCH   2   3
ENDBRANCH   1   2
BRANCH   1  38
ATOM     38  C   UNL A   1      42.576  25.744  35.578  1.00  0.00     0.118 C 
BRANCH  38  39
ATOM     39  N   UNL A   1      43.801  25.856  36.389  1.00  0.00    -0.352 N 
ATOM     40  C   UNL A   1      45.084  25.471  36.058  1.00  0.00     0.251 C 
ATOM     41  H   UNL A   1      43.689  26.256  37.282  1.00  0.00     0.163 HD
ATOM     42  O   UNL A   1      45.945  25.291  36.913  1.00  0.00    -0.269 OA
BRANCH  40  43
ATOM     43  C   UNL A   1      45.382  25.292  34.637  1.00  0.00     0.039 A 
ATOM     44  C   UNL A   1      45.311  24.052  34.000  1.00  0.00     0.014 A 
ATOM     45  C   UNL A   1      45.577  26.464  33.923  1.00  0.00     0.014 A 
ATOM     46  C   UNL A   1      45.359  24.030  32.610  1.00  0.00     0.010 A 
ATOM     47  C   UNL A   1      45.293  26.457  32.595  1.00  0.00     0.010 A 
ATOM     48  C   UNL A   1      45.327  25.251  31.917  1.00  0.00    -0.014 A 
BRANCH  48  49
ATOM     49  C   UNL A   1      45.281  25.338  30.469  1.00  0.00     0.031 A 
ATOM     50  C   UNL A   1      46.376  26.129  29.861  1.00  0.00     0.074 A 
ATOM     51  C   UNL A   1      44.452  24.555  29.740  1.00  0.00     0.049 A 
ATOM     52  N   UNL A   1      46.289  27.286  29.295  1.00  0.00    -0.248 NA
ATOM     53  C   UNL A   1      47.757  25.654  30.037  1.00  0.00     0.031 C 
ATOM     54  C   UNL A   1      43.562  23.469  30.186  1.00  0.00     0.029 A 
ATOM     55  N   UNL A   1      44.308  24.507  28.393  1.00  0.00    -0.354 N 
ATOM     56  C   UNL A   1      47.570  27.583  28.839  1.00  0.00     0.074 A 
ATOM     57  C   UNL A   1      48.453  26.660  29.500  1.00  0.00     0.031 C 
ATOM     58  C   UNL A   1      43.169  22.731  29.126  1.00  0.00     0.029 A 
ATOM     59  C   UNL A   1      43.602  23.406  27.922  1.00  0.00     0.049 A 
ATOM     60  H   UNL A   1      44.673  25.199  27.795  1.00  0.00     0.167 HD
ATOM     61  C   UNL A   1      47.755  28.394  27.760  1.00  0.00     0.037 A 
ATOM     62  C   UNL A   1      43.405  23.078  26.623  1.00  0.00     0.037 A 
ATOM     63  C   UNL A   1      46.545  29.119  27.449  1.00  0.00     0.049 A 
ATOM     64  C   UNL A   1      43.662  24.303  25.824  1.00  0.00     0.074 A 
ATOM     65  C   UNL A   1      45.750  30.019  28.134  1.00  0.00     0.029 A 
ATOM     66  N   UNL A   1      45.766  28.643  26.423  1.00  0.00    -0.354 N 
ATOM     67  N   UNL A   1      42.912  25.370  25.876  1.00  0.00    -0.248 NA
ATOM     68  C   UNL A   1      45.023  24.518  25.356  1.00  0.00     0.031 C 
ATOM     69  C   UNL A   1      44.411  29.658  27.794  1.00  0.00     0.029 A 
ATOM     70  C   UNL A   1      44.468  28.617  26.865  1.00  0.00     0.049 A 
ATOM     71  H   UNL A   1      46.082  28.370  25.530  1.00  0.00     0.167 HD
ATOM     72  C   UNL A   1      43.804  26.434  25.861  1.00  0.00     0.074 A 
ATOM     73  C   UNL A   1      45.085  25.849  25.465  1.00  0.00     0.031 C 
ATOM     74  C   UNL A   1      43.496  27.627  26.454  1.00  0.00     0.037 A 
BRANCH  61  75
ATOM     75  C   UNL A   1      48.877  28.252  26.759  1.00  0.00     0.057 A 
ATOM     76  C   UNL A   1      49.030  27.030  26.078  1.00  0.00     0.134 A 
ATOM     77  C   UNL A   1      49.969  29.137  26.643  1.00  0.00     0.134 A 
ATOM     78  F   UNL A   1      48.065  26.098  26.110  1.00  0.00    -0.206 F 
ATOM     79  C   UNL A   1      50.211  26.682  25.411  1.00  0.00     0.040 A 
ATOM     80  C   UNL A   1      51.132  28.820  25.936  1.00  0.00     0.040 A 
ATOM     81  F   UNL A   1      50.021  30.309  27.285  1.00  0.00    -0.206 F 
ATOM     82  C   UNL A   1      51.272  27.575  25.347  1.00  0.00     0.006 A 
ENDBRANCH  61  75
BRANCH  62  83
ATOM     83  C   UNL A   1      43.337  21.730  26.021  1.00  0.00     0.057 A 
ATOM     84  C   UNL A   1      44.499  21.044  25.648  1.00  0.00     0.134 A 
ATOM     85  C   UNL A   1      42.153  20.972  26.060  1.00  0.00     0.134 A 
ATOM     86  F   UNL A   1      45.681  21.676  25.622  1.00  0.00    -0.206 F 
ATOM     87  C   UNL A   1      44.491  19.673  25.355  1.00  0.00     0.040 A 
ATOM     88  C   UNL A   1      42.131  19.605  25.767  1.00  0.00     0.040 A 
ATOM     89  F   UNL A   1      40.998  21.515  26.471  1.00  0.00    -0.206 F 
ATOM     90  C   UNL A   1      43.306  18.947  25.427  1.00  0.00     0.006 A 
ENDBRANCH  62  83
BRANCH  74  91
ATOM     91  C   UNL A   1      42.079  27.836  26.925  1.00  0.00     0.057 A 
ATOM     92  C   UNL A   1      41.574  27.375  28.151  1.00  0.00     0.134 A 
ATOM     93  C   UNL A   1      41.241  28.672  26.180  1.00  0.00     0.134 A 
ATOM     94  F   UNL A   1      42.328  26.649  28.983  1.00  0.00    -0.206 F 
ATOM     95  C   UNL A   1      40.286  27.699  28.594  1.00  0.00     0.040 A 
ATOM     96  C   UNL A   1      39.966  29.030  26.625  1.00  0.00     0.040 A 
ATOM     97  F   UNL A   1      41.671  29.200  25.023  1.00  0.00    -0.206 F 
ATOM     98  C   UNL A   1      39.480  28.535  27.833  1.00  0.00     0.006 A 
ENDBRANCH  74  91
ENDBRANCH  48  49
ENDBRANCH  40  43
ENDBRANCH  38  39
ENDBRANCH   1  38
TORSDOF 14
ENDMDL
