MODEL 1
REMARK VINA RESULT:     -10.2      0.000      0.000
REMARK SMILES CCCCC[NH2+][C@](C)(C(=O)NCCCNC(=O)c1ccc(-c2c3nc(c(-c4c(F)cccc4F)c4ccc([nH]4)c(-c4c(F)cccc4F)c4nc(c(-c5c(F)cccc5F)c5ccc2[nH]5)C=C4)C=C3)cc1)C(F)(F)F
REMARK SMILES IDX 9 1 10 2 11 3 7 5 8 6 6 7 5 10 4 11 3 12 2 13 1 14 72 15
REMARK SMILES IDX 73 16 74 17 75 18 12 19 13 20 14 21 15 22 16 23 17 25 18 26
REMARK SMILES IDX 19 27 71 28 20 29 70 30 21 31 22 32 23 33 64 34 24 35 69 36
REMARK SMILES IDX 63 37 65 38 25 39 68 40 62 41 61 42 26 44 52 45 35 46 51 47
REMARK SMILES IDX 36 48 39 49 50 50 66 51 37 52 38 53 49 55 67 56 40 57 27 58
REMARK SMILES IDX 28 59 33 60 29 61 30 62 32 63 34 64 31 65 53 66 54 67 59 68
REMARK SMILES IDX 55 69 56 70 58 71 60 72 57 73 41 74 42 75 47 76 43 77 44 78
REMARK SMILES IDX 46 79 48 80 45 81
REMARK H PARENT 11 4 6 8 6 9 15 24 65 43 39 54
REMARK Flexibility Score: inf
ROOT
ATOM      1  C   UNL A   1      31.773  28.425  26.923  1.00  0.00     0.290 C 
ATOM      2  O   UNL A   1      31.732  27.832  28.003  1.00  0.00    -0.267 OA
ATOM      3  N   UNL A   1      31.595  29.783  26.985  1.00  0.00    -0.350 N 
ATOM      4  H   UNL A   1      31.408  30.128  27.887  1.00  0.00     0.163 HD
ENDROOT
BRANCH   1   5
ATOM      5  C   UNL A   1      31.997  27.699  25.571  1.00  0.00     0.268 C 
ATOM      6  C   UNL A   1      31.717  26.199  25.772  1.00  0.00     0.101 C 
BRANCH   5   7
ATOM      7  N   UNL A   1      31.084  28.362  24.571  1.00  0.00    -0.326 N 
ATOM      8  H   UNL A   1      30.318  28.797  25.085  1.00  0.00     0.347 HD
ATOM      9  H   UNL A   1      31.668  29.025  24.059  1.00  0.00     0.347 HD
BRANCH   7  10
ATOM     10  C   UNL A   1      30.506  27.484  23.563  1.00  0.00     0.261 C 
BRANCH  10  11
ATOM     11  C   UNL A   1      29.129  28.003  23.126  1.00  0.00     0.061 C 
BRANCH  11  12
ATOM     12  C   UNL A   1      29.028  29.519  22.917  1.00  0.00     0.006 C 
BRANCH  12  13
ATOM     13  C   UNL A   1      27.682  30.142  23.287  1.00  0.00    -0.003 C 
ATOM     14  C   UNL A   1      27.662  31.657  23.152  1.00  0.00     0.004 C 
ENDBRANCH  12  13
ENDBRANCH  11  12
ENDBRANCH  10  11
ENDBRANCH   7  10
ENDBRANCH   5   7
BRANCH   5  15
ATOM     15  C   UNL A   1      33.506  27.862  25.234  1.00  0.00     0.453 C 
ATOM     16  F   UNL A   1      34.022  26.814  24.557  1.00  0.00    -0.164 F 
ATOM     17  F   UNL A   1      33.694  28.952  24.439  1.00  0.00    -0.164 F 
ATOM     18  F   UNL A   1      34.253  28.076  26.342  1.00  0.00    -0.164 F 
ENDBRANCH   5  15
ENDBRANCH   1   5
BRANCH   3  19
ATOM     19  C   UNL A   1      31.633  30.802  25.948  1.00  0.00     0.118 C 
BRANCH  19  20
ATOM     20  C   UNL A   1      31.403  32.201  26.507  1.00  0.00     0.042 C 
BRANCH  20  21
ATOM     21  C   UNL A   1      32.608  32.786  27.233  1.00  0.00     0.118 C 
BRANCH  21  22
ATOM     22  N   UNL A   1      32.411  34.174  27.625  1.00  0.00    -0.352 N 
ATOM     23  C   UNL A   1      33.029  34.915  28.601  1.00  0.00     0.251 C 
ATOM     24  H   UNL A   1      31.727  34.657  27.108  1.00  0.00     0.163 HD
ATOM     25  O   UNL A   1      32.587  36.028  28.887  1.00  0.00    -0.269 OA
BRANCH  23  26
ATOM     26  C   UNL A   1      34.202  34.384  29.328  1.00  0.00     0.039 A 
ATOM     27  C   UNL A   1      33.999  33.735  30.550  1.00  0.00     0.014 A 
ATOM     28  C   UNL A   1      35.498  34.543  28.831  1.00  0.00     0.014 A 
ATOM     29  C   UNL A   1      35.085  33.186  31.234  1.00  0.00     0.010 A 
ATOM     30  C   UNL A   1      36.569  33.929  29.473  1.00  0.00     0.010 A 
ATOM     31  C   UNL A   1      36.375  33.245  30.683  1.00  0.00    -0.014 A 
BRANCH  31  32
ATOM     32  C   UNL A   1      37.531  32.596  31.351  1.00  0.00     0.031 A 
ATOM     33  C   UNL A   1      38.235  31.440  30.695  1.00  0.00     0.074 A 
ATOM     34  C   UNL A   1      37.901  33.000  32.583  1.00  0.00     0.049 A 
ATOM     35  N   UNL A   1      39.199  30.687  31.161  1.00  0.00    -0.248 NA
ATOM     36  C   UNL A   1      37.777  31.063  29.349  1.00  0.00     0.031 C 
ATOM     37  C   UNL A   1      37.270  34.077  33.347  1.00  0.00     0.029 A 
ATOM     38  N   UNL A   1      38.889  32.538  33.416  1.00  0.00    -0.354 N 
ATOM     39  C   UNL A   1      39.447  29.739  30.177  1.00  0.00     0.074 A 
ATOM     40  C   UNL A   1      38.505  29.983  29.107  1.00  0.00     0.031 C 
ATOM     41  C   UNL A   1      37.895  34.204  34.528  1.00  0.00     0.029 A 
ATOM     42  C   UNL A   1      38.945  33.194  34.622  1.00  0.00     0.049 A 
ATOM     43  H   UNL A   1      39.502  31.806  33.172  1.00  0.00     0.167 HD
ATOM     44  C   UNL A   1      40.390  28.767  30.157  1.00  0.00     0.037 A 
ATOM     45  C   UNL A   1      39.744  32.998  35.688  1.00  0.00     0.037 A 
ATOM     46  C   UNL A   1      41.350  28.547  31.207  1.00  0.00     0.049 A 
ATOM     47  C   UNL A   1      40.784  31.914  35.637  1.00  0.00     0.074 A 
ATOM     48  C   UNL A   1      42.386  27.630  31.247  1.00  0.00     0.029 A 
ATOM     49  N   UNL A   1      41.391  29.252  32.399  1.00  0.00    -0.354 N 
ATOM     50  N   UNL A   1      41.051  31.068  34.671  1.00  0.00    -0.248 NA
ATOM     51  C   UNL A   1      41.640  31.761  36.823  1.00  0.00     0.031 C 
ATOM     52  C   UNL A   1      43.033  27.755  32.481  1.00  0.00     0.029 A 
ATOM     53  C   UNL A   1      42.425  28.779  33.191  1.00  0.00     0.049 A 
ATOM     54  H   UNL A   1      40.779  29.981  32.647  1.00  0.00     0.167 HD
ATOM     55  C   UNL A   1      42.119  30.304  35.121  1.00  0.00     0.074 A 
ATOM     56  C   UNL A   1      42.460  30.793  36.440  1.00  0.00     0.031 C 
ATOM     57  C   UNL A   1      42.759  29.285  34.497  1.00  0.00     0.037 A 
BRANCH  44  58
ATOM     58  C   UNL A   1      40.436  27.868  28.957  1.00  0.00     0.057 A 
ATOM     59  C   UNL A   1      41.248  28.154  27.852  1.00  0.00     0.134 A 
ATOM     60  C   UNL A   1      39.699  26.677  28.926  1.00  0.00     0.134 A 
ATOM     61  F   UNL A   1      41.970  29.284  27.814  1.00  0.00    -0.206 F 
ATOM     62  C   UNL A   1      41.310  27.299  26.750  1.00  0.00     0.040 A 
ATOM     63  C   UNL A   1      39.771  25.802  27.842  1.00  0.00     0.040 A 
ATOM     64  F   UNL A   1      38.906  26.339  29.954  1.00  0.00    -0.206 F 
ATOM     65  C   UNL A   1      40.576  26.114  26.747  1.00  0.00     0.006 A 
ENDBRANCH  44  58
BRANCH  45  66
ATOM     66  C   UNL A   1      39.603  33.853  36.892  1.00  0.00     0.057 A 
ATOM     67  C   UNL A   1      38.806  33.454  37.970  1.00  0.00     0.134 A 
ATOM     68  C   UNL A   1      40.244  35.093  36.988  1.00  0.00     0.134 A 
ATOM     69  F   UNL A   1      38.150  32.284  37.927  1.00  0.00    -0.206 F 
ATOM     70  C   UNL A   1      38.632  34.266  39.092  1.00  0.00     0.040 A 
ATOM     71  C   UNL A   1      40.099  35.906  38.114  1.00  0.00     0.040 A 
ATOM     72  F   UNL A   1      41.029  35.530  35.991  1.00  0.00    -0.206 F 
ATOM     73  C   UNL A   1      39.283  35.496  39.167  1.00  0.00     0.006 A 
ENDBRANCH  45  66
BRANCH  57  74
ATOM     74  C   UNL A   1      43.915  28.657  35.217  1.00  0.00     0.057 A 
ATOM     75  C   UNL A   1      45.225  29.126  35.062  1.00  0.00     0.134 A 
ATOM     76  C   UNL A   1      43.707  27.596  36.107  1.00  0.00     0.134 A 
ATOM     77  F   UNL A   1      45.492  30.132  34.214  1.00  0.00    -0.206 F 
ATOM     78  C   UNL A   1      46.292  28.548  35.751  1.00  0.00     0.040 A 
ATOM     79  C   UNL A   1      44.761  27.025  36.820  1.00  0.00     0.040 A 
ATOM     80  F   UNL A   1      42.475  27.105  36.307  1.00  0.00    -0.206 F 
ATOM     81  C   UNL A   1      46.060  27.499  36.639  1.00  0.00     0.006 A 
ENDBRANCH  57  74
ENDBRANCH  31  32
ENDBRANCH  23  26
ENDBRANCH  21  22
ENDBRANCH  20  21
ENDBRANCH  19  20
ENDBRANCH   3  19
TORSDOF 16
ENDMDL
MODEL 2
REMARK VINA RESULT:     -10.2      5.379      9.640
REMARK SMILES CCCCC[NH2+][C@](C)(C(=O)NCCCNC(=O)c1ccc(-c2c3nc(c(-c4c(F)cccc4F)c4ccc([nH]4)c(-c4c(F)cccc4F)c4nc(c(-c5c(F)cccc5F)c5ccc2[nH]5)C=C4)C=C3)cc1)C(F)(F)F
REMARK SMILES IDX 9 1 10 2 11 3 7 5 8 6 6 7 5 10 4 11 3 12 2 13 1 14 72 15
REMARK SMILES IDX 73 16 74 17 75 18 12 19 13 20 14 21 15 22 16 23 17 25 18 26
REMARK SMILES IDX 19 27 71 28 20 29 70 30 21 31 22 32 23 33 64 34 24 35 69 36
REMARK SMILES IDX 63 37 65 38 25 39 68 40 62 41 61 42 26 44 52 45 35 46 51 47
REMARK SMILES IDX 36 48 39 49 50 50 66 51 37 52 38 53 49 55 67 56 40 57 27 58
REMARK SMILES IDX 28 59 33 60 29 61 30 62 32 63 34 64 31 65 53 66 54 67 59 68
REMARK SMILES IDX 55 69 56 70 58 71 60 72 57 73 41 74 42 75 47 76 43 77 44 78
REMARK SMILES IDX 46 79 48 80 45 81
REMARK H PARENT 11 4 6 8 6 9 15 24 65 43 39 54
REMARK Flexibility Score: inf
ROOT
ATOM      1  C   UNL A   1      35.188  22.683  23.924  1.00  0.00     0.290 C 
ATOM      2  O   UNL A   1      35.410  23.396  22.942  1.00  0.00    -0.267 OA
ATOM      3  N   UNL A   1      36.046  21.628  24.097  1.00  0.00    -0.350 N 
ATOM      4  H   UNL A   1      36.720  21.532  23.387  1.00  0.00     0.163 HD
ENDROOT
BRANCH   1   5
ATOM      5  C   UNL A   1      34.013  22.939  24.902  1.00  0.00     0.268 C 
ATOM      6  C   UNL A   1      32.988  23.852  24.204  1.00  0.00     0.101 C 
BRANCH   5   7
ATOM      7  N   UNL A   1      33.466  21.586  25.281  1.00  0.00    -0.326 N 
ATOM      8  H   UNL A   1      34.167  20.885  25.037  1.00  0.00     0.347 HD
ATOM      9  H   UNL A   1      33.264  21.638  26.280  1.00  0.00     0.347 HD
BRANCH   7  10
ATOM     10  C   UNL A   1      32.213  21.208  24.642  1.00  0.00     0.261 C 
BRANCH  10  11
ATOM     11  C   UNL A   1      32.461  20.146  23.562  1.00  0.00     0.061 C 
BRANCH  11  12
ATOM     12  C   UNL A   1      32.559  18.700  24.064  1.00  0.00     0.006 C 
BRANCH  12  13
ATOM     13  C   UNL A   1      32.823  17.649  22.985  1.00  0.00    -0.003 C 
ATOM     14  C   UNL A   1      34.135  16.905  23.178  1.00  0.00     0.004 C 
ENDBRANCH  12  13
ENDBRANCH  11  12
ENDBRANCH  10  11
ENDBRANCH   7  10
ENDBRANCH   5   7
BRANCH   5  15
ATOM     15  C   UNL A   1      34.610  23.724  26.105  1.00  0.00     0.453 C 
ATOM     16  F   UNL A   1      35.841  24.222  25.862  1.00  0.00    -0.164 F 
ATOM     17  F   UNL A   1      33.822  24.794  26.404  1.00  0.00    -0.164 F 
ATOM     18  F   UNL A   1      34.658  22.969  27.228  1.00  0.00    -0.164 F 
ENDBRANCH   5  15
ENDBRANCH   1   5
BRANCH   3  19
ATOM     19  C   UNL A   1      36.132  20.626  25.147  1.00  0.00     0.118 C 
BRANCH  19  20
ATOM     20  C   UNL A   1      37.364  19.741  24.999  1.00  0.00     0.042 C 
BRANCH  20  21
ATOM     21  C   UNL A   1      38.651  20.379  25.505  1.00  0.00     0.118 C 
BRANCH  21  22
ATOM     22  N   UNL A   1      39.734  19.418  25.657  1.00  0.00    -0.352 N 
ATOM     23  C   UNL A   1      41.033  19.604  26.057  1.00  0.00     0.251 C 
ATOM     24  H   UNL A   1      39.497  18.488  25.440  1.00  0.00     0.163 HD
ATOM     25  O   UNL A   1      41.839  18.680  25.948  1.00  0.00    -0.269 OA
BRANCH  23  26
ATOM     26  C   UNL A   1      41.483  20.907  26.594  1.00  0.00     0.039 A 
ATOM     27  C   UNL A   1      42.016  21.850  25.711  1.00  0.00     0.014 A 
ATOM     28  C   UNL A   1      41.407  21.195  27.959  1.00  0.00     0.014 A 
ATOM     29  C   UNL A   1      42.406  23.104  26.186  1.00  0.00     0.010 A 
ATOM     30  C   UNL A   1      41.723  22.470  28.419  1.00  0.00     0.010 A 
ATOM     31  C   UNL A   1      42.228  23.439  27.537  1.00  0.00    -0.014 A 
BRANCH  31  32
ATOM     32  C   UNL A   1      42.557  24.793  28.048  1.00  0.00     0.031 A 
ATOM     33  C   UNL A   1      43.964  25.124  28.468  1.00  0.00     0.074 A 
ATOM     34  C   UNL A   1      41.575  25.703  28.204  1.00  0.00     0.049 A 
ATOM     35  N   UNL A   1      44.425  26.216  29.023  1.00  0.00    -0.248 NA
ATOM     36  C   UNL A   1      44.979  24.080  28.260  1.00  0.00     0.031 C 
ATOM     37  C   UNL A   1      40.163  25.491  27.880  1.00  0.00     0.029 A 
ATOM     38  N   UNL A   1      41.614  26.986  28.692  1.00  0.00    -0.354 N 
ATOM     39  C   UNL A   1      45.776  25.983  29.248  1.00  0.00     0.074 A 
ATOM     40  C   UNL A   1      46.051  24.632  28.811  1.00  0.00     0.031 C 
ATOM     41  C   UNL A   1      39.474  26.608  28.162  1.00  0.00     0.029 A 
ATOM     42  C   UNL A   1      40.385  27.601  28.722  1.00  0.00     0.049 A 
ATOM     43  H   UNL A   1      42.444  27.424  28.990  1.00  0.00     0.167 HD
ATOM     44  C   UNL A   1      46.707  26.826  29.754  1.00  0.00     0.037 A 
ATOM     45  C   UNL A   1      40.031  28.824  29.161  1.00  0.00     0.037 A 
ATOM     46  C   UNL A   1      46.440  28.182  30.157  1.00  0.00     0.049 A 
ATOM     47  C   UNL A   1      41.086  29.741  29.714  1.00  0.00     0.074 A 
ATOM     48  C   UNL A   1      47.331  29.135  30.618  1.00  0.00     0.029 A 
ATOM     49  N   UNL A   1      45.188  28.777  30.145  1.00  0.00    -0.354 N 
ATOM     50  N   UNL A   1      42.372  29.530  29.859  1.00  0.00    -0.248 NA
ATOM     51  C   UNL A   1      40.642  31.070  30.159  1.00  0.00     0.031 C 
ATOM     52  C   UNL A   1      46.613  30.296  30.921  1.00  0.00     0.029 A 
ATOM     53  C   UNL A   1      45.280  30.079  30.608  1.00  0.00     0.049 A 
ATOM     54  H   UNL A   1      44.357  28.340  29.850  1.00  0.00     0.167 HD
ATOM     55  C   UNL A   1      42.892  30.704  30.385  1.00  0.00     0.074 A 
ATOM     56  C   UNL A   1      41.787  31.629  30.521  1.00  0.00     0.031 C 
ATOM     57  C   UNL A   1      44.172  30.991  30.726  1.00  0.00     0.037 A 
BRANCH  44  58
ATOM     58  C   UNL A   1      48.108  26.310  29.896  1.00  0.00     0.057 A 
ATOM     59  C   UNL A   1      49.049  26.441  28.866  1.00  0.00     0.134 A 
ATOM     60  C   UNL A   1      48.537  25.720  31.092  1.00  0.00     0.134 A 
ATOM     61  F   UNL A   1      48.700  26.986  27.692  1.00  0.00    -0.206 F 
ATOM     62  C   UNL A   1      50.361  25.985  29.014  1.00  0.00     0.040 A 
ATOM     63  C   UNL A   1      49.851  25.283  31.260  1.00  0.00     0.040 A 
ATOM     64  F   UNL A   1      47.688  25.570  32.119  1.00  0.00    -0.206 F 
ATOM     65  C   UNL A   1      50.767  25.412  30.218  1.00  0.00     0.006 A 
ENDBRANCH  44  58
BRANCH  45  66
ATOM     66  C   UNL A   1      38.615  29.261  29.086  1.00  0.00     0.057 A 
ATOM     67  C   UNL A   1      37.785  29.211  30.211  1.00  0.00     0.134 A 
ATOM     68  C   UNL A   1      38.054  29.720  27.889  1.00  0.00     0.134 A 
ATOM     69  F   UNL A   1      38.262  28.761  31.382  1.00  0.00    -0.206 F 
ATOM     70  C   UNL A   1      36.441  29.580  30.145  1.00  0.00     0.040 A 
ATOM     71  C   UNL A   1      36.716  30.116  27.814  1.00  0.00     0.040 A 
ATOM     72  F   UNL A   1      38.798  29.798  26.776  1.00  0.00    -0.206 F 
ATOM     73  C   UNL A   1      35.904  30.038  28.944  1.00  0.00     0.006 A 
ENDBRANCH  45  66
BRANCH  57  74
ATOM     74  C   UNL A   1      44.452  32.370  31.245  1.00  0.00     0.057 A 
ATOM     75  C   UNL A   1      44.428  32.663  32.614  1.00  0.00     0.134 A 
ATOM     76  C   UNL A   1      44.788  33.407  30.366  1.00  0.00     0.134 A 
ATOM     77  F   UNL A   1      44.100  31.716  33.507  1.00  0.00    -0.206 F 
ATOM     78  C   UNL A   1      44.708  33.944  33.089  1.00  0.00     0.040 A 
ATOM     79  C   UNL A   1      45.094  34.686  30.830  1.00  0.00     0.040 A 
ATOM     80  F   UNL A   1      44.837  33.190  29.043  1.00  0.00    -0.206 F 
ATOM     81  C   UNL A   1      45.050  34.959  32.196  1.00  0.00     0.006 A 
ENDBRANCH  57  74
ENDBRANCH  31  32
ENDBRANCH  23  26
ENDBRANCH  21  22
ENDBRANCH  20  21
ENDBRANCH  19  20
ENDBRANCH   3  19
TORSDOF 16
ENDMDL
MODEL 3
REMARK VINA RESULT:     -10.2      6.405     11.253
REMARK SMILES CCCCC[NH2+][C@](C)(C(=O)NCCCNC(=O)c1ccc(-c2c3nc(c(-c4c(F)cccc4F)c4ccc([nH]4)c(-c4c(F)cccc4F)c4nc(c(-c5c(F)cccc5F)c5ccc2[nH]5)C=C4)C=C3)cc1)C(F)(F)F
REMARK SMILES IDX 9 1 10 2 11 3 7 5 8 6 6 7 5 10 4 11 3 12 2 13 1 14 72 15
REMARK SMILES IDX 73 16 74 17 75 18 12 19 13 20 14 21 15 22 16 23 17 25 18 26
REMARK SMILES IDX 19 27 71 28 20 29 70 30 21 31 22 32 23 33 64 34 24 35 69 36
REMARK SMILES IDX 63 37 65 38 25 39 68 40 62 41 61 42 26 44 52 45 35 46 51 47
REMARK SMILES IDX 36 48 39 49 50 50 66 51 37 52 38 53 49 55 67 56 40 57 27 58
REMARK SMILES IDX 28 59 33 60 29 61 30 62 32 63 34 64 31 65 53 66 54 67 59 68
REMARK SMILES IDX 55 69 56 70 58 71 60 72 57 73 41 74 42 75 47 76 43 77 44 78
REMARK SMILES IDX 46 79 48 80 45 81
REMARK H PARENT 11 4 6 8 6 9 15 24 65 43 39 54
REMARK Flexibility Score: inf
ROOT
ATOM      1  C   UNL A   1      36.185  22.625  23.669  1.00  0.00     0.290 C 
ATOM      2  O   UNL A   1      36.597  23.336  22.750  1.00  0.00    -0.267 OA
ATOM      3  N   UNL A   1      36.960  21.536  23.970  1.00  0.00    -0.350 N 
ATOM      4  H   UNL A   1      37.741  21.418  23.384  1.00  0.00     0.163 HD
ENDROOT
BRANCH   1   5
ATOM      5  C   UNL A   1      34.871  22.920  24.437  1.00  0.00     0.268 C 
ATOM      6  C   UNL A   1      33.918  23.683  23.498  1.00  0.00     0.101 C 
BRANCH   5   7
ATOM      7  N   UNL A   1      34.335  21.588  24.900  1.00  0.00    -0.326 N 
ATOM      8  H   UNL A   1      34.805  20.858  24.364  1.00  0.00     0.347 HD
ATOM      9  H   UNL A   1      34.519  21.549  25.903  1.00  0.00     0.347 HD
BRANCH   7  10
ATOM     10  C   UNL A   1      32.898  21.399  24.753  1.00  0.00     0.261 C 
BRANCH  10  11
ATOM     11  C   UNL A   1      32.528  19.925  24.969  1.00  0.00     0.061 C 
BRANCH  11  12
ATOM     12  C   UNL A   1      32.994  18.957  23.874  1.00  0.00     0.006 C 
BRANCH  12  13
ATOM     13  C   UNL A   1      34.039  17.930  24.310  1.00  0.00    -0.003 C 
ATOM     14  C   UNL A   1      34.028  16.665  23.465  1.00  0.00     0.004 C 
ENDBRANCH  12  13
ENDBRANCH  11  12
ENDBRANCH  10  11
ENDBRANCH   7  10
ENDBRANCH   5   7
BRANCH   5  15
ATOM     15  C   UNL A   1      35.253  23.872  25.606  1.00  0.00     0.453 C 
ATOM     16  F   UNL A   1      34.630  25.069  25.549  1.00  0.00    -0.164 F 
ATOM     17  F   UNL A   1      34.896  23.318  26.798  1.00  0.00    -0.164 F 
ATOM     18  F   UNL A   1      36.589  24.078  25.675  1.00  0.00    -0.164 F 
ENDBRANCH   5  15
ENDBRANCH   1   5
BRANCH   3  19
ATOM     19  C   UNL A   1      36.828  20.522  25.006  1.00  0.00     0.118 C 
BRANCH  19  20
ATOM     20  C   UNL A   1      37.992  19.539  25.000  1.00  0.00     0.042 C 
BRANCH  20  21
ATOM     21  C   UNL A   1      39.224  20.029  25.751  1.00  0.00     0.118 C 
BRANCH  21  22
ATOM     22  N   UNL A   1      40.260  19.012  25.860  1.00  0.00    -0.352 N 
ATOM     23  C   UNL A   1      41.610  19.142  26.067  1.00  0.00     0.251 C 
ATOM     24  H   UNL A   1      39.941  18.085  25.772  1.00  0.00     0.163 HD
ATOM     25  O   UNL A   1      42.338  18.157  25.950  1.00  0.00    -0.269 OA
BRANCH  23  26
ATOM     26  C   UNL A   1      42.202  20.454  26.405  1.00  0.00     0.039 A 
ATOM     27  C   UNL A   1      42.737  21.236  25.376  1.00  0.00     0.014 A 
ATOM     28  C   UNL A   1      42.260  20.907  27.725  1.00  0.00     0.014 A 
ATOM     29  C   UNL A   1      43.262  22.498  25.663  1.00  0.00     0.010 A 
ATOM     30  C   UNL A   1      42.712  22.195  27.999  1.00  0.00     0.010 A 
ATOM     31  C   UNL A   1      43.220  23.004  26.971  1.00  0.00    -0.014 A 
BRANCH  31  32
ATOM     32  C   UNL A   1      43.696  24.375  27.285  1.00  0.00     0.031 A 
ATOM     33  C   UNL A   1      42.719  25.438  27.708  1.00  0.00     0.074 A 
ATOM     34  C   UNL A   1      44.997  24.683  27.118  1.00  0.00     0.049 A 
ATOM     35  N   UNL A   1      42.929  26.710  27.933  1.00  0.00    -0.248 NA
ATOM     36  C   UNL A   1      41.318  25.022  27.874  1.00  0.00     0.031 C 
ATOM     37  C   UNL A   1      46.036  23.755  26.667  1.00  0.00     0.029 A 
ATOM     38  N   UNL A   1      45.665  25.869  27.292  1.00  0.00    -0.354 N 
ATOM     39  C   UNL A   1      41.687  27.248  28.246  1.00  0.00     0.074 A 
ATOM     40  C   UNL A   1      40.722  26.175  28.140  1.00  0.00     0.031 C 
ATOM     41  C   UNL A   1      47.211  24.402  26.616  1.00  0.00     0.029 A 
ATOM     42  C   UNL A   1      47.004  25.797  26.992  1.00  0.00     0.049 A 
ATOM     43  H   UNL A   1      45.227  26.694  27.604  1.00  0.00     0.167 HD
ATOM     44  C   UNL A   1      41.381  28.516  28.610  1.00  0.00     0.037 A 
ATOM     45  C   UNL A   1      47.955  26.749  27.007  1.00  0.00     0.037 A 
ATOM     46  C   UNL A   1      42.347  29.575  28.750  1.00  0.00     0.049 A 
ATOM     47  C   UNL A   1      47.589  28.148  27.420  1.00  0.00     0.074 A 
ATOM     48  C   UNL A   1      42.143  30.875  29.178  1.00  0.00     0.029 A 
ATOM     49  N   UNL A   1      43.698  29.453  28.463  1.00  0.00    -0.354 N 
ATOM     50  N   UNL A   1      46.422  28.626  27.778  1.00  0.00    -0.248 NA
ATOM     51  C   UNL A   1      48.675  29.140  27.436  1.00  0.00     0.031 C 
ATOM     52  C   UNL A   1      43.365  31.552  29.116  1.00  0.00     0.029 A 
ATOM     53  C   UNL A   1      44.337  30.661  28.689  1.00  0.00     0.049 A 
ATOM     54  H   UNL A   1      44.138  28.631  28.148  1.00  0.00     0.167 HD
ATOM     55  C   UNL A   1      46.637  29.962  28.086  1.00  0.00     0.074 A 
ATOM     56  C   UNL A   1      48.049  30.217  27.887  1.00  0.00     0.031 C 
ATOM     57  C   UNL A   1      45.745  30.896  28.497  1.00  0.00     0.037 A 
BRANCH  44  58
ATOM     58  C   UNL A   1      39.942  28.831  28.892  1.00  0.00     0.057 A 
ATOM     59  C   UNL A   1      39.054  29.196  27.872  1.00  0.00     0.134 A 
ATOM     60  C   UNL A   1      39.425  28.720  30.189  1.00  0.00     0.134 A 
ATOM     61  F   UNL A   1      39.488  29.331  26.610  1.00  0.00    -0.206 F 
ATOM     62  C   UNL A   1      37.709  29.459  28.135  1.00  0.00     0.040 A 
ATOM     63  C   UNL A   1      38.077  28.956  30.461  1.00  0.00     0.040 A 
ATOM     64  F   UNL A   1      40.220  28.368  31.211  1.00  0.00    -0.206 F 
ATOM     65  C   UNL A   1      37.215  29.332  29.432  1.00  0.00     0.006 A 
ENDBRANCH  44  58
BRANCH  45  66
ATOM     66  C   UNL A   1      49.351  26.414  26.633  1.00  0.00     0.057 A 
ATOM     67  C   UNL A   1      50.242  25.884  27.573  1.00  0.00     0.134 A 
ATOM     68  C   UNL A   1      49.833  26.629  25.337  1.00  0.00     0.134 A 
ATOM     69  F   UNL A   1      49.843  25.674  28.836  1.00  0.00    -0.206 F 
ATOM     70  C   UNL A   1      51.569  25.602  27.245  1.00  0.00     0.040 A 
ATOM     71  C   UNL A   1      51.152  26.329  24.988  1.00  0.00     0.040 A 
ATOM     72  F   UNL A   1      49.027  27.128  24.388  1.00  0.00    -0.206 F 
ATOM     73  C   UNL A   1      52.026  25.821  25.947  1.00  0.00     0.006 A 
ENDBRANCH  45  66
BRANCH  57  74
ATOM     74  C   UNL A   1      46.274  32.267  28.793  1.00  0.00     0.057 A 
ATOM     75  C   UNL A   1      46.756  32.615  30.061  1.00  0.00     0.134 A 
ATOM     76  C   UNL A   1      46.338  33.238  27.786  1.00  0.00     0.134 A 
ATOM     77  F   UNL A   1      46.711  31.734  31.072  1.00  0.00    -0.206 F 
ATOM     78  C   UNL A   1      47.265  33.888  30.322  1.00  0.00     0.040 A 
ATOM     79  C   UNL A   1      46.866  34.506  28.028  1.00  0.00     0.040 A 
ATOM     80  F   UNL A   1      45.899  32.966  26.548  1.00  0.00    -0.206 F 
ATOM     81  C   UNL A   1      47.327  34.835  29.301  1.00  0.00     0.006 A 
ENDBRANCH  57  74
ENDBRANCH  31  32
ENDBRANCH  23  26
ENDBRANCH  21  22
ENDBRANCH  20  21
ENDBRANCH  19  20
ENDBRANCH   3  19
TORSDOF 16
ENDMDL
