MODEL 1
REMARK VINA RESULT:     -12.1      0.000      0.000
REMARK SMILES O=C(NCCCNC(=O)[C@@H]1CS[C@H](Cc2cccc(F)c2)C(=O)N1)c1ccc(-c2c3nc(c(-c4c(F)cccc4F)c4ccc([nH]4)c(-c4c(F)cccc4F)c4nc(c(-c5c(F)cccc5F)c5ccc2[nH]5)C=C4)C=C3)cc1
REMARK SMILES IDX 5 1 4 2 3 3 1 4 2 5 25 7 26 8 78 9 27 10 77 11 28 12 29 13
REMARK SMILES IDX 30 14 71 15 31 16 76 17 70 18 72 19 32 20 75 21 69 22 68 23
REMARK SMILES IDX 33 25 59 26 42 27 58 28 43 29 46 30 57 31 73 32 44 33 45 34
REMARK SMILES IDX 56 36 74 37 47 38 34 39 35 40 40 41 36 42 37 43 39 44 41 45
REMARK SMILES IDX 38 46 60 47 61 48 66 49 62 50 63 51 65 52 67 53 64 54 48 55
REMARK SMILES IDX 49 56 54 57 50 58 51 59 53 60 55 61 52 62 6 63 7 64 8 65
REMARK SMILES IDX 9 67 10 68 11 69 24 70 12 71 22 72 13 74 23 75 14 76 15 77
REMARK SMILES IDX 16 78 21 79 17 80 19 81 18 82 20 83
REMARK H PARENT 3 6 72 24 46 35 7 66 24 73
REMARK Flexibility Score: inf
ROOT
ATOM      1  C   UNL A   1      32.169  27.927  27.575  1.00  0.00     0.042 C 
ENDROOT
BRANCH   1   2
ATOM      2  C   UNL A   1      33.531  28.549  27.289  1.00  0.00     0.118 C 
BRANCH   2   3
ATOM      3  N   UNL A   1      33.583  29.957  27.643  1.00  0.00    -0.352 N 
ATOM      4  O   UNL A   1      34.298  31.816  28.674  1.00  0.00    -0.269 OA
ATOM      5  C   UNL A   1      34.566  30.688  28.260  1.00  0.00     0.251 C 
ATOM      6  H   UNL A   1      32.779  30.472  27.400  1.00  0.00     0.163 HD
BRANCH   5   7
ATOM      7  C   UNL A   1      35.936  30.155  28.436  1.00  0.00     0.039 A 
ATOM      8  C   UNL A   1      36.892  30.244  27.420  1.00  0.00     0.014 A 
ATOM      9  C   UNL A   1      36.304  29.649  29.688  1.00  0.00     0.014 A 
ATOM     10  C   UNL A   1      38.174  29.736  27.619  1.00  0.00     0.010 A 
ATOM     11  C   UNL A   1      37.612  29.214  29.913  1.00  0.00     0.010 A 
ATOM     12  C   UNL A   1      38.557  29.243  28.876  1.00  0.00    -0.014 A 
BRANCH  12  13
ATOM     13  C   UNL A   1      39.968  28.854  29.122  1.00  0.00     0.031 A 
ATOM     14  C   UNL A   1      40.929  29.793  29.788  1.00  0.00     0.074 A 
ATOM     15  C   UNL A   1      40.386  27.640  28.714  1.00  0.00     0.049 A 
ATOM     16  N   UNL A   1      42.202  29.624  30.043  1.00  0.00    -0.248 NA
ATOM     17  C   UNL A   1      40.398  31.094  30.218  1.00  0.00     0.031 C 
ATOM     18  C   UNL A   1      39.548  26.646  28.039  1.00  0.00     0.029 A 
ATOM     19  N   UNL A   1      41.613  27.033  28.805  1.00  0.00    -0.354 N 
ATOM     20  C   UNL A   1      42.628  30.802  30.644  1.00  0.00     0.074 A 
ATOM     21  C   UNL A   1      41.483  31.685  30.699  1.00  0.00     0.031 C 
ATOM     22  C   UNL A   1      40.275  25.546  27.804  1.00  0.00     0.029 A 
ATOM     23  C   UNL A   1      41.643  25.775  28.254  1.00  0.00     0.049 A 
ATOM     24  H   UNL A   1      42.395  27.459  29.224  1.00  0.00     0.167 HD
ATOM     25  C   UNL A   1      43.862  31.111  31.108  1.00  0.00     0.037 A 
ATOM     26  C   UNL A   1      42.662  24.908  28.104  1.00  0.00     0.037 A 
ATOM     27  C   UNL A   1      44.991  30.219  31.066  1.00  0.00     0.049 A 
ATOM     28  C   UNL A   1      44.025  25.283  28.599  1.00  0.00     0.074 A 
ATOM     29  C   UNL A   1      46.263  30.418  31.574  1.00  0.00     0.029 A 
ATOM     30  N   UNL A   1      44.987  28.964  30.476  1.00  0.00    -0.354 N 
ATOM     31  N   UNL A   1      44.404  26.382  29.205  1.00  0.00    -0.248 NA
ATOM     32  C   UNL A   1      45.106  24.310  28.385  1.00  0.00     0.031 C 
ATOM     33  C   UNL A   1      47.043  29.307  31.243  1.00  0.00     0.029 A 
ATOM     34  C   UNL A   1      46.245  28.393  30.574  1.00  0.00     0.049 A 
ATOM     35  H   UNL A   1      44.207  28.541  30.049  1.00  0.00     0.167 HD
ATOM     36  C   UNL A   1      45.761  26.232  29.454  1.00  0.00     0.074 A 
ATOM     37  C   UNL A   1      46.138  24.929  28.941  1.00  0.00     0.031 C 
ATOM     38  C   UNL A   1      46.612  27.099  30.053  1.00  0.00     0.037 A 
BRANCH  25  39
ATOM     39  C   UNL A   1      44.068  32.480  31.686  1.00  0.00     0.057 A 
ATOM     40  C   UNL A   1      44.500  33.537  30.873  1.00  0.00     0.134 A 
ATOM     41  C   UNL A   1      43.900  32.743  33.052  1.00  0.00     0.134 A 
ATOM     42  F   UNL A   1      44.690  33.351  29.558  1.00  0.00    -0.206 F 
ATOM     43  C   UNL A   1      44.761  34.804  31.398  1.00  0.00     0.040 A 
ATOM     44  C   UNL A   1      44.137  34.013  33.584  1.00  0.00     0.040 A 
ATOM     45  F   UNL A   1      43.484  31.777  33.884  1.00  0.00    -0.206 F 
ATOM     46  C   UNL A   1      44.576  35.045  32.757  1.00  0.00     0.006 A 
ENDBRANCH  25  39
BRANCH  26  47
ATOM     47  C   UNL A   1      42.400  23.604  27.448  1.00  0.00     0.057 A 
ATOM     48  C   UNL A   1      42.137  22.453  28.200  1.00  0.00     0.134 A 
ATOM     49  C   UNL A   1      42.500  23.463  26.060  1.00  0.00     0.134 A 
ATOM     50  F   UNL A   1      42.042  22.523  29.536  1.00  0.00    -0.206 F 
ATOM     51  C   UNL A   1      42.017  21.199  27.599  1.00  0.00     0.040 A 
ATOM     52  C   UNL A   1      42.360  22.219  25.443  1.00  0.00     0.040 A 
ATOM     53  F   UNL A   1      42.738  24.534  25.288  1.00  0.00    -0.206 F 
ATOM     54  C   UNL A   1      42.132  21.081  26.215  1.00  0.00     0.006 A 
ENDBRANCH  26  47
BRANCH  38  55
ATOM     55  C   UNL A   1      48.042  26.678  30.202  1.00  0.00     0.057 A 
ATOM     56  C   UNL A   1      48.974  26.947  29.192  1.00  0.00     0.134 A 
ATOM     57  C   UNL A   1      48.471  25.919  31.297  1.00  0.00     0.134 A 
ATOM     58  F   UNL A   1      48.622  27.662  28.113  1.00  0.00    -0.206 F 
ATOM     59  C   UNL A   1      50.278  26.456  29.256  1.00  0.00     0.040 A 
ATOM     60  C   UNL A   1      49.779  25.440  31.382  1.00  0.00     0.040 A 
ATOM     61  F   UNL A   1      47.627  25.637  32.301  1.00  0.00    -0.206 F 
ATOM     62  C   UNL A   1      50.682  25.698  30.352  1.00  0.00     0.006 A 
ENDBRANCH  38  55
ENDBRANCH  12  13
ENDBRANCH   5   7
ENDBRANCH   2   3
ENDBRANCH   1   2
BRANCH   1  63
ATOM     63  C   UNL A   1      31.461  27.368  26.343  1.00  0.00     0.117 C 
BRANCH  63  64
ATOM     64  N   UNL A   1      31.294  25.927  26.412  1.00  0.00    -0.354 N 
ATOM     65  C   UNL A   1      30.983  24.957  25.528  1.00  0.00     0.243 C 
ATOM     66  H   UNL A   1      31.444  25.576  27.319  1.00  0.00     0.163 HD
ATOM     67  O   UNL A   1      30.890  23.822  26.028  1.00  0.00    -0.273 OA
BRANCH  65  68
ATOM     68  C   UNL A   1      30.695  25.097  24.014  1.00  0.00     0.181 C 
ATOM     69  C   UNL A   1      31.664  25.660  23.003  1.00  0.00     0.105 C 
ATOM     70  N   UNL A   1      29.358  25.669  23.894  1.00  0.00    -0.343 N 
ATOM     71  S   UNL A   1      31.776  27.461  23.015  1.00  0.00    -0.146 SA
ATOM     72  C   UNL A   1      29.027  26.964  23.663  1.00  0.00     0.234 C 
ATOM     73  H   UNL A   1      28.607  25.040  23.993  1.00  0.00     0.164 HD
ATOM     74  C   UNL A   1      30.010  27.954  23.038  1.00  0.00     0.140 C 
ATOM     75  O   UNL A   1      27.861  27.293  23.897  1.00  0.00    -0.274 OA
BRANCH  74  76
ATOM     76  C   UNL A   1      29.814  29.320  23.752  1.00  0.00     0.060 C 
BRANCH  76  77
ATOM     77  C   UNL A   1      29.162  30.417  22.939  1.00  0.00    -0.043 A 
ATOM     78  C   UNL A   1      28.631  30.157  21.667  1.00  0.00     0.004 A 
ATOM     79  C   UNL A   1      29.118  31.728  23.437  1.00  0.00     0.043 A 
ATOM     80  C   UNL A   1      28.114  31.196  20.887  1.00  0.00     0.003 A 
ATOM     81  C   UNL A   1      28.602  32.752  22.651  1.00  0.00     0.123 A 
ATOM     82  C   UNL A   1      28.108  32.500  21.378  1.00  0.00     0.039 A 
ATOM     83  F   UNL A   1      28.603  34.005  23.123  1.00  0.00    -0.207 F 
ENDBRANCH  76  77
ENDBRANCH  74  76
ENDBRANCH  65  68
ENDBRANCH  63  64
ENDBRANCH   1  63
TORSDOF 12
ENDMDL
MODEL 2
REMARK VINA RESULT:     -12.1      2.777      7.326
REMARK SMILES O=C(NCCCNC(=O)[C@@H]1CS[C@H](Cc2cccc(F)c2)C(=O)N1)c1ccc(-c2c3nc(c(-c4c(F)cccc4F)c4ccc([nH]4)c(-c4c(F)cccc4F)c4nc(c(-c5c(F)cccc5F)c5ccc2[nH]5)C=C4)C=C3)cc1
REMARK SMILES IDX 5 1 4 2 3 3 1 4 2 5 25 7 26 8 78 9 27 10 77 11 28 12 29 13
REMARK SMILES IDX 30 14 71 15 31 16 76 17 70 18 72 19 32 20 75 21 69 22 68 23
REMARK SMILES IDX 33 25 59 26 42 27 58 28 43 29 46 30 57 31 73 32 44 33 45 34
REMARK SMILES IDX 56 36 74 37 47 38 34 39 35 40 40 41 36 42 37 43 39 44 41 45
REMARK SMILES IDX 38 46 60 47 61 48 66 49 62 50 63 51 65 52 67 53 64 54 48 55
REMARK SMILES IDX 49 56 54 57 50 58 51 59 53 60 55 61 52 62 6 63 7 64 8 65
REMARK SMILES IDX 9 67 10 68 11 69 24 70 12 71 22 72 13 74 23 75 14 76 15 77
REMARK SMILES IDX 16 78 21 79 17 80 19 81 18 82 20 83
REMARK H PARENT 3 6 72 24 46 35 7 66 24 73
REMARK Flexibility Score: inf
ROOT
ATOM      1  C   UNL A   1      37.247  19.898  25.005  1.00  0.00     0.042 C 
ENDROOT
BRANCH   1   2
ATOM      2  C   UNL A   1      38.564  20.528  25.444  1.00  0.00     0.118 C 
BRANCH   2   3
ATOM      3  N   UNL A   1      39.597  19.537  25.692  1.00  0.00    -0.352 N 
ATOM      4  O   UNL A   1      41.663  18.722  26.002  1.00  0.00    -0.269 OA
ATOM      5  C   UNL A   1      40.903  19.687  26.084  1.00  0.00     0.251 C 
ATOM      6  H   UNL A   1      39.314  18.604  25.556  1.00  0.00     0.163 HD
BRANCH   5   7
ATOM      7  C   UNL A   1      41.416  20.974  26.604  1.00  0.00     0.039 A 
ATOM      8  C   UNL A   1      41.926  21.957  25.752  1.00  0.00     0.014 A 
ATOM      9  C   UNL A   1      41.285  21.246  27.971  1.00  0.00     0.014 A 
ATOM     10  C   UNL A   1      42.399  23.160  26.274  1.00  0.00     0.010 A 
ATOM     11  C   UNL A   1      41.684  22.483  28.483  1.00  0.00     0.010 A 
ATOM     12  C   UNL A   1      42.256  23.448  27.639  1.00  0.00    -0.014 A 
BRANCH  12  13
ATOM     13  C   UNL A   1      42.614  24.792  28.157  1.00  0.00     0.031 A 
ATOM     14  C   UNL A   1      41.569  25.845  28.377  1.00  0.00     0.074 A 
ATOM     15  C   UNL A   1      43.910  25.066  28.407  1.00  0.00     0.049 A 
ATOM     16  N   UNL A   1      41.718  27.080  28.785  1.00  0.00    -0.248 NA
ATOM     17  C   UNL A   1      40.177  25.470  28.095  1.00  0.00     0.031 C 
ATOM     18  C   UNL A   1      45.018  24.128  28.215  1.00  0.00     0.029 A 
ATOM     19  N   UNL A   1      44.515  26.205  28.875  1.00  0.00    -0.354 N 
ATOM     20  C   UNL A   1      40.445  27.634  28.791  1.00  0.00     0.074 A 
ATOM     21  C   UNL A   1      39.537  26.607  28.328  1.00  0.00     0.031 C 
ATOM     22  C   UNL A   1      46.162  24.718  28.589  1.00  0.00     0.029 A 
ATOM     23  C   UNL A   1      45.879  26.092  28.988  1.00  0.00     0.049 A 
ATOM     24  H   UNL A   1      44.019  27.023  29.106  1.00  0.00     0.167 HD
ATOM     25  C   UNL A   1      40.072  28.884  29.154  1.00  0.00     0.037 A 
ATOM     26  C   UNL A   1      46.806  26.998  29.351  1.00  0.00     0.037 A 
ATOM     27  C   UNL A   1      40.981  29.894  29.632  1.00  0.00     0.049 A 
ATOM     28  C   UNL A   1      46.375  28.384  29.721  1.00  0.00     0.074 A 
ATOM     29  C   UNL A   1      40.688  31.167  30.089  1.00  0.00     0.029 A 
ATOM     30  N   UNL A   1      42.358  29.749  29.707  1.00  0.00    -0.354 N 
ATOM     31  N   UNL A   1      45.162  28.881  29.765  1.00  0.00    -0.248 NA
ATOM     32  C   UNL A   1      47.431  29.339  30.083  1.00  0.00     0.031 C 
ATOM     33  C   UNL A   1      41.891  31.811  30.388  1.00  0.00     0.029 A 
ATOM     34  C   UNL A   1      42.932  30.923  30.167  1.00  0.00     0.049 A 
ATOM     35  H   UNL A   1      42.855  28.933  29.468  1.00  0.00     0.167 HD
ATOM     36  C   UNL A   1      45.306  30.201  30.166  1.00  0.00     0.074 A 
ATOM     37  C   UNL A   1      46.725  30.426  30.363  1.00  0.00     0.031 C 
ATOM     38  C   UNL A   1      44.346  31.138  30.352  1.00  0.00     0.037 A 
BRANCH  25  39
ATOM     39  C   UNL A   1      38.621  29.245  29.031  1.00  0.00     0.057 A 
ATOM     40  C   UNL A   1      37.768  29.142  30.138  1.00  0.00     0.134 A 
ATOM     41  C   UNL A   1      38.054  29.635  27.811  1.00  0.00     0.134 A 
ATOM     42  F   UNL A   1      38.245  28.765  31.333  1.00  0.00    -0.206 F 
ATOM     43  C   UNL A   1      36.402  29.409  30.035  1.00  0.00     0.040 A 
ATOM     44  C   UNL A   1      36.692  29.926  27.701  1.00  0.00     0.040 A 
ATOM     45  F   UNL A   1      38.816  29.758  26.715  1.00  0.00    -0.206 F 
ATOM     46  C   UNL A   1      35.861  29.807  28.814  1.00  0.00     0.006 A 
ENDBRANCH  25  39
BRANCH  26  47
ATOM     47  C   UNL A   1      48.232  26.592  29.370  1.00  0.00     0.057 A 
ATOM     48  C   UNL A   1      49.051  26.763  28.247  1.00  0.00     0.134 A 
ATOM     49  C   UNL A   1      48.781  25.939  30.478  1.00  0.00     0.134 A 
ATOM     50  F   UNL A   1      48.577  27.371  27.149  1.00  0.00    -0.206 F 
ATOM     51  C   UNL A   1      50.355  26.269  28.211  1.00  0.00     0.040 A 
ATOM     52  C   UNL A   1      50.092  25.459  30.465  1.00  0.00     0.040 A 
ATOM     53  F   UNL A   1      48.048  25.758  31.587  1.00  0.00    -0.206 F 
ATOM     54  C   UNL A   1      50.877  25.611  29.323  1.00  0.00     0.006 A 
ENDBRANCH  26  47
BRANCH  38  55
ATOM     55  C   UNL A   1      44.781  32.500  30.800  1.00  0.00     0.057 A 
ATOM     56  C   UNL A   1      44.875  32.807  32.163  1.00  0.00     0.134 A 
ATOM     57  C   UNL A   1      45.007  33.534  29.884  1.00  0.00     0.134 A 
ATOM     58  F   UNL A   1      44.662  31.861  33.091  1.00  0.00    -0.206 F 
ATOM     59  C   UNL A   1      45.158  34.101  32.600  1.00  0.00     0.040 A 
ATOM     60  C   UNL A   1      45.310  34.828  30.309  1.00  0.00     0.040 A 
ATOM     61  F   UNL A   1      44.941  33.300  28.565  1.00  0.00    -0.206 F 
ATOM     62  C   UNL A   1      45.373  35.116  31.671  1.00  0.00     0.006 A 
ENDBRANCH  38  55
ENDBRANCH  12  13
ENDBRANCH   5   7
ENDBRANCH   2   3
ENDBRANCH   1   2
BRANCH   1  63
ATOM     63  C   UNL A   1      36.092  20.886  24.861  1.00  0.00     0.117 C 
BRANCH  63  64
ATOM     64  N   UNL A   1      35.391  21.098  26.114  1.00  0.00    -0.354 N 
ATOM     65  C   UNL A   1      34.109  21.324  26.466  1.00  0.00     0.243 C 
ATOM     66  H   UNL A   1      35.995  21.070  26.890  1.00  0.00     0.163 HD
ATOM     67  O   UNL A   1      33.939  21.507  27.684  1.00  0.00    -0.273 OA
BRANCH  65  68
ATOM     68  C   UNL A   1      32.867  21.420  25.548  1.00  0.00     0.181 C 
ATOM     69  C   UNL A   1      32.862  22.035  24.169  1.00  0.00     0.105 C 
ATOM     70  N   UNL A   1      31.767  21.893  26.381  1.00  0.00    -0.343 N 
ATOM     71  S   UNL A   1      32.838  23.840  24.170  1.00  0.00    -0.146 SA
ATOM     72  C   UNL A   1      31.286  23.157  26.481  1.00  0.00     0.234 C 
ATOM     73  H   UNL A   1      31.321  21.213  26.937  1.00  0.00     0.164 HD
ATOM     74  C   UNL A   1      31.524  24.205  25.394  1.00  0.00     0.140 C 
ATOM     75  O   UNL A   1      30.565  23.406  27.452  1.00  0.00    -0.274 OA
BRANCH  74  76
ATOM     76  C   UNL A   1      31.776  25.564  26.103  1.00  0.00     0.060 C 
BRANCH  76  77
ATOM     77  C   UNL A   1      31.302  26.803  25.373  1.00  0.00    -0.043 A 
ATOM     78  C   UNL A   1      30.379  26.713  24.320  1.00  0.00     0.004 A 
ATOM     79  C   UNL A   1      31.817  28.061  25.718  1.00  0.00     0.043 A 
ATOM     80  C   UNL A   1      30.018  27.851  23.593  1.00  0.00     0.003 A 
ATOM     81  C   UNL A   1      31.451  29.185  24.986  1.00  0.00     0.123 A 
ATOM     82  C   UNL A   1      30.564  29.091  23.923  1.00  0.00     0.039 A 
ATOM     83  F   UNL A   1      31.982  30.374  25.300  1.00  0.00    -0.207 F 
ENDBRANCH  76  77
ENDBRANCH  74  76
ENDBRANCH  65  68
ENDBRANCH  63  64
ENDBRANCH   1  63
TORSDOF 12
ENDMDL
MODEL 3
REMARK VINA RESULT:     -12.1      2.756      7.469
REMARK SMILES O=C(NCCCNC(=O)[C@@H]1CS[C@H](Cc2cccc(F)c2)C(=O)N1)c1ccc(-c2c3nc(c(-c4c(F)cccc4F)c4ccc([nH]4)c(-c4c(F)cccc4F)c4nc(c(-c5c(F)cccc5F)c5ccc2[nH]5)C=C4)C=C3)cc1
REMARK SMILES IDX 5 1 4 2 3 3 1 4 2 5 25 7 26 8 78 9 27 10 77 11 28 12 29 13
REMARK SMILES IDX 30 14 71 15 31 16 76 17 70 18 72 19 32 20 75 21 69 22 68 23
REMARK SMILES IDX 33 25 59 26 42 27 58 28 43 29 46 30 57 31 73 32 44 33 45 34
REMARK SMILES IDX 56 36 74 37 47 38 34 39 35 40 40 41 36 42 37 43 39 44 41 45
REMARK SMILES IDX 38 46 60 47 61 48 66 49 62 50 63 51 65 52 67 53 64 54 48 55
REMARK SMILES IDX 49 56 54 57 50 58 51 59 53 60 55 61 52 62 6 63 7 64 8 65
REMARK SMILES IDX 9 67 10 68 11 69 24 70 12 71 22 72 13 74 23 75 14 76 15 77
REMARK SMILES IDX 16 78 21 79 17 80 19 81 18 82 20 83
REMARK H PARENT 3 6 72 24 46 35 7 66 24 73
REMARK Flexibility Score: inf
ROOT
ATOM      1  C   UNL A   1      37.366  19.715  24.981  1.00  0.00     0.042 C 
ENDROOT
BRANCH   1   2
ATOM      2  C   UNL A   1      38.652  20.377  25.462  1.00  0.00     0.118 C 
BRANCH   2   3
ATOM      3  N   UNL A   1      39.720  19.418  25.685  1.00  0.00    -0.352 N 
ATOM      4  O   UNL A   1      41.815  18.666  25.953  1.00  0.00    -0.269 OA
ATOM      5  C   UNL A   1      41.027  19.606  26.055  1.00  0.00     0.251 C 
ATOM      6  H   UNL A   1      39.463  18.477  25.549  1.00  0.00     0.163 HD
BRANCH   5   7
ATOM      7  C   UNL A   1      41.509  20.906  26.575  1.00  0.00     0.039 A 
ATOM      8  C   UNL A   1      42.005  21.896  25.723  1.00  0.00     0.014 A 
ATOM      9  C   UNL A   1      41.361  21.180  27.939  1.00  0.00     0.014 A 
ATOM     10  C   UNL A   1      42.448  23.111  26.243  1.00  0.00     0.010 A 
ATOM     11  C   UNL A   1      41.730  22.427  28.450  1.00  0.00     0.010 A 
ATOM     12  C   UNL A   1      42.288  23.400  27.607  1.00  0.00    -0.014 A 
BRANCH  12  13
ATOM     13  C   UNL A   1      42.615  24.754  28.122  1.00  0.00     0.031 A 
ATOM     14  C   UNL A   1      44.016  25.121  28.512  1.00  0.00     0.074 A 
ATOM     15  C   UNL A   1      41.621  25.653  28.257  1.00  0.00     0.049 A 
ATOM     16  N   UNL A   1      44.463  26.244  29.014  1.00  0.00    -0.248 NA
ATOM     17  C   UNL A   1      45.049  24.094  28.323  1.00  0.00     0.031 C 
ATOM     18  C   UNL A   1      40.215  25.406  27.927  1.00  0.00     0.029 A 
ATOM     19  N   UNL A   1      41.634  26.949  28.706  1.00  0.00    -0.354 N 
ATOM     20  C   UNL A   1      45.824  26.053  29.219  1.00  0.00     0.074 A 
ATOM     21  C   UNL A   1      46.126  24.700  28.804  1.00  0.00     0.031 C 
ATOM     22  C   UNL A   1      39.508  26.522  28.156  1.00  0.00     0.029 A 
ATOM     23  C   UNL A   1      40.395  27.542  28.705  1.00  0.00     0.049 A 
ATOM     24  H   UNL A   1      42.454  27.410  28.999  1.00  0.00     0.167 HD
ATOM     25  C   UNL A   1      46.733  26.930  29.705  1.00  0.00     0.037 A 
ATOM     26  C   UNL A   1      40.007  28.762  29.120  1.00  0.00     0.037 A 
ATOM     27  C   UNL A   1      46.426  28.282  30.097  1.00  0.00     0.049 A 
ATOM     28  C   UNL A   1      41.024  29.706  29.682  1.00  0.00     0.074 A 
ATOM     29  C   UNL A   1      47.293  29.267  30.537  1.00  0.00     0.029 A 
ATOM     30  N   UNL A   1      45.155  28.834  30.107  1.00  0.00    -0.354 N 
ATOM     31  N   UNL A   1      42.315  29.528  29.828  1.00  0.00    -0.248 NA
ATOM     32  C   UNL A   1      40.540  31.014  30.144  1.00  0.00     0.031 C 
ATOM     33  C   UNL A   1      46.540  30.397  30.863  1.00  0.00     0.029 A 
ATOM     34  C   UNL A   1      45.209  30.135  30.579  1.00  0.00     0.049 A 
ATOM     35  H   UNL A   1      44.334  28.371  29.820  1.00  0.00     0.167 HD
ATOM     36  C   UNL A   1      42.800  30.700  30.391  1.00  0.00     0.074 A 
ATOM     37  C   UNL A   1      41.665  31.588  30.550  1.00  0.00     0.031 C 
ATOM     38  C   UNL A   1      44.072  31.007  30.741  1.00  0.00     0.037 A 
BRANCH  25  39
ATOM     39  C   UNL A   1      48.147  26.456  29.863  1.00  0.00     0.057 A 
ATOM     40  C   UNL A   1      49.068  26.607  28.817  1.00  0.00     0.134 A 
ATOM     41  C   UNL A   1      48.586  25.798  31.020  1.00  0.00     0.134 A 
ATOM     42  F   UNL A   1      48.710  27.219  27.678  1.00  0.00    -0.206 F 
ATOM     43  C   UNL A   1      50.371  26.116  28.913  1.00  0.00     0.040 A 
ATOM     44  C   UNL A   1      49.894  25.323  31.136  1.00  0.00     0.040 A 
ATOM     45  F   UNL A   1      47.757  25.626  32.059  1.00  0.00    -0.206 F 
ATOM     46  C   UNL A   1      50.788  25.475  30.077  1.00  0.00     0.006 A 
ENDBRANCH  25  39
BRANCH  26  47
ATOM     47  C   UNL A   1      38.575  29.131  29.009  1.00  0.00     0.057 A 
ATOM     48  C   UNL A   1      38.046  29.640  27.817  1.00  0.00     0.134 A 
ATOM     49  C   UNL A   1      37.727  29.072  30.121  1.00  0.00     0.134 A 
ATOM     50  F   UNL A   1      38.813  29.733  26.721  1.00  0.00    -0.206 F 
ATOM     51  C   UNL A   1      36.734  30.110  27.741  1.00  0.00     0.040 A 
ATOM     52  C   UNL A   1      36.406  29.519  30.053  1.00  0.00     0.040 A 
ATOM     53  F   UNL A   1      38.175  28.582  31.286  1.00  0.00    -0.206 F 
ATOM     54  C   UNL A   1      35.911  30.052  28.864  1.00  0.00     0.006 A 
ENDBRANCH  26  47
BRANCH  38  55
ATOM     55  C   UNL A   1      44.323  32.362  31.328  1.00  0.00     0.057 A 
ATOM     56  C   UNL A   1      44.673  33.442  30.508  1.00  0.00     0.134 A 
ATOM     57  C   UNL A   1      44.318  32.572  32.712  1.00  0.00     0.134 A 
ATOM     58  F   UNL A   1      44.705  33.302  29.174  1.00  0.00    -0.206 F 
ATOM     59  C   UNL A   1      45.031  34.679  31.046  1.00  0.00     0.040 A 
ATOM     60  C   UNL A   1      44.654  33.811  33.261  1.00  0.00     0.040 A 
ATOM     61  F   UNL A   1      43.981  31.580  33.549  1.00  0.00    -0.206 F 
ATOM     62  C   UNL A   1      45.024  34.864  32.426  1.00  0.00     0.006 A 
ENDBRANCH  38  55
ENDBRANCH  12  13
ENDBRANCH   5   7
ENDBRANCH   2   3
ENDBRANCH   1   2
BRANCH   1  63
ATOM     63  C   UNL A   1      36.202  20.680  24.767  1.00  0.00     0.117 C 
BRANCH  63  64
ATOM     64  N   UNL A   1      35.419  20.871  25.974  1.00  0.00    -0.354 N 
ATOM     65  C   UNL A   1      34.196  21.370  26.252  1.00  0.00     0.243 C 
ATOM     66  H   UNL A   1      35.892  20.564  26.780  1.00  0.00     0.163 HD
ATOM     67  O   UNL A   1      33.921  21.399  27.464  1.00  0.00    -0.273 OA
BRANCH  65  68
ATOM     68  C   UNL A   1      33.145  21.932  25.265  1.00  0.00     0.181 C 
ATOM     69  C   UNL A   1      33.470  22.633  23.969  1.00  0.00     0.105 C 
ATOM     70  N   UNL A   1      32.163  22.654  26.067  1.00  0.00    -0.343 N 
ATOM     71  S   UNL A   1      34.001  24.346  24.174  1.00  0.00    -0.146 SA
ATOM     72  C   UNL A   1      32.085  23.991  26.277  1.00  0.00     0.234 C 
ATOM     73  H   UNL A   1      31.476  22.104  26.509  1.00  0.00     0.164 HD
ATOM     74  C   UNL A   1      32.744  25.001  25.336  1.00  0.00     0.140 C 
ATOM     75  O   UNL A   1      31.380  24.369  27.216  1.00  0.00    -0.274 OA
BRANCH  74  76
ATOM     76  C   UNL A   1      33.326  26.144  26.212  1.00  0.00     0.060 C 
BRANCH  76  77
ATOM     77  C   UNL A   1      32.784  27.533  25.952  1.00  0.00    -0.043 A 
ATOM     78  C   UNL A   1      33.237  28.636  26.692  1.00  0.00     0.004 A 
ATOM     79  C   UNL A   1      31.784  27.729  24.989  1.00  0.00     0.043 A 
ATOM     80  C   UNL A   1      32.665  29.898  26.508  1.00  0.00     0.003 A 
ATOM     81  C   UNL A   1      31.223  28.988  24.816  1.00  0.00     0.123 A 
ATOM     82  C   UNL A   1      31.647  30.072  25.572  1.00  0.00     0.039 A 
ATOM     83  F   UNL A   1      30.240  29.152  23.920  1.00  0.00    -0.207 F 
ENDBRANCH  76  77
ENDBRANCH  74  76
ENDBRANCH  65  68
ENDBRANCH  63  64
ENDBRANCH   1  63
TORSDOF 12
ENDMDL
