MODEL 1
REMARK VINA RESULT:     -12.5      0.000      0.000
REMARK SMILES Cc1ccc(O[C@H](C)C(=O)NNC(=O)[C@@H]2[C@@H](C(=O)NCCCNC(=O)c3ccc(-c4c5nc(c(-c6c(F)cccc6F)c6ccc([nH]6)c(-c6c(F)cccc6F)c6nc(c(-c7c(F)cccc7F)c7ccc4[nH]7)C=C6)C=C5)cc3)[C@@H]3C=C[C@H]2C3)cc1C
REMARK SMILES IDX 17 1 18 2 19 3 16 5 15 6 83 7 80 8 82 9 84 10 81 11 13 12
REMARK SMILES IDX 12 13 14 15 11 16 9 17 10 18 7 20 8 21 6 22 5 23 1 24 2 25
REMARK SMILES IDX 3 26 86 27 4 28 85 29 87 30 20 31 21 32 22 33 23 34 24 35
REMARK SMILES IDX 25 37 26 38 27 39 79 40 28 41 78 42 29 43 30 44 31 45 72 46
REMARK SMILES IDX 32 47 77 48 71 49 73 50 33 51 76 52 70 53 69 54 34 56 60 57
REMARK SMILES IDX 43 58 59 59 44 60 47 61 58 62 74 63 45 64 46 65 57 67 75 68
REMARK SMILES IDX 48 69 35 70 36 71 41 72 37 73 38 74 40 75 42 76 39 77 61 78
REMARK SMILES IDX 62 79 67 80 63 81 64 82 66 83 68 84 65 85 49 86 50 87 55 88
REMARK SMILES IDX 51 89 52 90 54 91 56 92 53 93
REMARK H PARENT 19 4 12 14 11 19 23 36 73 55 47 66
REMARK Flexibility Score: inf
ROOT
ATOM      1  C   UNL A   1      32.593  28.996  24.308  1.00  0.00     0.224 C 
ATOM      2  O   UNL A   1      33.383  29.153  23.377  1.00  0.00    -0.275 OA
ATOM      3  N   UNL A   1      32.355  30.078  25.094  1.00  0.00    -0.356 N 
ATOM      4  H   UNL A   1      32.852  30.890  24.842  1.00  0.00     0.163 HD
ENDROOT
BRANCH   1   5
ATOM      5  C   UNL A   1      31.901  27.661  24.579  1.00  0.00     0.098 C 
ATOM      6  C   UNL A   1      32.672  26.414  23.975  1.00  0.00     0.100 C 
ATOM      7  C   UNL A   1      31.628  25.857  22.968  1.00  0.00     0.025 C 
ATOM      8  C   UNL A   1      30.545  27.608  23.821  1.00  0.00     0.025 C 
ATOM      9  C   UNL A   1      30.449  25.309  23.732  1.00  0.00    -0.027 C 
ATOM     10  C   UNL A   1      30.978  27.134  22.434  1.00  0.00     0.017 C 
ATOM     11  C   UNL A   1      29.807  26.360  24.262  1.00  0.00    -0.027 C 
BRANCH   6  12
ATOM     12  C   UNL A   1      33.144  25.473  25.094  1.00  0.00     0.242 C 
ATOM     13  N   UNL A   1      34.295  24.738  25.023  1.00  0.00    -0.267 N 
ATOM     14  H   UNL A   1      34.626  24.359  25.869  1.00  0.00     0.191 HD
ATOM     15  O   UNL A   1      32.551  25.430  26.178  1.00  0.00    -0.273 OA
BRANCH  13  16
ATOM     16  N   UNL A   1      35.042  24.471  23.894  1.00  0.00    -0.264 N 
ATOM     17  C   UNL A   1      35.846  23.364  23.757  1.00  0.00     0.279 C 
ATOM     18  O   UNL A   1      36.288  23.090  22.637  1.00  0.00    -0.269 OA
ATOM     19  H   UNL A   1      34.997  25.108  23.145  1.00  0.00     0.191 HD
BRANCH  17  20
ATOM     20  C   UNL A   1      36.297  22.581  25.006  1.00  0.00     0.260 C 
ATOM     21  C   UNL A   1      37.124  23.536  25.874  1.00  0.00     0.064 C 
BRANCH  20  22
ATOM     22  O   UNL A   1      35.191  22.041  25.731  1.00  0.00    -0.481 OA
BRANCH  22  23
ATOM     23  C   UNL A   1      34.397  21.110  25.110  1.00  0.00     0.120 A 
ATOM     24  C   UNL A   1      32.231  17.974  23.045  1.00  0.00     0.044 C 
ATOM     25  C   UNL A   1      33.004  19.029  23.788  1.00  0.00    -0.048 A 
ATOM     26  C   UNL A   1      32.456  20.315  23.898  1.00  0.00     0.007 A 
ATOM     27  C   UNL A   1      34.254  18.772  24.378  1.00  0.00    -0.045 A 
ATOM     28  C   UNL A   1      33.139  21.340  24.559  1.00  0.00     0.047 A 
ATOM     29  C   UNL A   1      34.936  19.822  25.030  1.00  0.00     0.050 A 
ATOM     30  C   UNL A   1      34.902  17.413  24.360  1.00  0.00     0.045 C 
ENDBRANCH  22  23
ENDBRANCH  20  22
ENDBRANCH  17  20
ENDBRANCH  13  16
ENDBRANCH   6  12
ENDBRANCH   1   5
BRANCH   3  31
ATOM     31  C   UNL A   1      31.488  30.230  26.246  1.00  0.00     0.117 C 
BRANCH  31  32
ATOM     32  C   UNL A   1      31.333  31.694  26.643  1.00  0.00     0.042 C 
BRANCH  32  33
ATOM     33  C   UNL A   1      32.656  32.455  26.714  1.00  0.00     0.118 C 
BRANCH  33  34
ATOM     34  N   UNL A   1      32.516  33.750  27.362  1.00  0.00    -0.352 N 
ATOM     35  C   UNL A   1      33.188  34.292  28.428  1.00  0.00     0.251 C 
ATOM     36  H   UNL A   1      31.824  34.333  26.973  1.00  0.00     0.163 HD
ATOM     37  O   UNL A   1      32.763  35.322  28.945  1.00  0.00    -0.269 OA
BRANCH  35  38
ATOM     38  C   UNL A   1      34.413  33.659  28.968  1.00  0.00     0.039 A 
ATOM     39  C   UNL A   1      34.270  32.567  29.832  1.00  0.00     0.014 A 
ATOM     40  C   UNL A   1      35.686  34.167  28.698  1.00  0.00     0.014 A 
ATOM     41  C   UNL A   1      35.400  31.964  30.389  1.00  0.00     0.010 A 
ATOM     42  C   UNL A   1      36.818  33.525  29.201  1.00  0.00     0.010 A 
ATOM     43  C   UNL A   1      36.684  32.425  30.061  1.00  0.00    -0.014 A 
BRANCH  43  44
ATOM     44  C   UNL A   1      37.889  31.763  30.620  1.00  0.00     0.031 A 
ATOM     45  C   UNL A   1      38.421  32.149  31.972  1.00  0.00     0.074 A 
ATOM     46  C   UNL A   1      38.533  30.835  29.887  1.00  0.00     0.049 A 
ATOM     47  N   UNL A   1      39.459  31.678  32.618  1.00  0.00    -0.248 NA
ATOM     48  C   UNL A   1      37.709  33.223  32.681  1.00  0.00     0.031 C 
ATOM     49  C   UNL A   1      38.156  30.415  28.536  1.00  0.00     0.029 A 
ATOM     50  N   UNL A   1      39.641  30.078  30.175  1.00  0.00    -0.354 N 
ATOM     51  C   UNL A   1      39.533  32.408  33.796  1.00  0.00     0.074 A 
ATOM     52  C   UNL A   1      38.464  33.383  33.758  1.00  0.00     0.031 C 
ATOM     53  C   UNL A   1      39.002  29.457  28.122  1.00  0.00     0.029 A 
ATOM     54  C   UNL A   1      39.989  29.211  29.170  1.00  0.00     0.049 A 
ATOM     55  H   UNL A   1      40.138  30.150  31.021  1.00  0.00     0.167 HD
ATOM     56  C   UNL A   1      40.400  32.266  34.828  1.00  0.00     0.037 A 
ATOM     57  C   UNL A   1      40.986  28.309  29.101  1.00  0.00     0.037 A 
ATOM     58  C   UNL A   1      41.445  31.277  34.881  1.00  0.00     0.049 A 
ATOM     59  C   UNL A   1      41.905  28.135  30.276  1.00  0.00     0.074 A 
ATOM     60  C   UNL A   1      42.330  31.009  35.911  1.00  0.00     0.029 A 
ATOM     61  N   UNL A   1      41.744  30.391  33.857  1.00  0.00    -0.354 N 
ATOM     62  N   UNL A   1      41.919  28.782  31.415  1.00  0.00    -0.248 NA
ATOM     63  C   UNL A   1      42.937  27.095  30.160  1.00  0.00     0.031 C 
ATOM     64  C   UNL A   1      43.185  29.980  35.499  1.00  0.00     0.029 A 
ATOM     65  C   UNL A   1      42.809  29.585  34.225  1.00  0.00     0.049 A 
ATOM     66  H   UNL A   1      41.270  30.343  32.996  1.00  0.00     0.167 HD
ATOM     67  C   UNL A   1      42.947  28.219  32.158  1.00  0.00     0.074 A 
ATOM     68  C   UNL A   1      43.524  27.167  31.347  1.00  0.00     0.031 C 
ATOM     69  C   UNL A   1      43.375  28.546  33.403  1.00  0.00     0.037 A 
BRANCH  56  70
ATOM     70  C   UNL A   1      40.246  33.207  35.987  1.00  0.00     0.057 A 
ATOM     71  C   UNL A   1      40.954  34.414  36.056  1.00  0.00     0.134 A 
ATOM     72  C   UNL A   1      39.372  32.909  37.041  1.00  0.00     0.134 A 
ATOM     73  F   UNL A   1      41.817  34.752  35.086  1.00  0.00    -0.206 F 
ATOM     74  C   UNL A   1      40.822  35.277  37.146  1.00  0.00     0.040 A 
ATOM     75  C   UNL A   1      39.213  33.776  38.123  1.00  0.00     0.040 A 
ATOM     76  F   UNL A   1      38.660  31.772  37.034  1.00  0.00    -0.206 F 
ATOM     77  C   UNL A   1      39.945  34.960  38.181  1.00  0.00     0.006 A 
ENDBRANCH  56  70
BRANCH  57  78
ATOM     78  C   UNL A   1      41.129  27.468  27.889  1.00  0.00     0.057 A 
ATOM     79  C   UNL A   1      40.452  26.249  27.778  1.00  0.00     0.134 A 
ATOM     80  C   UNL A   1      41.915  27.876  26.806  1.00  0.00     0.134 A 
ATOM     81  F   UNL A   1      39.697  25.801  28.791  1.00  0.00    -0.206 F 
ATOM     82  C   UNL A   1      40.560  25.458  26.633  1.00  0.00     0.040 A 
ATOM     83  C   UNL A   1      42.016  27.103  25.648  1.00  0.00     0.040 A 
ATOM     84  F   UNL A   1      42.578  29.041  26.851  1.00  0.00    -0.206 F 
ATOM     85  C   UNL A   1      41.339  25.889  25.561  1.00  0.00     0.006 A 
ENDBRANCH  57  78
BRANCH  69  86
ATOM     86  C   UNL A   1      44.513  27.746  33.960  1.00  0.00     0.057 A 
ATOM     87  C   UNL A   1      45.843  28.165  33.825  1.00  0.00     0.134 A 
ATOM     88  C   UNL A   1      44.275  26.556  34.659  1.00  0.00     0.134 A 
ATOM     89  F   UNL A   1      46.136  29.290  33.155  1.00  0.00    -0.206 F 
ATOM     90  C   UNL A   1      46.898  27.416  34.346  1.00  0.00     0.040 A 
ATOM     91  C   UNL A   1      45.322  25.809  35.203  1.00  0.00     0.040 A 
ATOM     92  F   UNL A   1      43.024  26.104  34.828  1.00  0.00    -0.206 F 
ATOM     93  C   UNL A   1      46.639  26.236  35.041  1.00  0.00     0.006 A 
ENDBRANCH  69  86
ENDBRANCH  43  44
ENDBRANCH  35  38
ENDBRANCH  33  34
ENDBRANCH  32  33
ENDBRANCH  31  32
ENDBRANCH   3  31
TORSDOF 15
ENDMDL
MODEL 2
REMARK VINA RESULT:     -12.4      4.005      9.550
REMARK SMILES Cc1ccc(O[C@H](C)C(=O)NNC(=O)[C@@H]2[C@@H](C(=O)NCCCNC(=O)c3ccc(-c4c5nc(c(-c6c(F)cccc6F)c6ccc([nH]6)c(-c6c(F)cccc6F)c6nc(c(-c7c(F)cccc7F)c7ccc4[nH]7)C=C6)C=C5)cc3)[C@@H]3C=C[C@H]2C3)cc1C
REMARK SMILES IDX 17 1 18 2 19 3 16 5 15 6 83 7 80 8 82 9 84 10 81 11 13 12
REMARK SMILES IDX 12 13 14 15 11 16 9 17 10 18 7 20 8 21 6 22 5 23 1 24 2 25
REMARK SMILES IDX 3 26 86 27 4 28 85 29 87 30 20 31 21 32 22 33 23 34 24 35
REMARK SMILES IDX 25 37 26 38 27 39 79 40 28 41 78 42 29 43 30 44 31 45 72 46
REMARK SMILES IDX 32 47 77 48 71 49 73 50 33 51 76 52 70 53 69 54 34 56 60 57
REMARK SMILES IDX 43 58 59 59 44 60 47 61 58 62 74 63 45 64 46 65 57 67 75 68
REMARK SMILES IDX 48 69 35 70 36 71 41 72 37 73 38 74 40 75 42 76 39 77 61 78
REMARK SMILES IDX 62 79 67 80 63 81 64 82 66 83 68 84 65 85 49 86 50 87 55 88
REMARK SMILES IDX 51 89 52 90 54 91 56 92 53 93
REMARK H PARENT 19 4 12 14 11 19 23 36 73 55 47 66
REMARK Flexibility Score: inf
ROOT
ATOM      1  C   UNL A   1      34.811  21.741  26.110  1.00  0.00     0.224 C 
ATOM      2  O   UNL A   1      34.558  21.998  27.288  1.00  0.00    -0.275 OA
ATOM      3  N   UNL A   1      35.799  20.836  25.883  1.00  0.00    -0.356 N 
ATOM      4  H   UNL A   1      36.226  20.478  26.694  1.00  0.00     0.163 HD
ENDROOT
BRANCH   1   5
ATOM      5  C   UNL A   1      34.060  22.393  24.950  1.00  0.00     0.098 C 
ATOM      6  C   UNL A   1      33.063  23.538  25.405  1.00  0.00     0.100 C 
ATOM      7  C   UNL A   1      31.695  22.965  24.940  1.00  0.00     0.025 C 
ATOM      8  C   UNL A   1      33.100  21.359  24.299  1.00  0.00     0.025 C 
ATOM      9  C   UNL A   1      31.659  22.933  23.433  1.00  0.00    -0.027 C 
ATOM     10  C   UNL A   1      31.866  21.467  25.195  1.00  0.00     0.017 C 
ATOM     11  C   UNL A   1      32.518  21.980  23.045  1.00  0.00    -0.027 C 
BRANCH   6  12
ATOM     12  C   UNL A   1      33.492  24.894  24.826  1.00  0.00     0.242 C 
ATOM     13  N   UNL A   1      33.310  26.082  25.478  1.00  0.00    -0.267 N 
ATOM     14  H   UNL A   1      33.822  26.852  25.140  1.00  0.00     0.191 HD
ATOM     15  O   UNL A   1      34.142  24.958  23.776  1.00  0.00    -0.273 OA
BRANCH  13  16
ATOM     16  N   UNL A   1      32.483  26.319  26.557  1.00  0.00    -0.264 N 
ATOM     17  C   UNL A   1      31.980  27.559  26.875  1.00  0.00     0.279 C 
ATOM     18  O   UNL A   1      31.074  27.632  27.710  1.00  0.00    -0.269 OA
ATOM     19  H   UNL A   1      32.241  25.558  27.133  1.00  0.00     0.191 HD
BRANCH  17  20
ATOM     20  C   UNL A   1      32.645  28.828  26.305  1.00  0.00     0.260 C 
ATOM     21  C   UNL A   1      34.063  28.904  26.883  1.00  0.00     0.064 C 
BRANCH  20  22
ATOM     22  O   UNL A   1      32.662  28.832  24.877  1.00  0.00    -0.481 OA
BRANCH  22  23
ATOM     23  C   UNL A   1      31.464  28.897  24.211  1.00  0.00     0.120 A 
ATOM     24  C   UNL A   1      27.565  29.386  22.381  1.00  0.00     0.044 C 
ATOM     25  C   UNL A   1      28.925  29.263  23.011  1.00  0.00    -0.048 A 
ATOM     26  C   UNL A   1      29.612  28.045  22.903  1.00  0.00     0.007 A 
ATOM     27  C   UNL A   1      29.534  30.325  23.703  1.00  0.00    -0.045 A 
ATOM     28  C   UNL A   1      30.869  27.867  23.487  1.00  0.00     0.047 A 
ATOM     29  C   UNL A   1      30.797  30.123  24.298  1.00  0.00     0.050 A 
ATOM     30  C   UNL A   1      28.901  31.685  23.832  1.00  0.00     0.045 C 
ENDBRANCH  22  23
ENDBRANCH  20  22
ENDBRANCH  17  20
ENDBRANCH  13  16
ENDBRANCH   6  12
ENDBRANCH   1   5
BRANCH   3  31
ATOM     31  C   UNL A   1      36.327  20.316  24.637  1.00  0.00     0.117 C 
BRANCH  31  32
ATOM     32  C   UNL A   1      37.533  19.412  24.873  1.00  0.00     0.042 C 
BRANCH  32  33
ATOM     33  C   UNL A   1      38.727  20.132  25.495  1.00  0.00     0.118 C 
BRANCH  33  34
ATOM     34  N   UNL A   1      39.859  19.242  25.712  1.00  0.00    -0.352 N 
ATOM     35  C   UNL A   1      41.149  19.515  26.089  1.00  0.00     0.251 C 
ATOM     36  H   UNL A   1      39.667  18.288  25.561  1.00  0.00     0.163 HD
ATOM     37  O   UNL A   1      41.998  18.631  26.007  1.00  0.00    -0.269 OA
BRANCH  35  38
ATOM     38  C   UNL A   1      41.538  20.853  26.590  1.00  0.00     0.039 A 
ATOM     39  C   UNL A   1      41.884  21.837  25.657  1.00  0.00     0.014 A 
ATOM     40  C   UNL A   1      41.638  21.128  27.957  1.00  0.00     0.014 A 
ATOM     41  C   UNL A   1      42.289  23.101  26.091  1.00  0.00     0.010 A 
ATOM     42  C   UNL A   1      41.979  22.409  28.390  1.00  0.00     0.010 A 
ATOM     43  C   UNL A   1      42.319  23.404  27.461  1.00  0.00    -0.014 A 
BRANCH  43  44
ATOM     44  C   UNL A   1      42.712  24.758  27.926  1.00  0.00     0.031 A 
ATOM     45  C   UNL A   1      44.160  25.150  28.014  1.00  0.00     0.074 A 
ATOM     46  C   UNL A   1      41.758  25.627  28.310  1.00  0.00     0.049 A 
ATOM     47  N   UNL A   1      44.688  26.286  28.396  1.00  0.00    -0.248 NA
ATOM     48  C   UNL A   1      45.147  24.123  27.649  1.00  0.00     0.031 C 
ATOM     49  C   UNL A   1      40.321  25.348  28.332  1.00  0.00     0.029 A 
ATOM     50  N   UNL A   1      41.854  26.920  28.757  1.00  0.00    -0.354 N 
ATOM     51  C   UNL A   1      46.063  26.105  28.334  1.00  0.00     0.074 A 
ATOM     52  C   UNL A   1      46.290  24.737  27.921  1.00  0.00     0.031 C 
ATOM     53  C   UNL A   1      39.667  26.447  28.745  1.00  0.00     0.029 A 
ATOM     54  C   UNL A   1      40.639  27.497  29.033  1.00  0.00     0.049 A 
ATOM     55  H   UNL A   1      42.712  27.390  28.869  1.00  0.00     0.167 HD
ATOM     56  C   UNL A   1      47.048  27.002  28.578  1.00  0.00     0.037 A 
ATOM     57  C   UNL A   1      40.339  28.737  29.461  1.00  0.00     0.037 A 
ATOM     58  C   UNL A   1      46.824  28.372  28.960  1.00  0.00     0.049 A 
ATOM     59  C   UNL A   1      41.445  29.730  29.679  1.00  0.00     0.074 A 
ATOM     60  C   UNL A   1      47.754  29.377  29.163  1.00  0.00     0.029 A 
ATOM     61  N   UNL A   1      45.576  28.930  29.195  1.00  0.00    -0.354 N 
ATOM     62  N   UNL A   1      42.738  29.567  29.546  1.00  0.00    -0.248 NA
ATOM     63  C   UNL A   1      41.046  31.084  30.092  1.00  0.00     0.031 C 
ATOM     64  C   UNL A   1      47.070  30.536  29.550  1.00  0.00     0.029 A 
ATOM     65  C   UNL A   1      45.712  30.261  29.555  1.00  0.00     0.049 A 
ATOM     66  H   UNL A   1      44.719  28.451  29.118  1.00  0.00     0.167 HD
ATOM     67  C   UNL A   1      43.307  30.797  29.842  1.00  0.00     0.074 A 
ATOM     68  C   UNL A   1      42.218  31.702  30.146  1.00  0.00     0.031 C 
ATOM     69  C   UNL A   1      44.618  31.146  29.860  1.00  0.00     0.037 A 
BRANCH  56  70
ATOM     70  C   UNL A   1      48.463  26.523  28.433  1.00  0.00     0.057 A 
ATOM     71  C   UNL A   1      49.158  26.632  27.222  1.00  0.00     0.134 A 
ATOM     72  C   UNL A   1      49.142  25.956  29.520  1.00  0.00     0.134 A 
ATOM     73  F   UNL A   1      48.561  27.153  26.140  1.00  0.00    -0.206 F 
ATOM     74  C   UNL A   1      50.468  26.167  27.088  1.00  0.00     0.040 A 
ATOM     75  C   UNL A   1      50.460  25.510  29.404  1.00  0.00     0.040 A 
ATOM     76  F   UNL A   1      48.536  25.828  30.710  1.00  0.00    -0.206 F 
ATOM     77  C   UNL A   1      51.123  25.608  28.183  1.00  0.00     0.006 A 
ENDBRANCH  56  70
BRANCH  57  78
ATOM     78  C   UNL A   1      38.921  29.117  29.662  1.00  0.00     0.057 A 
ATOM     79  C   UNL A   1      38.322  29.014  30.922  1.00  0.00     0.134 A 
ATOM     80  C   UNL A   1      38.145  29.621  28.613  1.00  0.00     0.134 A 
ATOM     81  F   UNL A   1      39.013  28.524  31.960  1.00  0.00    -0.206 F 
ATOM     82  C   UNL A   1      36.994  29.390  31.130  1.00  0.00     0.040 A 
ATOM     83  C   UNL A   1      36.821  30.018  28.811  1.00  0.00     0.040 A 
ATOM     84  F   UNL A   1      38.668  29.753  27.385  1.00  0.00    -0.206 F 
ATOM     85  C   UNL A   1      36.242  29.900  30.073  1.00  0.00     0.006 A 
ENDBRANCH  57  78
BRANCH  69  86
ATOM     86  C   UNL A   1      44.936  32.568  30.209  1.00  0.00     0.057 A 
ATOM     87  C   UNL A   1      44.993  33.570  29.233  1.00  0.00     0.134 A 
ATOM     88  C   UNL A   1      45.167  32.943  31.539  1.00  0.00     0.134 A 
ATOM     89  F   UNL A   1      44.793  33.271  27.940  1.00  0.00    -0.206 F 
ATOM     90  C   UNL A   1      45.290  34.893  29.563  1.00  0.00     0.040 A 
ATOM     91  C   UNL A   1      45.446  34.267  31.884  1.00  0.00     0.040 A 
ATOM     92  F   UNL A   1      45.122  32.032  32.522  1.00  0.00    -0.206 F 
ATOM     93  C   UNL A   1      45.513  35.245  30.893  1.00  0.00     0.006 A 
ENDBRANCH  69  86
ENDBRANCH  43  44
ENDBRANCH  35  38
ENDBRANCH  33  34
ENDBRANCH  32  33
ENDBRANCH  31  32
ENDBRANCH   3  31
TORSDOF 15
ENDMDL
MODEL 3
REMARK VINA RESULT:     -12.4      4.287      9.167
REMARK SMILES Cc1ccc(O[C@H](C)C(=O)NNC(=O)[C@@H]2[C@@H](C(=O)NCCCNC(=O)c3ccc(-c4c5nc(c(-c6c(F)cccc6F)c6ccc([nH]6)c(-c6c(F)cccc6F)c6nc(c(-c7c(F)cccc7F)c7ccc4[nH]7)C=C6)C=C5)cc3)[C@@H]3C=C[C@H]2C3)cc1C
REMARK SMILES IDX 17 1 18 2 19 3 16 5 15 6 83 7 80 8 82 9 84 10 81 11 13 12
REMARK SMILES IDX 12 13 14 15 11 16 9 17 10 18 7 20 8 21 6 22 5 23 1 24 2 25
REMARK SMILES IDX 3 26 86 27 4 28 85 29 87 30 20 31 21 32 22 33 23 34 24 35
REMARK SMILES IDX 25 37 26 38 27 39 79 40 28 41 78 42 29 43 30 44 31 45 72 46
REMARK SMILES IDX 32 47 77 48 71 49 73 50 33 51 76 52 70 53 69 54 34 56 60 57
REMARK SMILES IDX 43 58 59 59 44 60 47 61 58 62 74 63 45 64 46 65 57 67 75 68
REMARK SMILES IDX 48 69 35 70 36 71 41 72 37 73 38 74 40 75 42 76 39 77 61 78
REMARK SMILES IDX 62 79 67 80 63 81 64 82 66 83 68 84 65 85 49 86 50 87 55 88
REMARK SMILES IDX 51 89 52 90 54 91 56 92 53 93
REMARK H PARENT 19 4 12 14 11 19 23 36 73 55 47 66
REMARK Flexibility Score: inf
ROOT
ATOM      1  C   UNL A   1      34.739  21.521  26.084  1.00  0.00     0.224 C 
ATOM      2  O   UNL A   1      34.331  21.554  27.245  1.00  0.00    -0.275 OA
ATOM      3  N   UNL A   1      35.866  20.798  25.854  1.00  0.00    -0.356 N 
ATOM      4  H   UNL A   1      36.254  20.373  26.652  1.00  0.00     0.163 HD
ENDROOT
BRANCH   1   5
ATOM      5  C   UNL A   1      34.025  22.247  24.945  1.00  0.00     0.098 C 
ATOM      6  C   UNL A   1      33.089  23.429  25.435  1.00  0.00     0.100 C 
ATOM      7  C   UNL A   1      31.693  22.945  24.954  1.00  0.00     0.025 C 
ATOM      8  C   UNL A   1      33.012  21.286  24.262  1.00  0.00     0.025 C 
ATOM      9  C   UNL A   1      31.658  22.961  23.446  1.00  0.00    -0.027 C 
ATOM     10  C   UNL A   1      31.784  21.433  25.162  1.00  0.00     0.017 C 
ATOM     11  C   UNL A   1      32.465  21.976  23.028  1.00  0.00    -0.027 C 
BRANCH   6  12
ATOM     12  C   UNL A   1      33.591  24.778  24.897  1.00  0.00     0.242 C 
ATOM     13  N   UNL A   1      33.413  25.963  25.556  1.00  0.00    -0.267 N 
ATOM     14  H   UNL A   1      33.967  26.720  25.255  1.00  0.00     0.191 HD
ATOM     15  O   UNL A   1      34.295  24.834  23.882  1.00  0.00    -0.273 OA
BRANCH  13  16
ATOM     16  N   UNL A   1      32.541  26.213  26.596  1.00  0.00    -0.264 N 
ATOM     17  C   UNL A   1      31.966  27.441  26.830  1.00  0.00     0.279 C 
ATOM     18  O   UNL A   1      31.031  27.511  27.633  1.00  0.00    -0.269 OA
ATOM     19  H   UNL A   1      32.319  25.472  27.204  1.00  0.00     0.191 HD
BRANCH  17  20
ATOM     20  C   UNL A   1      32.585  28.711  26.212  1.00  0.00     0.260 C 
ATOM     21  C   UNL A   1      34.036  28.800  26.700  1.00  0.00     0.064 C 
BRANCH  20  22
ATOM     22  O   UNL A   1      32.512  28.705  24.786  1.00  0.00    -0.481 OA
BRANCH  22  23
ATOM     23  C   UNL A   1      31.274  28.744  24.196  1.00  0.00     0.120 A 
ATOM     24  C   UNL A   1      27.278  29.184  22.575  1.00  0.00     0.044 C 
ATOM     25  C   UNL A   1      28.673  29.077  23.126  1.00  0.00    -0.048 A 
ATOM     26  C   UNL A   1      29.305  27.825  23.126  1.00  0.00     0.007 A 
ATOM     27  C   UNL A   1      29.368  30.186  23.640  1.00  0.00    -0.045 A 
ATOM     28  C   UNL A   1      30.593  27.662  23.645  1.00  0.00     0.047 A 
ATOM     29  C   UNL A   1      30.662  30.001  24.173  1.00  0.00     0.050 A 
ATOM     30  C   UNL A   1      28.798  31.579  23.639  1.00  0.00     0.045 C 
ENDBRANCH  22  23
ENDBRANCH  20  22
ENDBRANCH  17  20
ENDBRANCH  13  16
ENDBRANCH   6  12
ENDBRANCH   1   5
BRANCH   3  31
ATOM     31  C   UNL A   1      36.589  20.554  24.621  1.00  0.00     0.117 C 
BRANCH  31  32
ATOM     32  C   UNL A   1      37.725  19.556  24.826  1.00  0.00     0.042 C 
BRANCH  32  33
ATOM     33  C   UNL A   1      38.828  20.063  25.753  1.00  0.00     0.118 C 
BRANCH  33  34
ATOM     34  N   UNL A   1      39.960  19.150  25.817  1.00  0.00    -0.352 N 
ATOM     35  C   UNL A   1      41.298  19.399  25.984  1.00  0.00     0.251 C 
ATOM     36  H   UNL A   1      39.726  18.198  25.725  1.00  0.00     0.163 HD
ATOM     37  O   UNL A   1      42.105  18.491  25.798  1.00  0.00    -0.269 OA
BRANCH  35  38
ATOM     38  C   UNL A   1      41.789  20.738  26.382  1.00  0.00     0.039 A 
ATOM     39  C   UNL A   1      41.998  21.693  25.381  1.00  0.00     0.014 A 
ATOM     40  C   UNL A   1      42.114  21.040  27.707  1.00  0.00     0.014 A 
ATOM     41  C   UNL A   1      42.492  22.956  25.711  1.00  0.00     0.010 A 
ATOM     42  C   UNL A   1      42.545  22.323  28.047  1.00  0.00     0.010 A 
ATOM     43  C   UNL A   1      42.750  23.288  27.050  1.00  0.00    -0.014 A 
BRANCH  43  44
ATOM     44  C   UNL A   1      43.238  24.643  27.411  1.00  0.00     0.031 A 
ATOM     45  C   UNL A   1      42.282  25.705  27.876  1.00  0.00     0.074 A 
ATOM     46  C   UNL A   1      44.547  24.930  27.281  1.00  0.00     0.049 A 
ATOM     47  N   UNL A   1      42.529  26.941  28.233  1.00  0.00    -0.248 NA
ATOM     48  C   UNL A   1      40.858  25.341  27.921  1.00  0.00     0.031 C 
ATOM     49  C   UNL A   1      45.569  24.007  26.782  1.00  0.00     0.029 A 
ATOM     50  N   UNL A   1      45.242  26.080  27.556  1.00  0.00    -0.354 N 
ATOM     51  C   UNL A   1      41.294  27.504  28.527  1.00  0.00     0.074 A 
ATOM     52  C   UNL A   1      40.295  26.490  28.265  1.00  0.00     0.031 C 
ATOM     53  C   UNL A   1      46.764  24.619  26.812  1.00  0.00     0.029 A 
ATOM     54  C   UNL A   1      46.589  25.979  27.313  1.00  0.00     0.049 A 
ATOM     55  H   UNL A   1      44.816  26.899  27.896  1.00  0.00     0.167 HD
ATOM     56  C   UNL A   1      41.018  28.745  28.994  1.00  0.00     0.037 A 
ATOM     57  C   UNL A   1      47.576  26.877  27.483  1.00  0.00     0.037 A 
ATOM     58  C   UNL A   1      42.012  29.745  29.284  1.00  0.00     0.049 A 
ATOM     59  C   UNL A   1      47.254  28.231  28.047  1.00  0.00     0.074 A 
ATOM     60  C   UNL A   1      41.838  31.007  29.825  1.00  0.00     0.029 A 
ATOM     61  N   UNL A   1      43.372  29.592  29.057  1.00  0.00    -0.354 N 
ATOM     62  N   UNL A   1      46.090  28.725  28.391  1.00  0.00    -0.248 NA
ATOM     63  C   UNL A   1      48.384  29.146  28.261  1.00  0.00     0.031 C 
ATOM     64  C   UNL A   1      43.090  31.630  29.898  1.00  0.00     0.029 A 
ATOM     65  C   UNL A   1      44.047  30.742  29.434  1.00  0.00     0.049 A 
ATOM     66  H   UNL A   1      43.795  28.786  28.684  1.00  0.00     0.167 HD
ATOM     67  C   UNL A   1      46.347  29.999  28.876  1.00  0.00     0.074 A 
ATOM     68  C   UNL A   1      47.780  30.197  28.797  1.00  0.00     0.031 C 
ATOM     69  C   UNL A   1      45.473  30.924  29.344  1.00  0.00     0.037 A 
BRANCH  56  70
ATOM     70  C   UNL A   1      39.573  29.086  29.223  1.00  0.00     0.057 A 
ATOM     71  C   UNL A   1      38.749  29.537  28.184  1.00  0.00     0.134 A 
ATOM     72  C   UNL A   1      38.998  28.950  30.492  1.00  0.00     0.134 A 
ATOM     73  F   UNL A   1      39.243  29.701  26.947  1.00  0.00    -0.206 F 
ATOM     74  C   UNL A   1      37.411  29.871  28.406  1.00  0.00     0.040 A 
ATOM     75  C   UNL A   1      37.655  29.257  30.720  1.00  0.00     0.040 A 
ATOM     76  F   UNL A   1      39.730  28.517  31.529  1.00  0.00    -0.206 F 
ATOM     77  C   UNL A   1      36.861  29.727  29.677  1.00  0.00     0.006 A 
ENDBRANCH  56  70
BRANCH  57  78
ATOM     78  C   UNL A   1      48.972  26.499  27.158  1.00  0.00     0.057 A 
ATOM     79  C   UNL A   1      49.511  26.762  25.894  1.00  0.00     0.134 A 
ATOM     80  C   UNL A   1      49.806  25.898  28.108  1.00  0.00     0.134 A 
ATOM     81  F   UNL A   1      48.755  27.323  24.941  1.00  0.00    -0.206 F 
ATOM     82  C   UNL A   1      50.831  26.432  25.583  1.00  0.00     0.040 A 
ATOM     83  C   UNL A   1      51.133  25.579  27.815  1.00  0.00     0.040 A 
ATOM     84  F   UNL A   1      49.347  25.631  29.339  1.00  0.00    -0.206 F 
ATOM     85  C   UNL A   1      51.648  25.844  26.547  1.00  0.00     0.006 A 
ENDBRANCH  57  78
BRANCH  69  86
ATOM     86  C   UNL A   1      46.049  32.224  29.817  1.00  0.00     0.057 A 
ATOM     87  C   UNL A   1      46.476  32.401  31.140  1.00  0.00     0.134 A 
ATOM     88  C   UNL A   1      46.200  33.302  28.937  1.00  0.00     0.134 A 
ATOM     89  F   UNL A   1      46.346  31.409  32.034  1.00  0.00    -0.206 F 
ATOM     90  C   UNL A   1      47.012  33.614  31.575  1.00  0.00     0.040 A 
ATOM     91  C   UNL A   1      46.753  34.514  29.356  1.00  0.00     0.040 A 
ATOM     92  F   UNL A   1      45.816  33.195  27.656  1.00  0.00    -0.206 F 
ATOM     93  C   UNL A   1      47.156  34.673  30.681  1.00  0.00     0.006 A 
ENDBRANCH  69  86
ENDBRANCH  43  44
ENDBRANCH  35  38
ENDBRANCH  33  34
ENDBRANCH  32  33
ENDBRANCH  31  32
ENDBRANCH   3  31
TORSDOF 15
ENDMDL
