MODEL 1
REMARK VINA RESULT:     -12.6      0.000      0.000
REMARK SMILES Cc1cccc(O[C@H](C)C(=O)N2CCC[C@@H](C(=O)NCCCNC(=O)c3ccc(-c4c5nc(c(-c6c(F)cccc6F)c6ccc([nH]6)c(-c6c(F)cccc6F)c6nc(c(-c7c(F)cccc7F)c7ccc4[nH]7)C=C6)C=C5)cc3)C2)c1
REMARK SMILES IDX 20 1 19 2 17 3 18 4 16 6 12 7 13 8 80 9 14 10 15 11 10 12
REMARK SMILES IDX 11 13 8 14 9 15 7 16 6 17 1 18 2 19 3 20 81 21 4 22 5 23
REMARK SMILES IDX 21 24 22 25 23 26 24 27 25 29 26 30 27 31 79 32 28 33 78 34
REMARK SMILES IDX 29 35 30 36 31 37 72 38 32 39 77 40 71 41 73 42 33 43 76 44
REMARK SMILES IDX 70 45 69 46 34 48 60 49 43 50 59 51 44 52 47 53 58 54 74 55
REMARK SMILES IDX 45 56 46 57 57 59 75 60 48 61 35 62 36 63 41 64 37 65 38 66
REMARK SMILES IDX 40 67 42 68 39 69 61 70 62 71 67 72 63 73 64 74 66 75 68 76
REMARK SMILES IDX 65 77 49 78 50 79 55 80 51 81 52 82 54 83 56 84 53 85
REMARK H PARENT 19 5 23 28 73 47 47 58
REMARK Flexibility Score: inf
ROOT
ATOM      1  C   UNL A   1      34.132  29.437  27.204  1.00  0.00     0.117 C 
ENDROOT
BRANCH   1   2
ATOM      2  N   UNL A   1      32.971  28.641  27.557  1.00  0.00    -0.356 N 
ATOM      3  C   UNL A   1      32.080  27.958  26.790  1.00  0.00     0.224 C 
ATOM      4  O   UNL A   1      31.139  27.422  27.384  1.00  0.00    -0.275 OA
ATOM      5  H   UNL A   1      32.798  28.586  28.525  1.00  0.00     0.163 HD
BRANCH   3   6
ATOM      6  C   UNL A   1      32.212  27.796  25.280  1.00  0.00     0.098 C 
ATOM      7  N   UNL A   1      32.299  26.306  23.316  1.00  0.00    -0.339 N 
ATOM      8  C   UNL A   1      31.464  27.222  22.535  1.00  0.00     0.119 C 
ATOM      9  C   UNL A   1      32.072  26.357  24.762  1.00  0.00     0.133 C 
ATOM     10  C   UNL A   1      31.601  28.665  23.003  1.00  0.00     0.022 C 
ATOM     11  C   UNL A   1      31.333  28.784  24.502  1.00  0.00     0.017 C 
BRANCH   7  12
ATOM     12  C   UNL A   1      33.186  25.499  22.622  1.00  0.00     0.263 C 
ATOM     13  O   UNL A   1      33.656  25.888  21.542  1.00  0.00    -0.271 OA
BRANCH  12  14
ATOM     14  C   UNL A   1      33.557  24.070  23.095  1.00  0.00     0.259 C 
ATOM     15  C   UNL A   1      32.555  22.952  22.838  1.00  0.00     0.064 C 
BRANCH  14  16
ATOM     16  O   UNL A   1      34.954  23.781  23.054  1.00  0.00    -0.481 OA
BRANCH  16  17
ATOM     17  C   UNL A   1      35.694  23.340  24.098  1.00  0.00     0.120 A 
ATOM     18  C   UNL A   1      37.652  20.112  24.733  1.00  0.00     0.044 C 
ATOM     19  C   UNL A   1      37.101  21.500  24.888  1.00  0.00    -0.047 A 
ATOM     20  C   UNL A   1      37.471  22.276  25.986  1.00  0.00     0.003 A 
ATOM     21  C   UNL A   1      36.203  22.039  23.958  1.00  0.00     0.049 A 
ATOM     22  C   UNL A   1      36.986  23.576  26.116  1.00  0.00     0.004 A 
ATOM     23  C   UNL A   1      36.109  24.109  25.173  1.00  0.00     0.046 A 
ENDBRANCH  16  17
ENDBRANCH  14  16
ENDBRANCH  12  14
ENDBRANCH   7  12
ENDBRANCH   3   6
ENDBRANCH   1   2
BRANCH   1  24
ATOM     24  C   UNL A   1      33.993  30.883  27.671  1.00  0.00     0.042 C 
BRANCH  24  25
ATOM     25  C   UNL A   1      35.323  31.627  27.790  1.00  0.00     0.118 C 
BRANCH  25  26
ATOM     26  N   UNL A   1      35.681  31.892  29.186  1.00  0.00    -0.352 N 
ATOM     27  C   UNL A   1      36.579  31.222  30.005  1.00  0.00     0.251 C 
ATOM     28  H   UNL A   1      35.218  32.655  29.602  1.00  0.00     0.163 HD
ATOM     29  O   UNL A   1      36.893  31.646  31.093  1.00  0.00    -0.269 OA
BRANCH  27  30
ATOM     30  C   UNL A   1      37.172  29.981  29.470  1.00  0.00     0.039 A 
ATOM     31  C   UNL A   1      37.449  28.942  30.353  1.00  0.00     0.014 A 
ATOM     32  C   UNL A   1      37.711  30.005  28.188  1.00  0.00     0.014 A 
ATOM     33  C   UNL A   1      38.474  28.057  30.034  1.00  0.00     0.010 A 
ATOM     34  C   UNL A   1      38.772  29.169  27.894  1.00  0.00     0.010 A 
ATOM     35  C   UNL A   1      39.208  28.256  28.857  1.00  0.00    -0.014 A 
BRANCH  35  36
ATOM     36  C   UNL A   1      40.543  27.691  28.690  1.00  0.00     0.031 A 
ATOM     37  C   UNL A   1      40.734  26.278  28.318  1.00  0.00     0.074 A 
ATOM     38  C   UNL A   1      41.628  28.460  28.939  1.00  0.00     0.049 A 
ATOM     39  N   UNL A   1      41.669  25.532  28.806  1.00  0.00    -0.248 NA
ATOM     40  C   UNL A   1      39.863  25.586  27.377  1.00  0.00     0.031 C 
ATOM     41  C   UNL A   1      43.029  28.099  28.741  1.00  0.00     0.029 A 
ATOM     42  N   UNL A   1      41.675  29.669  29.654  1.00  0.00    -0.354 N 
ATOM     43  C   UNL A   1      41.686  24.364  28.081  1.00  0.00     0.074 A 
ATOM     44  C   UNL A   1      40.504  24.419  27.247  1.00  0.00     0.031 C 
ATOM     45  C   UNL A   1      43.783  28.849  29.560  1.00  0.00     0.029 A 
ATOM     46  C   UNL A   1      42.882  29.638  30.385  1.00  0.00     0.049 A 
ATOM     47  H   UNL A   1      41.004  30.390  29.646  1.00  0.00     0.167 HD
ATOM     48  C   UNL A   1      42.764  23.531  28.150  1.00  0.00     0.037 A 
ATOM     49  C   UNL A   1      42.912  29.710  31.744  1.00  0.00     0.037 A 
ATOM     50  C   UNL A   1      43.810  24.071  29.009  1.00  0.00     0.049 A 
ATOM     51  C   UNL A   1      43.597  28.541  32.409  1.00  0.00     0.074 A 
ATOM     52  C   UNL A   1      44.945  24.811  28.724  1.00  0.00     0.029 A 
ATOM     53  N   UNL A   1      43.622  24.149  30.384  1.00  0.00    -0.354 N 
ATOM     54  N   UNL A   1      43.823  27.402  31.815  1.00  0.00    -0.248 NA
ATOM     55  C   UNL A   1      44.025  28.539  33.805  1.00  0.00     0.031 C 
ATOM     56  C   UNL A   1      45.425  25.367  29.931  1.00  0.00     0.029 A 
ATOM     57  C   UNL A   1      44.588  24.957  30.952  1.00  0.00     0.049 A 
ATOM     58  H   UNL A   1      42.904  23.693  30.880  1.00  0.00     0.167 HD
ATOM     59  C   UNL A   1      44.352  26.517  32.720  1.00  0.00     0.074 A 
ATOM     60  C   UNL A   1      44.489  27.284  33.942  1.00  0.00     0.031 C 
ATOM     61  C   UNL A   1      44.606  25.219  32.382  1.00  0.00     0.037 A 
BRANCH  48  62
ATOM     62  C   UNL A   1      42.981  22.392  27.184  1.00  0.00     0.057 A 
ATOM     63  C   UNL A   1      42.242  21.196  27.280  1.00  0.00     0.134 A 
ATOM     64  C   UNL A   1      43.937  22.410  26.156  1.00  0.00     0.134 A 
ATOM     65  F   UNL A   1      41.222  21.060  28.136  1.00  0.00    -0.206 F 
ATOM     66  C   UNL A   1      42.522  20.066  26.503  1.00  0.00     0.040 A 
ATOM     67  C   UNL A   1      44.260  21.272  25.403  1.00  0.00     0.040 A 
ATOM     68  F   UNL A   1      44.577  23.540  25.825  1.00  0.00    -0.206 F 
ATOM     69  C   UNL A   1      43.563  20.087  25.587  1.00  0.00     0.006 A 
ENDBRANCH  48  62
BRANCH  49  70
ATOM     70  C   UNL A   1      41.782  30.464  32.342  1.00  0.00     0.057 A 
ATOM     71  C   UNL A   1      40.666  29.762  32.826  1.00  0.00     0.134 A 
ATOM     72  C   UNL A   1      41.904  31.803  32.719  1.00  0.00     0.134 A 
ATOM     73  F   UNL A   1      40.492  28.468  32.511  1.00  0.00    -0.206 F 
ATOM     74  C   UNL A   1      39.759  30.338  33.719  1.00  0.00     0.040 A 
ATOM     75  C   UNL A   1      40.999  32.393  33.607  1.00  0.00     0.040 A 
ATOM     76  F   UNL A   1      42.954  32.533  32.318  1.00  0.00    -0.206 F 
ATOM     77  C   UNL A   1      39.943  31.651  34.137  1.00  0.00     0.006 A 
ENDBRANCH  49  70
BRANCH  61  78
ATOM     78  C   UNL A   1      44.982  24.105  33.325  1.00  0.00     0.057 A 
ATOM     79  C   UNL A   1      44.149  23.023  33.642  1.00  0.00     0.134 A 
ATOM     80  C   UNL A   1      46.294  24.022  33.845  1.00  0.00     0.134 A 
ATOM     81  F   UNL A   1      42.915  22.914  33.131  1.00  0.00    -0.206 F 
ATOM     82  C   UNL A   1      44.570  21.963  34.459  1.00  0.00     0.040 A 
ATOM     83  C   UNL A   1      46.741  22.945  34.617  1.00  0.00     0.040 A 
ATOM     84  F   UNL A   1      47.208  24.973  33.605  1.00  0.00    -0.206 F 
ATOM     85  C   UNL A   1      45.872  21.916  34.940  1.00  0.00     0.006 A 
ENDBRANCH  61  78
ENDBRANCH  35  36
ENDBRANCH  27  30
ENDBRANCH  25  26
ENDBRANCH  24  25
ENDBRANCH   1  24
TORSDOF 14
ENDMDL
MODEL 2
REMARK VINA RESULT:     -12.4      1.349      2.106
REMARK SMILES Cc1cccc(O[C@H](C)C(=O)N2CCC[C@@H](C(=O)NCCCNC(=O)c3ccc(-c4c5nc(c(-c6c(F)cccc6F)c6ccc([nH]6)c(-c6c(F)cccc6F)c6nc(c(-c7c(F)cccc7F)c7ccc4[nH]7)C=C6)C=C5)cc3)C2)c1
REMARK SMILES IDX 20 1 19 2 17 3 18 4 16 6 12 7 13 8 80 9 14 10 15 11 10 12
REMARK SMILES IDX 11 13 8 14 9 15 7 16 6 17 1 18 2 19 3 20 81 21 4 22 5 23
REMARK SMILES IDX 21 24 22 25 23 26 24 27 25 29 26 30 27 31 79 32 28 33 78 34
REMARK SMILES IDX 29 35 30 36 31 37 72 38 32 39 77 40 71 41 73 42 33 43 76 44
REMARK SMILES IDX 70 45 69 46 34 48 60 49 43 50 59 51 44 52 47 53 58 54 74 55
REMARK SMILES IDX 45 56 46 57 57 59 75 60 48 61 35 62 36 63 41 64 37 65 38 66
REMARK SMILES IDX 40 67 42 68 39 69 61 70 62 71 67 72 63 73 64 74 66 75 68 76
REMARK SMILES IDX 65 77 49 78 50 79 55 80 51 81 52 82 54 83 56 84 53 85
REMARK H PARENT 19 5 23 28 73 47 47 58
REMARK Flexibility Score: inf
ROOT
ATOM      1  C   UNL A   1      34.260  29.312  27.364  1.00  0.00     0.117 C 
ENDROOT
BRANCH   1   2
ATOM      2  N   UNL A   1      33.017  28.584  27.542  1.00  0.00    -0.356 N 
ATOM      3  C   UNL A   1      32.496  27.516  26.880  1.00  0.00     0.224 C 
ATOM      4  O   UNL A   1      31.366  27.155  27.222  1.00  0.00    -0.275 OA
ATOM      5  H   UNL A   1      32.451  28.923  28.272  1.00  0.00     0.163 HD
BRANCH   3   6
ATOM      6  C   UNL A   1      33.241  26.744  25.797  1.00  0.00     0.098 C 
ATOM      7  N   UNL A   1      34.228  24.623  25.016  1.00  0.00    -0.339 N 
ATOM      8  C   UNL A   1      33.718  24.840  23.660  1.00  0.00     0.119 C 
ATOM      9  C   UNL A   1      33.430  25.246  26.074  1.00  0.00     0.133 C 
ATOM     10  C   UNL A   1      33.546  26.319  23.340  1.00  0.00     0.022 C 
ATOM     11  C   UNL A   1      32.685  27.012  24.393  1.00  0.00     0.017 C 
BRANCH   7  12
ATOM     12  C   UNL A   1      35.377  23.861  25.153  1.00  0.00     0.263 C 
ATOM     13  O   UNL A   1      36.230  24.180  25.996  1.00  0.00    -0.271 OA
BRANCH  12  14
ATOM     14  C   UNL A   1      35.697  22.660  24.226  1.00  0.00     0.259 C 
ATOM     15  C   UNL A   1      36.732  22.865  23.128  1.00  0.00     0.064 C 
BRANCH  14  16
ATOM     16  O   UNL A   1      35.588  21.385  24.857  1.00  0.00    -0.481 OA
BRANCH  16  17
ATOM     17  C   UNL A   1      34.609  20.479  24.628  1.00  0.00     0.120 A 
ATOM     18  C   UNL A   1      34.535  16.652  24.653  1.00  0.00     0.044 C 
ATOM     19  C   UNL A   1      34.096  18.086  24.597  1.00  0.00    -0.047 A 
ATOM     20  C   UNL A   1      32.744  18.395  24.450  1.00  0.00     0.003 A 
ATOM     21  C   UNL A   1      35.019  19.137  24.672  1.00  0.00     0.049 A 
ATOM     22  C   UNL A   1      32.331  19.725  24.429  1.00  0.00     0.004 A 
ATOM     23  C   UNL A   1      33.257  20.762  24.525  1.00  0.00     0.046 A 
ENDBRANCH  16  17
ENDBRANCH  14  16
ENDBRANCH  12  14
ENDBRANCH   7  12
ENDBRANCH   3   6
ENDBRANCH   1   2
BRANCH   1  24
ATOM     24  C   UNL A   1      34.123  30.777  27.770  1.00  0.00     0.042 C 
BRANCH  24  25
ATOM     25  C   UNL A   1      35.448  31.540  27.790  1.00  0.00     0.118 C 
BRANCH  25  26
ATOM     26  N   UNL A   1      35.898  31.823  29.156  1.00  0.00    -0.352 N 
ATOM     27  C   UNL A   1      36.830  31.147  29.930  1.00  0.00     0.251 C 
ATOM     28  H   UNL A   1      35.478  32.604  29.584  1.00  0.00     0.163 HD
ATOM     29  O   UNL A   1      37.221  31.584  30.988  1.00  0.00    -0.269 OA
BRANCH  27  30
ATOM     30  C   UNL A   1      37.361  29.883  29.385  1.00  0.00     0.039 A 
ATOM     31  C   UNL A   1      37.608  28.832  30.262  1.00  0.00     0.014 A 
ATOM     32  C   UNL A   1      37.881  29.887  28.094  1.00  0.00     0.014 A 
ATOM     33  C   UNL A   1      38.589  27.905  29.925  1.00  0.00     0.010 A 
ATOM     34  C   UNL A   1      38.901  29.008  27.783  1.00  0.00     0.010 A 
ATOM     35  C   UNL A   1      39.312  28.075  28.737  1.00  0.00    -0.014 A 
BRANCH  35  36
ATOM     36  C   UNL A   1      40.619  27.454  28.549  1.00  0.00     0.031 A 
ATOM     37  C   UNL A   1      40.746  26.022  28.226  1.00  0.00     0.074 A 
ATOM     38  C   UNL A   1      41.740  28.190  28.733  1.00  0.00     0.049 A 
ATOM     39  N   UNL A   1      41.669  25.260  28.711  1.00  0.00    -0.248 NA
ATOM     40  C   UNL A   1      39.819  25.329  27.341  1.00  0.00     0.031 C 
ATOM     41  C   UNL A   1      43.119  27.769  28.504  1.00  0.00     0.029 A 
ATOM     42  N   UNL A   1      41.855  29.422  29.399  1.00  0.00    -0.354 N 
ATOM     43  C   UNL A   1      41.618  24.066  28.031  1.00  0.00     0.074 A 
ATOM     44  C   UNL A   1      40.412  24.135  27.235  1.00  0.00     0.031 C 
ATOM     45  C   UNL A   1      43.927  28.520  29.269  1.00  0.00     0.029 A 
ATOM     46  C   UNL A   1      43.084  29.373  30.091  1.00  0.00     0.049 A 
ATOM     47  H   UNL A   1      41.211  30.167  29.386  1.00  0.00     0.167 HD
ATOM     48  C   UNL A   1      42.667  23.196  28.098  1.00  0.00     0.037 A 
ATOM     49  C   UNL A   1      43.163  29.494  31.445  1.00  0.00     0.037 A 
ATOM     50  C   UNL A   1      43.761  23.727  28.901  1.00  0.00     0.049 A 
ATOM     51  C   UNL A   1      43.827  28.326  32.131  1.00  0.00     0.074 A 
ATOM     52  C   UNL A   1      44.912  24.414  28.551  1.00  0.00     0.029 A 
ATOM     53  N   UNL A   1      43.622  23.864  30.277  1.00  0.00    -0.354 N 
ATOM     54  N   UNL A   1      43.990  27.158  31.575  1.00  0.00    -0.248 NA
ATOM     55  C   UNL A   1      44.301  28.359  33.512  1.00  0.00     0.031 C 
ATOM     56  C   UNL A   1      45.452  24.995  29.719  1.00  0.00     0.029 A 
ATOM     57  C   UNL A   1      44.636  24.655  30.782  1.00  0.00     0.049 A 
ATOM     58  H   UNL A   1      42.906  23.454  30.814  1.00  0.00     0.167 HD
ATOM     59  C   UNL A   1      44.517  26.287  32.495  1.00  0.00     0.074 A 
ATOM     60  C   UNL A   1      44.723  27.094  33.682  1.00  0.00     0.031 C 
ATOM     61  C   UNL A   1      44.712  24.970  32.199  1.00  0.00     0.037 A 
BRANCH  48  62
ATOM     62  C   UNL A   1      42.809  22.015  27.170  1.00  0.00     0.057 A 
ATOM     63  C   UNL A   1      42.017  20.860  27.323  1.00  0.00     0.134 A 
ATOM     64  C   UNL A   1      43.744  21.950  26.124  1.00  0.00     0.134 A 
ATOM     65  F   UNL A   1      41.010  20.803  28.202  1.00  0.00    -0.206 F 
ATOM     66  C   UNL A   1      42.227  19.691  26.582  1.00  0.00     0.040 A 
ATOM     67  C   UNL A   1      43.997  20.771  25.406  1.00  0.00     0.040 A 
ATOM     68  F   UNL A   1      44.430  23.035  25.739  1.00  0.00    -0.206 F 
ATOM     69  C   UNL A   1      43.247  19.629  25.647  1.00  0.00     0.006 A 
ENDBRANCH  48  62
BRANCH  49  70
ATOM     70  C   UNL A   1      42.082  30.312  32.050  1.00  0.00     0.057 A 
ATOM     71  C   UNL A   1      40.943  29.673  32.568  1.00  0.00     0.134 A 
ATOM     72  C   UNL A   1      42.275  31.650  32.399  1.00  0.00     0.134 A 
ATOM     73  F   UNL A   1      40.702  28.383  32.281  1.00  0.00    -0.206 F 
ATOM     74  C   UNL A   1      40.083  30.308  33.467  1.00  0.00     0.040 A 
ATOM     75  C   UNL A   1      41.417  32.299  33.293  1.00  0.00     0.040 A 
ATOM     76  F   UNL A   1      43.351  32.322  31.965  1.00  0.00    -0.206 F 
ATOM     77  C   UNL A   1      40.338  31.618  33.857  1.00  0.00     0.006 A 
ENDBRANCH  49  70
BRANCH  61  78
ATOM     78  C   UNL A   1      45.079  23.877  33.172  1.00  0.00     0.057 A 
ATOM     79  C   UNL A   1      46.328  23.762  33.798  1.00  0.00     0.134 A 
ATOM     80  C   UNL A   1      44.097  22.965  33.623  1.00  0.00     0.134 A 
ATOM     81  F   UNL A   1      47.320  24.628  33.548  1.00  0.00    -0.206 F 
ATOM     82  C   UNL A   1      46.599  22.779  34.761  1.00  0.00     0.040 A 
ATOM     83  C   UNL A   1      44.341  22.015  34.619  1.00  0.00     0.040 A 
ATOM     84  F   UNL A   1      42.849  22.972  33.132  1.00  0.00    -0.206 F 
ATOM     85  C   UNL A   1      45.602  21.909  35.183  1.00  0.00     0.006 A 
ENDBRANCH  61  78
ENDBRANCH  35  36
ENDBRANCH  27  30
ENDBRANCH  25  26
ENDBRANCH  24  25
ENDBRANCH   1  24
TORSDOF 14
ENDMDL
MODEL 3
REMARK VINA RESULT:     -12.3      1.741      4.359
REMARK SMILES Cc1cccc(O[C@H](C)C(=O)N2CCC[C@@H](C(=O)NCCCNC(=O)c3ccc(-c4c5nc(c(-c6c(F)cccc6F)c6ccc([nH]6)c(-c6c(F)cccc6F)c6nc(c(-c7c(F)cccc7F)c7ccc4[nH]7)C=C6)C=C5)cc3)C2)c1
REMARK SMILES IDX 20 1 19 2 17 3 18 4 16 6 12 7 13 8 80 9 14 10 15 11 10 12
REMARK SMILES IDX 11 13 8 14 9 15 7 16 6 17 1 18 2 19 3 20 81 21 4 22 5 23
REMARK SMILES IDX 21 24 22 25 23 26 24 27 25 29 26 30 27 31 79 32 28 33 78 34
REMARK SMILES IDX 29 35 30 36 31 37 72 38 32 39 77 40 71 41 73 42 33 43 76 44
REMARK SMILES IDX 70 45 69 46 34 48 60 49 43 50 59 51 44 52 47 53 58 54 74 55
REMARK SMILES IDX 45 56 46 57 57 59 75 60 48 61 35 62 36 63 41 64 37 65 38 66
REMARK SMILES IDX 40 67 42 68 39 69 61 70 62 71 67 72 63 73 64 74 66 75 68 76
REMARK SMILES IDX 65 77 49 78 50 79 55 80 51 81 52 82 54 83 56 84 53 85
REMARK H PARENT 19 5 23 28 73 47 47 58
REMARK Flexibility Score: inf
ROOT
ATOM      1  C   UNL A   1      32.641  30.856  26.921  1.00  0.00     0.117 C 
ENDROOT
BRANCH   1   2
ATOM      2  N   UNL A   1      32.320  29.700  27.737  1.00  0.00    -0.356 N 
ATOM      3  C   UNL A   1      32.045  28.411  27.405  1.00  0.00     0.224 C 
ATOM      4  O   UNL A   1      31.737  27.657  28.332  1.00  0.00    -0.275 OA
ATOM      5  H   UNL A   1      32.298  29.882  28.705  1.00  0.00     0.163 HD
BRANCH   3   6
ATOM      6  C   UNL A   1      32.140  27.864  25.985  1.00  0.00     0.098 C 
ATOM      7  N   UNL A   1      31.512  28.045  23.606  1.00  0.00    -0.339 N 
ATOM      8  C   UNL A   1      32.871  27.700  23.181  1.00  0.00     0.119 C 
ATOM      9  C   UNL A   1      31.430  28.703  24.912  1.00  0.00     0.133 C 
ATOM     10  C   UNL A   1      33.595  26.841  24.211  1.00  0.00     0.022 C 
ATOM     11  C   UNL A   1      33.577  27.502  25.587  1.00  0.00     0.017 C 
BRANCH   7  12
ATOM     12  C   UNL A   1      30.473  27.729  22.746  1.00  0.00     0.263 C 
ATOM     13  O   UNL A   1      30.713  27.495  21.552  1.00  0.00    -0.271 OA
BRANCH  12  14
ATOM     14  C   UNL A   1      28.988  27.744  23.192  1.00  0.00     0.259 C 
ATOM     15  C   UNL A   1      28.424  26.481  23.829  1.00  0.00     0.064 C 
BRANCH  14  16
ATOM     16  O   UNL A   1      28.519  29.019  23.628  1.00  0.00    -0.481 OA
BRANCH  16  17
ATOM     17  C   UNL A   1      28.350  30.105  22.838  1.00  0.00     0.120 A 
ATOM     18  C   UNL A   1      29.133  33.822  23.306  1.00  0.00     0.044 C 
ATOM     19  C   UNL A   1      28.733  32.517  22.682  1.00  0.00    -0.047 A 
ATOM     20  C   UNL A   1      28.352  32.474  21.342  1.00  0.00     0.003 A 
ATOM     21  C   UNL A   1      28.716  31.328  23.422  1.00  0.00     0.049 A 
ATOM     22  C   UNL A   1      28.011  31.259  20.752  1.00  0.00     0.004 A 
ATOM     23  C   UNL A   1      28.017  30.079  21.494  1.00  0.00     0.046 A 
ENDBRANCH  16  17
ENDBRANCH  14  16
ENDBRANCH  12  14
ENDBRANCH   7  12
ENDBRANCH   3   6
ENDBRANCH   1   2
BRANCH   1  24
ATOM     24  C   UNL A   1      33.655  31.770  27.603  1.00  0.00     0.042 C 
BRANCH  24  25
ATOM     25  C   UNL A   1      35.007  31.107  27.869  1.00  0.00     0.118 C 
BRANCH  25  26
ATOM     26  N   UNL A   1      35.672  31.669  29.048  1.00  0.00    -0.352 N 
ATOM     27  C   UNL A   1      36.786  31.204  29.732  1.00  0.00     0.251 C 
ATOM     28  H   UNL A   1      35.270  32.494  29.405  1.00  0.00     0.163 HD
ATOM     29  O   UNL A   1      37.323  31.855  30.598  1.00  0.00    -0.269 OA
BRANCH  27  30
ATOM     30  C   UNL A   1      37.318  29.889  29.326  1.00  0.00     0.039 A 
ATOM     31  C   UNL A   1      37.647  28.969  30.318  1.00  0.00     0.014 A 
ATOM     32  C   UNL A   1      37.758  29.730  28.016  1.00  0.00     0.014 A 
ATOM     33  C   UNL A   1      38.631  28.025  30.045  1.00  0.00     0.010 A 
ATOM     34  C   UNL A   1      38.781  28.837  27.759  1.00  0.00     0.010 A 
ATOM     35  C   UNL A   1      39.276  28.049  28.801  1.00  0.00    -0.014 A 
BRANCH  35  36
ATOM     36  C   UNL A   1      40.586  27.433  28.613  1.00  0.00     0.031 A 
ATOM     37  C   UNL A   1      40.719  26.005  28.276  1.00  0.00     0.074 A 
ATOM     38  C   UNL A   1      41.703  28.171  28.812  1.00  0.00     0.049 A 
ATOM     39  N   UNL A   1      41.642  25.241  28.758  1.00  0.00    -0.248 NA
ATOM     40  C   UNL A   1      39.799  25.320  27.378  1.00  0.00     0.031 C 
ATOM     41  C   UNL A   1      43.085  27.757  28.586  1.00  0.00     0.029 A 
ATOM     42  N   UNL A   1      41.811  29.396  29.492  1.00  0.00    -0.354 N 
ATOM     43  C   UNL A   1      41.598  24.055  28.065  1.00  0.00     0.074 A 
ATOM     44  C   UNL A   1      40.396  24.128  27.262  1.00  0.00     0.031 C 
ATOM     45  C   UNL A   1      43.886  28.502  29.364  1.00  0.00     0.029 A 
ATOM     46  C   UNL A   1      43.036  29.343  30.190  1.00  0.00     0.049 A 
ATOM     47  H   UNL A   1      41.164  30.139  29.483  1.00  0.00     0.167 HD
ATOM     48  C   UNL A   1      42.650  23.187  28.128  1.00  0.00     0.037 A 
ATOM     49  C   UNL A   1      43.106  29.450  31.546  1.00  0.00     0.037 A 
ATOM     50  C   UNL A   1      43.737  23.713  28.944  1.00  0.00     0.049 A 
ATOM     51  C   UNL A   1      43.770  28.276  32.223  1.00  0.00     0.074 A 
ATOM     52  C   UNL A   1      44.888  24.406  28.608  1.00  0.00     0.029 A 
ATOM     53  N   UNL A   1      43.590  23.834  30.320  1.00  0.00    -0.354 N 
ATOM     54  N   UNL A   1      43.941  27.115  31.656  1.00  0.00    -0.248 NA
ATOM     55  C   UNL A   1      44.237  28.296  33.607  1.00  0.00     0.031 C 
ATOM     56  C   UNL A   1      45.420  24.977  29.785  1.00  0.00     0.029 A 
ATOM     57  C   UNL A   1      44.598  24.622  30.839  1.00  0.00     0.049 A 
ATOM     58  H   UNL A   1      42.872  23.416  30.848  1.00  0.00     0.167 HD
ATOM     59  C   UNL A   1      44.465  26.236  32.570  1.00  0.00     0.074 A 
ATOM     60  C   UNL A   1      44.661  27.030  33.766  1.00  0.00     0.031 C 
ATOM     61  C   UNL A   1      44.665  24.922  32.260  1.00  0.00     0.037 A 
BRANCH  48  62
ATOM     62  C   UNL A   1      42.801  22.016  27.188  1.00  0.00     0.057 A 
ATOM     63  C   UNL A   1      42.036  20.843  27.345  1.00  0.00     0.134 A 
ATOM     64  C   UNL A   1      43.718  21.979  26.126  1.00  0.00     0.134 A 
ATOM     65  F   UNL A   1      41.045  20.759  28.241  1.00  0.00    -0.206 F 
ATOM     66  C   UNL A   1      42.257  19.685  26.592  1.00  0.00     0.040 A 
ATOM     67  C   UNL A   1      43.984  20.812  25.394  1.00  0.00     0.040 A 
ATOM     68  F   UNL A   1      44.375  23.082  25.739  1.00  0.00    -0.206 F 
ATOM     69  C   UNL A   1      43.263  19.652  25.639  1.00  0.00     0.006 A 
ENDBRANCH  48  62
BRANCH  49  70
ATOM     70  C   UNL A   1      42.020  30.258  32.153  1.00  0.00     0.057 A 
ATOM     71  C   UNL A   1      42.060  31.658  32.043  1.00  0.00     0.134 A 
ATOM     72  C   UNL A   1      40.813  29.687  32.563  1.00  0.00     0.134 A 
ATOM     73  F   UNL A   1      43.186  32.273  31.644  1.00  0.00    -0.206 F 
ATOM     74  C   UNL A   1      40.926  32.449  32.244  1.00  0.00     0.040 A 
ATOM     75  C   UNL A   1      39.673  30.469  32.773  1.00  0.00     0.040 A 
ATOM     76  F   UNL A   1      40.688  28.356  32.668  1.00  0.00    -0.206 F 
ATOM     77  C   UNL A   1      39.718  31.850  32.580  1.00  0.00     0.006 A 
ENDBRANCH  49  70
BRANCH  61  78
ATOM     78  C   UNL A   1      45.030  23.820  33.224  1.00  0.00     0.057 A 
ATOM     79  C   UNL A   1      46.302  23.652  33.788  1.00  0.00     0.134 A 
ATOM     80  C   UNL A   1      44.031  22.956  33.730  1.00  0.00     0.134 A 
ATOM     81  F   UNL A   1      47.318  24.471  33.483  1.00  0.00    -0.206 F 
ATOM     82  C   UNL A   1      46.575  22.665  34.745  1.00  0.00     0.040 A 
ATOM     83  C   UNL A   1      44.281  22.003  34.721  1.00  0.00     0.040 A 
ATOM     84  F   UNL A   1      42.763  23.018  33.300  1.00  0.00    -0.206 F 
ATOM     85  C   UNL A   1      45.562  21.843  35.223  1.00  0.00     0.006 A 
ENDBRANCH  61  78
ENDBRANCH  35  36
ENDBRANCH  27  30
ENDBRANCH  25  26
ENDBRANCH  24  25
ENDBRANCH   1  24
TORSDOF 14
ENDMDL
