MODEL 1
REMARK VINA RESULT:     -14.9      0.000      0.000
REMARK SMILES Cc1ccc(C2=NN(C(=O)CCC(=O)NCCCNC(=O)c3ccc(-c4c5nc(c(-c6c(F)cccc6F)c6ccc([nH]6)c(-c6c(F)cccc6F)c6nc(c(-c7c(F)cccc7F)c7ccc4[nH]7)C=C6)C=C5)cc3)[C@H](C[C@@H]3C=c4cccc(C)c4=NC3=O)C2)cc1
REMARK SMILES IDX 13 1 14 2 15 3 12 5 11 6 9 7 10 8 8 9 6 10 7 11 90 12 76 13
REMARK SMILES IDX 5 14 1 15 2 16 3 17 92 18 4 19 91 20 77 21 78 22 79 23 88 24
REMARK SMILES IDX 80 25 87 26 89 27 81 28 86 29 82 30 84 31 83 32 85 33 16 34
REMARK SMILES IDX 17 35 18 36 19 37 20 38 21 40 22 41 23 42 75 43 24 44 74 45
REMARK SMILES IDX 25 46 26 47 27 48 68 49 28 50 73 51 67 52 69 53 29 54 72 55
REMARK SMILES IDX 66 56 65 57 30 59 56 60 39 61 55 62 40 63 43 64 54 65 70 66
REMARK SMILES IDX 41 67 42 68 53 70 71 71 44 72 31 73 32 74 37 75 33 76 34 77
REMARK SMILES IDX 36 78 38 79 35 80 57 81 58 82 63 83 59 84 60 85 62 86 64 87
REMARK SMILES IDX 61 88 45 89 46 90 51 91 47 92 48 93 50 94 52 95 49 96
REMARK H PARENT 15 4 19 39 69 58 43 69
REMARK Flexibility Score: inf
ROOT
ATOM      1  C   UNL A   1      30.968  25.298  26.649  1.00  0.00     0.220 C 
ATOM      2  O   UNL A   1      29.907  24.720  26.381  1.00  0.00    -0.275 OA
ATOM      3  N   UNL A   1      30.850  26.638  26.899  1.00  0.00    -0.356 N 
ATOM      4  H   UNL A   1      29.905  26.913  26.919  1.00  0.00     0.163 HD
ENDROOT
BRANCH   1   5
ATOM      5  C   UNL A   1      32.253  24.476  26.676  1.00  0.00     0.110 C 
BRANCH   5   6
ATOM      6  C   UNL A   1      32.205  23.047  27.158  1.00  0.00     0.112 C 
BRANCH   6   7
ATOM      7  C   UNL A   1      32.481  22.130  26.007  1.00  0.00     0.243 C 
ATOM      8  O   UNL A   1      31.703  21.249  25.662  1.00  0.00    -0.273 OA
BRANCH   7   9
ATOM      9  N   UNL A   1      33.701  22.377  25.416  1.00  0.00    -0.230 N 
ATOM     10  C   UNL A   1      36.592  22.320  25.689  1.00  0.00     0.070 C 
ATOM     11  N   UNL A   1      35.233  21.742  26.363  1.00  0.00    -0.174 NA
ATOM     12  C   UNL A   1      36.259  23.693  24.300  1.00  0.00     0.086 C 
ATOM     13  C   UNL A   1      34.320  23.586  24.000  1.00  0.00     0.118 C 
BRANCH  10  14
ATOM     14  C   UNL A   1      37.839  21.557  25.530  1.00  0.00    -0.002 A 
ATOM     15  C   UNL A   1      42.281  19.599  27.072  1.00  0.00     0.044 C 
ATOM     16  C   UNL A   1      40.879  19.993  26.657  1.00  0.00    -0.051 A 
ATOM     17  C   UNL A   1      39.776  18.998  25.653  1.00  0.00     0.004 A 
ATOM     18  C   UNL A   1      40.487  21.698  27.041  1.00  0.00     0.004 A 
ATOM     19  C   UNL A   1      38.213  19.733  25.054  1.00  0.00     0.010 A 
ATOM     20  C   UNL A   1      39.010  22.467  26.496  1.00  0.00     0.010 A 
ENDBRANCH  10  14
BRANCH  13  21
ATOM     21  C   UNL A   1      34.065  23.363  22.461  1.00  0.00     0.045 C 
BRANCH  21  22
ATOM     22  C   UNL A   1      32.969  24.268  21.911  1.00  0.00     0.106 C 
ATOM     23  C   UNL A   1      33.463  25.656  22.018  1.00  0.00    -0.003 C 
ATOM     24  C   UNL A   1      31.612  24.079  22.600  1.00  0.00     0.253 C 
ATOM     25  C   UNL A   1      32.770  26.689  22.451  1.00  0.00    -0.003 A 
ATOM     26  N   UNL A   1      30.890  25.192  22.990  1.00  0.00    -0.212 NA
ATOM     27  O   UNL A   1      31.170  22.941  22.747  1.00  0.00    -0.272 OA
ATOM     28  C   UNL A   1      33.318  28.014  22.399  1.00  0.00     0.010 A 
ATOM     29  C   UNL A   1      31.412  26.377  22.933  1.00  0.00     0.077 A 
ATOM     30  C   UNL A   1      32.559  29.045  22.772  1.00  0.00     0.001 A 
ATOM     31  C   UNL A   1      30.674  27.592  23.408  1.00  0.00    -0.025 A 
ATOM     32  C   UNL A   1      31.236  28.814  23.303  1.00  0.00     0.005 A 
ATOM     33  C   UNL A   1      29.356  27.338  24.056  1.00  0.00     0.047 C 
ENDBRANCH  21  22
ENDBRANCH  13  21
ENDBRANCH   7   9
ENDBRANCH   6   7
ENDBRANCH   5   6
ENDBRANCH   1   5
BRANCH   3  34
ATOM     34  C   UNL A   1      31.811  27.872  27.166  1.00  0.00     0.117 C 
BRANCH  34  35
ATOM     35  C   UNL A   1      33.962  28.282  26.730  1.00  0.00     0.042 C 
BRANCH  35  36
ATOM     36  C   UNL A   1      34.999  29.507  27.754  1.00  0.00     0.118 C 
BRANCH  36  37
ATOM     37  N   UNL A   1      34.371  30.964  28.435  1.00  0.00    -0.352 N 
ATOM     38  C   UNL A   1      34.945  32.218  29.480  1.00  0.00     0.251 C 
ATOM     39  H   UNL A   1      33.441  31.124  28.155  1.00  0.00     0.163 HD
ATOM     40  O   UNL A   1      33.911  32.948  29.431  1.00  0.00    -0.269 OA
BRANCH  38  41
ATOM     41  C   UNL A   1      36.913  32.279  30.340  1.00  0.00     0.039 A 
ATOM     42  C   UNL A   1      38.097  33.128  30.210  1.00  0.00     0.014 A 
ATOM     43  C   UNL A   1      37.462  31.303  31.349  1.00  0.00     0.014 A 
ATOM     44  C   UNL A   1      39.409  32.651  30.211  1.00  0.00     0.010 A 
ATOM     45  C   UNL A   1      38.587  30.615  31.094  1.00  0.00     0.010 A 
ATOM     46  C   UNL A   1      39.570  31.314  30.461  1.00  0.00    -0.014 A 
BRANCH  46  47
ATOM     47  C   UNL A   1      40.795  30.611  30.675  1.00  0.00     0.031 A 
ATOM     48  C   UNL A   1      40.795  29.363  29.868  1.00  0.00     0.074 A 
ATOM     49  C   UNL A   1      41.714  31.407  31.269  1.00  0.00     0.049 A 
ATOM     50  N   UNL A   1      41.085  28.189  30.302  1.00  0.00    -0.248 NA
ATOM     51  C   UNL A   1      40.172  29.276  28.513  1.00  0.00     0.031 C 
ATOM     52  C   UNL A   1      43.159  31.349  31.340  1.00  0.00     0.029 A 
ATOM     53  N   UNL A   1      41.400  32.492  32.114  1.00  0.00    -0.354 N 
ATOM     54  C   UNL A   1      41.280  27.453  29.146  1.00  0.00     0.074 A 
ATOM     55  C   UNL A   1      40.384  28.005  28.177  1.00  0.00     0.031 C 
ATOM     56  C   UNL A   1      43.564  32.038  32.429  1.00  0.00     0.029 A 
ATOM     57  C   UNL A   1      42.385  32.549  33.119  1.00  0.00     0.049 A 
ATOM     58  H   UNL A   1      40.631  33.100  32.018  1.00  0.00     0.167 HD
ATOM     59  C   UNL A   1      42.502  26.880  28.938  1.00  0.00     0.037 A 
ATOM     60  C   UNL A   1      41.994  32.199  34.383  1.00  0.00     0.037 A 
ATOM     61  C   UNL A   1      43.409  27.296  30.013  1.00  0.00     0.049 A 
ATOM     62  C   UNL A   1      42.235  30.724  34.647  1.00  0.00     0.074 A 
ATOM     63  C   UNL A   1      44.423  28.233  30.124  1.00  0.00     0.029 A 
ATOM     64  N   UNL A   1      43.022  27.030  31.308  1.00  0.00    -0.354 N 
ATOM     65  N   UNL A   1      42.737  29.894  33.774  1.00  0.00    -0.248 NA
ATOM     66  C   UNL A   1      41.858  30.066  35.894  1.00  0.00     0.031 C 
ATOM     67  C   UNL A   1      44.628  28.497  31.521  1.00  0.00     0.029 A 
ATOM     68  C   UNL A   1      43.721  27.749  32.247  1.00  0.00     0.049 A 
ATOM     69  H   UNL A   1      42.311  26.388  31.538  1.00  0.00     0.167 HD
ATOM     70  C   UNL A   1      42.769  28.635  34.295  1.00  0.00     0.074 A 
ATOM     71  C   UNL A   1      42.140  28.787  35.601  1.00  0.00     0.031 C 
ATOM     72  C   UNL A   1      43.315  27.568  33.634  1.00  0.00     0.037 A 
BRANCH  59  73
ATOM     73  C   UNL A   1      42.949  26.203  27.666  1.00  0.00     0.057 A 
ATOM     74  C   UNL A   1      42.740  24.822  27.499  1.00  0.00     0.134 A 
ATOM     75  C   UNL A   1      43.495  26.849  26.537  1.00  0.00     0.134 A 
ATOM     76  F   UNL A   1      42.166  24.078  28.454  1.00  0.00    -0.206 F 
ATOM     77  C   UNL A   1      43.083  24.132  26.331  1.00  0.00     0.040 A 
ATOM     78  C   UNL A   1      43.875  26.163  25.373  1.00  0.00     0.040 A 
ATOM     79  F   UNL A   1      43.635  28.180  26.478  1.00  0.00    -0.206 F 
ATOM     80  C   UNL A   1      43.664  24.798  25.266  1.00  0.00     0.006 A 
ENDBRANCH  59  73
BRANCH  60  81
ATOM     81  C   UNL A   1      40.738  32.920  34.754  1.00  0.00     0.057 A 
ATOM     82  C   UNL A   1      40.820  34.307  34.994  1.00  0.00     0.134 A 
ATOM     83  C   UNL A   1      39.489  32.401  34.403  1.00  0.00     0.134 A 
ATOM     84  F   UNL A   1      41.991  34.866  35.340  1.00  0.00    -0.206 F 
ATOM     85  C   UNL A   1      39.748  35.161  34.734  1.00  0.00     0.040 A 
ATOM     86  C   UNL A   1      38.411  33.245  34.147  1.00  0.00     0.040 A 
ATOM     87  F   UNL A   1      39.331  31.093  34.153  1.00  0.00    -0.206 F 
ATOM     88  C   UNL A   1      38.546  34.628  34.282  1.00  0.00     0.006 A 
ENDBRANCH  60  81
BRANCH  72  89
ATOM     89  C   UNL A   1      43.434  26.203  34.264  1.00  0.00     0.057 A 
ATOM     90  C   UNL A   1      44.640  25.496  34.264  1.00  0.00     0.134 A 
ATOM     91  C   UNL A   1      42.341  25.504  34.826  1.00  0.00     0.134 A 
ATOM     92  F   UNL A   1      45.700  25.926  33.563  1.00  0.00    -0.206 F 
ATOM     93  C   UNL A   1      44.800  24.295  34.955  1.00  0.00     0.040 A 
ATOM     94  C   UNL A   1      42.472  24.274  35.463  1.00  0.00     0.040 A 
ATOM     95  F   UNL A   1      41.082  25.953  34.801  1.00  0.00    -0.206 F 
ATOM     96  C   UNL A   1      43.717  23.688  35.574  1.00  0.00     0.006 A 
ENDBRANCH  72  89
ENDBRANCH  46  47
ENDBRANCH  38  41
ENDBRANCH  36  37
ENDBRANCH  35  36
ENDBRANCH  34  35
ENDBRANCH   3  34
TORSDOF 16
ENDMDL
MODEL 2
REMARK VINA RESULT:     -13.8      6.050     11.023
REMARK SMILES Cc1ccc(C2=NN(C(=O)CCC(=O)NCCCNC(=O)c3ccc(-c4c5nc(c(-c6c(F)cccc6F)c6ccc([nH]6)c(-c6c(F)cccc6F)c6nc(c(-c7c(F)cccc7F)c7ccc4[nH]7)C=C6)C=C5)cc3)[C@H](C[C@@H]3C=c4cccc(C)c4=NC3=O)C2)cc1
REMARK SMILES IDX 13 1 14 2 15 3 12 5 11 6 9 7 10 8 8 9 6 10 7 11 90 12 76 13
REMARK SMILES IDX 5 14 1 15 2 16 3 17 92 18 4 19 91 20 77 21 78 22 79 23 88 24
REMARK SMILES IDX 80 25 87 26 89 27 81 28 86 29 82 30 84 31 83 32 85 33 16 34
REMARK SMILES IDX 17 35 18 36 19 37 20 38 21 40 22 41 23 42 75 43 24 44 74 45
REMARK SMILES IDX 25 46 26 47 27 48 68 49 28 50 73 51 67 52 69 53 29 54 72 55
REMARK SMILES IDX 66 56 65 57 30 59 56 60 39 61 55 62 40 63 43 64 54 65 70 66
REMARK SMILES IDX 41 67 42 68 53 70 71 71 44 72 31 73 32 74 37 75 33 76 34 77
REMARK SMILES IDX 36 78 38 79 35 80 57 81 58 82 63 83 59 84 60 85 62 86 64 87
REMARK SMILES IDX 61 88 45 89 46 90 51 91 47 92 48 93 50 94 52 95 49 96
REMARK H PARENT 15 4 19 39 69 58 43 69
REMARK Flexibility Score: inf
ROOT
ATOM      1  C   UNL A   1      43.067  27.530  25.274  1.00  0.00     0.220 C 
ATOM      2  O   UNL A   1      42.472  28.287  24.496  1.00  0.00    -0.275 OA
ATOM      3  N   UNL A   1      43.023  26.204  24.938  1.00  0.00    -0.356 N 
ATOM      4  H   UNL A   1      42.595  26.075  24.061  1.00  0.00     0.163 HD
ENDROOT
BRANCH   1   5
ATOM      5  C   UNL A   1      43.769  28.140  26.482  1.00  0.00     0.110 C 
BRANCH   5   6
ATOM      6  C   UNL A   1      45.277  28.204  26.506  1.00  0.00     0.112 C 
BRANCH   6   7
ATOM      7  C   UNL A   1      45.725  29.484  25.872  1.00  0.00     0.243 C 
ATOM      8  O   UNL A   1      46.362  29.518  24.826  1.00  0.00    -0.273 OA
BRANCH   7   9
ATOM      9  N   UNL A   1      45.364  30.592  26.608  1.00  0.00    -0.230 N 
ATOM     10  C   UNL A   1      45.795  33.418  27.119  1.00  0.00     0.070 C 
ATOM     11  N   UNL A   1      46.093  32.258  26.024  1.00  0.00    -0.174 NA
ATOM     12  C   UNL A   1      45.032  32.726  28.811  1.00  0.00     0.086 C 
ATOM     13  C   UNL A   1      44.578  30.862  28.386  1.00  0.00     0.118 C 
BRANCH  10  14
ATOM     14  C   UNL A   1      45.438  34.807  26.793  1.00  0.00    -0.002 A 
ATOM     15  C   UNL A   1      42.432  38.919  26.784  1.00  0.00     0.044 C 
ATOM     16  C   UNL A   1      43.421  37.785  26.950  1.00  0.00    -0.051 A 
ATOM     17  C   UNL A   1      45.180  37.978  27.241  1.00  0.00     0.004 A 
ATOM     18  C   UNL A   1      42.723  36.182  26.565  1.00  0.00     0.004 A 
ATOM     19  C   UNL A   1      46.258  36.502  27.179  1.00  0.00     0.010 A 
ATOM     20  C   UNL A   1      43.696  34.728  26.486  1.00  0.00     0.010 A 
ENDBRANCH  10  14
BRANCH  13  21
ATOM     21  C   UNL A   1      43.061  30.625  28.736  1.00  0.00     0.045 C 
BRANCH  21  22
ATOM     22  C   UNL A   1      42.870  29.621  29.867  1.00  0.00     0.106 C 
ATOM     23  C   UNL A   1      41.667  28.829  29.542  1.00  0.00    -0.003 C 
ATOM     24  C   UNL A   1      42.785  30.267  31.255  1.00  0.00     0.253 C 
ATOM     25  C   UNL A   1      40.705  28.509  30.383  1.00  0.00    -0.003 A 
ATOM     26  N   UNL A   1      41.794  29.862  32.130  1.00  0.00    -0.212 NA
ATOM     27  O   UNL A   1      43.631  31.098  31.581  1.00  0.00    -0.272 OA
ATOM     28  C   UNL A   1      39.641  27.634  29.983  1.00  0.00     0.010 A 
ATOM     29  C   UNL A   1      40.843  29.072  31.738  1.00  0.00     0.077 A 
ATOM     30  C   UNL A   1      38.729  27.268  30.883  1.00  0.00     0.001 A 
ATOM     31  C   UNL A   1      39.722  28.669  32.649  1.00  0.00    -0.025 A 
ATOM     32  C   UNL A   1      38.768  27.819  32.218  1.00  0.00     0.005 A 
ATOM     33  C   UNL A   1      39.706  29.325  33.987  1.00  0.00     0.047 C 
ENDBRANCH  21  22
ENDBRANCH  13  21
ENDBRANCH   7   9
ENDBRANCH   6   7
ENDBRANCH   5   6
ENDBRANCH   1   5
BRANCH   3  34
ATOM     34  C   UNL A   1      43.468  24.817  25.568  1.00  0.00     0.117 C 
BRANCH  34  35
ATOM     35  C   UNL A   1      44.299  22.926  24.718  1.00  0.00     0.042 C 
BRANCH  35  36
ATOM     36  C   UNL A   1      43.691  21.206  25.262  1.00  0.00     0.118 C 
BRANCH  36  37
ATOM     37  N   UNL A   1      42.287  20.944  26.233  1.00  0.00    -0.352 N 
ATOM     38  C   UNL A   1      41.603  21.622  27.670  1.00  0.00     0.251 C 
ATOM     39  H   UNL A   1      41.729  20.218  25.874  1.00  0.00     0.163 HD
ATOM     40  O   UNL A   1      40.542  20.931  27.680  1.00  0.00    -0.269 OA
BRANCH  38  41
ATOM     41  C   UNL A   1      42.484  23.225  28.798  1.00  0.00     0.039 A 
ATOM     42  C   UNL A   1      42.284  24.669  28.914  1.00  0.00     0.014 A 
ATOM     43  C   UNL A   1      43.621  23.089  29.777  1.00  0.00     0.014 A 
ATOM     44  C   UNL A   1      43.318  25.596  29.054  1.00  0.00     0.010 A 
ATOM     45  C   UNL A   1      44.750  23.798  29.618  1.00  0.00     0.010 A 
ATOM     46  C   UNL A   1      44.580  25.083  29.197  1.00  0.00    -0.014 A 
BRANCH  46  47
ATOM     47  C   UNL A   1      45.777  25.795  29.512  1.00  0.00     0.031 A 
ATOM     48  C   UNL A   1      46.843  25.422  28.546  1.00  0.00     0.074 A 
ATOM     49  C   UNL A   1      45.525  26.816  30.363  1.00  0.00     0.049 A 
ATOM     50  N   UNL A   1      48.039  25.064  28.848  1.00  0.00    -0.248 NA
ATOM     51  C   UNL A   1      46.563  25.136  27.106  1.00  0.00     0.031 C 
ATOM     52  C   UNL A   1      46.245  28.035  30.670  1.00  0.00     0.029 A 
ATOM     53  N   UNL A   1      44.461  26.836  31.290  1.00  0.00    -0.354 N 
ATOM     54  C   UNL A   1      48.722  25.162  27.648  1.00  0.00     0.074 A 
ATOM     55  C   UNL A   1      47.770  24.835  26.631  1.00  0.00     0.031 C 
ATOM     56  C   UNL A   1      45.876  28.454  31.900  1.00  0.00     0.029 A 
ATOM     57  C   UNL A   1      44.915  27.501  32.446  1.00  0.00     0.049 A 
ATOM     58  H   UNL A   1      43.564  26.454  31.153  1.00  0.00     0.167 HD
ATOM     59  C   UNL A   1      49.781  26.021  27.571  1.00  0.00     0.037 A 
ATOM     60  C   UNL A   1      45.111  26.731  33.561  1.00  0.00     0.037 A 
ATOM     61  C   UNL A   1      49.884  26.760  28.834  1.00  0.00     0.049 A 
ATOM     62  C   UNL A   1      46.543  26.235  33.646  1.00  0.00     0.074 A 
ATOM     63  C   UNL A   1      49.526  28.031  29.250  1.00  0.00     0.029 A 
ATOM     64  N   UNL A   1      50.008  26.024  29.991  1.00  0.00    -0.354 N 
ATOM     65  N   UNL A   1      47.465  26.498  32.760  1.00  0.00    -0.248 NA
ATOM     66  C   UNL A   1      47.016  25.346  34.702  1.00  0.00     0.031 C 
ATOM     67  C   UNL A   1      49.458  28.022  30.685  1.00  0.00     0.029 A 
ATOM     68  C   UNL A   1      49.740  26.745  31.130  1.00  0.00     0.049 A 
ATOM     69  H   UNL A   1      50.263  25.073  30.001  1.00  0.00     0.167 HD
ATOM     70  C   UNL A   1      48.622  25.860  33.091  1.00  0.00     0.074 A 
ATOM     71  C   UNL A   1      48.265  25.094  34.280  1.00  0.00     0.031 C 
ATOM     72  C   UNL A   1      49.785  26.010  32.386  1.00  0.00     0.037 A 
BRANCH  59  73
ATOM     73  C   UNL A   1      50.522  26.389  26.309  1.00  0.00     0.057 A 
ATOM     74  C   UNL A   1      50.068  27.461  25.520  1.00  0.00     0.134 A 
ATOM     75  C   UNL A   1      51.727  25.807  25.863  1.00  0.00     0.134 A 
ATOM     76  F   UNL A   1      48.976  28.162  25.848  1.00  0.00    -0.206 F 
ATOM     77  C   UNL A   1      50.728  27.892  24.363  1.00  0.00     0.040 A 
ATOM     78  C   UNL A   1      52.380  26.208  24.686  1.00  0.00     0.040 A 
ATOM     79  F   UNL A   1      52.366  24.865  26.569  1.00  0.00    -0.206 F 
ATOM     80  C   UNL A   1      51.882  27.259  23.934  1.00  0.00     0.006 A 
ENDBRANCH  59  73
BRANCH  60  81
ATOM     81  C   UNL A   1      43.913  25.873  33.813  1.00  0.00     0.057 A 
ATOM     82  C   UNL A   1      44.032  24.488  33.581  1.00  0.00     0.134 A 
ATOM     83  C   UNL A   1      42.907  26.295  34.687  1.00  0.00     0.134 A 
ATOM     84  F   UNL A   1      44.976  24.019  32.749  1.00  0.00    -0.206 F 
ATOM     85  C   UNL A   1      43.296  23.556  34.313  1.00  0.00     0.040 A 
ATOM     86  C   UNL A   1      42.163  25.371  35.418  1.00  0.00     0.040 A 
ATOM     87  F   UNL A   1      42.733  27.595  34.963  1.00  0.00    -0.206 F 
ATOM     88  C   UNL A   1      42.376  24.001  35.256  1.00  0.00     0.006 A 
ENDBRANCH  60  81
BRANCH  72  89
ATOM     89  C   UNL A   1      51.082  25.377  32.823  1.00  0.00     0.057 A 
ATOM     90  C   UNL A   1      51.264  23.991  32.814  1.00  0.00     0.134 A 
ATOM     91  C   UNL A   1      52.174  26.111  33.342  1.00  0.00     0.134 A 
ATOM     92  F   UNL A   1      50.241  23.156  32.574  1.00  0.00    -0.206 F 
ATOM     93  C   UNL A   1      52.496  23.398  33.090  1.00  0.00     0.040 A 
ATOM     94  C   UNL A   1      53.390  25.526  33.682  1.00  0.00     0.040 A 
ATOM     95  F   UNL A   1      52.145  27.430  33.557  1.00  0.00    -0.206 F 
ATOM     96  C   UNL A   1      53.570  24.169  33.508  1.00  0.00     0.006 A 
ENDBRANCH  72  89
ENDBRANCH  46  47
ENDBRANCH  38  41
ENDBRANCH  36  37
ENDBRANCH  35  36
ENDBRANCH  34  35
ENDBRANCH   3  34
TORSDOF 16
ENDMDL
MODEL 3
REMARK VINA RESULT:     -13.8      5.557     11.909
REMARK SMILES Cc1ccc(C2=NN(C(=O)CCC(=O)NCCCNC(=O)c3ccc(-c4c5nc(c(-c6c(F)cccc6F)c6ccc([nH]6)c(-c6c(F)cccc6F)c6nc(c(-c7c(F)cccc7F)c7ccc4[nH]7)C=C6)C=C5)cc3)[C@H](C[C@@H]3C=c4cccc(C)c4=NC3=O)C2)cc1
REMARK SMILES IDX 13 1 14 2 15 3 12 5 11 6 9 7 10 8 8 9 6 10 7 11 90 12 76 13
REMARK SMILES IDX 5 14 1 15 2 16 3 17 92 18 4 19 91 20 77 21 78 22 79 23 88 24
REMARK SMILES IDX 80 25 87 26 89 27 81 28 86 29 82 30 84 31 83 32 85 33 16 34
REMARK SMILES IDX 17 35 18 36 19 37 20 38 21 40 22 41 23 42 75 43 24 44 74 45
REMARK SMILES IDX 25 46 26 47 27 48 68 49 28 50 73 51 67 52 69 53 29 54 72 55
REMARK SMILES IDX 66 56 65 57 30 59 56 60 39 61 55 62 40 63 43 64 54 65 70 66
REMARK SMILES IDX 41 67 42 68 53 70 71 71 44 72 31 73 32 74 37 75 33 76 34 77
REMARK SMILES IDX 36 78 38 79 35 80 57 81 58 82 63 83 59 84 60 85 62 86 64 87
REMARK SMILES IDX 61 88 45 89 46 90 51 91 47 92 48 93 50 94 52 95 49 96
REMARK H PARENT 15 4 19 39 69 58 43 69
REMARK Flexibility Score: inf
ROOT
ATOM      1  C   UNL A   1      44.199  34.112  32.590  1.00  0.00     0.220 C 
ATOM      2  O   UNL A   1      43.022  34.466  32.437  1.00  0.00    -0.275 OA
ATOM      3  N   UNL A   1      45.101  34.736  31.773  1.00  0.00    -0.356 N 
ATOM      4  H   UNL A   1      44.671  35.451  31.250  1.00  0.00     0.163 HD
ENDROOT
BRANCH   1   5
ATOM      5  C   UNL A   1      44.505  33.054  33.645  1.00  0.00     0.110 C 
BRANCH   5   6
ATOM      6  C   UNL A   1      43.775  31.734  33.600  1.00  0.00     0.112 C 
BRANCH   6   7
ATOM      7  C   UNL A   1      42.648  31.762  34.587  1.00  0.00     0.243 C 
ATOM      8  O   UNL A   1      42.785  32.165  35.736  1.00  0.00    -0.273 OA
BRANCH   7   9
ATOM      9  N   UNL A   1      41.475  31.265  34.063  1.00  0.00    -0.230 N 
ATOM     10  C   UNL A   1      38.923  31.865  32.811  1.00  0.00     0.070 C 
ATOM     11  N   UNL A   1      40.368  32.524  33.146  1.00  0.00    -0.174 NA
ATOM     12  C   UNL A   1      38.644  30.102  33.671  1.00  0.00     0.086 C 
ATOM     13  C   UNL A   1      40.426  29.632  34.352  1.00  0.00     0.118 C 
BRANCH  10  14
ATOM     14  C   UNL A   1      38.172  32.080  31.566  1.00  0.00    -0.002 A 
ATOM     15  C   UNL A   1      34.532  34.159  28.672  1.00  0.00     0.044 C 
ATOM     16  C   UNL A   1      35.740  33.688  29.453  1.00  0.00    -0.051 A 
ATOM     17  C   UNL A   1      37.394  33.493  28.788  1.00  0.00     0.004 A 
ATOM     18  C   UNL A   1      35.326  33.072  31.083  1.00  0.00     0.004 A 
ATOM     19  C   UNL A   1      38.676  32.689  29.814  1.00  0.00     0.010 A 
ATOM     20  C   UNL A   1      36.502  32.288  32.117  1.00  0.00     0.010 A 
ENDBRANCH  10  14
BRANCH  13  21
ATOM     21  C   UNL A   1      40.815  28.211  33.794  1.00  0.00     0.045 C 
BRANCH  21  22
ATOM     22  C   UNL A   1      42.133  27.699  34.361  1.00  0.00     0.106 C 
ATOM     23  C   UNL A   1      42.940  27.226  33.219  1.00  0.00    -0.003 C 
ATOM     24  C   UNL A   1      41.962  26.620  35.438  1.00  0.00     0.253 C 
ATOM     25  C   UNL A   1      43.628  26.104  33.172  1.00  0.00    -0.003 A 
ATOM     26  N   UNL A   1      42.743  25.481  35.386  1.00  0.00    -0.212 NA
ATOM     27  O   UNL A   1      41.165  26.813  36.356  1.00  0.00    -0.272 OA
ATOM     28  C   UNL A   1      44.471  25.806  32.051  1.00  0.00     0.010 A 
ATOM     29  C   UNL A   1      43.494  25.237  34.357  1.00  0.00     0.077 A 
ATOM     30  C   UNL A   1      45.214  24.698  32.074  1.00  0.00     0.001 A 
ATOM     31  C   UNL A   1      44.303  23.979  34.247  1.00  0.00    -0.025 A 
ATOM     32  C   UNL A   1      45.099  23.773  33.178  1.00  0.00     0.005 A 
ATOM     33  C   UNL A   1      44.097  22.979  35.333  1.00  0.00     0.047 C 
ENDBRANCH  21  22
ENDBRANCH  13  21
ENDBRANCH   7   9
ENDBRANCH   6   7
ENDBRANCH   5   6
ENDBRANCH   1   5
BRANCH   3  34
ATOM     34  C   UNL A   1      46.647  34.630  31.432  1.00  0.00     0.117 C 
BRANCH  34  35
ATOM     35  C   UNL A   1      48.458  34.070  32.614  1.00  0.00     0.042 C 
BRANCH  35  36
ATOM     36  C   UNL A   1      48.390  33.712  34.482  1.00  0.00     0.118 C 
BRANCH  36  37
ATOM     37  N   UNL A   1      47.773  32.248  35.159  1.00  0.00    -0.352 N 
ATOM     38  C   UNL A   1      47.181  30.735  34.565  1.00  0.00     0.251 C 
ATOM     39  H   UNL A   1      47.753  32.284  36.143  1.00  0.00     0.163 HD
ATOM     40  O   UNL A   1      46.998  30.185  35.692  1.00  0.00    -0.269 OA
BRANCH  38  41
ATOM     41  C   UNL A   1      47.035  30.217  32.485  1.00  0.00     0.039 A 
ATOM     42  C   UNL A   1      47.100  30.933  31.211  1.00  0.00     0.014 A 
ATOM     43  C   UNL A   1      46.792  28.834  31.939  1.00  0.00     0.014 A 
ATOM     44  C   UNL A   1      46.289  30.652  30.110  1.00  0.00     0.010 A 
ATOM     45  C   UNL A   1      45.744  28.589  31.135  1.00  0.00     0.010 A 
ATOM     46  C   UNL A   1      45.467  29.563  30.223  1.00  0.00    -0.014 A 
BRANCH  46  47
ATOM     47  C   UNL A   1      44.665  28.970  29.201  1.00  0.00     0.031 A 
ATOM     48  C   UNL A   1      43.263  28.852  29.679  1.00  0.00     0.074 A 
ATOM     49  C   UNL A   1      45.308  28.983  28.010  1.00  0.00     0.049 A 
ATOM     50  N   UNL A   1      42.534  27.795  29.617  1.00  0.00    -0.248 NA
ATOM     51  C   UNL A   1      42.620  29.875  30.559  1.00  0.00     0.031 C 
ATOM     52  C   UNL A   1      44.838  28.896  26.643  1.00  0.00     0.029 A 
ATOM     53  N   UNL A   1      46.711  28.970  27.863  1.00  0.00    -0.354 N 
ATOM     54  C   UNL A   1      41.254  28.267  29.849  1.00  0.00     0.074 A 
ATOM     55  C   UNL A   1      41.403  29.371  30.749  1.00  0.00     0.031 C 
ATOM     56  C   UNL A   1      45.851  28.449  25.869  1.00  0.00     0.029 A 
ATOM     57  C   UNL A   1      47.013  28.209  26.718  1.00  0.00     0.049 A 
ATOM     58  H   UNL A   1      47.362  29.413  28.455  1.00  0.00     0.167 HD
ATOM     59  C   UNL A   1      40.309  28.089  28.880  1.00  0.00     0.037 A 
ATOM     60  C   UNL A   1      47.601  26.990  26.926  1.00  0.00     0.037 A 
ATOM     61  C   UNL A   1      40.947  27.489  27.703  1.00  0.00     0.049 A 
ATOM     62  C   UNL A   1      46.565  25.886  27.022  1.00  0.00     0.074 A 
ATOM     63  C   UNL A   1      41.388  27.973  26.482  1.00  0.00     0.029 A 
ATOM     64  N   UNL A   1      41.615  26.298  27.880  1.00  0.00    -0.354 N 
ATOM     65  N   UNL A   1      45.277  26.077  26.931  1.00  0.00    -0.248 NA
ATOM     66  C   UNL A   1      46.907  24.495  27.300  1.00  0.00     0.031 C 
ATOM     67  C   UNL A   1      42.322  27.024  25.944  1.00  0.00     0.029 A 
ATOM     68  C   UNL A   1      42.470  25.990  26.849  1.00  0.00     0.049 A 
ATOM     69  H   UNL A   1      41.493  25.723  28.671  1.00  0.00     0.167 HD
ATOM     70  C   UNL A   1      44.619  24.899  27.119  1.00  0.00     0.074 A 
ATOM     71  C   UNL A   1      45.685  23.951  27.417  1.00  0.00     0.031 C 
ATOM     72  C   UNL A   1      43.259  24.778  27.005  1.00  0.00     0.037 A 
BRANCH  59  73
ATOM     73  C   UNL A   1      38.925  28.689  28.882  1.00  0.00     0.057 A 
ATOM     74  C   UNL A   1      38.119  28.582  30.029  1.00  0.00     0.134 A 
ATOM     75  C   UNL A   1      38.361  29.460  27.844  1.00  0.00     0.134 A 
ATOM     76  F   UNL A   1      38.540  27.941  31.127  1.00  0.00    -0.206 F 
ATOM     77  C   UNL A   1      36.844  29.153  30.124  1.00  0.00     0.040 A 
ATOM     78  C   UNL A   1      37.070  30.008  27.913  1.00  0.00     0.040 A 
ATOM     79  F   UNL A   1      39.047  29.771  26.736  1.00  0.00    -0.206 F 
ATOM     80  C   UNL A   1      36.309  29.859  29.061  1.00  0.00     0.006 A 
ENDBRANCH  59  73
BRANCH  60  81
ATOM     81  C   UNL A   1      48.763  27.130  27.858  1.00  0.00     0.057 A 
ATOM     82  C   UNL A   1      49.899  27.825  27.396  1.00  0.00     0.134 A 
ATOM     83  C   UNL A   1      48.580  27.043  29.240  1.00  0.00     0.134 A 
ATOM     84  F   UNL A   1      50.133  27.942  26.079  1.00  0.00    -0.206 F 
ATOM     85  C   UNL A   1      50.723  28.542  28.264  1.00  0.00     0.040 A 
ATOM     86  C   UNL A   1      49.402  27.749  30.116  1.00  0.00     0.040 A 
ATOM     87  F   UNL A   1      47.521  26.403  29.758  1.00  0.00    -0.206 F 
ATOM     88  C   UNL A   1      50.456  28.524  29.628  1.00  0.00     0.006 A 
ENDBRANCH  60  81
BRANCH  72  89
ATOM     89  C   UNL A   1      42.556  23.448  27.115  1.00  0.00     0.057 A 
ATOM     90  C   UNL A   1      42.176  22.918  28.351  1.00  0.00     0.134 A 
ATOM     91  C   UNL A   1      42.296  22.608  26.009  1.00  0.00     0.134 A 
ATOM     92  F   UNL A   1      42.566  23.486  29.503  1.00  0.00    -0.206 F 
ATOM     93  C   UNL A   1      41.411  21.756  28.462  1.00  0.00     0.040 A 
ATOM     94  C   UNL A   1      41.589  21.414  26.110  1.00  0.00     0.040 A 
ATOM     95  F   UNL A   1      42.702  22.875  24.763  1.00  0.00    -0.206 F 
ATOM     96  C   UNL A   1      41.099  21.009  27.336  1.00  0.00     0.006 A 
ENDBRANCH  72  89
ENDBRANCH  46  47
ENDBRANCH  38  41
ENDBRANCH  36  37
ENDBRANCH  35  36
ENDBRANCH  34  35
ENDBRANCH   3  34
TORSDOF 16
ENDMDL
