MODEL 1
REMARK VINA RESULT:     -14.3      0.000      0.000
REMARK SMILES O=C(Cn1nc(C(=O)NCCCNC(=O)c2ccc(-c3c4nc(c(-c5c(F)cccc5F)c5ccc([nH]5)c(-c5c(F)cccc5F)c5nc(c(-c6c(F)cccc6F)c6ccc3[nH]6)C=C5)C=C4)cc2)c2ccccc2c1=O)Nc1ccc2c(c1)C(=O)c1ccccc1C2=O
REMARK SMILES IDX 10 1 9 2 7 3 8 4 6 6 4 7 5 8 76 9 75 10 77 11 70 12 74 13
REMARK SMILES IDX 71 14 73 15 72 16 3 17 2 18 1 19 78 20 79 22 80 23 84 24
REMARK SMILES IDX 81 25 83 26 82 27 85 28 93 29 86 30 87 31 92 32 94 33 88 34
REMARK SMILES IDX 91 35 89 36 90 37 11 38 12 39 13 40 14 41 15 43 16 44 17 45
REMARK SMILES IDX 69 46 18 47 68 48 19 49 20 50 21 51 62 52 22 53 67 54 61 55
REMARK SMILES IDX 63 56 23 57 66 58 60 59 59 60 24 62 50 63 33 64 49 65 34 66
REMARK SMILES IDX 37 67 48 68 64 69 35 70 36 71 47 73 65 74 38 75 25 76 26 77
REMARK SMILES IDX 31 78 27 79 28 80 30 81 32 82 29 83 51 84 52 85 57 86 53 87
REMARK SMILES IDX 54 88 56 89 58 90 55 91 39 92 40 93 45 94 41 95 42 96 44 97
REMARK SMILES IDX 46 98 43 99
REMARK H PARENT 9 5 78 21 13 42 63 61 37 72
REMARK Flexibility Score: inf
ROOT
ATOM      1  C   UNL A   1      46.105  22.009  36.408  1.00  0.00     0.118 C 
ENDROOT
BRANCH   1   2
ATOM      2  N   UNL A   1      45.602  20.666  36.196  1.00  0.00    -0.351 N 
ATOM      3  C   UNL A   1      45.869  19.477  36.830  1.00  0.00     0.272 C 
ATOM      4  O   UNL A   1      45.360  18.467  36.355  1.00  0.00    -0.267 OA
ATOM      5  H   UNL A   1      44.950  20.592  35.462  1.00  0.00     0.163 HD
BRANCH   3   6
ATOM      6  C   UNL A   1      46.808  19.384  38.054  1.00  0.00     0.156 A 
ATOM      7  N   UNL A   1      47.047  19.032  40.341  1.00  0.00    -0.219 N 
ATOM      8  N   UNL A   1      46.296  18.993  39.188  1.00  0.00    -0.163 NA
ATOM      9  C   UNL A   1      48.281  19.677  40.404  1.00  0.00     0.275 A 
ATOM     10  C   UNL A   1      48.953  19.923  39.115  1.00  0.00     0.051 A 
ATOM     11  O   UNL A   1      48.870  19.904  41.455  1.00  0.00    -0.267 OA
ATOM     12  C   UNL A   1      48.243  19.764  37.928  1.00  0.00     0.020 A 
ATOM     13  C   UNL A   1      50.323  20.235  39.103  1.00  0.00     0.014 A 
ATOM     14  C   UNL A   1      48.930  19.928  36.715  1.00  0.00     0.011 A 
ATOM     15  C   UNL A   1      50.989  20.407  37.891  1.00  0.00     0.001 A 
ATOM     16  C   UNL A   1      50.290  20.258  36.699  1.00  0.00     0.001 A 
BRANCH   7  17
ATOM     17  C   UNL A   1      46.369  18.606  41.592  1.00  0.00     0.248 C 
BRANCH  17  18
ATOM     18  C   UNL A   1      44.833  18.377  41.503  1.00  0.00     0.246 C 
ATOM     19  O   UNL A   1      44.020  19.217  41.877  1.00  0.00    -0.273 OA
ATOM     20  N   UNL A   1      44.516  17.123  41.051  1.00  0.00    -0.324 N 
ATOM     21  H   UNL A   1      45.212  16.667  40.525  1.00  0.00     0.169 HD
BRANCH  20  22
ATOM     22  C   UNL A   1      43.334  16.409  41.240  1.00  0.00     0.042 A 
ATOM     23  C   UNL A   1      42.603  15.850  40.194  1.00  0.00     0.027 A 
ATOM     24  C   UNL A   1      43.144  15.982  42.552  1.00  0.00     0.039 A 
ATOM     25  C   UNL A   1      41.822  14.709  40.451  1.00  0.00     0.015 A 
ATOM     26  C   UNL A   1      42.390  14.851  42.798  1.00  0.00     0.036 A 
ATOM     27  C   UNL A   1      41.801  14.162  41.745  1.00  0.00     0.034 A 
ATOM     28  C   UNL A   1      42.507  14.245  44.130  1.00  0.00     0.194 C 
ATOM     29  C   UNL A   1      41.413  12.750  41.972  1.00  0.00     0.194 C 
ATOM     30  O   UNL A   1      42.652  14.922  45.138  1.00  0.00    -0.289 OA
ATOM     31  C   UNL A   1      42.626  12.785  44.151  1.00  0.00     0.034 A 
ATOM     32  C   UNL A   1      42.103  12.046  43.088  1.00  0.00     0.034 A 
ATOM     33  O   UNL A   1      40.666  12.159  41.206  1.00  0.00    -0.289 OA
ATOM     34  C   UNL A   1      43.399  12.181  45.145  1.00  0.00     0.013 A 
ATOM     35  C   UNL A   1      42.355  10.676  43.018  1.00  0.00     0.013 A 
ATOM     36  C   UNL A   1      43.680  10.822  45.052  1.00  0.00     0.001 A 
ATOM     37  C   UNL A   1      43.160  10.072  43.992  1.00  0.00     0.001 A 
ENDBRANCH  20  22
ENDBRANCH  17  18
ENDBRANCH   7  17
ENDBRANCH   3   6
ENDBRANCH   1   2
BRANCH   1  38
ATOM     38  C   UNL A   1      46.596  22.670  35.120  1.00  0.00     0.042 C 
BRANCH  38  39
ATOM     39  C   UNL A   1      47.752  23.655  35.308  1.00  0.00     0.118 C 
BRANCH  39  40
ATOM     40  N   UNL A   1      47.686  24.385  36.567  1.00  0.00    -0.352 N 
ATOM     41  C   UNL A   1      47.008  25.529  36.908  1.00  0.00     0.251 C 
ATOM     42  H   UNL A   1      48.219  23.991  37.296  1.00  0.00     0.163 HD
ATOM     43  O   UNL A   1      47.219  26.049  38.001  1.00  0.00    -0.269 OA
BRANCH  41  44
ATOM     44  C   UNL A   1      46.050  26.160  35.974  1.00  0.00     0.039 A 
ATOM     45  C   UNL A   1      46.431  27.208  35.133  1.00  0.00     0.014 A 
ATOM     46  C   UNL A   1      44.747  25.652  35.909  1.00  0.00     0.014 A 
ATOM     47  C   UNL A   1      45.476  27.834  34.330  1.00  0.00     0.010 A 
ATOM     48  C   UNL A   1      43.803  26.248  35.068  1.00  0.00     0.010 A 
ATOM     49  C   UNL A   1      44.149  27.374  34.307  1.00  0.00    -0.014 A 
BRANCH  49  50
ATOM     50  C   UNL A   1      43.131  28.114  33.521  1.00  0.00     0.031 A 
ATOM     51  C   UNL A   1      42.894  27.767  32.076  1.00  0.00     0.074 A 
ATOM     52  C   UNL A   1      42.374  29.053  34.116  1.00  0.00     0.049 A 
ATOM     53  N   UNL A   1      41.997  28.242  31.249  1.00  0.00    -0.248 NA
ATOM     54  C   UNL A   1      43.779  26.753  31.483  1.00  0.00     0.031 C 
ATOM     55  C   UNL A   1      42.500  29.484  35.509  1.00  0.00     0.029 A 
ATOM     56  N   UNL A   1      41.325  29.791  33.630  1.00  0.00    -0.354 N 
ATOM     57  C   UNL A   1      42.216  27.597  30.040  1.00  0.00     0.074 A 
ATOM     58  C   UNL A   1      43.343  26.710  30.232  1.00  0.00     0.031 C 
ATOM     59  C   UNL A   1      41.529  30.370  35.781  1.00  0.00     0.029 A 
ATOM     60  C   UNL A   1      40.730  30.587  34.577  1.00  0.00     0.049 A 
ATOM     61  H   UNL A   1      41.028  29.754  32.692  1.00  0.00     0.167 HD
ATOM     62  C   UNL A   1      41.535  27.718  28.877  1.00  0.00     0.037 A 
ATOM     63  C   UNL A   1      39.653  31.388  34.489  1.00  0.00     0.037 A 
ATOM     64  C   UNL A   1      40.397  28.575  28.678  1.00  0.00     0.049 A 
ATOM     65  C   UNL A   1      38.919  31.513  33.186  1.00  0.00     0.074 A 
ATOM     66  C   UNL A   1      39.629  28.741  27.538  1.00  0.00     0.029 A 
ATOM     67  N   UNL A   1      39.860  29.405  29.648  1.00  0.00    -0.354 N 
ATOM     68  N   UNL A   1      39.135  30.890  32.054  1.00  0.00    -0.248 NA
ATOM     69  C   UNL A   1      37.796  32.462  33.149  1.00  0.00     0.031 C 
ATOM     70  C   UNL A   1      38.633  29.688  27.816  1.00  0.00     0.029 A 
ATOM     71  C   UNL A   1      38.777  30.096  29.132  1.00  0.00     0.049 A 
ATOM     72  H   UNL A   1      40.200  29.492  30.568  1.00  0.00     0.167 HD
ATOM     73  C   UNL A   1      38.178  31.368  31.171  1.00  0.00     0.074 A 
ATOM     74  C   UNL A   1      37.369  32.322  31.901  1.00  0.00     0.031 C 
ATOM     75  C   UNL A   1      37.990  31.047  29.869  1.00  0.00     0.037 A 
BRANCH  62  76
ATOM     76  C   UNL A   1      42.014  26.899  27.720  1.00  0.00     0.057 A 
ATOM     77  C   UNL A   1      41.538  25.599  27.517  1.00  0.00     0.134 A 
ATOM     78  C   UNL A   1      42.959  27.398  26.814  1.00  0.00     0.134 A 
ATOM     79  F   UNL A   1      40.629  25.069  28.351  1.00  0.00    -0.206 F 
ATOM     80  C   UNL A   1      41.985  24.820  26.450  1.00  0.00     0.040 A 
ATOM     81  C   UNL A   1      43.404  26.632  25.736  1.00  0.00     0.040 A 
ATOM     82  F   UNL A   1      43.438  28.643  26.949  1.00  0.00    -0.206 F 
ATOM     83  C   UNL A   1      42.919  25.338  25.553  1.00  0.00     0.006 A 
ENDBRANCH  62  76
BRANCH  63  84
ATOM     84  C   UNL A   1      39.179  32.114  35.688  1.00  0.00     0.057 A 
ATOM     85  C   UNL A   1      38.270  31.536  36.580  1.00  0.00     0.134 A 
ATOM     86  C   UNL A   1      39.626  33.411  35.960  1.00  0.00     0.134 A 
ATOM     87  F   UNL A   1      37.811  30.294  36.367  1.00  0.00    -0.206 F 
ATOM     88  C   UNL A   1      37.815  32.228  37.701  1.00  0.00     0.040 A 
ATOM     89  C   UNL A   1      39.187  34.110  37.084  1.00  0.00     0.040 A 
ATOM     90  F   UNL A   1      40.510  34.005  35.147  1.00  0.00    -0.206 F 
ATOM     91  C   UNL A   1      38.275  33.519  37.957  1.00  0.00     0.006 A 
ENDBRANCH  63  84
BRANCH  75  92
ATOM     92  C   UNL A   1      36.873  31.740  29.156  1.00  0.00     0.057 A 
ATOM     93  C   UNL A   1      37.008  33.062  28.719  1.00  0.00     0.134 A 
ATOM     94  C   UNL A   1      35.652  31.096  28.924  1.00  0.00     0.134 A 
ATOM     95  F   UNL A   1      38.157  33.729  28.913  1.00  0.00    -0.206 F 
ATOM     96  C   UNL A   1      35.963  33.723  28.073  1.00  0.00     0.040 A 
ATOM     97  C   UNL A   1      34.603  31.743  28.270  1.00  0.00     0.040 A 
ATOM     98  F   UNL A   1      35.470  29.824  29.309  1.00  0.00    -0.206 F 
ATOM     99  C   UNL A   1      34.757  33.062  27.845  1.00  0.00     0.006 A 
ENDBRANCH  75  92
ENDBRANCH  49  50
ENDBRANCH  41  44
ENDBRANCH  39  40
ENDBRANCH  38  39
ENDBRANCH   1  38
TORSDOF 13
ENDMDL
MODEL 2
REMARK VINA RESULT:     -14.2     10.284     17.339
REMARK SMILES O=C(Cn1nc(C(=O)NCCCNC(=O)c2ccc(-c3c4nc(c(-c5c(F)cccc5F)c5ccc([nH]5)c(-c5c(F)cccc5F)c5nc(c(-c6c(F)cccc6F)c6ccc3[nH]6)C=C5)C=C4)cc2)c2ccccc2c1=O)Nc1ccc2c(c1)C(=O)c1ccccc1C2=O
REMARK SMILES IDX 10 1 9 2 7 3 8 4 6 6 4 7 5 8 76 9 75 10 77 11 70 12 74 13
REMARK SMILES IDX 71 14 73 15 72 16 3 17 2 18 1 19 78 20 79 22 80 23 84 24
REMARK SMILES IDX 81 25 83 26 82 27 85 28 93 29 86 30 87 31 92 32 94 33 88 34
REMARK SMILES IDX 91 35 89 36 90 37 11 38 12 39 13 40 14 41 15 43 16 44 17 45
REMARK SMILES IDX 69 46 18 47 68 48 19 49 20 50 21 51 62 52 22 53 67 54 61 55
REMARK SMILES IDX 63 56 23 57 66 58 60 59 59 60 24 62 50 63 33 64 49 65 34 66
REMARK SMILES IDX 37 67 48 68 64 69 35 70 36 71 47 73 65 74 38 75 25 76 26 77
REMARK SMILES IDX 31 78 27 79 28 80 30 81 32 82 29 83 51 84 52 85 57 86 53 87
REMARK SMILES IDX 54 88 56 89 58 90 55 91 39 92 40 93 45 94 41 95 42 96 44 97
REMARK SMILES IDX 46 98 43 99
REMARK H PARENT 9 5 78 21 13 42 63 61 37 72
REMARK Flexibility Score: inf
ROOT
ATOM      1  C   UNL A   1      36.645  34.293  33.130  1.00  0.00     0.118 C 
ENDROOT
BRANCH   1   2
ATOM      2  N   UNL A   1      35.347  33.745  33.470  1.00  0.00    -0.351 N 
ATOM      3  C   UNL A   1      34.261  33.413  32.697  1.00  0.00     0.272 C 
ATOM      4  O   UNL A   1      33.245  33.060  33.286  1.00  0.00    -0.267 OA
ATOM      5  H   UNL A   1      35.219  33.582  34.433  1.00  0.00     0.163 HD
BRANCH   3   6
ATOM      6  C   UNL A   1      34.279  33.522  31.155  1.00  0.00     0.156 A 
ATOM      7  N   UNL A   1      34.753  32.526  29.106  1.00  0.00    -0.219 N 
ATOM      8  N   UNL A   1      34.578  32.453  30.470  1.00  0.00    -0.163 NA
ATOM      9  C   UNL A   1      34.837  33.743  28.431  1.00  0.00     0.275 A 
ATOM     10  C   UNL A   1      34.296  34.918  29.138  1.00  0.00     0.051 A 
ATOM     11  O   UNL A   1      35.194  33.841  27.263  1.00  0.00    -0.267 OA
ATOM     12  C   UNL A   1      33.991  34.826  30.493  1.00  0.00     0.020 A 
ATOM     13  C   UNL A   1      34.019  36.089  28.412  1.00  0.00     0.014 A 
ATOM     14  C   UNL A   1      33.404  35.935  31.120  1.00  0.00     0.011 A 
ATOM     15  C   UNL A   1      33.446  37.187  29.050  1.00  0.00     0.001 A 
ATOM     16  C   UNL A   1      33.144  37.110  30.405  1.00  0.00     0.001 A 
BRANCH   7  17
ATOM     17  C   UNL A   1      35.131  31.267  28.415  1.00  0.00     0.248 C 
BRANCH  17  18
ATOM     18  C   UNL A   1      34.047  30.627  27.503  1.00  0.00     0.246 C 
ATOM     19  O   UNL A   1      32.867  30.963  27.547  1.00  0.00    -0.273 OA
ATOM     20  N   UNL A   1      34.546  29.609  26.733  1.00  0.00    -0.324 N 
ATOM     21  H   UNL A   1      35.516  29.628  26.570  1.00  0.00     0.169 HD
BRANCH  20  22
ATOM     22  C   UNL A   1      33.854  28.549  26.148  1.00  0.00     0.042 A 
ATOM     23  C   UNL A   1      33.138  27.606  26.882  1.00  0.00     0.027 A 
ATOM     24  C   UNL A   1      33.623  28.718  24.785  1.00  0.00     0.039 A 
ATOM     25  C   UNL A   1      32.038  26.973  26.276  1.00  0.00     0.015 A 
ATOM     26  C   UNL A   1      32.531  28.108  24.198  1.00  0.00     0.036 A 
ATOM     27  C   UNL A   1      31.688  27.306  24.957  1.00  0.00     0.034 A 
ATOM     28  C   UNL A   1      32.130  28.588  22.870  1.00  0.00     0.194 C 
ATOM     29  C   UNL A   1      30.320  27.057  24.443  1.00  0.00     0.194 C 
ATOM     30  O   UNL A   1      32.950  28.949  22.038  1.00  0.00    -0.289 OA
ATOM     31  C   UNL A   1      30.690  28.779  22.677  1.00  0.00     0.034 A 
ATOM     32  C   UNL A   1      29.797  28.041  23.455  1.00  0.00     0.034 A 
ATOM     33  O   UNL A   1      29.615  26.172  24.901  1.00  0.00    -0.289 OA
ATOM     34  C   UNL A   1      30.249  29.807  21.841  1.00  0.00     0.013 A 
ATOM     35  C   UNL A   1      28.435  28.335  23.397  1.00  0.00     0.013 A 
ATOM     36  C   UNL A   1      28.894  30.123  21.813  1.00  0.00     0.001 A 
ATOM     37  C   UNL A   1      27.991  29.388  22.588  1.00  0.00     0.001 A 
ENDBRANCH  20  22
ENDBRANCH  17  18
ENDBRANCH   7  17
ENDBRANCH   3   6
ENDBRANCH   1   2
BRANCH   1  38
ATOM     38  C   UNL A   1      37.592  33.250  32.537  1.00  0.00     0.042 C 
BRANCH  38  39
ATOM     39  C   UNL A   1      37.586  31.899  33.257  1.00  0.00     0.118 C 
BRANCH  39  40
ATOM     40  N   UNL A   1      36.689  30.927  32.647  1.00  0.00    -0.352 N 
ATOM     41  C   UNL A   1      36.897  30.025  31.632  1.00  0.00     0.251 C 
ATOM     42  H   UNL A   1      35.780  30.916  33.025  1.00  0.00     0.163 HD
ATOM     43  O   UNL A   1      35.941  29.400  31.180  1.00  0.00    -0.269 OA
BRANCH  41  44
ATOM     44  C   UNL A   1      38.244  29.814  31.058  1.00  0.00     0.039 A 
ATOM     45  C   UNL A   1      38.578  30.283  29.785  1.00  0.00     0.014 A 
ATOM     46  C   UNL A   1      39.209  29.169  31.839  1.00  0.00     0.014 A 
ATOM     47  C   UNL A   1      39.831  29.987  29.245  1.00  0.00     0.010 A 
ATOM     48  C   UNL A   1      40.480  28.915  31.315  1.00  0.00     0.010 A 
ATOM     49  C   UNL A   1      40.785  29.281  29.997  1.00  0.00    -0.014 A 
BRANCH  49  50
ATOM     50  C   UNL A   1      42.072  28.894  29.368  1.00  0.00     0.031 A 
ATOM     51  C   UNL A   1      43.256  29.818  29.442  1.00  0.00     0.074 A 
ATOM     52  C   UNL A   1      42.200  27.688  28.786  1.00  0.00     0.049 A 
ATOM     53  N   UNL A   1      44.483  29.624  29.027  1.00  0.00    -0.248 NA
ATOM     54  C   UNL A   1      43.035  31.133  30.066  1.00  0.00     0.031 C 
ATOM     55  C   UNL A   1      41.132  26.698  28.648  1.00  0.00     0.029 A 
ATOM     56  N   UNL A   1      43.296  27.080  28.230  1.00  0.00    -0.354 N 
ATOM     57  C   UNL A   1      45.174  30.790  29.327  1.00  0.00     0.074 A 
ATOM     58  C   UNL A   1      44.228  31.697  29.941  1.00  0.00     0.031 C 
ATOM     59  C   UNL A   1      41.639  25.583  28.096  1.00  0.00     0.029 A 
ATOM     60  C   UNL A   1      43.059  25.791  27.821  1.00  0.00     0.049 A 
ATOM     61  H   UNL A   1      44.170  27.524  28.134  1.00  0.00     0.167 HD
ATOM     62  C   UNL A   1      46.481  31.079  29.123  1.00  0.00     0.037 A 
ATOM     63  C   UNL A   1      43.894  24.875  27.299  1.00  0.00     0.037 A 
ATOM     64  C   UNL A   1      47.439  30.180  28.538  1.00  0.00     0.049 A 
ATOM     65  C   UNL A   1      45.337  25.222  27.075  1.00  0.00     0.074 A 
ATOM     66  C   UNL A   1      48.791  30.381  28.318  1.00  0.00     0.029 A 
ATOM     67  N   UNL A   1      47.144  28.904  28.087  1.00  0.00    -0.354 N 
ATOM     68  N   UNL A   1      45.976  26.327  27.370  1.00  0.00    -0.248 NA
ATOM     69  C   UNL A   1      46.171  24.194  26.434  1.00  0.00     0.031 C 
ATOM     70  C   UNL A   1      49.312  29.227  27.717  1.00  0.00     0.029 A 
ATOM     71  C   UNL A   1      48.285  28.307  27.579  1.00  0.00     0.049 A 
ATOM     72  H   UNL A   1      46.254  28.484  28.123  1.00  0.00     0.167 HD
ATOM     73  C   UNL A   1      47.284  26.129  26.954  1.00  0.00     0.074 A 
ATOM     74  C   UNL A   1      47.354  24.793  26.399  1.00  0.00     0.031 C 
ATOM     75  C   UNL A   1      48.334  26.983  27.023  1.00  0.00     0.037 A 
BRANCH  62  76
ATOM     76  C   UNL A   1      46.948  32.439  29.537  1.00  0.00     0.057 A 
ATOM     77  C   UNL A   1      46.905  33.514  28.642  1.00  0.00     0.134 A 
ATOM     78  C   UNL A   1      47.451  32.677  30.821  1.00  0.00     0.134 A 
ATOM     79  F   UNL A   1      46.429  33.347  27.398  1.00  0.00    -0.206 F 
ATOM     80  C   UNL A   1      47.348  34.784  29.011  1.00  0.00     0.040 A 
ATOM     81  C   UNL A   1      47.886  33.946  31.206  1.00  0.00     0.040 A 
ATOM     82  F   UNL A   1      47.500  31.689  31.727  1.00  0.00    -0.206 F 
ATOM     83  C   UNL A   1      47.838  35.004  30.298  1.00  0.00     0.006 A 
ENDBRANCH  62  76
BRANCH  63  84
ATOM     84  C   UNL A   1      43.392  23.520  26.981  1.00  0.00     0.057 A 
ATOM     85  C   UNL A   1      43.172  22.570  27.983  1.00  0.00     0.134 A 
ATOM     86  C   UNL A   1      43.126  23.149  25.660  1.00  0.00     0.134 A 
ATOM     87  F   UNL A   1      43.408  22.874  29.268  1.00  0.00    -0.206 F 
ATOM     88  C   UNL A   1      42.711  21.289  27.679  1.00  0.00     0.040 A 
ATOM     89  C   UNL A   1      42.655  21.875  25.342  1.00  0.00     0.040 A 
ATOM     90  F   UNL A   1      43.304  24.028  24.663  1.00  0.00    -0.206 F 
ATOM     91  C   UNL A   1      42.450  20.939  26.355  1.00  0.00     0.006 A 
ENDBRANCH  63  84
BRANCH  75  92
ATOM     92  C   UNL A   1      49.639  26.495  26.478  1.00  0.00     0.057 A 
ATOM     93  C   UNL A   1      50.493  25.703  27.254  1.00  0.00     0.134 A 
ATOM     94  C   UNL A   1      50.054  26.832  25.184  1.00  0.00     0.134 A 
ATOM     95  F   UNL A   1      50.145  25.348  28.500  1.00  0.00    -0.206 F 
ATOM     96  C   UNL A   1      51.720  25.263  26.760  1.00  0.00     0.040 A 
ATOM     97  C   UNL A   1      51.276  26.389  24.676  1.00  0.00     0.040 A 
ATOM     98  F   UNL A   1      49.271  27.577  24.391  1.00  0.00    -0.206 F 
ATOM     99  C   UNL A   1      52.114  25.604  25.467  1.00  0.00     0.006 A 
ENDBRANCH  75  92
ENDBRANCH  49  50
ENDBRANCH  41  44
ENDBRANCH  39  40
ENDBRANCH  38  39
ENDBRANCH   1  38
TORSDOF 13
ENDMDL
MODEL 3
REMARK VINA RESULT:     -13.9     10.412     16.390
REMARK SMILES O=C(Cn1nc(C(=O)NCCCNC(=O)c2ccc(-c3c4nc(c(-c5c(F)cccc5F)c5ccc([nH]5)c(-c5c(F)cccc5F)c5nc(c(-c6c(F)cccc6F)c6ccc3[nH]6)C=C5)C=C4)cc2)c2ccccc2c1=O)Nc1ccc2c(c1)C(=O)c1ccccc1C2=O
REMARK SMILES IDX 10 1 9 2 7 3 8 4 6 6 4 7 5 8 76 9 75 10 77 11 70 12 74 13
REMARK SMILES IDX 71 14 73 15 72 16 3 17 2 18 1 19 78 20 79 22 80 23 84 24
REMARK SMILES IDX 81 25 83 26 82 27 85 28 93 29 86 30 87 31 92 32 94 33 88 34
REMARK SMILES IDX 91 35 89 36 90 37 11 38 12 39 13 40 14 41 15 43 16 44 17 45
REMARK SMILES IDX 69 46 18 47 68 48 19 49 20 50 21 51 62 52 22 53 67 54 61 55
REMARK SMILES IDX 63 56 23 57 66 58 60 59 59 60 24 62 50 63 33 64 49 65 34 66
REMARK SMILES IDX 37 67 48 68 64 69 35 70 36 71 47 73 65 74 38 75 25 76 26 77
REMARK SMILES IDX 31 78 27 79 28 80 30 81 32 82 29 83 51 84 52 85 57 86 53 87
REMARK SMILES IDX 54 88 56 89 58 90 55 91 39 92 40 93 45 94 41 95 42 96 44 97
REMARK SMILES IDX 46 98 43 99
REMARK H PARENT 9 5 78 21 13 42 63 61 37 72
REMARK Flexibility Score: inf
ROOT
ATOM      1  C   UNL A   1      33.000  30.051  25.744  1.00  0.00     0.118 C 
ENDROOT
BRANCH   1   2
ATOM      2  N   UNL A   1      33.398  29.369  24.527  1.00  0.00    -0.351 N 
ATOM      3  C   UNL A   1      32.732  28.488  23.711  1.00  0.00     0.272 C 
ATOM      4  O   UNL A   1      33.372  27.989  22.791  1.00  0.00    -0.267 OA
ATOM      5  H   UNL A   1      34.315  29.576  24.232  1.00  0.00     0.163 HD
BRANCH   3   6
ATOM      6  C   UNL A   1      31.260  28.087  23.952  1.00  0.00     0.156 A 
ATOM      7  N   UNL A   1      29.742  26.657  24.985  1.00  0.00    -0.219 N 
ATOM      8  N   UNL A   1      31.016  27.157  24.834  1.00  0.00    -0.163 NA
ATOM      9  C   UNL A   1      28.718  26.945  24.084  1.00  0.00     0.275 A 
ATOM     10  C   UNL A   1      28.914  28.134  23.235  1.00  0.00     0.051 A 
ATOM     11  O   UNL A   1      27.643  26.358  24.077  1.00  0.00    -0.267 OA
ATOM     12  C   UNL A   1      30.169  28.733  23.168  1.00  0.00     0.020 A 
ATOM     13  C   UNL A   1      27.809  28.693  22.570  1.00  0.00     0.014 A 
ATOM     14  C   UNL A   1      30.306  29.909  22.415  1.00  0.00     0.011 A 
ATOM     15  C   UNL A   1      27.963  29.855  21.815  1.00  0.00     0.001 A 
ATOM     16  C   UNL A   1      29.213  30.458  21.735  1.00  0.00     0.001 A 
BRANCH   7  17
ATOM     17  C   UNL A   1      29.567  25.572  25.984  1.00  0.00     0.248 C 
BRANCH  17  18
ATOM     18  C   UNL A   1      30.724  24.540  26.093  1.00  0.00     0.246 C 
ATOM     19  O   UNL A   1      31.320  24.328  27.146  1.00  0.00    -0.273 OA
ATOM     20  N   UNL A   1      31.044  23.980  24.883  1.00  0.00    -0.324 N 
ATOM     21  H   UNL A   1      30.336  24.002  24.200  1.00  0.00     0.169 HD
BRANCH  20  22
ATOM     22  C   UNL A   1      32.242  23.383  24.497  1.00  0.00     0.042 A 
ATOM     23  C   UNL A   1      33.449  23.591  25.160  1.00  0.00     0.027 A 
ATOM     24  C   UNL A   1      32.073  22.291  23.649  1.00  0.00     0.039 A 
ATOM     25  C   UNL A   1      34.422  22.576  25.126  1.00  0.00     0.015 A 
ATOM     26  C   UNL A   1      33.023  21.288  23.632  1.00  0.00     0.036 A 
ATOM     27  C   UNL A   1      34.154  21.384  24.432  1.00  0.00     0.034 A 
ATOM     28  C   UNL A   1      32.642  20.016  23.006  1.00  0.00     0.194 C 
ATOM     29  C   UNL A   1      34.893  20.137  24.742  1.00  0.00     0.194 C 
ATOM     30  O   UNL A   1      31.916  19.970  22.024  1.00  0.00    -0.289 OA
ATOM     31  C   UNL A   1      33.033  18.810  23.741  1.00  0.00     0.034 A 
ATOM     32  C   UNL A   1      34.128  18.866  24.605  1.00  0.00     0.034 A 
ATOM     33  O   UNL A   1      36.021  20.159  25.209  1.00  0.00    -0.289 OA
ATOM     34  C   UNL A   1      32.208  17.684  23.686  1.00  0.00     0.013 A 
ATOM     35  C   UNL A   1      34.406  17.776  25.429  1.00  0.00     0.013 A 
ATOM     36  C   UNL A   1      32.465  16.614  24.536  1.00  0.00     0.001 A 
ATOM     37  C   UNL A   1      33.561  16.660  25.405  1.00  0.00     0.001 A 
ENDBRANCH  20  22
ENDBRANCH  17  18
ENDBRANCH   7  17
ENDBRANCH   3   6
ENDBRANCH   1   2
BRANCH   1  38
ATOM     38  C   UNL A   1      33.191  29.193  26.994  1.00  0.00     0.042 C 
BRANCH  38  39
ATOM     39  C   UNL A   1      34.590  29.268  27.612  1.00  0.00     0.118 C 
BRANCH  39  40
ATOM     40  N   UNL A   1      34.739  30.359  28.565  1.00  0.00    -0.352 N 
ATOM     41  C   UNL A   1      35.816  30.751  29.320  1.00  0.00     0.251 C 
ATOM     42  H   UNL A   1      33.930  30.908  28.688  1.00  0.00     0.163 HD
ATOM     43  O   UNL A   1      35.666  31.623  30.173  1.00  0.00    -0.269 OA
BRANCH  41  44
ATOM     44  C   UNL A   1      37.145  30.126  29.144  1.00  0.00     0.039 A 
ATOM     45  C   UNL A   1      37.837  29.563  30.219  1.00  0.00     0.014 A 
ATOM     46  C   UNL A   1      37.688  30.061  27.855  1.00  0.00     0.014 A 
ATOM     47  C   UNL A   1      39.125  29.061  30.028  1.00  0.00     0.010 A 
ATOM     48  C   UNL A   1      38.958  29.513  27.656  1.00  0.00     0.010 A 
ATOM     49  C   UNL A   1      39.706  29.052  28.749  1.00  0.00    -0.014 A 
BRANCH  49  50
ATOM     50  C   UNL A   1      41.111  28.603  28.586  1.00  0.00     0.031 A 
ATOM     51  C   UNL A   1      41.410  27.173  28.226  1.00  0.00     0.074 A 
ATOM     52  C   UNL A   1      42.117  29.489  28.696  1.00  0.00     0.049 A 
ATOM     53  N   UNL A   1      42.563  26.611  27.962  1.00  0.00    -0.248 NA
ATOM     54  C   UNL A   1      40.264  26.253  28.153  1.00  0.00     0.031 C 
ATOM     55  C   UNL A   1      41.965  30.904  29.038  1.00  0.00     0.029 A 
ATOM     56  N   UNL A   1      43.465  29.335  28.499  1.00  0.00    -0.354 N 
ATOM     57  C   UNL A   1      42.284  25.276  27.704  1.00  0.00     0.074 A 
ATOM     58  C   UNL A   1      40.856  25.104  27.862  1.00  0.00     0.031 C 
ATOM     59  C   UNL A   1      43.166  31.500  28.972  1.00  0.00     0.029 A 
ATOM     60  C   UNL A   1      44.172  30.506  28.608  1.00  0.00     0.049 A 
ATOM     61  H   UNL A   1      43.886  28.467  28.298  1.00  0.00     0.167 HD
ATOM     62  C   UNL A   1      43.135  24.283  27.354  1.00  0.00     0.037 A 
ATOM     63  C   UNL A   1      45.481  30.754  28.421  1.00  0.00     0.037 A 
ATOM     64  C   UNL A   1      44.552  24.445  27.167  1.00  0.00     0.049 A 
ATOM     65  C   UNL A   1      46.406  29.635  28.041  1.00  0.00     0.074 A 
ATOM     66  C   UNL A   1      45.487  23.498  26.786  1.00  0.00     0.029 A 
ATOM     67  N   UNL A   1      45.236  25.636  27.341  1.00  0.00    -0.354 N 
ATOM     68  N   UNL A   1      46.126  28.380  27.794  1.00  0.00    -0.248 NA
ATOM     69  C   UNL A   1      47.833  29.970  27.924  1.00  0.00     0.031 C 
ATOM     70  C   UNL A   1      46.744  24.116  26.746  1.00  0.00     0.029 A 
ATOM     71  C   UNL A   1      46.584  25.449  27.087  1.00  0.00     0.049 A 
ATOM     72  H   UNL A   1      44.824  26.491  27.607  1.00  0.00     0.167 HD
ATOM     73  C   UNL A   1      47.336  27.774  27.491  1.00  0.00     0.074 A 
ATOM     74  C   UNL A   1      48.354  28.801  27.570  1.00  0.00     0.031 C 
ATOM     75  C   UNL A   1      47.582  26.479  27.180  1.00  0.00     0.037 A 
BRANCH  62  76
ATOM     76  C   UNL A   1      42.545  22.923  27.154  1.00  0.00     0.057 A 
ATOM     77  C   UNL A   1      42.333  22.417  25.866  1.00  0.00     0.134 A 
ATOM     78  C   UNL A   1      42.178  22.120  28.241  1.00  0.00     0.134 A 
ATOM     79  F   UNL A   1      42.669  23.140  24.787  1.00  0.00    -0.206 F 
ATOM     80  C   UNL A   1      41.774  21.155  25.666  1.00  0.00     0.040 A 
ATOM     81  C   UNL A   1      41.629  20.851  28.052  1.00  0.00     0.040 A 
ATOM     82  F   UNL A   1      42.375  22.545  29.497  1.00  0.00    -0.206 F 
ATOM     83  C   UNL A   1      41.422  20.367  26.761  1.00  0.00     0.006 A 
ENDBRANCH  62  76
BRANCH  63  84
ATOM     84  C   UNL A   1      45.994  32.135  28.557  1.00  0.00     0.057 A 
ATOM     85  C   UNL A   1      46.070  32.997  27.458  1.00  0.00     0.134 A 
ATOM     86  C   UNL A   1      46.423  32.618  29.797  1.00  0.00     0.134 A 
ATOM     87  F   UNL A   1      45.668  32.585  26.247  1.00  0.00    -0.206 F 
ATOM     88  C   UNL A   1      46.566  34.294  27.587  1.00  0.00     0.040 A 
ATOM     89  C   UNL A   1      46.912  33.917  29.942  1.00  0.00     0.040 A 
ATOM     90  F   UNL A   1      46.356  31.838  30.885  1.00  0.00    -0.206 F 
ATOM     91  C   UNL A   1      46.987  34.758  28.832  1.00  0.00     0.006 A 
ENDBRANCH  63  84
BRANCH  75  92
ATOM     92  C   UNL A   1      49.006  26.107  26.911  1.00  0.00     0.057 A 
ATOM     93  C   UNL A   1      49.825  25.608  27.930  1.00  0.00     0.134 A 
ATOM     94  C   UNL A   1      49.568  26.266  25.639  1.00  0.00     0.134 A 
ATOM     95  F   UNL A   1      49.339  25.433  29.168  1.00  0.00    -0.206 F 
ATOM     96  C   UNL A   1      51.159  25.280  27.692  1.00  0.00     0.040 A 
ATOM     97  C   UNL A   1      50.899  25.932  25.387  1.00  0.00     0.040 A 
ATOM     98  F   UNL A   1      48.827  26.728  24.621  1.00  0.00    -0.206 F 
ATOM     99  C   UNL A   1      51.699  25.440  26.417  1.00  0.00     0.006 A 
ENDBRANCH  75  92
ENDBRANCH  49  50
ENDBRANCH  41  44
ENDBRANCH  39  40
ENDBRANCH  38  39
ENDBRANCH   1  38
TORSDOF 13
ENDMDL
