MODEL 1
REMARK VINA RESULT:      -9.3      0.000      0.000
REMARK SMILES CN(C)c1cccc(C(=O)CCCC(=O)NCCCNC(=O)c2ccc(-c3c4nc(c(-c5c(F)cccc5F)c5ccc([nH]5)c(-c5c(F)cccc5F)c5nc(c(-c6c(F)cccc6F)c6ccc3[nH]6)C=C5)C=C4)cc2)c1
REMARK SMILES IDX 14 1 15 2 16 3 13 5 12 6 11 7 9 8 10 9 8 10 4 11 5 12 77 13
REMARK SMILES IDX 6 14 7 15 2 16 1 17 3 18 17 19 18 20 19 21 20 22 21 23 22 25
REMARK SMILES IDX 23 26 24 27 76 28 25 29 75 30 26 31 27 32 28 33 69 34 29 35
REMARK SMILES IDX 74 36 68 37 70 38 30 39 73 40 67 41 66 42 31 44 57 45 40 46
REMARK SMILES IDX 56 47 41 48 44 49 55 50 71 51 42 52 43 53 54 55 72 56 45 57
REMARK SMILES IDX 32 58 33 59 38 60 34 61 35 62 37 63 39 64 36 65 58 66 59 67
REMARK SMILES IDX 64 68 60 69 61 70 63 71 65 72 62 73 46 74 47 75 52 76 48 77
REMARK SMILES IDX 49 78 51 79 53 80 50 81
REMARK H PARENT 16 4 20 24 70 43 44 54
REMARK Flexibility Score: inf
ROOT
ATOM      1  C   UNL A   1      33.752  34.106  33.388  1.00  0.00     0.220 C 
ATOM      2  O   UNL A   1      33.377  32.943  33.188  1.00  0.00    -0.275 OA
ATOM      3  N   UNL A   1      32.982  35.058  32.814  1.00  0.00    -0.356 N 
ATOM      4  H   UNL A   1      32.230  34.679  32.302  1.00  0.00     0.163 HD
ENDROOT
BRANCH   1   5
ATOM      5  C   UNL A   1      34.920  34.341  34.346  1.00  0.00     0.100 C 
BRANCH   5   6
ATOM      6  C   UNL A   1      36.381  34.038  34.015  1.00  0.00     0.018 C 
BRANCH   6   7
ATOM      7  C   UNL A   1      36.862  32.717  33.423  1.00  0.00     0.081 C 
BRANCH   7   8
ATOM      8  C   UNL A   1      37.589  31.652  34.260  1.00  0.00     0.162 C 
ATOM      9  O   UNL A   1      37.515  31.711  35.492  1.00  0.00    -0.294 OA
BRANCH   8  10
ATOM     10  C   UNL A   1      38.248  30.433  33.675  1.00  0.00     0.020 A 
ATOM     11  C   UNL A   1      40.199  28.934  33.377  1.00  0.00     0.037 A 
ATOM     12  C   UNL A   1      39.420  28.164  32.509  1.00  0.00     0.026 A 
ATOM     13  C   UNL A   1      39.556  30.038  33.963  1.00  0.00     0.037 A 
ATOM     14  C   UNL A   1      38.091  28.503  32.224  1.00  0.00     0.003 A 
ATOM     15  C   UNL A   1      37.513  29.637  32.795  1.00  0.00     0.012 A 
BRANCH  11  16
ATOM     16  N   UNL A   1      41.530  28.635  33.644  1.00  0.00    -0.378 N 
ATOM     17  C   UNL A   1      42.099  27.316  33.379  1.00  0.00     0.143 C 
ATOM     18  C   UNL A   1      42.284  29.498  34.550  1.00  0.00     0.143 C 
ENDBRANCH  11  16
ENDBRANCH   8  10
ENDBRANCH   7   8
ENDBRANCH   6   7
ENDBRANCH   5   6
ENDBRANCH   1   5
BRANCH   3  19
ATOM     19  C   UNL A   1      33.008  36.504  32.779  1.00  0.00     0.117 C 
BRANCH  19  20
ATOM     20  C   UNL A   1      32.940  37.035  31.354  1.00  0.00     0.042 C 
BRANCH  20  21
ATOM     21  C   UNL A   1      33.737  36.182  30.387  1.00  0.00     0.118 C 
BRANCH  21  22
ATOM     22  N   UNL A   1      32.884  35.478  29.440  1.00  0.00    -0.352 N 
ATOM     23  C   UNL A   1      33.169  34.366  28.669  1.00  0.00     0.251 C 
ATOM     24  H   UNL A   1      31.977  35.845  29.336  1.00  0.00     0.163 HD
ATOM     25  O   UNL A   1      32.389  33.999  27.807  1.00  0.00    -0.269 OA
BRANCH  23  26
ATOM     26  C   UNL A   1      34.449  33.651  28.877  1.00  0.00     0.039 A 
ATOM     27  C   UNL A   1      35.540  33.953  28.058  1.00  0.00     0.014 A 
ATOM     28  C   UNL A   1      34.581  32.714  29.902  1.00  0.00     0.014 A 
ATOM     29  C   UNL A   1      36.783  33.371  28.323  1.00  0.00     0.010 A 
ATOM     30  C   UNL A   1      35.838  32.230  30.236  1.00  0.00     0.010 A 
ATOM     31  C   UNL A   1      36.951  32.539  29.442  1.00  0.00    -0.014 A 
BRANCH  31  32
ATOM     32  C   UNL A   1      38.268  31.946  29.787  1.00  0.00     0.031 A 
ATOM     33  C   UNL A   1      39.251  32.743  30.605  1.00  0.00     0.074 A 
ATOM     34  C   UNL A   1      38.613  30.736  29.305  1.00  0.00     0.049 A 
ATOM     35  N   UNL A   1      40.489  32.461  30.920  1.00  0.00    -0.248 NA
ATOM     36  C   UNL A   1      38.793  34.053  31.098  1.00  0.00     0.031 C 
ATOM     37  C   UNL A   1      37.775  29.891  28.450  1.00  0.00     0.029 A 
ATOM     38  N   UNL A   1      39.769  30.012  29.454  1.00  0.00    -0.354 N 
ATOM     39  C   UNL A   1      40.959  33.563  31.623  1.00  0.00     0.074 A 
ATOM     40  C   UNL A   1      39.901  34.547  31.626  1.00  0.00     0.031 C 
ATOM     41  C   UNL A   1      38.434  28.752  28.176  1.00  0.00     0.029 A 
ATOM     42  C   UNL A   1      39.752  28.803  28.799  1.00  0.00     0.049 A 
ATOM     43  H   UNL A   1      40.538  30.328  29.981  1.00  0.00     0.167 HD
ATOM     44  C   UNL A   1      42.150  33.728  32.245  1.00  0.00     0.037 A 
ATOM     45  C   UNL A   1      40.697  27.848  28.709  1.00  0.00     0.037 A 
ATOM     46  C   UNL A   1      43.184  32.730  32.275  1.00  0.00     0.049 A 
ATOM     47  C   UNL A   1      42.008  28.048  29.418  1.00  0.00     0.074 A 
ATOM     48  C   UNL A   1      44.406  32.773  32.922  1.00  0.00     0.029 A 
ATOM     49  N   UNL A   1      43.112  31.502  31.633  1.00  0.00    -0.354 N 
ATOM     50  N   UNL A   1      42.414  29.069  30.134  1.00  0.00    -0.248 NA
ATOM     51  C   UNL A   1      42.990  26.960  29.314  1.00  0.00     0.031 C 
ATOM     52  C   UNL A   1      45.089  31.584  32.644  1.00  0.00     0.029 A 
ATOM     53  C   UNL A   1      44.273  30.783  31.860  1.00  0.00     0.049 A 
ATOM     54  H   UNL A   1      42.349  31.189  31.097  1.00  0.00     0.167 HD
ATOM     55  C   UNL A   1      43.683  28.736  30.589  1.00  0.00     0.074 A 
ATOM     56  C   UNL A   1      43.973  27.411  30.081  1.00  0.00     0.031 C 
ATOM     57  C   UNL A   1      44.535  29.460  31.356  1.00  0.00     0.037 A 
BRANCH  44  58
ATOM     58  C   UNL A   1      42.382  35.029  32.956  1.00  0.00     0.057 A 
ATOM     59  C   UNL A   1      43.134  36.062  32.376  1.00  0.00     0.134 A 
ATOM     60  C   UNL A   1      41.836  35.263  34.223  1.00  0.00     0.134 A 
ATOM     61  F   UNL A   1      43.698  35.898  31.170  1.00  0.00    -0.206 F 
ATOM     62  C   UNL A   1      43.361  37.265  33.046  1.00  0.00     0.040 A 
ATOM     63  C   UNL A   1      42.032  36.474  34.890  1.00  0.00     0.040 A 
ATOM     64  F   UNL A   1      41.103  34.321  34.835  1.00  0.00    -0.206 F 
ATOM     65  C   UNL A   1      42.803  37.476  34.304  1.00  0.00     0.006 A 
ENDBRANCH  44  58
BRANCH  45  66
ATOM     66  C   UNL A   1      40.433  26.604  27.940  1.00  0.00     0.057 A 
ATOM     67  C   UNL A   1      40.993  26.408  26.672  1.00  0.00     0.134 A 
ATOM     68  C   UNL A   1      39.607  25.592  28.443  1.00  0.00     0.134 A 
ATOM     69  F   UNL A   1      41.779  27.348  26.127  1.00  0.00    -0.206 F 
ATOM     70  C   UNL A   1      40.721  25.263  25.921  1.00  0.00     0.040 A 
ATOM     71  C   UNL A   1      39.347  24.431  27.715  1.00  0.00     0.040 A 
ATOM     72  F   UNL A   1      39.048  25.715  29.656  1.00  0.00    -0.206 F 
ATOM     73  C   UNL A   1      39.899  24.268  26.445  1.00  0.00     0.006 A 
ENDBRANCH  45  66
BRANCH  57  74
ATOM     74  C   UNL A   1      45.839  28.820  31.724  1.00  0.00     0.057 A 
ATOM     75  C   UNL A   1      46.006  28.119  32.926  1.00  0.00     0.134 A 
ATOM     76  C   UNL A   1      46.929  28.869  30.846  1.00  0.00     0.134 A 
ATOM     77  F   UNL A   1      45.004  28.045  33.815  1.00  0.00    -0.206 F 
ATOM     78  C   UNL A   1      47.218  27.509  33.250  1.00  0.00     0.040 A 
ATOM     79  C   UNL A   1      48.137  28.241  31.147  1.00  0.00     0.040 A 
ATOM     80  F   UNL A   1      46.831  29.517  29.675  1.00  0.00    -0.206 F 
ATOM     81  C   UNL A   1      48.285  27.563  32.356  1.00  0.00     0.006 A 
ENDBRANCH  57  74
ENDBRANCH  31  32
ENDBRANCH  23  26
ENDBRANCH  21  22
ENDBRANCH  20  21
ENDBRANCH  19  20
ENDBRANCH   3  19
TORSDOF 15
ENDMDL
MODEL 2
REMARK VINA RESULT:      -8.8      5.891     11.286
REMARK SMILES CN(C)c1cccc(C(=O)CCCC(=O)NCCCNC(=O)c2ccc(-c3c4nc(c(-c5c(F)cccc5F)c5ccc([nH]5)c(-c5c(F)cccc5F)c5nc(c(-c6c(F)cccc6F)c6ccc3[nH]6)C=C5)C=C4)cc2)c1
REMARK SMILES IDX 14 1 15 2 16 3 13 5 12 6 11 7 9 8 10 9 8 10 4 11 5 12 77 13
REMARK SMILES IDX 6 14 7 15 2 16 1 17 3 18 17 19 18 20 19 21 20 22 21 23 22 25
REMARK SMILES IDX 23 26 24 27 76 28 25 29 75 30 26 31 27 32 28 33 69 34 29 35
REMARK SMILES IDX 74 36 68 37 70 38 30 39 73 40 67 41 66 42 31 44 57 45 40 46
REMARK SMILES IDX 56 47 41 48 44 49 55 50 71 51 42 52 43 53 54 55 72 56 45 57
REMARK SMILES IDX 32 58 33 59 38 60 34 61 35 62 37 63 39 64 36 65 58 66 59 67
REMARK SMILES IDX 64 68 60 69 61 70 63 71 65 72 62 73 46 74 47 75 52 76 48 77
REMARK SMILES IDX 49 78 51 79 53 80 50 81
REMARK H PARENT 16 4 20 24 70 43 44 54
REMARK Flexibility Score: inf
ROOT
ATOM      1  C   UNL A   1      37.223  23.526  25.611  1.00  0.00     0.220 C 
ATOM      2  O   UNL A   1      37.961  24.283  26.255  1.00  0.00    -0.275 OA
ATOM      3  N   UNL A   1      37.782  22.341  25.273  1.00  0.00    -0.356 N 
ATOM      4  H   UNL A   1      38.712  22.258  25.585  1.00  0.00     0.163 HD
ENDROOT
BRANCH   1   5
ATOM      5  C   UNL A   1      35.766  23.935  25.395  1.00  0.00     0.100 C 
BRANCH   5   6
ATOM      6  C   UNL A   1      34.607  23.497  26.289  1.00  0.00     0.018 C 
BRANCH   6   7
ATOM      7  C   UNL A   1      34.162  22.048  26.454  1.00  0.00     0.081 C 
BRANCH   7   8
ATOM      8  C   UNL A   1      32.850  21.512  25.859  1.00  0.00     0.162 C 
ATOM      9  O   UNL A   1      31.814  22.167  26.015  1.00  0.00    -0.294 OA
BRANCH   8  10
ATOM     10  C   UNL A   1      32.769  20.321  24.944  1.00  0.00     0.020 A 
ATOM     11  C   UNL A   1      33.017  17.899  24.482  1.00  0.00     0.037 A 
ATOM     12  C   UNL A   1      32.637  18.155  23.162  1.00  0.00     0.026 A 
ATOM     13  C   UNL A   1      33.032  19.009  25.344  1.00  0.00     0.037 A 
ATOM     14  C   UNL A   1      32.326  19.450  22.730  1.00  0.00     0.003 A 
ATOM     15  C   UNL A   1      32.403  20.528  23.613  1.00  0.00     0.012 A 
BRANCH  11  16
ATOM     16  N   UNL A   1      33.364  16.626  24.922  1.00  0.00    -0.378 N 
ATOM     17  C   UNL A   1      32.465  15.812  25.735  1.00  0.00     0.143 C 
ATOM     18  C   UNL A   1      34.770  16.232  24.914  1.00  0.00     0.143 C 
ENDBRANCH  11  16
ENDBRANCH   8  10
ENDBRANCH   7   8
ENDBRANCH   6   7
ENDBRANCH   5   6
ENDBRANCH   1   5
BRANCH   3  19
ATOM     19  C   UNL A   1      37.326  21.168  24.560  1.00  0.00     0.117 C 
BRANCH  19  20
ATOM     20  C   UNL A   1      38.122  19.929  24.948  1.00  0.00     0.042 C 
BRANCH  20  21
ATOM     21  C   UNL A   1      39.317  20.266  25.818  1.00  0.00     0.118 C 
BRANCH  21  22
ATOM     22  N   UNL A   1      40.273  19.170  25.890  1.00  0.00    -0.352 N 
ATOM     23  C   UNL A   1      41.634  19.214  26.128  1.00  0.00     0.251 C 
ATOM     24  H   UNL A   1      39.896  18.271  25.750  1.00  0.00     0.163 HD
ATOM     25  O   UNL A   1      42.315  18.211  25.997  1.00  0.00    -0.269 OA
BRANCH  23  26
ATOM     26  C   UNL A   1      42.260  20.501  26.508  1.00  0.00     0.039 A 
ATOM     27  C   UNL A   1      42.856  21.288  25.519  1.00  0.00     0.014 A 
ATOM     28  C   UNL A   1      42.223  20.946  27.830  1.00  0.00     0.014 A 
ATOM     29  C   UNL A   1      43.343  22.556  25.848  1.00  0.00     0.010 A 
ATOM     30  C   UNL A   1      42.598  22.249  28.129  1.00  0.00     0.010 A 
ATOM     31  C   UNL A   1      43.177  23.064  27.147  1.00  0.00    -0.014 A 
BRANCH  31  32
ATOM     32  C   UNL A   1      43.631  24.427  27.520  1.00  0.00     0.031 A 
ATOM     33  C   UNL A   1      42.615  25.469  27.910  1.00  0.00     0.074 A 
ATOM     34  C   UNL A   1      44.936  24.754  27.432  1.00  0.00     0.049 A 
ATOM     35  N   UNL A   1      42.786  26.742  28.160  1.00  0.00    -0.248 NA
ATOM     36  C   UNL A   1      41.212  25.029  27.986  1.00  0.00     0.031 C 
ATOM     37  C   UNL A   1      46.011  23.854  27.008  1.00  0.00     0.029 A 
ATOM     38  N   UNL A   1      45.578  25.940  27.683  1.00  0.00    -0.354 N 
ATOM     39  C   UNL A   1      41.517  27.253  28.399  1.00  0.00     0.074 A 
ATOM     40  C   UNL A   1      40.579  26.173  28.193  1.00  0.00     0.031 C 
ATOM     41  C   UNL A   1      47.181  24.512  27.056  1.00  0.00     0.029 A 
ATOM     42  C   UNL A   1      46.936  25.888  27.475  1.00  0.00     0.049 A 
ATOM     43  H   UNL A   1      45.111  26.752  27.986  1.00  0.00     0.167 HD
ATOM     44  C   UNL A   1      41.163  28.499  28.792  1.00  0.00     0.037 A 
ATOM     45  C   UNL A   1      47.874  26.846  27.602  1.00  0.00     0.037 A 
ATOM     46  C   UNL A   1      42.102  29.559  29.036  1.00  0.00     0.049 A 
ATOM     47  C   UNL A   1      47.460  28.219  28.052  1.00  0.00     0.074 A 
ATOM     48  C   UNL A   1      41.857  30.842  29.491  1.00  0.00     0.029 A 
ATOM     49  N   UNL A   1      43.473  29.454  28.852  1.00  0.00    -0.354 N 
ATOM     50  N   UNL A   1      46.261  28.670  28.337  1.00  0.00    -0.248 NA
ATOM     51  C   UNL A   1      48.528  29.216  28.207  1.00  0.00     0.031 C 
ATOM     52  C   UNL A   1      43.075  31.526  29.550  1.00  0.00     0.029 A 
ATOM     53  C   UNL A   1      44.085  30.654  29.174  1.00  0.00     0.049 A 
ATOM     54  H   UNL A   1      43.941  28.647  28.541  1.00  0.00     0.167 HD
ATOM     55  C   UNL A   1      46.435  29.990  28.731  1.00  0.00     0.074 A 
ATOM     56  C   UNL A   1      47.856  30.262  28.664  1.00  0.00     0.031 C 
ATOM     57  C   UNL A   1      45.503  30.898  29.113  1.00  0.00     0.037 A 
BRANCH  44  58
ATOM     58  C   UNL A   1      39.701  28.768  28.999  1.00  0.00     0.057 A 
ATOM     59  C   UNL A   1      39.086  28.578  30.245  1.00  0.00     0.134 A 
ATOM     60  C   UNL A   1      38.902  29.239  27.950  1.00  0.00     0.134 A 
ATOM     61  F   UNL A   1      39.791  28.115  31.287  1.00  0.00    -0.206 F 
ATOM     62  C   UNL A   1      37.723  28.816  30.430  1.00  0.00     0.040 A 
ATOM     63  C   UNL A   1      37.544  29.508  28.132  1.00  0.00     0.040 A 
ATOM     64  F   UNL A   1      39.426  29.447  26.733  1.00  0.00    -0.206 F 
ATOM     65  C   UNL A   1      36.949  29.288  29.373  1.00  0.00     0.006 A 
ENDBRANCH  44  58
BRANCH  45  66
ATOM     66  C   UNL A   1      49.301  26.537  27.326  1.00  0.00     0.057 A 
ATOM     67  C   UNL A   1      49.824  26.640  26.031  1.00  0.00     0.134 A 
ATOM     68  C   UNL A   1      50.170  26.118  28.340  1.00  0.00     0.134 A 
ATOM     69  F   UNL A   1      49.038  27.019  25.013  1.00  0.00    -0.206 F 
ATOM     70  C   UNL A   1      51.152  26.314  25.750  1.00  0.00     0.040 A 
ATOM     71  C   UNL A   1      51.507  25.813  28.077  1.00  0.00     0.040 A 
ATOM     72  F   UNL A   1      49.734  26.007  29.603  1.00  0.00    -0.206 F 
ATOM     73  C   UNL A   1      51.999  25.903  26.776  1.00  0.00     0.006 A 
ENDBRANCH  45  66
BRANCH  57  74
ATOM     74  C   UNL A   1      45.994  32.253  29.524  1.00  0.00     0.057 A 
ATOM     75  C   UNL A   1      46.371  32.534  30.844  1.00  0.00     0.134 A 
ATOM     76  C   UNL A   1      46.132  33.277  28.579  1.00  0.00     0.134 A 
ATOM     77  F   UNL A   1      46.252  31.599  31.799  1.00  0.00    -0.206 F 
ATOM     78  C   UNL A   1      46.847  33.793  31.213  1.00  0.00     0.040 A 
ATOM     79  C   UNL A   1      46.631  34.532  28.930  1.00  0.00     0.040 A 
ATOM     80  F   UNL A   1      45.797  33.070  27.296  1.00  0.00    -0.206 F 
ATOM     81  C   UNL A   1      46.985  34.793  30.253  1.00  0.00     0.006 A 
ENDBRANCH  57  74
ENDBRANCH  31  32
ENDBRANCH  23  26
ENDBRANCH  21  22
ENDBRANCH  20  21
ENDBRANCH  19  20
ENDBRANCH   3  19
TORSDOF 15
ENDMDL
MODEL 3
REMARK VINA RESULT:      -8.5      6.215     12.064
REMARK SMILES CN(C)c1cccc(C(=O)CCCC(=O)NCCCNC(=O)c2ccc(-c3c4nc(c(-c5c(F)cccc5F)c5ccc([nH]5)c(-c5c(F)cccc5F)c5nc(c(-c6c(F)cccc6F)c6ccc3[nH]6)C=C5)C=C4)cc2)c1
REMARK SMILES IDX 14 1 15 2 16 3 13 5 12 6 11 7 9 8 10 9 8 10 4 11 5 12 77 13
REMARK SMILES IDX 6 14 7 15 2 16 1 17 3 18 17 19 18 20 19 21 20 22 21 23 22 25
REMARK SMILES IDX 23 26 24 27 76 28 25 29 75 30 26 31 27 32 28 33 69 34 29 35
REMARK SMILES IDX 74 36 68 37 70 38 30 39 73 40 67 41 66 42 31 44 57 45 40 46
REMARK SMILES IDX 56 47 41 48 44 49 55 50 71 51 42 52 43 53 54 55 72 56 45 57
REMARK SMILES IDX 32 58 33 59 38 60 34 61 35 62 37 63 39 64 36 65 58 66 59 67
REMARK SMILES IDX 64 68 60 69 61 70 63 71 65 72 62 73 46 74 47 75 52 76 48 77
REMARK SMILES IDX 49 78 51 79 53 80 50 81
REMARK H PARENT 16 4 20 24 70 43 44 54
REMARK Flexibility Score: inf
ROOT
ATOM      1  C   UNL A   1      40.435  21.957  27.249  1.00  0.00     0.220 C 
ATOM      2  O   UNL A   1      40.555  23.073  27.771  1.00  0.00    -0.275 OA
ATOM      3  N   UNL A   1      41.152  20.974  27.840  1.00  0.00    -0.356 N 
ATOM      4  H   UNL A   1      41.681  21.298  28.605  1.00  0.00     0.163 HD
ENDROOT
BRANCH   1   5
ATOM      5  C   UNL A   1      39.417  21.784  26.121  1.00  0.00     0.100 C 
BRANCH   5   6
ATOM      6  C   UNL A   1      38.083  22.525  26.043  1.00  0.00     0.018 C 
BRANCH   6   7
ATOM      7  C   UNL A   1      37.148  22.467  24.840  1.00  0.00     0.081 C 
BRANCH   7   8
ATOM      8  C   UNL A   1      35.644  22.766  24.946  1.00  0.00     0.162 C 
ATOM      9  O   UNL A   1      35.285  23.915  25.226  1.00  0.00    -0.294 OA
BRANCH   8  10
ATOM     10  C   UNL A   1      34.565  21.792  24.560  1.00  0.00     0.020 A 
ATOM     11  C   UNL A   1      33.590  19.514  24.519  1.00  0.00     0.037 A 
ATOM     12  C   UNL A   1      32.533  20.027  23.763  1.00  0.00     0.026 A 
ATOM     13  C   UNL A   1      34.563  20.444  24.924  1.00  0.00     0.037 A 
ATOM     14  C   UNL A   1      32.477  21.381  23.409  1.00  0.00     0.003 A 
ATOM     15  C   UNL A   1      33.492  22.255  23.796  1.00  0.00     0.012 A 
BRANCH  11  16
ATOM     16  N   UNL A   1      33.683  18.166  24.849  1.00  0.00    -0.378 N 
ATOM     17  C   UNL A   1      34.730  17.304  24.307  1.00  0.00     0.143 C 
ATOM     18  C   UNL A   1      32.522  17.495  25.426  1.00  0.00     0.143 C 
ENDBRANCH  11  16
ENDBRANCH   8  10
ENDBRANCH   7   8
ENDBRANCH   6   7
ENDBRANCH   5   6
ENDBRANCH   1   5
BRANCH   3  19
ATOM     19  C   UNL A   1      41.318  19.555  27.609  1.00  0.00     0.117 C 
BRANCH  19  20
ATOM     20  C   UNL A   1      42.641  19.247  26.923  1.00  0.00     0.042 C 
BRANCH  20  21
ATOM     21  C   UNL A   1      42.590  19.519  25.433  1.00  0.00     0.118 C 
BRANCH  21  22
ATOM     22  N   UNL A   1      43.715  18.926  24.725  1.00  0.00    -0.352 N 
ATOM     23  C   UNL A   1      44.877  19.526  24.275  1.00  0.00     0.251 C 
ATOM     24  H   UNL A   1      43.639  17.962  24.542  1.00  0.00     0.163 HD
ATOM     25  O   UNL A   1      45.648  18.913  23.557  1.00  0.00    -0.269 OA
BRANCH  23  26
ATOM     26  C   UNL A   1      45.152  20.934  24.643  1.00  0.00     0.039 A 
ATOM     27  C   UNL A   1      44.854  21.949  23.730  1.00  0.00     0.014 A 
ATOM     28  C   UNL A   1      45.668  21.251  25.900  1.00  0.00     0.014 A 
ATOM     29  C   UNL A   1      44.999  23.285  24.114  1.00  0.00     0.010 A 
ATOM     30  C   UNL A   1      45.698  22.574  26.318  1.00  0.00     0.010 A 
ATOM     31  C   UNL A   1      45.380  23.608  25.426  1.00  0.00    -0.014 A 
BRANCH  31  32
ATOM     32  C   UNL A   1      45.492  25.015  25.887  1.00  0.00     0.031 A 
ATOM     33  C   UNL A   1      46.831  25.705  25.852  1.00  0.00     0.074 A 
ATOM     34  C   UNL A   1      44.420  25.644  26.408  1.00  0.00     0.049 A 
ATOM     35  N   UNL A   1      47.169  26.884  26.309  1.00  0.00    -0.248 NA
ATOM     36  C   UNL A   1      47.949  24.950  25.261  1.00  0.00     0.031 C 
ATOM     37  C   UNL A   1      43.083  25.064  26.555  1.00  0.00     0.029 A 
ATOM     38  N   UNL A   1      44.290  26.908  26.924  1.00  0.00    -0.354 N 
ATOM     39  C   UNL A   1      48.535  26.998  26.081  1.00  0.00     0.074 A 
ATOM     40  C   UNL A   1      48.977  25.744  25.515  1.00  0.00     0.031 C 
ATOM     41  C   UNL A   1      42.263  25.981  27.097  1.00  0.00     0.029 A 
ATOM     42  C   UNL A   1      43.023  27.195  27.371  1.00  0.00     0.049 A 
ATOM     43  H   UNL A   1      45.035  27.551  26.969  1.00  0.00     0.167 HD
ATOM     44  C   UNL A   1      49.344  28.063  26.290  1.00  0.00     0.037 A 
ATOM     45  C   UNL A   1      42.533  28.312  27.944  1.00  0.00     0.037 A 
ATOM     46  C   UNL A   1      48.892  29.322  26.815  1.00  0.00     0.049 A 
ATOM     47  C   UNL A   1      43.447  29.487  28.154  1.00  0.00     0.074 A 
ATOM     48  C   UNL A   1      49.616  30.484  27.014  1.00  0.00     0.029 A 
ATOM     49  N   UNL A   1      47.591  29.586  27.218  1.00  0.00    -0.354 N 
ATOM     50  N   UNL A   1      44.723  29.602  27.875  1.00  0.00    -0.248 NA
ATOM     51  C   UNL A   1      42.852  30.690  28.751  1.00  0.00     0.031 C 
ATOM     52  C   UNL A   1      48.761  31.442  27.570  1.00  0.00     0.029 A 
ATOM     53  C   UNL A   1      47.494  30.889  27.676  1.00  0.00     0.049 A 
ATOM     54  H   UNL A   1      46.848  28.942  27.184  1.00  0.00     0.167 HD
ATOM     55  C   UNL A   1      45.077  30.897  28.235  1.00  0.00     0.074 A 
ATOM     56  C   UNL A   1      43.876  31.532  28.737  1.00  0.00     0.031 C 
ATOM     57  C   UNL A   1      46.286  31.505  28.158  1.00  0.00     0.037 A 
BRANCH  44  58
ATOM     58  C   UNL A   1      50.793  27.910  25.929  1.00  0.00     0.057 A 
ATOM     59  C   UNL A   1      51.765  27.617  26.896  1.00  0.00     0.134 A 
ATOM     60  C   UNL A   1      51.220  28.038  24.603  1.00  0.00     0.134 A 
ATOM     61  F   UNL A   1      51.426  27.496  28.188  1.00  0.00    -0.206 F 
ATOM     62  C   UNL A   1      53.114  27.489  26.560  1.00  0.00     0.040 A 
ATOM     63  C   UNL A   1      52.563  27.883  24.251  1.00  0.00     0.040 A 
ATOM     64  F   UNL A   1      50.343  28.313  23.627  1.00  0.00    -0.206 F 
ATOM     65  C   UNL A   1      53.515  27.616  25.233  1.00  0.00     0.006 A 
ENDBRANCH  44  58
BRANCH  45  66
ATOM     66  C   UNL A   1      41.101  28.385  28.336  1.00  0.00     0.057 A 
ATOM     67  C   UNL A   1      40.675  27.947  29.595  1.00  0.00     0.134 A 
ATOM     68  C   UNL A   1      40.126  28.878  27.461  1.00  0.00     0.134 A 
ATOM     69  F   UNL A   1      41.559  27.448  30.472  1.00  0.00    -0.206 F 
ATOM     70  C   UNL A   1      39.328  27.972  29.962  1.00  0.00     0.040 A 
ATOM     71  C   UNL A   1      38.779  28.933  27.824  1.00  0.00     0.040 A 
ATOM     72  F   UNL A   1      40.470  29.322  26.243  1.00  0.00    -0.206 F 
ATOM     73  C   UNL A   1      38.376  28.471  29.076  1.00  0.00     0.006 A 
ENDBRANCH  45  66
BRANCH  57  74
ATOM     74  C   UNL A   1      46.360  32.939  28.591  1.00  0.00     0.057 A 
ATOM     75  C   UNL A   1      46.136  33.993  27.696  1.00  0.00     0.134 A 
ATOM     76  C   UNL A   1      46.616  33.266  29.928  1.00  0.00     0.134 A 
ATOM     77  F   UNL A   1      45.896  33.746  26.399  1.00  0.00    -0.206 F 
ATOM     78  C   UNL A   1      46.186  35.324  28.112  1.00  0.00     0.040 A 
ATOM     79  C   UNL A   1      46.644  34.592  30.362  1.00  0.00     0.040 A 
ATOM     80  F   UNL A   1      46.830  32.303  30.836  1.00  0.00    -0.206 F 
ATOM     81  C   UNL A   1      46.433  35.626  29.450  1.00  0.00     0.006 A 
ENDBRANCH  57  74
ENDBRANCH  31  32
ENDBRANCH  23  26
ENDBRANCH  21  22
ENDBRANCH  20  21
ENDBRANCH  19  20
ENDBRANCH   3  19
TORSDOF 15
ENDMDL
