MODEL 1
REMARK VINA RESULT:     -11.7      0.000      0.000
REMARK SMILES CC(C)(C)c1csc(C[C@H](C(=O)NCCCNC(=O)c2ccc(-c3c4nc(c(-c5c(F)cccc5F)c5ccc([nH]5)c(-c5c(F)cccc5F)c5nc(c(-c6c(F)cccc6F)c6ccc3[nH]6)C=C5)C=C4)cc2)c2ccccc2Cl)n1
REMARK SMILES IDX 14 1 13 2 11 3 12 4 10 6 9 7 8 8 5 9 6 10 81 11 7 12 2 13
REMARK SMILES IDX 1 14 3 15 4 16 74 17 75 18 79 19 76 20 78 21 80 22 77 23
REMARK SMILES IDX 15 24 16 25 17 26 18 27 19 29 20 30 21 31 73 32 22 33 72 34
REMARK SMILES IDX 23 35 24 36 25 37 66 38 26 39 71 40 65 41 67 42 27 43 70 44
REMARK SMILES IDX 64 45 63 46 28 48 54 49 37 50 53 51 38 52 41 53 52 54 68 55
REMARK SMILES IDX 39 56 40 57 51 59 69 60 42 61 29 62 30 63 35 64 31 65 32 66
REMARK SMILES IDX 34 67 36 68 33 69 55 70 56 71 61 72 57 73 58 74 60 75 62 76
REMARK SMILES IDX 59 77 43 78 44 79 49 80 45 81 46 82 48 83 50 84 47 85
REMARK H PARENT 13 5 17 28 67 47 41 58
REMARK Flexibility Score: inf
ROOT
ATOM      1  C   UNL A   1      32.598  26.863  26.488  1.00  0.00     0.117 C 
ENDROOT
BRANCH   1   2
ATOM      2  N   UNL A   1      31.346  26.157  26.698  1.00  0.00    -0.355 N 
ATOM      3  C   UNL A   1      30.319  25.904  25.830  1.00  0.00     0.228 C 
ATOM      4  O   UNL A   1      29.310  25.370  26.294  1.00  0.00    -0.274 OA
ATOM      5  H   UNL A   1      31.216  25.804  27.608  1.00  0.00     0.163 HD
BRANCH   3   6
ATOM      6  C   UNL A   1      30.499  26.231  24.342  1.00  0.00     0.117 C 
BRANCH   6   7
ATOM      7  C   UNL A   1      30.329  24.876  23.597  1.00  0.00     0.086 C 
BRANCH   7   8
ATOM      8  C   UNL A   1      31.572  24.038  23.451  1.00  0.00     0.094 A 
ATOM      9  C   UNL A   1      33.073  22.489  24.001  1.00  0.00     0.057 A 
ATOM     10  C   UNL A   1      33.800  23.199  23.063  1.00  0.00     0.091 A 
ATOM     11  N   UNL A   1      31.780  22.960  24.178  1.00  0.00    -0.246 NA
ATOM     12  S   UNL A   1      32.827  24.409  22.347  1.00  0.00    -0.127 S 
BRANCH   9  13
ATOM     13  C   UNL A   1      33.548  21.335  24.868  1.00  0.00     0.005 C 
ATOM     14  C   UNL A   1      32.925  20.002  24.415  1.00  0.00     0.017 C 
ATOM     15  C   UNL A   1      33.158  21.564  26.343  1.00  0.00     0.017 C 
ATOM     16  C   UNL A   1      35.083  21.228  24.782  1.00  0.00     0.017 C 
ENDBRANCH   9  13
ENDBRANCH   7   8
ENDBRANCH   6   7
BRANCH   6  17
ATOM     17  C   UNL A   1      29.719  27.457  23.842  1.00  0.00    -0.016 A 
ATOM     18  C   UNL A   1      28.343  27.365  23.547  1.00  0.00     0.006 A 
ATOM     19  C   UNL A   1      30.333  28.695  23.563  1.00  0.00     0.045 A 
ATOM     20  C   UNL A   1      27.588  28.475  23.159  1.00  0.00     0.000 A 
ATOM     21  C   UNL A   1      29.574  29.811  23.178  1.00  0.00     0.021 A 
ATOM     22  Cl  UNL A   1      32.052  28.911  23.553  1.00  0.00    -0.084 Cl
ATOM     23  C   UNL A   1      28.198  29.709  23.002  1.00  0.00     0.002 A 
ENDBRANCH   6  17
ENDBRANCH   3   6
ENDBRANCH   1   2
BRANCH   1  24
ATOM     24  C   UNL A   1      32.583  28.238  27.146  1.00  0.00     0.042 C 
BRANCH  24  25
ATOM     25  C   UNL A   1      33.884  29.020  26.971  1.00  0.00     0.118 C 
BRANCH  25  26
ATOM     26  N   UNL A   1      33.869  30.298  27.670  1.00  0.00    -0.352 N 
ATOM     27  C   UNL A   1      34.803  30.867  28.500  1.00  0.00     0.251 C 
ATOM     28  H   UNL A   1      33.062  30.842  27.524  1.00  0.00     0.163 HD
ATOM     29  O   UNL A   1      34.515  31.880  29.134  1.00  0.00    -0.269 OA
BRANCH  27  30
ATOM     30  C   UNL A   1      36.139  30.257  28.658  1.00  0.00     0.039 A 
ATOM     31  C   UNL A   1      37.032  30.301  27.583  1.00  0.00     0.014 A 
ATOM     32  C   UNL A   1      36.513  29.634  29.850  1.00  0.00     0.014 A 
ATOM     33  C   UNL A   1      38.323  29.792  27.731  1.00  0.00     0.010 A 
ATOM     34  C   UNL A   1      37.824  29.198  30.024  1.00  0.00     0.010 A 
ATOM     35  C   UNL A   1      38.745  29.278  28.968  1.00  0.00    -0.014 A 
BRANCH  35  36
ATOM     36  C   UNL A   1      40.151  28.852  29.186  1.00  0.00     0.031 A 
ATOM     37  C   UNL A   1      41.143  29.785  29.821  1.00  0.00     0.074 A 
ATOM     38  C   UNL A   1      40.551  27.645  28.741  1.00  0.00     0.049 A 
ATOM     39  N   UNL A   1      42.424  29.610  30.033  1.00  0.00    -0.248 NA
ATOM     40  C   UNL A   1      40.637  31.097  30.251  1.00  0.00     0.031 C 
ATOM     41  C   UNL A   1      39.694  26.662  28.074  1.00  0.00     0.029 A 
ATOM     42  N   UNL A   1      41.783  27.040  28.776  1.00  0.00    -0.354 N 
ATOM     43  C   UNL A   1      42.878  30.793  30.601  1.00  0.00     0.074 A 
ATOM     44  C   UNL A   1      41.747  31.694  30.658  1.00  0.00     0.031 C 
ATOM     45  C   UNL A   1      40.418  25.567  27.794  1.00  0.00     0.029 A 
ATOM     46  C   UNL A   1      41.798  25.787  28.213  1.00  0.00     0.049 A 
ATOM     47  H   UNL A   1      42.581  27.465  29.165  1.00  0.00     0.167 HD
ATOM     48  C   UNL A   1      44.121  31.094  31.050  1.00  0.00     0.037 A 
ATOM     49  C   UNL A   1      42.811  24.916  28.047  1.00  0.00     0.037 A 
ATOM     50  C   UNL A   1      45.239  30.188  31.006  1.00  0.00     0.049 A 
ATOM     51  C   UNL A   1      44.187  25.288  28.522  1.00  0.00     0.074 A 
ATOM     52  C   UNL A   1      46.517  30.371  31.505  1.00  0.00     0.029 A 
ATOM     53  N   UNL A   1      45.217  28.932  30.415  1.00  0.00    -0.354 N 
ATOM     54  N   UNL A   1      44.585  26.378  29.133  1.00  0.00    -0.248 NA
ATOM     55  C   UNL A   1      45.257  24.310  28.281  1.00  0.00     0.031 C 
ATOM     56  C   UNL A   1      47.286  29.256  31.159  1.00  0.00     0.029 A 
ATOM     57  C   UNL A   1      46.472  28.348  30.501  1.00  0.00     0.049 A 
ATOM     58  H   UNL A   1      44.428  28.518  29.998  1.00  0.00     0.167 HD
ATOM     59  C   UNL A   1      45.941  26.203  29.379  1.00  0.00     0.074 A 
ATOM     60  C   UNL A   1      46.293  24.897  28.860  1.00  0.00     0.031 C 
ATOM     61  C   UNL A   1      46.813  27.047  29.983  1.00  0.00     0.037 A 
BRANCH  48  62
ATOM     62  C   UNL A   1      44.340  32.471  31.612  1.00  0.00     0.057 A 
ATOM     63  C   UNL A   1      44.167  32.757  32.974  1.00  0.00     0.134 A 
ATOM     64  C   UNL A   1      44.756  33.520  30.782  1.00  0.00     0.134 A 
ATOM     65  F   UNL A   1      43.762  31.802  33.824  1.00  0.00    -0.206 F 
ATOM     66  C   UNL A   1      44.365  34.043  33.481  1.00  0.00     0.040 A 
ATOM     67  C   UNL A   1      44.988  34.803  31.284  1.00  0.00     0.040 A 
ATOM     68  F   UNL A   1      44.951  33.317  29.471  1.00  0.00    -0.206 F 
ATOM     69  C   UNL A   1      44.783  35.069  32.636  1.00  0.00     0.006 A 
ENDBRANCH  48  62
BRANCH  49  70
ATOM     70  C   UNL A   1      42.557  23.590  27.426  1.00  0.00     0.057 A 
ATOM     71  C   UNL A   1      42.221  22.483  28.213  1.00  0.00     0.134 A 
ATOM     72  C   UNL A   1      42.646  23.395  26.043  1.00  0.00     0.134 A 
ATOM     73  F   UNL A   1      42.139  22.604  29.546  1.00  0.00    -0.206 F 
ATOM     74  C   UNL A   1      41.999  21.226  27.651  1.00  0.00     0.040 A 
ATOM     75  C   UNL A   1      42.400  22.149  25.464  1.00  0.00     0.040 A 
ATOM     76  F   UNL A   1      42.957  24.416  25.232  1.00  0.00    -0.206 F 
ATOM     77  C   UNL A   1      42.082  21.058  26.271  1.00  0.00     0.006 A 
ENDBRANCH  49  70
BRANCH  61  78
ATOM     78  C   UNL A   1      48.228  26.573  30.150  1.00  0.00     0.057 A 
ATOM     79  C   UNL A   1      48.638  25.831  31.264  1.00  0.00     0.134 A 
ATOM     80  C   UNL A   1      49.186  26.829  29.158  1.00  0.00     0.134 A 
ATOM     81  F   UNL A   1      47.776  25.562  32.257  1.00  0.00    -0.206 F 
ATOM     82  C   UNL A   1      49.953  25.379  31.398  1.00  0.00     0.040 A 
ATOM     83  C   UNL A   1      50.494  26.357  29.266  1.00  0.00     0.040 A 
ATOM     84  F   UNL A   1      48.860  27.527  28.060  1.00  0.00    -0.206 F 
ATOM     85  C   UNL A   1      50.883  25.635  30.392  1.00  0.00     0.006 A 
ENDBRANCH  61  78
ENDBRANCH  35  36
ENDBRANCH  27  30
ENDBRANCH  25  26
ENDBRANCH  24  25
ENDBRANCH   1  24
TORSDOF 14
ENDMDL
MODEL 2
REMARK VINA RESULT:     -11.7      3.347      7.448
REMARK SMILES CC(C)(C)c1csc(C[C@H](C(=O)NCCCNC(=O)c2ccc(-c3c4nc(c(-c5c(F)cccc5F)c5ccc([nH]5)c(-c5c(F)cccc5F)c5nc(c(-c6c(F)cccc6F)c6ccc3[nH]6)C=C5)C=C4)cc2)c2ccccc2Cl)n1
REMARK SMILES IDX 14 1 13 2 11 3 12 4 10 6 9 7 8 8 5 9 6 10 81 11 7 12 2 13
REMARK SMILES IDX 1 14 3 15 4 16 74 17 75 18 79 19 76 20 78 21 80 22 77 23
REMARK SMILES IDX 15 24 16 25 17 26 18 27 19 29 20 30 21 31 73 32 22 33 72 34
REMARK SMILES IDX 23 35 24 36 25 37 66 38 26 39 71 40 65 41 67 42 27 43 70 44
REMARK SMILES IDX 64 45 63 46 28 48 54 49 37 50 53 51 38 52 41 53 52 54 68 55
REMARK SMILES IDX 39 56 40 57 51 59 69 60 42 61 29 62 30 63 35 64 31 65 32 66
REMARK SMILES IDX 34 67 36 68 33 69 55 70 56 71 61 72 57 73 58 74 60 75 62 76
REMARK SMILES IDX 59 77 43 78 44 79 49 80 45 81 46 82 48 83 50 84 47 85
REMARK H PARENT 13 5 17 28 67 47 41 58
REMARK Flexibility Score: inf
ROOT
ATOM      1  C   UNL A   1      37.403  21.227  24.311  1.00  0.00     0.117 C 
ENDROOT
BRANCH   1   2
ATOM      2  N   UNL A   1      37.579  22.400  25.151  1.00  0.00    -0.355 N 
ATOM      3  C   UNL A   1      36.699  23.398  25.468  1.00  0.00     0.228 C 
ATOM      4  O   UNL A   1      37.137  24.345  26.123  1.00  0.00    -0.274 OA
ATOM      5  H   UNL A   1      38.472  22.490  25.556  1.00  0.00     0.163 HD
BRANCH   3   6
ATOM      6  C   UNL A   1      35.228  23.258  25.057  1.00  0.00     0.117 C 
BRANCH   6   7
ATOM      7  C   UNL A   1      34.601  22.279  26.092  1.00  0.00     0.086 C 
BRANCH   7   8
ATOM      8  C   UNL A   1      33.743  21.177  25.528  1.00  0.00     0.094 A 
ATOM      9  C   UNL A   1      33.275  19.152  24.731  1.00  0.00     0.057 A 
ATOM     10  C   UNL A   1      32.153  19.839  24.303  1.00  0.00     0.091 A 
ATOM     11  N   UNL A   1      34.156  19.928  25.470  1.00  0.00    -0.246 NA
ATOM     12  S   UNL A   1      32.171  21.440  24.903  1.00  0.00    -0.127 S 
BRANCH   9  13
ATOM     13  C   UNL A   1      33.655  17.712  24.429  1.00  0.00     0.005 C 
ATOM     14  C   UNL A   1      33.287  17.328  22.984  1.00  0.00     0.017 C 
ATOM     15  C   UNL A   1      32.922  16.743  25.380  1.00  0.00     0.017 C 
ATOM     16  C   UNL A   1      35.173  17.531  24.626  1.00  0.00     0.017 C 
ENDBRANCH   9  13
ENDBRANCH   7   8
ENDBRANCH   6   7
BRANCH   6  17
ATOM     17  C   UNL A   1      34.504  24.578  24.751  1.00  0.00    -0.016 A 
ATOM     18  C   UNL A   1      34.338  25.559  25.751  1.00  0.00     0.006 A 
ATOM     19  C   UNL A   1      33.892  24.847  23.509  1.00  0.00     0.045 A 
ATOM     20  C   UNL A   1      33.750  26.799  25.489  1.00  0.00     0.000 A 
ATOM     21  C   UNL A   1      33.305  26.094  23.244  1.00  0.00     0.021 A 
ATOM     22  Cl  UNL A   1      33.708  23.648  22.272  1.00  0.00    -0.084 Cl
ATOM     23  C   UNL A   1      33.257  27.079  24.225  1.00  0.00     0.002 A 
ENDBRANCH   6  17
ENDBRANCH   3   6
ENDBRANCH   1   2
BRANCH   1  24
ATOM     24  C   UNL A   1      37.976  19.976  24.967  1.00  0.00     0.042 C 
BRANCH  24  25
ATOM     25  C   UNL A   1      39.099  20.261  25.962  1.00  0.00     0.118 C 
BRANCH  25  26
ATOM     26  N   UNL A   1      40.101  19.203  25.995  1.00  0.00    -0.352 N 
ATOM     27  C   UNL A   1      41.466  19.277  26.115  1.00  0.00     0.251 C 
ATOM     28  H   UNL A   1      39.742  18.289  25.920  1.00  0.00     0.163 HD
ATOM     29  O   UNL A   1      42.147  18.268  25.940  1.00  0.00    -0.269 OA
BRANCH  27  30
ATOM     30  C   UNL A   1      42.125  20.562  26.428  1.00  0.00     0.039 A 
ATOM     31  C   UNL A   1      42.610  21.344  25.376  1.00  0.00     0.014 A 
ATOM     32  C   UNL A   1      42.279  20.993  27.748  1.00  0.00     0.014 A 
ATOM     33  C   UNL A   1      43.176  22.593  25.643  1.00  0.00     0.010 A 
ATOM     34  C   UNL A   1      42.770  22.269  28.008  1.00  0.00     0.010 A 
ATOM     35  C   UNL A   1      43.217  23.086  26.957  1.00  0.00    -0.014 A 
BRANCH  35  36
ATOM     36  C   UNL A   1      43.694  24.462  27.249  1.00  0.00     0.031 A 
ATOM     37  C   UNL A   1      42.725  25.536  27.659  1.00  0.00     0.074 A 
ATOM     38  C   UNL A   1      44.995  24.762  27.069  1.00  0.00     0.049 A 
ATOM     39  N   UNL A   1      42.949  26.805  27.892  1.00  0.00    -0.248 NA
ATOM     40  C   UNL A   1      41.317  25.137  27.802  1.00  0.00     0.031 C 
ATOM     41  C   UNL A   1      46.029  23.819  26.637  1.00  0.00     0.029 A 
ATOM     42  N   UNL A   1      45.671  25.947  27.222  1.00  0.00    -0.354 N 
ATOM     43  C   UNL A   1      41.710  27.358  28.189  1.00  0.00     0.074 A 
ATOM     44  C   UNL A   1      40.733  26.298  28.061  1.00  0.00     0.031 C 
ATOM     45  C   UNL A   1      47.210  24.453  26.592  1.00  0.00     0.029 A 
ATOM     46  C   UNL A   1      47.013  25.856  26.942  1.00  0.00     0.049 A 
ATOM     47  H   UNL A   1      45.235  26.783  27.504  1.00  0.00     0.167 HD
ATOM     48  C   UNL A   1      41.416  28.631  28.552  1.00  0.00     0.037 A 
ATOM     49  C   UNL A   1      47.974  26.798  26.957  1.00  0.00     0.037 A 
ATOM     50  C   UNL A   1      42.394  29.678  28.693  1.00  0.00     0.049 A 
ATOM     51  C   UNL A   1      47.615  28.209  27.329  1.00  0.00     0.074 A 
ATOM     52  C   UNL A   1      42.207  30.978  29.130  1.00  0.00     0.029 A 
ATOM     53  N   UNL A   1      43.741  29.550  28.386  1.00  0.00    -0.354 N 
ATOM     54  N   UNL A   1      46.454  28.701  27.688  1.00  0.00    -0.248 NA
ATOM     55  C   UNL A   1      48.702  29.199  27.294  1.00  0.00     0.031 C 
ATOM     56  C   UNL A   1      43.426  31.655  29.024  1.00  0.00     0.029 A 
ATOM     57  C   UNL A   1      44.388  30.761  28.584  1.00  0.00     0.049 A 
ATOM     58  H   UNL A   1      44.174  28.722  28.075  1.00  0.00     0.167 HD
ATOM     59  C   UNL A   1      46.677  30.046  27.954  1.00  0.00     0.074 A 
ATOM     60  C   UNL A   1      48.086  30.289  27.724  1.00  0.00     0.031 C 
ATOM     61  C   UNL A   1      45.792  30.993  28.354  1.00  0.00     0.037 A 
BRANCH  48  62
ATOM     62  C   UNL A   1      39.972  28.964  28.803  1.00  0.00     0.057 A 
ATOM     63  C   UNL A   1      39.096  29.314  27.765  1.00  0.00     0.134 A 
ATOM     64  C   UNL A   1      39.444  28.907  30.099  1.00  0.00     0.134 A 
ATOM     65  F   UNL A   1      39.537  29.397  26.501  1.00  0.00    -0.206 F 
ATOM     66  C   UNL A   1      37.759  29.631  28.014  1.00  0.00     0.040 A 
ATOM     67  C   UNL A   1      38.100  29.190  30.355  1.00  0.00     0.040 A 
ATOM     68  F   UNL A   1      40.221  28.569  31.138  1.00  0.00    -0.206 F 
ATOM     69  C   UNL A   1      37.257  29.563  29.311  1.00  0.00     0.006 A 
ENDBRANCH  48  62
BRANCH  49  70
ATOM     70  C   UNL A   1      49.378  26.433  26.638  1.00  0.00     0.057 A 
ATOM     71  C   UNL A   1      49.855  26.500  25.324  1.00  0.00     0.134 A 
ATOM     72  C   UNL A   1      50.272  26.007  27.627  1.00  0.00     0.134 A 
ATOM     73  F   UNL A   1      49.040  26.883  24.330  1.00  0.00    -0.206 F 
ATOM     74  C   UNL A   1      51.164  26.143  25.001  1.00  0.00     0.040 A 
ATOM     75  C   UNL A   1      51.593  25.672  27.322  1.00  0.00     0.040 A 
ATOM     76  F   UNL A   1      49.881  25.927  28.907  1.00  0.00    -0.206 F 
ATOM     77  C   UNL A   1      52.039  25.732  26.004  1.00  0.00     0.006 A 
ENDBRANCH  49  70
BRANCH  61  78
ATOM     78  C   UNL A   1      46.327  32.373  28.606  1.00  0.00     0.057 A 
ATOM     79  C   UNL A   1      46.344  33.357  27.610  1.00  0.00     0.134 A 
ATOM     80  C   UNL A   1      46.796  32.734  29.878  1.00  0.00     0.134 A 
ATOM     81  F   UNL A   1      45.923  33.075  26.368  1.00  0.00    -0.206 F 
ATOM     82  C   UNL A   1      46.828  34.643  27.862  1.00  0.00     0.040 A 
ATOM     83  C   UNL A   1      47.252  34.024  30.150  1.00  0.00     0.040 A 
ATOM     84  F   UNL A   1      46.800  31.843  30.880  1.00  0.00    -0.206 F 
ATOM     85  C   UNL A   1      47.275  34.981  29.138  1.00  0.00     0.006 A 
ENDBRANCH  61  78
ENDBRANCH  35  36
ENDBRANCH  27  30
ENDBRANCH  25  26
ENDBRANCH  24  25
ENDBRANCH   1  24
TORSDOF 14
ENDMDL
MODEL 3
REMARK VINA RESULT:     -11.6      3.142      6.884
REMARK SMILES CC(C)(C)c1csc(C[C@H](C(=O)NCCCNC(=O)c2ccc(-c3c4nc(c(-c5c(F)cccc5F)c5ccc([nH]5)c(-c5c(F)cccc5F)c5nc(c(-c6c(F)cccc6F)c6ccc3[nH]6)C=C5)C=C4)cc2)c2ccccc2Cl)n1
REMARK SMILES IDX 14 1 13 2 11 3 12 4 10 6 9 7 8 8 5 9 6 10 81 11 7 12 2 13
REMARK SMILES IDX 1 14 3 15 4 16 74 17 75 18 79 19 76 20 78 21 80 22 77 23
REMARK SMILES IDX 15 24 16 25 17 26 18 27 19 29 20 30 21 31 73 32 22 33 72 34
REMARK SMILES IDX 23 35 24 36 25 37 66 38 26 39 71 40 65 41 67 42 27 43 70 44
REMARK SMILES IDX 64 45 63 46 28 48 54 49 37 50 53 51 38 52 41 53 52 54 68 55
REMARK SMILES IDX 39 56 40 57 51 59 69 60 42 61 29 62 30 63 35 64 31 65 32 66
REMARK SMILES IDX 34 67 36 68 33 69 55 70 56 71 61 72 57 73 58 74 60 75 62 76
REMARK SMILES IDX 59 77 43 78 44 79 49 80 45 81 46 82 48 83 50 84 47 85
REMARK H PARENT 13 5 17 28 67 47 41 58
REMARK Flexibility Score: inf
ROOT
ATOM      1  C   UNL A   1      32.278  27.724  26.621  1.00  0.00     0.117 C 
ENDROOT
BRANCH   1   2
ATOM      2  N   UNL A   1      31.308  26.673  26.877  1.00  0.00    -0.355 N 
ATOM      3  C   UNL A   1      30.579  25.913  26.003  1.00  0.00     0.228 C 
ATOM      4  O   UNL A   1      29.736  25.155  26.486  1.00  0.00    -0.274 OA
ATOM      5  H   UNL A   1      31.150  26.477  27.828  1.00  0.00     0.163 HD
BRANCH   3   6
ATOM      6  C   UNL A   1      30.888  25.994  24.503  1.00  0.00     0.117 C 
BRANCH   6   7
ATOM      7  C   UNL A   1      30.722  24.542  23.967  1.00  0.00     0.086 C 
BRANCH   7   8
ATOM      8  C   UNL A   1      31.984  23.731  23.845  1.00  0.00     0.094 A 
ATOM      9  C   UNL A   1      33.525  22.239  24.444  1.00  0.00     0.057 A 
ATOM     10  C   UNL A   1      34.231  22.933  23.479  1.00  0.00     0.091 A 
ATOM     11  N   UNL A   1      32.221  22.685  24.610  1.00  0.00    -0.246 NA
ATOM     12  S   UNL A   1      33.227  24.092  22.723  1.00  0.00    -0.127 S 
BRANCH   9  13
ATOM     13  C   UNL A   1      34.031  21.130  25.351  1.00  0.00     0.005 C 
ATOM     14  C   UNL A   1      35.502  20.789  25.048  1.00  0.00     0.017 C 
ATOM     15  C   UNL A   1      33.198  19.845  25.159  1.00  0.00     0.017 C 
ATOM     16  C   UNL A   1      33.909  21.573  26.821  1.00  0.00     0.017 C 
ENDBRANCH   9  13
ENDBRANCH   7   8
ENDBRANCH   6   7
BRANCH   6  17
ATOM     17  C   UNL A   1      30.200  27.146  23.753  1.00  0.00    -0.016 A 
ATOM     18  C   UNL A   1      28.795  27.200  23.647  1.00  0.00     0.006 A 
ATOM     19  C   UNL A   1      30.915  28.145  23.060  1.00  0.00     0.045 A 
ATOM     20  C   UNL A   1      28.134  28.269  23.036  1.00  0.00     0.000 A 
ATOM     21  C   UNL A   1      30.252  29.220  22.450  1.00  0.00     0.021 A 
ATOM     22  Cl  UNL A   1      32.627  28.069  22.803  1.00  0.00    -0.084 Cl
ATOM     23  C   UNL A   1      28.863  29.297  22.460  1.00  0.00     0.002 A 
ENDBRANCH   6  17
ENDBRANCH   3   6
ENDBRANCH   1   2
BRANCH   1  24
ATOM     24  C   UNL A   1      31.625  29.101  26.615  1.00  0.00     0.042 C 
BRANCH  24  25
ATOM     25  C   UNL A   1      32.414  30.154  25.840  1.00  0.00     0.118 C 
BRANCH  25  26
ATOM     26  N   UNL A   1      32.122  31.512  26.282  1.00  0.00    -0.352 N 
ATOM     27  C   UNL A   1      32.774  32.312  27.186  1.00  0.00     0.251 C 
ATOM     28  H   UNL A   1      31.331  31.923  25.863  1.00  0.00     0.163 HD
ATOM     29  O   UNL A   1      32.257  33.366  27.550  1.00  0.00    -0.269 OA
BRANCH  27  30
ATOM     30  C   UNL A   1      34.080  31.904  27.745  1.00  0.00     0.039 A 
ATOM     31  C   UNL A   1      35.072  32.874  27.918  1.00  0.00     0.014 A 
ATOM     32  C   UNL A   1      34.336  30.574  28.087  1.00  0.00     0.014 A 
ATOM     33  C   UNL A   1      36.289  32.525  28.507  1.00  0.00     0.010 A 
ATOM     34  C   UNL A   1      35.517  30.243  28.745  1.00  0.00     0.010 A 
ATOM     35  C   UNL A   1      36.503  31.217  28.969  1.00  0.00    -0.014 A 
BRANCH  35  36
ATOM     36  C   UNL A   1      37.736  30.855  29.714  1.00  0.00     0.031 A 
ATOM     37  C   UNL A   1      38.789  29.991  29.078  1.00  0.00     0.074 A 
ATOM     38  C   UNL A   1      37.870  31.244  30.997  1.00  0.00     0.049 A 
ATOM     39  N   UNL A   1      39.897  29.523  29.595  1.00  0.00    -0.248 NA
ATOM     40  C   UNL A   1      38.555  29.580  27.685  1.00  0.00     0.031 C 
ATOM     41  C   UNL A   1      36.902  32.052  31.741  1.00  0.00     0.029 A 
ATOM     42  N   UNL A   1      38.872  31.008  31.905  1.00  0.00    -0.354 N 
ATOM     43  C   UNL A   1      40.480  28.748  28.601  1.00  0.00     0.074 A 
ATOM     44  C   UNL A   1      39.581  28.771  27.467  1.00  0.00     0.031 C 
ATOM     45  C   UNL A   1      37.372  32.272  32.979  1.00  0.00     0.029 A 
ATOM     46  C   UNL A   1      38.649  31.581  33.134  1.00  0.00     0.049 A 
ATOM     47  H   UNL A   1      39.675  30.477  31.697  1.00  0.00     0.167 HD
ATOM     48  C   UNL A   1      41.665  28.090  28.625  1.00  0.00     0.037 A 
ATOM     49  C   UNL A   1      39.384  31.546  34.260  1.00  0.00     0.037 A 
ATOM     50  C   UNL A   1      42.563  28.083  29.750  1.00  0.00     0.049 A 
ATOM     51  C   UNL A   1      40.677  30.781  34.272  1.00  0.00     0.074 A 
ATOM     52  C   UNL A   1      43.820  27.511  29.846  1.00  0.00     0.029 A 
ATOM     53  N   UNL A   1      42.294  28.663  30.982  1.00  0.00    -0.354 N 
ATOM     54  N   UNL A   1      41.257  30.121  33.299  1.00  0.00    -0.248 NA
ATOM     55  C   UNL A   1      41.417  30.752  35.542  1.00  0.00     0.031 C 
ATOM     56  C   UNL A   1      44.283  27.687  31.154  1.00  0.00     0.029 A 
ATOM     57  C   UNL A   1      43.344  28.425  31.856  1.00  0.00     0.049 A 
ATOM     58  H   UNL A   1      41.478  29.168  31.203  1.00  0.00     0.167 HD
ATOM     59  C   UNL A   1      42.443  29.628  33.827  1.00  0.00     0.074 A 
ATOM     60  C   UNL A   1      42.504  30.075  35.204  1.00  0.00     0.031 C 
ATOM     61  C   UNL A   1      43.397  28.876  33.224  1.00  0.00     0.037 A 
BRANCH  48  62
ATOM     62  C   UNL A   1      42.048  27.307  27.401  1.00  0.00     0.057 A 
ATOM     63  C   UNL A   1      42.691  27.901  26.306  1.00  0.00     0.134 A 
ATOM     64  C   UNL A   1      41.793  25.931  27.328  1.00  0.00     0.134 A 
ATOM     65  F   UNL A   1      42.958  29.216  26.305  1.00  0.00    -0.206 F 
ATOM     66  C   UNL A   1      43.033  27.163  25.171  1.00  0.00     0.040 A 
ATOM     67  C   UNL A   1      42.160  25.177  26.211  1.00  0.00     0.040 A 
ATOM     68  F   UNL A   1      41.190  25.294  28.343  1.00  0.00    -0.206 F 
ATOM     69  C   UNL A   1      42.773  25.795  25.125  1.00  0.00     0.006 A 
ENDBRANCH  48  62
BRANCH  49  70
ATOM     70  C   UNL A   1      38.930  32.285  35.468  1.00  0.00     0.057 A 
ATOM     71  C   UNL A   1      39.226  33.643  35.630  1.00  0.00     0.134 A 
ATOM     72  C   UNL A   1      38.199  31.658  36.483  1.00  0.00     0.134 A 
ATOM     73  F   UNL A   1      39.940  34.293  34.698  1.00  0.00    -0.206 F 
ATOM     74  C   UNL A   1      38.826  34.349  36.765  1.00  0.00     0.040 A 
ATOM     75  C   UNL A   1      37.769  32.359  37.612  1.00  0.00     0.040 A 
ATOM     76  F   UNL A   1      37.877  30.360  36.386  1.00  0.00    -0.206 F 
ATOM     77  C   UNL A   1      38.090  33.707  37.758  1.00  0.00     0.006 A 
ENDBRANCH  49  70
BRANCH  61  78
ATOM     78  C   UNL A   1      44.607  28.516  34.037  1.00  0.00     0.057 A 
ATOM     79  C   UNL A   1      45.703  29.379  34.160  1.00  0.00     0.134 A 
ATOM     80  C   UNL A   1      44.657  27.304  34.740  1.00  0.00     0.134 A 
ATOM     81  F   UNL A   1      45.726  30.548  33.503  1.00  0.00    -0.206 F 
ATOM     82  C   UNL A   1      46.816  29.040  34.935  1.00  0.00     0.040 A 
ATOM     83  C   UNL A   1      45.749  26.969  35.542  1.00  0.00     0.040 A 
ATOM     84  F   UNL A   1      43.638  26.435  34.673  1.00  0.00    -0.206 F 
ATOM     85  C   UNL A   1      46.836  27.835  35.635  1.00  0.00     0.006 A 
ENDBRANCH  61  78
ENDBRANCH  35  36
ENDBRANCH  27  30
ENDBRANCH  25  26
ENDBRANCH  24  25
ENDBRANCH   1  24
TORSDOF 14
ENDMDL
