MODEL 1
REMARK VINA RESULT:     -11.9      0.000      0.000
REMARK SMILES N#Cc1ccc(C(=O)N2CCC[C@H]2C(=O)NCCCNC(=O)c2ccc(-c3c4nc(c(-c5c(F)cccc5F)c5ccc([nH]5)c(-c5c(F)cccc5F)c5nc(c(-c6c(F)cccc6F)c6ccc3[nH]6)C=C5)C=C4)cc2)cc1
REMARK SMILES IDX 17 1 16 2 14 3 15 4 13 6 9 7 10 8 11 9 12 10 7 11 8 12 6 13
REMARK SMILES IDX 3 14 4 15 78 16 5 17 77 18 2 19 1 20 18 21 19 22 20 23 21 24
REMARK SMILES IDX 22 26 23 27 24 28 76 29 25 30 75 31 26 32 27 33 28 34 69 35
REMARK SMILES IDX 29 36 74 37 68 38 70 39 30 40 73 41 67 42 66 43 31 45 57 46
REMARK SMILES IDX 40 47 56 48 41 49 44 50 55 51 71 52 42 53 43 54 54 56 72 57
REMARK SMILES IDX 45 58 32 59 33 60 38 61 34 62 35 63 37 64 39 65 36 66 58 67
REMARK SMILES IDX 59 68 64 69 60 70 61 71 63 72 65 73 62 74 46 75 47 76 52 77
REMARK SMILES IDX 48 78 49 79 51 80 53 81 50 82
REMARK H PARENT 16 5 20 25 70 44 44 55
REMARK Flexibility Score: inf
ROOT
ATOM      1  C   UNL A   1      36.311  20.919  24.793  1.00  0.00     0.117 C 
ENDROOT
BRANCH   1   2
ATOM      2  N   UNL A   1      35.768  21.068  26.131  1.00  0.00    -0.354 N 
ATOM      3  C   UNL A   1      34.586  21.637  26.518  1.00  0.00     0.242 C 
ATOM      4  O   UNL A   1      34.188  21.394  27.660  1.00  0.00    -0.273 OA
ATOM      5  H   UNL A   1      36.326  20.711  26.859  1.00  0.00     0.163 HD
BRANCH   3   6
ATOM      6  C   UNL A   1      33.791  22.526  25.532  1.00  0.00     0.174 C 
ATOM      7  N   UNL A   1      32.587  21.899  24.978  1.00  0.00    -0.327 N 
ATOM      8  C   UNL A   1      31.413  22.317  25.711  1.00  0.00     0.121 C 
ATOM      9  C   UNL A   1      31.724  23.765  26.022  1.00  0.00     0.024 C 
ATOM     10  C   UNL A   1      33.235  23.768  26.275  1.00  0.00     0.037 C 
BRANCH   7  11
ATOM     11  C   UNL A   1      32.614  20.920  24.012  1.00  0.00     0.254 C 
ATOM     12  O   UNL A   1      32.372  21.156  22.832  1.00  0.00    -0.269 OA
BRANCH  11  13
ATOM     13  C   UNL A   1      32.802  19.492  24.422  1.00  0.00     0.040 A 
ATOM     14  C   UNL A   1      33.049  16.743  25.002  1.00  0.00     0.052 A 
ATOM     15  C   UNL A   1      33.261  17.204  23.702  1.00  0.00     0.020 A 
ATOM     16  C   UNL A   1      32.694  17.649  26.006  1.00  0.00     0.020 A 
ATOM     17  C   UNL A   1      33.142  18.569  23.418  1.00  0.00     0.015 A 
ATOM     18  C   UNL A   1      32.550  19.011  25.713  1.00  0.00     0.015 A 
BRANCH  14  19
ATOM     19  C   UNL A   1      33.182  15.346  25.304  1.00  0.00     0.099 C 
ATOM     20  N   UNL A   1      33.286  14.221  25.554  1.00  0.00    -0.192 NA
ENDBRANCH  14  19
ENDBRANCH  11  13
ENDBRANCH   7  11
ENDBRANCH   3   6
ENDBRANCH   1   2
BRANCH   1  21
ATOM     21  C   UNL A   1      37.518  20.005  24.721  1.00  0.00     0.042 C 
BRANCH  21  22
ATOM     22  C   UNL A   1      38.642  20.363  25.678  1.00  0.00     0.118 C 
BRANCH  22  23
ATOM     23  N   UNL A   1      39.714  19.378  25.717  1.00  0.00    -0.352 N 
ATOM     24  C   UNL A   1      41.032  19.521  26.079  1.00  0.00     0.251 C 
ATOM     25  H   UNL A   1      39.454  18.469  25.443  1.00  0.00     0.163 HD
ATOM     26  O   UNL A   1      41.811  18.583  25.930  1.00  0.00    -0.269 OA
BRANCH  24  27
ATOM     27  C   UNL A   1      41.531  20.809  26.611  1.00  0.00     0.039 A 
ATOM     28  C   UNL A   1      42.008  21.767  25.712  1.00  0.00     0.014 A 
ATOM     29  C   UNL A   1      41.532  21.084  27.981  1.00  0.00     0.014 A 
ATOM     30  C   UNL A   1      42.416  23.017  26.182  1.00  0.00     0.010 A 
ATOM     31  C   UNL A   1      41.830  22.365  28.434  1.00  0.00     0.010 A 
ATOM     32  C   UNL A   1      42.290  23.344  27.543  1.00  0.00    -0.014 A 
BRANCH  32  33
ATOM     33  C   UNL A   1      42.638  24.700  28.040  1.00  0.00     0.031 A 
ATOM     34  C   UNL A   1      44.071  25.077  28.300  1.00  0.00     0.074 A 
ATOM     35  C   UNL A   1      41.657  25.587  28.296  1.00  0.00     0.049 A 
ATOM     36  N   UNL A   1      44.565  26.217  28.719  1.00  0.00    -0.248 NA
ATOM     37  C   UNL A   1      45.083  24.030  28.089  1.00  0.00     0.031 C 
ATOM     38  C   UNL A   1      40.224  25.330  28.138  1.00  0.00     0.029 A 
ATOM     39  N   UNL A   1      41.714  26.885  28.738  1.00  0.00    -0.354 N 
ATOM     40  C   UNL A   1      45.935  26.018  28.829  1.00  0.00     0.074 A 
ATOM     41  C   UNL A   1      46.186  24.631  28.506  1.00  0.00     0.031 C 
ATOM     42  C   UNL A   1      39.543  26.452  28.424  1.00  0.00     0.029 A 
ATOM     43  C   UNL A   1      40.484  27.489  28.833  1.00  0.00     0.049 A 
ATOM     44  H   UNL A   1      42.557  27.340  28.966  1.00  0.00     0.167 HD
ATOM     45  C   UNL A   1      46.902  26.914  29.145  1.00  0.00     0.037 A 
ATOM     46  C   UNL A   1      40.149  28.740  29.203  1.00  0.00     0.037 A 
ATOM     47  C   UNL A   1      46.647  28.293  29.466  1.00  0.00     0.049 A 
ATOM     48  C   UNL A   1      41.234  29.709  29.584  1.00  0.00     0.074 A 
ATOM     49  C   UNL A   1      47.559  29.297  29.743  1.00  0.00     0.029 A 
ATOM     50  N   UNL A   1      45.385  28.861  29.576  1.00  0.00    -0.354 N 
ATOM     51  N   UNL A   1      42.534  29.533  29.600  1.00  0.00    -0.248 NA
ATOM     52  C   UNL A   1      40.805  31.053  29.994  1.00  0.00     0.031 C 
ATOM     53  C   UNL A   1      46.848  30.448  30.095  1.00  0.00     0.029 A 
ATOM     54  C   UNL A   1      45.493  30.189  29.957  1.00  0.00     0.049 A 
ATOM     55  H   UNL A   1      44.537  28.389  29.406  1.00  0.00     0.167 HD
ATOM     56  C   UNL A   1      43.078  30.752  29.987  1.00  0.00     0.074 A 
ATOM     57  C   UNL A   1      41.967  31.660  30.184  1.00  0.00     0.031 C 
ATOM     58  C   UNL A   1      44.382  31.087  30.155  1.00  0.00     0.037 A 
BRANCH  45  59
ATOM     59  C   UNL A   1      48.321  26.412  29.178  1.00  0.00     0.057 A 
ATOM     60  C   UNL A   1      48.901  25.884  30.341  1.00  0.00     0.134 A 
ATOM     61  C   UNL A   1      49.122  26.459  28.029  1.00  0.00     0.134 A 
ATOM     62  F   UNL A   1      48.196  25.813  31.481  1.00  0.00    -0.206 F 
ATOM     63  C   UNL A   1      50.236  25.475  30.375  1.00  0.00     0.040 A 
ATOM     64  C   UNL A   1      50.445  26.017  28.040  1.00  0.00     0.040 A 
ATOM     65  F   UNL A   1      48.632  26.939  26.876  1.00  0.00    -0.206 F 
ATOM     66  C   UNL A   1      51.011  25.537  29.220  1.00  0.00     0.006 A 
ENDBRANCH  45  59
BRANCH  46  67
ATOM     67  C   UNL A   1      38.724  29.157  29.188  1.00  0.00     0.057 A 
ATOM     68  C   UNL A   1      38.126  29.637  28.016  1.00  0.00     0.134 A 
ATOM     69  C   UNL A   1      37.920  29.073  30.331  1.00  0.00     0.134 A 
ATOM     70  F   UNL A   1      38.847  29.757  26.892  1.00  0.00    -0.206 F 
ATOM     71  C   UNL A   1      36.788  30.031  27.985  1.00  0.00     0.040 A 
ATOM     72  C   UNL A   1      36.574  29.436  30.307  1.00  0.00     0.040 A 
ATOM     73  F   UNL A   1      38.429  28.613  31.484  1.00  0.00    -0.206 F 
ATOM     74  C   UNL A   1      36.005  29.922  29.132  1.00  0.00     0.006 A 
ENDBRANCH  46  67
BRANCH  58  75
ATOM     75  C   UNL A   1      44.686  32.509  30.535  1.00  0.00     0.057 A 
ATOM     76  C   UNL A   1      44.856  33.520  29.581  1.00  0.00     0.134 A 
ATOM     77  C   UNL A   1      44.773  32.879  31.886  1.00  0.00     0.134 A 
ATOM     78  F   UNL A   1      44.797  33.235  28.270  1.00  0.00    -0.206 F 
ATOM     79  C   UNL A   1      45.129  34.839  29.952  1.00  0.00     0.040 A 
ATOM     80  C   UNL A   1      45.010  34.200  32.269  1.00  0.00     0.040 A 
ATOM     81  F   UNL A   1      44.611  31.966  32.854  1.00  0.00    -0.206 F 
ATOM     82  C   UNL A   1      45.198  35.182  31.300  1.00  0.00     0.006 A 
ENDBRANCH  58  75
ENDBRANCH  32  33
ENDBRANCH  24  27
ENDBRANCH  22  23
ENDBRANCH  21  22
ENDBRANCH   1  21
TORSDOF 13
ENDMDL
MODEL 2
REMARK VINA RESULT:     -11.6      0.925      6.455
REMARK SMILES N#Cc1ccc(C(=O)N2CCC[C@H]2C(=O)NCCCNC(=O)c2ccc(-c3c4nc(c(-c5c(F)cccc5F)c5ccc([nH]5)c(-c5c(F)cccc5F)c5nc(c(-c6c(F)cccc6F)c6ccc3[nH]6)C=C5)C=C4)cc2)cc1
REMARK SMILES IDX 17 1 16 2 14 3 15 4 13 6 9 7 10 8 11 9 12 10 7 11 8 12 6 13
REMARK SMILES IDX 3 14 4 15 78 16 5 17 77 18 2 19 1 20 18 21 19 22 20 23 21 24
REMARK SMILES IDX 22 26 23 27 24 28 76 29 25 30 75 31 26 32 27 33 28 34 69 35
REMARK SMILES IDX 29 36 74 37 68 38 70 39 30 40 73 41 67 42 66 43 31 45 57 46
REMARK SMILES IDX 40 47 56 48 41 49 44 50 55 51 71 52 42 53 43 54 54 56 72 57
REMARK SMILES IDX 45 58 32 59 33 60 38 61 34 62 35 63 37 64 39 65 36 66 58 67
REMARK SMILES IDX 59 68 64 69 60 70 61 71 63 72 65 73 62 74 46 75 47 76 52 77
REMARK SMILES IDX 48 78 49 79 51 80 53 81 50 82
REMARK H PARENT 16 5 20 25 70 44 44 55
REMARK Flexibility Score: inf
ROOT
ATOM      1  C   UNL A   1      36.372  21.189  24.758  1.00  0.00     0.117 C 
ENDROOT
BRANCH   1   2
ATOM      2  N   UNL A   1      35.819  21.286  26.097  1.00  0.00    -0.354 N 
ATOM      3  C   UNL A   1      34.615  21.798  26.491  1.00  0.00     0.242 C 
ATOM      4  O   UNL A   1      34.223  21.514  27.626  1.00  0.00    -0.273 OA
ATOM      5  H   UNL A   1      36.389  20.935  26.819  1.00  0.00     0.163 HD
BRANCH   3   6
ATOM      6  C   UNL A   1      33.788  22.677  25.523  1.00  0.00     0.174 C 
ATOM      7  N   UNL A   1      32.618  22.011  24.941  1.00  0.00    -0.327 N 
ATOM      8  C   UNL A   1      31.420  22.355  25.674  1.00  0.00     0.121 C 
ATOM      9  C   UNL A   1      31.662  23.807  26.027  1.00  0.00     0.024 C 
ATOM     10  C   UNL A   1      33.170  23.871  26.294  1.00  0.00     0.037 C 
BRANCH   7  11
ATOM     11  C   UNL A   1      32.698  21.062  23.948  1.00  0.00     0.254 C 
ATOM     12  O   UNL A   1      32.524  21.334  22.765  1.00  0.00    -0.269 OA
BRANCH  11  13
ATOM     13  C   UNL A   1      32.858  19.621  24.325  1.00  0.00     0.040 A 
ATOM     14  C   UNL A   1      33.018  16.858  24.864  1.00  0.00     0.052 A 
ATOM     15  C   UNL A   1      33.031  17.314  23.545  1.00  0.00     0.020 A 
ATOM     16  C   UNL A   1      32.903  17.777  25.911  1.00  0.00     0.020 A 
ATOM     17  C   UNL A   1      32.957  18.686  23.281  1.00  0.00     0.015 A 
ATOM     18  C   UNL A   1      32.801  19.148  25.642  1.00  0.00     0.015 A 
BRANCH  14  19
ATOM     19  C   UNL A   1      33.108  15.452  25.144  1.00  0.00     0.099 C 
ATOM     20  N   UNL A   1      33.177  14.320  25.376  1.00  0.00    -0.192 NA
ENDBRANCH  14  19
ENDBRANCH  11  13
ENDBRANCH   7  11
ENDBRANCH   3   6
ENDBRANCH   1   2
BRANCH   1  21
ATOM     21  C   UNL A   1      37.554  20.246  24.650  1.00  0.00     0.042 C 
BRANCH  21  22
ATOM     22  C   UNL A   1      38.594  20.406  25.746  1.00  0.00     0.118 C 
BRANCH  22  23
ATOM     23  N   UNL A   1      39.606  19.359  25.751  1.00  0.00    -0.352 N 
ATOM     24  C   UNL A   1      40.959  19.439  25.979  1.00  0.00     0.251 C 
ATOM     25  H   UNL A   1      39.269  18.454  25.563  1.00  0.00     0.163 HD
ATOM     26  O   UNL A   1      41.664  18.447  25.821  1.00  0.00    -0.269 OA
BRANCH  24  27
ATOM     27  C   UNL A   1      41.580  20.723  26.377  1.00  0.00     0.039 A 
ATOM     28  C   UNL A   1      42.015  21.596  25.376  1.00  0.00     0.014 A 
ATOM     29  C   UNL A   1      41.736  21.075  27.719  1.00  0.00     0.014 A 
ATOM     30  C   UNL A   1      42.537  22.844  25.723  1.00  0.00     0.010 A 
ATOM     31  C   UNL A   1      42.150  22.360  28.059  1.00  0.00     0.010 A 
ATOM     32  C   UNL A   1      42.570  23.255  27.066  1.00  0.00    -0.014 A 
BRANCH  32  33
ATOM     33  C   UNL A   1      43.042  24.614  27.439  1.00  0.00     0.031 A 
ATOM     34  C   UNL A   1      42.064  25.674  27.868  1.00  0.00     0.074 A 
ATOM     35  C   UNL A   1      44.354  24.909  27.355  1.00  0.00     0.049 A 
ATOM     36  N   UNL A   1      42.294  26.909  28.245  1.00  0.00    -0.248 NA
ATOM     37  C   UNL A   1      40.638  25.313  27.846  1.00  0.00     0.031 C 
ATOM     38  C   UNL A   1      45.399  23.989  26.902  1.00  0.00     0.029 A 
ATOM     39  N   UNL A   1      45.034  26.063  27.652  1.00  0.00    -0.354 N 
ATOM     40  C   UNL A   1      41.047  27.467  28.492  1.00  0.00     0.074 A 
ATOM     41  C   UNL A   1      40.062  26.464  28.153  1.00  0.00     0.031 C 
ATOM     42  C   UNL A   1      46.592  24.595  27.004  1.00  0.00     0.029 A 
ATOM     43  C   UNL A   1      46.394  25.960  27.480  1.00  0.00     0.049 A 
ATOM     44  H   UNL A   1      44.590  26.887  27.957  1.00  0.00     0.167 HD
ATOM     45  C   UNL A   1      40.746  28.694  28.983  1.00  0.00     0.037 A 
ATOM     46  C   UNL A   1      47.372  26.861  27.688  1.00  0.00     0.037 A 
ATOM     47  C   UNL A   1      41.731  29.690  29.318  1.00  0.00     0.049 A 
ATOM     48  C   UNL A   1      47.015  28.230  28.199  1.00  0.00     0.074 A 
ATOM     49  C   UNL A   1      41.535  30.942  29.876  1.00  0.00     0.029 A 
ATOM     50  N   UNL A   1      43.096  29.556  29.107  1.00  0.00    -0.354 N 
ATOM     51  N   UNL A   1      45.838  28.716  28.512  1.00  0.00    -0.248 NA
ATOM     52  C   UNL A   1      48.125  29.173  28.389  1.00  0.00     0.031 C 
ATOM     53  C   UNL A   1      42.771  31.593  29.930  1.00  0.00     0.029 A 
ATOM     54  C   UNL A   1      43.750  30.719  29.484  1.00  0.00     0.049 A 
ATOM     55  H   UNL A   1      43.535  28.753  28.744  1.00  0.00     0.167 HD
ATOM     56  C   UNL A   1      46.069  30.008  28.969  1.00  0.00     0.074 A 
ATOM     57  C   UNL A   1      47.500  30.223  28.902  1.00  0.00     0.031 C 
ATOM     58  C   UNL A   1      45.176  30.928  29.411  1.00  0.00     0.037 A 
BRANCH  45  59
ATOM     59  C   UNL A   1      39.289  29.027  29.160  1.00  0.00     0.057 A 
ATOM     60  C   UNL A   1      38.499  29.513  28.108  1.00  0.00     0.134 A 
ATOM     61  C   UNL A   1      38.665  28.861  30.404  1.00  0.00     0.134 A 
ATOM     62  F   UNL A   1      39.029  29.703  26.890  1.00  0.00    -0.206 F 
ATOM     63  C   UNL A   1      37.163  29.872  28.299  1.00  0.00     0.040 A 
ATOM     64  C   UNL A   1      37.320  29.179  30.598  1.00  0.00     0.040 A 
ATOM     65  F   UNL A   1      39.353  28.389  31.454  1.00  0.00    -0.206 F 
ATOM     66  C   UNL A   1      36.569  29.702  29.547  1.00  0.00     0.006 A 
ENDBRANCH  45  59
BRANCH  46  67
ATOM     67  C   UNL A   1      48.788  26.480  27.452  1.00  0.00     0.057 A 
ATOM     68  C   UNL A   1      49.571  25.944  28.483  1.00  0.00     0.134 A 
ATOM     69  C   UNL A   1      49.390  26.623  26.197  1.00  0.00     0.134 A 
ATOM     70  F   UNL A   1      49.058  25.798  29.713  1.00  0.00    -0.206 F 
ATOM     71  C   UNL A   1      50.901  25.579  28.277  1.00  0.00     0.040 A 
ATOM     72  C   UNL A   1      50.710  26.235  25.969  1.00  0.00     0.040 A 
ATOM     73  F   UNL A   1      48.692  27.122  25.164  1.00  0.00    -0.206 F 
ATOM     74  C   UNL A   1      51.472  25.716  27.014  1.00  0.00     0.006 A 
ENDBRANCH  46  67
BRANCH  58  75
ATOM     75  C   UNL A   1      45.719  32.242  29.898  1.00  0.00     0.057 A 
ATOM     76  C   UNL A   1      46.119  32.443  31.226  1.00  0.00     0.134 A 
ATOM     77  C   UNL A   1      45.880  33.315  29.009  1.00  0.00     0.134 A 
ATOM     78  F   UNL A   1      45.983  31.462  32.132  1.00  0.00    -0.206 F 
ATOM     79  C   UNL A   1      46.632  33.668  31.658  1.00  0.00     0.040 A 
ATOM     80  C   UNL A   1      46.424  34.532  29.422  1.00  0.00     0.040 A 
ATOM     81  F   UNL A   1      45.528  33.192  27.721  1.00  0.00    -0.206 F 
ATOM     82  C   UNL A   1      46.793  34.714  30.752  1.00  0.00     0.006 A 
ENDBRANCH  58  75
ENDBRANCH  32  33
ENDBRANCH  24  27
ENDBRANCH  22  23
ENDBRANCH  21  22
ENDBRANCH   1  21
TORSDOF 13
ENDMDL
MODEL 3
REMARK VINA RESULT:     -11.6      0.901      6.370
REMARK SMILES N#Cc1ccc(C(=O)N2CCC[C@H]2C(=O)NCCCNC(=O)c2ccc(-c3c4nc(c(-c5c(F)cccc5F)c5ccc([nH]5)c(-c5c(F)cccc5F)c5nc(c(-c6c(F)cccc6F)c6ccc3[nH]6)C=C5)C=C4)cc2)cc1
REMARK SMILES IDX 17 1 16 2 14 3 15 4 13 6 9 7 10 8 11 9 12 10 7 11 8 12 6 13
REMARK SMILES IDX 3 14 4 15 78 16 5 17 77 18 2 19 1 20 18 21 19 22 20 23 21 24
REMARK SMILES IDX 22 26 23 27 24 28 76 29 25 30 75 31 26 32 27 33 28 34 69 35
REMARK SMILES IDX 29 36 74 37 68 38 70 39 30 40 73 41 67 42 66 43 31 45 57 46
REMARK SMILES IDX 40 47 56 48 41 49 44 50 55 51 71 52 42 53 43 54 54 56 72 57
REMARK SMILES IDX 45 58 32 59 33 60 38 61 34 62 35 63 37 64 39 65 36 66 58 67
REMARK SMILES IDX 59 68 64 69 60 70 61 71 63 72 65 73 62 74 46 75 47 76 52 77
REMARK SMILES IDX 48 78 49 79 51 80 53 81 50 82
REMARK H PARENT 16 5 20 25 70 44 44 55
REMARK Flexibility Score: inf
ROOT
ATOM      1  C   UNL A   1      36.243  21.163  24.922  1.00  0.00     0.117 C 
ENDROOT
BRANCH   1   2
ATOM      2  N   UNL A   1      35.878  21.685  26.226  1.00  0.00    -0.354 N 
ATOM      3  C   UNL A   1      34.795  22.446  26.572  1.00  0.00     0.242 C 
ATOM      4  O   UNL A   1      34.522  22.528  27.772  1.00  0.00    -0.273 OA
ATOM      5  H   UNL A   1      36.493  21.461  26.962  1.00  0.00     0.163 HD
BRANCH   3   6
ATOM      6  C   UNL A   1      33.953  23.145  25.478  1.00  0.00     0.174 C 
ATOM      7  N   UNL A   1      32.507  23.141  25.724  1.00  0.00    -0.327 N 
ATOM      8  C   UNL A   1      32.089  24.393  26.312  1.00  0.00     0.121 C 
ATOM      9  C   UNL A   1      32.973  25.397  25.602  1.00  0.00     0.024 C 
ATOM     10  C   UNL A   1      34.302  24.654  25.430  1.00  0.00     0.037 C 
BRANCH   7  11
ATOM     11  C   UNL A   1      31.712  22.030  25.571  1.00  0.00     0.254 C 
ATOM     12  O   UNL A   1      30.556  21.989  25.980  1.00  0.00    -0.269 OA
BRANCH  11  13
ATOM     13  C   UNL A   1      32.311  20.772  25.020  1.00  0.00     0.040 A 
ATOM     14  C   UNL A   1      33.260  18.391  23.845  1.00  0.00     0.052 A 
ATOM     15  C   UNL A   1      32.687  19.382  23.048  1.00  0.00     0.020 A 
ATOM     16  C   UNL A   1      33.340  18.578  25.228  1.00  0.00     0.020 A 
ATOM     17  C   UNL A   1      32.221  20.565  23.633  1.00  0.00     0.015 A 
ATOM     18  C   UNL A   1      32.849  19.751  25.814  1.00  0.00     0.015 A 
BRANCH  14  19
ATOM     19  C   UNL A   1      33.752  17.180  23.250  1.00  0.00     0.099 C 
ATOM     20  N   UNL A   1      34.155  16.208  22.768  1.00  0.00    -0.192 NA
ENDBRANCH  14  19
ENDBRANCH  11  13
ENDBRANCH   7  11
ENDBRANCH   3   6
ENDBRANCH   1   2
BRANCH   1  21
ATOM     21  C   UNL A   1      37.343  20.121  24.967  1.00  0.00     0.042 C 
BRANCH  21  22
ATOM     22  C   UNL A   1      38.630  20.587  25.625  1.00  0.00     0.118 C 
BRANCH  22  23
ATOM     23  N   UNL A   1      39.667  19.565  25.674  1.00  0.00    -0.352 N 
ATOM     24  C   UNL A   1      40.983  19.659  26.058  1.00  0.00     0.251 C 
ATOM     25  H   UNL A   1      39.380  18.668  25.389  1.00  0.00     0.163 HD
ATOM     26  O   UNL A   1      41.731  18.696  25.914  1.00  0.00    -0.269 OA
BRANCH  24  27
ATOM     27  C   UNL A   1      41.518  20.925  26.609  1.00  0.00     0.039 A 
ATOM     28  C   UNL A   1      42.049  21.869  25.726  1.00  0.00     0.014 A 
ATOM     29  C   UNL A   1      41.499  21.192  27.980  1.00  0.00     0.014 A 
ATOM     30  C   UNL A   1      42.493  23.100  26.212  1.00  0.00     0.010 A 
ATOM     31  C   UNL A   1      41.834  22.459  28.447  1.00  0.00     0.010 A 
ATOM     32  C   UNL A   1      42.350  23.425  27.571  1.00  0.00    -0.014 A 
BRANCH  32  33
ATOM     33  C   UNL A   1      42.737  24.765  28.084  1.00  0.00     0.031 A 
ATOM     34  C   UNL A   1      41.698  25.828  28.313  1.00  0.00     0.074 A 
ATOM     35  C   UNL A   1      44.037  25.041  28.307  1.00  0.00     0.049 A 
ATOM     36  N   UNL A   1      41.848  27.048  28.770  1.00  0.00    -0.248 NA
ATOM     37  C   UNL A   1      40.311  25.490  27.958  1.00  0.00     0.031 C 
ATOM     38  C   UNL A   1      45.149  24.117  28.075  1.00  0.00     0.029 A 
ATOM     39  N   UNL A   1      44.643  26.175  28.787  1.00  0.00    -0.354 N 
ATOM     40  C   UNL A   1      40.582  27.618  28.746  1.00  0.00     0.074 A 
ATOM     41  C   UNL A   1      39.691  26.641  28.162  1.00  0.00     0.031 C 
ATOM     42  C   UNL A   1      46.294  24.702  28.463  1.00  0.00     0.029 A 
ATOM     43  C   UNL A   1      46.005  26.055  28.924  1.00  0.00     0.049 A 
ATOM     44  H   UNL A   1      44.149  26.997  29.009  1.00  0.00     0.167 HD
ATOM     45  C   UNL A   1      40.190  28.836  29.194  1.00  0.00     0.037 A 
ATOM     46  C   UNL A   1      46.919  26.934  29.376  1.00  0.00     0.037 A 
ATOM     47  C   UNL A   1      41.081  29.806  29.774  1.00  0.00     0.049 A 
ATOM     48  C   UNL A   1      46.468  28.294  29.835  1.00  0.00     0.074 A 
ATOM     49  C   UNL A   1      40.776  31.044  30.311  1.00  0.00     0.029 A 
ATOM     50  N   UNL A   1      42.457  29.656  29.873  1.00  0.00    -0.354 N 
ATOM     51  N   UNL A   1      45.256  28.790  29.888  1.00  0.00    -0.248 NA
ATOM     52  C   UNL A   1      47.515  29.214  30.301  1.00  0.00     0.031 C 
ATOM     53  C   UNL A   1      41.974  31.674  30.664  1.00  0.00     0.029 A 
ATOM     54  C   UNL A   1      43.020  30.797  30.425  1.00  0.00     0.049 A 
ATOM     55  H   UNL A   1      42.960  28.857  29.594  1.00  0.00     0.167 HD
ATOM     56  C   UNL A   1      45.389  30.065  30.426  1.00  0.00     0.074 A 
ATOM     57  C   UNL A   1      46.799  30.258  30.692  1.00  0.00     0.031 C 
ATOM     58  C   UNL A   1      44.427  30.985  30.683  1.00  0.00     0.037 A 
BRANCH  45  59
ATOM     59  C   UNL A   1      38.733  29.187  29.047  1.00  0.00     0.057 A 
ATOM     60  C   UNL A   1      37.830  29.098  30.116  1.00  0.00     0.134 A 
ATOM     61  C   UNL A   1      38.224  29.619  27.815  1.00  0.00     0.134 A 
ATOM     62  F   UNL A   1      38.244  28.686  31.325  1.00  0.00    -0.206 F 
ATOM     63  C   UNL A   1      36.470  29.372  29.953  1.00  0.00     0.040 A 
ATOM     64  C   UNL A   1      36.875  29.934  27.649  1.00  0.00     0.040 A 
ATOM     65  F   UNL A   1      39.030  29.742  26.749  1.00  0.00    -0.206 F 
ATOM     66  C   UNL A   1      35.990  29.795  28.717  1.00  0.00     0.006 A 
ENDBRANCH  45  59
BRANCH  46  67
ATOM     67  C   UNL A   1      48.348  26.537  29.455  1.00  0.00     0.057 A 
ATOM     68  C   UNL A   1      49.236  26.829  28.413  1.00  0.00     0.134 A 
ATOM     69  C   UNL A   1      48.866  25.873  30.574  1.00  0.00     0.134 A 
ATOM     70  F   UNL A   1      48.798  27.448  27.307  1.00  0.00    -0.206 F 
ATOM     71  C   UNL A   1      50.581  26.465  28.473  1.00  0.00     0.040 A 
ATOM     72  C   UNL A   1      50.215  25.529  30.661  1.00  0.00     0.040 A 
ATOM     73  F   UNL A   1      48.070  25.572  31.611  1.00  0.00    -0.206 F 
ATOM     74  C   UNL A   1      51.076  25.820  29.605  1.00  0.00     0.006 A 
ENDBRANCH  46  67
BRANCH  58  75
ATOM     75  C   UNL A   1      44.858  32.277  31.320  1.00  0.00     0.057 A 
ATOM     76  C   UNL A   1      44.946  32.434  32.710  1.00  0.00     0.134 A 
ATOM     77  C   UNL A   1      45.228  33.371  30.525  1.00  0.00     0.134 A 
ATOM     78  F   UNL A   1      44.596  31.432  33.531  1.00  0.00    -0.206 F 
ATOM     79  C   UNL A   1      45.358  33.638  33.285  1.00  0.00     0.040 A 
ATOM     80  C   UNL A   1      45.676  34.567  31.088  1.00  0.00     0.040 A 
ATOM     81  F   UNL A   1      45.179  33.289  29.187  1.00  0.00    -0.206 F 
ATOM     82  C   UNL A   1      45.733  34.706  32.472  1.00  0.00     0.006 A 
ENDBRANCH  58  75
ENDBRANCH  32  33
ENDBRANCH  24  27
ENDBRANCH  22  23
ENDBRANCH  21  22
ENDBRANCH   1  21
TORSDOF 13
ENDMDL
