MODEL 1
REMARK VINA RESULT:     -11.4      0.000      0.000
REMARK SMILES CCCCCCNC(=O)Oc1cccc(-c2ccc([C@@H](C)C(=O)NCCCNC(=O)c3ccc(-c4c5nc(c(-c6c(F)cccc6F)c6ccc([nH]6)c(-c6c(F)cccc6F)c6nc(c(-c7c(F)cccc7F)c7ccc4[nH]7)C=C6)C=C5)cc3)cc2Cl)c1
REMARK SMILES IDX 16 1 17 2 18 3 19 4 85 5 86 6 87 7 15 8 11 9 12 10 88 11
REMARK SMILES IDX 13 12 14 13 10 14 8 15 7 16 9 18 6 19 5 20 4 21 3 22 2 23
REMARK SMILES IDX 1 24 20 25 21 26 22 27 23 28 24 29 25 31 26 32 27 33 28 34
REMARK SMILES IDX 29 35 30 37 31 38 32 39 84 40 33 41 83 42 34 43 35 44 36 45
REMARK SMILES IDX 77 46 37 47 82 48 76 49 78 50 38 51 81 52 75 53 74 54 39 56
REMARK SMILES IDX 65 57 48 58 64 59 49 60 52 61 63 62 79 63 50 64 51 65 62 67
REMARK SMILES IDX 80 68 53 69 40 70 41 71 46 72 42 73 43 74 45 75 47 76 44 77
REMARK SMILES IDX 66 78 67 79 72 80 68 81 69 82 71 83 73 84 70 85 54 86 55 87
REMARK SMILES IDX 60 88 56 89 57 90 59 91 61 92 58 93
REMARK H PARENT 7 17 24 30 28 36 78 55 52 66
REMARK Flexibility Score: inf
ROOT
ATOM      1  C   UNL A   1      36.912  23.066  25.871  1.00  0.00     0.000 A 
ATOM      2  C   UNL A   1      38.001  23.831  26.333  1.00  0.00     0.010 A 
ATOM      3  C   UNL A   1      39.302  23.319  26.385  1.00  0.00     0.005 A 
ATOM      4  C   UNL A   1      39.562  21.988  26.063  1.00  0.00    -0.034 A 
ATOM      5  C   UNL A   1      38.501  21.229  25.549  1.00  0.00     0.025 A 
ATOM      6  C   UNL A   1      37.208  21.765  25.418  1.00  0.00     0.049 A 
ATOM      7  Cl  UNL A   1      36.042  20.756  24.626  1.00  0.00    -0.084 Cl
ENDROOT
BRANCH   1   8
ATOM      8  C   UNL A   1      35.551  23.657  25.925  1.00  0.00    -0.013 A 
ATOM      9  C   UNL A   1      33.293  23.732  26.836  1.00  0.00     0.133 A 
ATOM     10  C   UNL A   1      32.983  24.851  26.070  1.00  0.00     0.047 A 
ATOM     11  C   UNL A   1      34.558  23.145  26.779  1.00  0.00     0.056 A 
ATOM     12  C   UNL A   1      33.957  25.393  25.239  1.00  0.00     0.004 A 
ATOM     13  C   UNL A   1      35.220  24.794  25.159  1.00  0.00     0.009 A 
BRANCH   9  14
ATOM     14  O   UNL A   1      32.235  23.141  27.548  1.00  0.00    -0.410 OA
BRANCH  14  15
ATOM     15  C   UNL A   1      30.999  22.992  26.937  1.00  0.00     0.412 C 
ATOM     16  N   UNL A   1      31.004  22.046  25.949  1.00  0.00    -0.321 N 
ATOM     17  H   UNL A   1      30.162  21.920  25.454  1.00  0.00     0.167 HD
ATOM     18  O   UNL A   1      29.982  23.620  27.207  1.00  0.00    -0.224 OA
BRANCH  16  19
ATOM     19  C   UNL A   1      32.121  21.208  25.556  1.00  0.00     0.119 C 
BRANCH  19  20
ATOM     20  C   UNL A   1      32.416  21.314  24.060  1.00  0.00     0.021 C 
BRANCH  20  21
ATOM     21  C   UNL A   1      32.180  20.024  23.262  1.00  0.00     0.002 C 
BRANCH  21  22
ATOM     22  C   UNL A   1      32.794  18.755  23.862  1.00  0.00    -0.000 C 
BRANCH  22  23
ATOM     23  C   UNL A   1      32.991  17.593  22.885  1.00  0.00    -0.003 C 
ATOM     24  C   UNL A   1      34.025  16.582  23.353  1.00  0.00     0.004 C 
ENDBRANCH  22  23
ENDBRANCH  21  22
ENDBRANCH  20  21
ENDBRANCH  19  20
ENDBRANCH  16  19
ENDBRANCH  14  15
ENDBRANCH   9  14
ENDBRANCH   1   8
BRANCH   4  25
ATOM     25  C   UNL A   1      40.915  21.332  26.284  1.00  0.00     0.105 C 
ATOM     26  C   UNL A   1      42.090  21.967  25.542  1.00  0.00     0.023 C 
BRANCH  25  27
ATOM     27  C   UNL A   1      41.193  20.995  27.759  1.00  0.00     0.227 C 
ATOM     28  O   UNL A   1      40.810  19.915  28.225  1.00  0.00    -0.274 OA
ATOM     29  N   UNL A   1      41.847  21.819  28.622  1.00  0.00    -0.356 N 
ATOM     30  H   UNL A   1      41.995  21.428  29.513  1.00  0.00     0.163 HD
BRANCH  29  31
ATOM     31  C   UNL A   1      42.367  23.163  28.475  1.00  0.00     0.117 C 
BRANCH  31  32
ATOM     32  C   UNL A   1      43.818  23.176  28.003  1.00  0.00     0.042 C 
BRANCH  32  33
ATOM     33  C   UNL A   1      44.272  24.504  27.418  1.00  0.00     0.118 C 
BRANCH  33  34
ATOM     34  N   UNL A   1      43.513  24.868  26.232  1.00  0.00    -0.352 N 
ATOM     35  C   UNL A   1      42.419  25.680  26.076  1.00  0.00     0.251 C 
ATOM     36  H   UNL A   1      43.841  24.460  25.398  1.00  0.00     0.163 HD
ATOM     37  O   UNL A   1      41.822  25.658  25.001  1.00  0.00    -0.269 OA
BRANCH  35  38
ATOM     38  C   UNL A   1      41.946  26.582  27.154  1.00  0.00     0.039 A 
ATOM     39  C   UNL A   1      42.549  27.840  27.276  1.00  0.00     0.014 A 
ATOM     40  C   UNL A   1      41.001  26.182  28.103  1.00  0.00     0.014 A 
ATOM     41  C   UNL A   1      42.207  28.686  28.334  1.00  0.00     0.010 A 
ATOM     42  C   UNL A   1      40.592  27.062  29.104  1.00  0.00     0.010 A 
ATOM     43  C   UNL A   1      41.221  28.304  29.256  1.00  0.00    -0.014 A 
BRANCH  43  44
ATOM     44  C   UNL A   1      40.907  29.155  30.434  1.00  0.00     0.031 A 
ATOM     45  C   UNL A   1      41.735  29.034  31.688  1.00  0.00     0.074 A 
ATOM     46  C   UNL A   1      39.874  30.016  30.388  1.00  0.00     0.049 A 
ATOM     47  N   UNL A   1      41.611  29.667  32.828  1.00  0.00    -0.248 NA
ATOM     48  C   UNL A   1      42.829  28.050  31.669  1.00  0.00     0.031 C 
ATOM     49  C   UNL A   1      38.970  30.196  29.251  1.00  0.00     0.029 A 
ATOM     50  N   UNL A   1      39.410  30.905  31.325  1.00  0.00    -0.354 N 
ATOM     51  C   UNL A   1      42.593  29.143  33.659  1.00  0.00     0.074 A 
ATOM     52  C   UNL A   1      43.267  28.102  32.918  1.00  0.00     0.031 C 
ATOM     53  C   UNL A   1      38.080  31.156  29.546  1.00  0.00     0.029 A 
ATOM     54  C   UNL A   1      38.332  31.640  30.900  1.00  0.00     0.049 A 
ATOM     55  H   UNL A   1      39.814  31.006  32.219  1.00  0.00     0.167 HD
ATOM     56  C   UNL A   1      42.927  29.514  34.920  1.00  0.00     0.037 A 
ATOM     57  C   UNL A   1      37.631  32.601  31.531  1.00  0.00     0.037 A 
ATOM     58  C   UNL A   1      42.282  30.576  35.644  1.00  0.00     0.049 A 
ATOM     59  C   UNL A   1      38.039  33.017  32.917  1.00  0.00     0.074 A 
ATOM     60  C   UNL A   1      42.572  31.062  36.907  1.00  0.00     0.029 A 
ATOM     61  N   UNL A   1      41.216  31.322  35.162  1.00  0.00    -0.354 N 
ATOM     62  N   UNL A   1      39.007  32.553  33.670  1.00  0.00    -0.248 NA
ATOM     63  C   UNL A   1      37.267  34.104  33.535  1.00  0.00     0.031 C 
ATOM     64  C   UNL A   1      41.663  32.084  37.202  1.00  0.00     0.029 A 
ATOM     65  C   UNL A   1      40.836  32.263  36.104  1.00  0.00     0.049 A 
ATOM     66  H   UNL A   1      40.795  31.201  34.282  1.00  0.00     0.167 HD
ATOM     67  C   UNL A   1      38.984  33.314  34.832  1.00  0.00     0.074 A 
ATOM     68  C   UNL A   1      37.912  34.275  34.679  1.00  0.00     0.031 C 
ATOM     69  C   UNL A   1      39.779  33.225  35.926  1.00  0.00     0.037 A 
BRANCH  56  70
ATOM     70  C   UNL A   1      44.046  28.766  35.586  1.00  0.00     0.057 A 
ATOM     71  C   UNL A   1      45.382  29.170  35.459  1.00  0.00     0.134 A 
ATOM     72  C   UNL A   1      43.785  27.642  36.379  1.00  0.00     0.134 A 
ATOM     73  F   UNL A   1      45.703  30.231  34.703  1.00  0.00    -0.206 F 
ATOM     74  C   UNL A   1      46.420  28.465  36.070  1.00  0.00     0.040 A 
ATOM     75  C   UNL A   1      44.813  26.945  37.019  1.00  0.00     0.040 A 
ATOM     76  F   UNL A   1      42.529  27.204  36.550  1.00  0.00    -0.206 F 
ATOM     77  C   UNL A   1      46.136  27.351  36.858  1.00  0.00     0.006 A 
ENDBRANCH  56  70
BRANCH  57  78
ATOM     78  C   UNL A   1      36.501  33.272  30.839  1.00  0.00     0.057 A 
ATOM     79  C   UNL A   1      35.176  32.996  31.192  1.00  0.00     0.134 A 
ATOM     80  C   UNL A   1      36.716  34.193  29.809  1.00  0.00     0.134 A 
ATOM     81  F   UNL A   1      34.905  32.108  32.160  1.00  0.00    -0.206 F 
ATOM     82  C   UNL A   1      34.102  33.595  30.531  1.00  0.00     0.040 A 
ATOM     83  C   UNL A   1      35.653  34.819  29.156  1.00  0.00     0.040 A 
ATOM     84  F   UNL A   1      37.964  34.508  29.430  1.00  0.00    -0.206 F 
ATOM     85  C   UNL A   1      34.341  34.514  29.511  1.00  0.00     0.006 A 
ENDBRANCH  57  78
BRANCH  69  86
ATOM     86  C   UNL A   1      39.555  34.230  37.017  1.00  0.00     0.057 A 
ATOM     87  C   UNL A   1      40.072  35.529  36.949  1.00  0.00     0.134 A 
ATOM     88  C   UNL A   1      38.784  33.896  38.139  1.00  0.00     0.134 A 
ATOM     89  F   UNL A   1      40.828  35.906  35.907  1.00  0.00    -0.206 F 
ATOM     90  C   UNL A   1      39.856  36.453  37.972  1.00  0.00     0.040 A 
ATOM     91  C   UNL A   1      38.539  34.819  39.155  1.00  0.00     0.040 A 
ATOM     92  F   UNL A   1      38.251  32.671  38.260  1.00  0.00    -0.206 F 
ATOM     93  C   UNL A   1      39.083  36.100  39.077  1.00  0.00     0.006 A 
ENDBRANCH  69  86
ENDBRANCH  43  44
ENDBRANCH  35  38
ENDBRANCH  33  34
ENDBRANCH  32  33
ENDBRANCH  31  32
ENDBRANCH  29  31
ENDBRANCH  25  27
ENDBRANCH   4  25
TORSDOF 19
ENDMDL
MODEL 2
REMARK VINA RESULT:     -11.4      0.387      6.051
REMARK SMILES CCCCCCNC(=O)Oc1cccc(-c2ccc([C@@H](C)C(=O)NCCCNC(=O)c3ccc(-c4c5nc(c(-c6c(F)cccc6F)c6ccc([nH]6)c(-c6c(F)cccc6F)c6nc(c(-c7c(F)cccc7F)c7ccc4[nH]7)C=C6)C=C5)cc3)cc2Cl)c1
REMARK SMILES IDX 16 1 17 2 18 3 19 4 85 5 86 6 87 7 15 8 11 9 12 10 88 11
REMARK SMILES IDX 13 12 14 13 10 14 8 15 7 16 9 18 6 19 5 20 4 21 3 22 2 23
REMARK SMILES IDX 1 24 20 25 21 26 22 27 23 28 24 29 25 31 26 32 27 33 28 34
REMARK SMILES IDX 29 35 30 37 31 38 32 39 84 40 33 41 83 42 34 43 35 44 36 45
REMARK SMILES IDX 77 46 37 47 82 48 76 49 78 50 38 51 81 52 75 53 74 54 39 56
REMARK SMILES IDX 65 57 48 58 64 59 49 60 52 61 63 62 79 63 50 64 51 65 62 67
REMARK SMILES IDX 80 68 53 69 40 70 41 71 46 72 42 73 43 74 45 75 47 76 44 77
REMARK SMILES IDX 66 78 67 79 72 80 68 81 69 82 71 83 73 84 70 85 54 86 55 87
REMARK SMILES IDX 60 88 56 89 57 90 59 91 61 92 58 93
REMARK H PARENT 7 17 24 30 28 36 78 55 52 66
REMARK Flexibility Score: inf
ROOT
ATOM      1  C   UNL A   1      36.868  23.059  25.895  1.00  0.00     0.000 A 
ATOM      2  C   UNL A   1      37.964  23.818  26.351  1.00  0.00     0.010 A 
ATOM      3  C   UNL A   1      39.266  23.305  26.378  1.00  0.00     0.005 A 
ATOM      4  C   UNL A   1      39.521  21.979  26.035  1.00  0.00    -0.034 A 
ATOM      5  C   UNL A   1      38.452  21.227  25.526  1.00  0.00     0.025 A 
ATOM      6  C   UNL A   1      37.158  21.764  25.420  1.00  0.00     0.049 A 
ATOM      7  Cl  UNL A   1      35.981  20.765  24.631  1.00  0.00    -0.084 Cl
ENDROOT
BRANCH   1   8
ATOM      8  C   UNL A   1      35.508  23.648  25.975  1.00  0.00    -0.013 A 
ATOM      9  C   UNL A   1      33.238  23.662  26.859  1.00  0.00     0.133 A 
ATOM     10  C   UNL A   1      32.942  24.837  26.177  1.00  0.00     0.047 A 
ATOM     11  C   UNL A   1      34.503  23.076  26.775  1.00  0.00     0.056 A 
ATOM     12  C   UNL A   1      33.928  25.437  25.403  1.00  0.00     0.004 A 
ATOM     13  C   UNL A   1      35.190  24.841  25.294  1.00  0.00     0.009 A 
BRANCH   9  14
ATOM     14  O   UNL A   1      32.169  23.022  27.510  1.00  0.00    -0.410 OA
BRANCH  14  15
ATOM     15  C   UNL A   1      30.932  22.956  26.889  1.00  0.00     0.412 C 
ATOM     16  N   UNL A   1      30.904  22.068  25.849  1.00  0.00    -0.321 N 
ATOM     17  H   UNL A   1      30.061  22.004  25.345  1.00  0.00     0.167 HD
ATOM     18  O   UNL A   1      29.939  23.607  27.192  1.00  0.00    -0.224 OA
BRANCH  16  19
ATOM     19  C   UNL A   1      31.990  21.212  25.411  1.00  0.00     0.119 C 
BRANCH  19  20
ATOM     20  C   UNL A   1      32.334  21.432  23.938  1.00  0.00     0.021 C 
BRANCH  20  21
ATOM     21  C   UNL A   1      32.273  20.171  23.065  1.00  0.00     0.002 C 
BRANCH  21  22
ATOM     22  C   UNL A   1      32.470  18.845  23.807  1.00  0.00    -0.000 C 
BRANCH  22  23
ATOM     23  C   UNL A   1      32.942  17.672  22.944  1.00  0.00    -0.003 C 
ATOM     24  C   UNL A   1      34.209  17.012  23.466  1.00  0.00     0.004 C 
ENDBRANCH  22  23
ENDBRANCH  21  22
ENDBRANCH  20  21
ENDBRANCH  19  20
ENDBRANCH  16  19
ENDBRANCH  14  15
ENDBRANCH   9  14
ENDBRANCH   1   8
BRANCH   4  25
ATOM     25  C   UNL A   1      40.878  21.321  26.228  1.00  0.00     0.105 C 
ATOM     26  C   UNL A   1      42.040  21.960  25.470  1.00  0.00     0.023 C 
BRANCH  25  27
ATOM     27  C   UNL A   1      41.180  20.973  27.696  1.00  0.00     0.227 C 
ATOM     28  O   UNL A   1      40.823  19.881  28.155  1.00  0.00    -0.274 OA
ATOM     29  N   UNL A   1      41.830  21.799  28.559  1.00  0.00    -0.356 N 
ATOM     30  H   UNL A   1      41.996  21.402  29.444  1.00  0.00     0.163 HD
BRANCH  29  31
ATOM     31  C   UNL A   1      42.323  23.155  28.421  1.00  0.00     0.117 C 
BRANCH  31  32
ATOM     32  C   UNL A   1      43.770  23.199  27.938  1.00  0.00     0.042 C 
BRANCH  32  33
ATOM     33  C   UNL A   1      44.187  24.534  27.340  1.00  0.00     0.118 C 
BRANCH  33  34
ATOM     34  N   UNL A   1      43.368  24.900  26.195  1.00  0.00    -0.352 N 
ATOM     35  C   UNL A   1      42.273  25.718  26.095  1.00  0.00     0.251 C 
ATOM     36  H   UNL A   1      43.649  24.489  25.345  1.00  0.00     0.163 HD
ATOM     37  O   UNL A   1      41.618  25.698  25.054  1.00  0.00    -0.269 OA
BRANCH  35  38
ATOM     38  C   UNL A   1      41.862  26.625  27.195  1.00  0.00     0.039 A 
ATOM     39  C   UNL A   1      42.381  27.926  27.208  1.00  0.00     0.014 A 
ATOM     40  C   UNL A   1      41.067  26.196  28.261  1.00  0.00     0.014 A 
ATOM     41  C   UNL A   1      42.103  28.786  28.273  1.00  0.00     0.010 A 
ATOM     42  C   UNL A   1      40.714  27.083  29.277  1.00  0.00     0.010 A 
ATOM     43  C   UNL A   1      41.262  28.371  29.317  1.00  0.00    -0.014 A 
BRANCH  43  44
ATOM     44  C   UNL A   1      41.025  29.241  30.498  1.00  0.00     0.031 A 
ATOM     45  C   UNL A   1      39.869  30.210  30.496  1.00  0.00     0.074 A 
ATOM     46  C   UNL A   1      41.852  29.180  31.559  1.00  0.00     0.049 A 
ATOM     47  N   UNL A   1      39.505  31.069  31.415  1.00  0.00    -0.248 NA
ATOM     48  C   UNL A   1      39.028  30.237  29.289  1.00  0.00     0.031 C 
ATOM     49  C   UNL A   1      43.030  28.319  31.666  1.00  0.00     0.029 A 
ATOM     50  N   UNL A   1      41.826  29.858  32.751  1.00  0.00    -0.354 N 
ATOM     51  C   UNL A   1      38.413  31.746  30.887  1.00  0.00     0.074 A 
ATOM     52  C   UNL A   1      38.207  31.243  29.548  1.00  0.00     0.031 C 
ATOM     53  C   UNL A   1      43.596  28.499  32.870  1.00  0.00     0.029 A 
ATOM     54  C   UNL A   1      42.839  29.505  33.607  1.00  0.00     0.049 A 
ATOM     55  H   UNL A   1      41.143  30.534  32.973  1.00  0.00     0.167 HD
ATOM     56  C   UNL A   1      37.630  32.684  31.474  1.00  0.00     0.037 A 
ATOM     57  C   UNL A   1      43.120  29.942  34.850  1.00  0.00     0.037 A 
ATOM     58  C   UNL A   1      37.812  33.159  32.820  1.00  0.00     0.049 A 
ATOM     59  C   UNL A   1      42.220  30.960  35.491  1.00  0.00     0.074 A 
ATOM     60  C   UNL A   1      37.048  34.072  33.525  1.00  0.00     0.029 A 
ATOM     61  N   UNL A   1      38.830  32.747  33.667  1.00  0.00    -0.354 N 
ATOM     62  N   UNL A   1      41.155  31.550  35.002  1.00  0.00    -0.248 NA
ATOM     63  C   UNL A   1      42.549  31.361  36.866  1.00  0.00     0.031 C 
ATOM     64  C   UNL A   1      37.621  34.236  34.791  1.00  0.00     0.029 A 
ATOM     65  C   UNL A   1      38.716  33.391  34.888  1.00  0.00     0.049 A 
ATOM     66  H   UNL A   1      39.528  32.094  33.436  1.00  0.00     0.167 HD
ATOM     67  C   UNL A   1      40.668  32.362  36.019  1.00  0.00     0.074 A 
ATOM     68  C   UNL A   1      41.549  32.180  37.154  1.00  0.00     0.031 C 
ATOM     69  C   UNL A   1      39.589  33.182  36.013  1.00  0.00     0.037 A 
BRANCH  56  70
ATOM     70  C   UNL A   1      36.502  33.250  30.659  1.00  0.00     0.057 A 
ATOM     71  C   UNL A   1      35.169  32.883  30.888  1.00  0.00     0.134 A 
ATOM     72  C   UNL A   1      36.748  34.187  29.647  1.00  0.00     0.134 A 
ATOM     73  F   UNL A   1      34.865  31.980  31.833  1.00  0.00    -0.206 F 
ATOM     74  C   UNL A   1      34.126  33.402  30.120  1.00  0.00     0.040 A 
ATOM     75  C   UNL A   1      35.709  34.735  28.891  1.00  0.00     0.040 A 
ATOM     76  F   UNL A   1      37.999  34.589  29.379  1.00  0.00    -0.206 F 
ATOM     77  C   UNL A   1      34.394  34.336  29.122  1.00  0.00     0.006 A 
ENDBRANCH  56  70
BRANCH  57  78
ATOM     78  C   UNL A   1      44.279  29.381  35.589  1.00  0.00     0.057 A 
ATOM     79  C   UNL A   1      45.558  29.930  35.445  1.00  0.00     0.134 A 
ATOM     80  C   UNL A   1      44.141  28.284  36.446  1.00  0.00     0.134 A 
ATOM     81  F   UNL A   1      45.758  30.972  34.625  1.00  0.00    -0.206 F 
ATOM     82  C   UNL A   1      46.663  29.396  36.110  1.00  0.00     0.040 A 
ATOM     83  C   UNL A   1      45.232  27.754  37.136  1.00  0.00     0.040 A 
ATOM     84  F   UNL A   1      42.939  27.718  36.633  1.00  0.00    -0.206 F 
ATOM     85  C   UNL A   1      46.500  28.305  36.962  1.00  0.00     0.006 A 
ENDBRANCH  57  78
BRANCH  69  86
ATOM     86  C   UNL A   1      39.270  33.900  37.291  1.00  0.00     0.057 A 
ATOM     87  C   UNL A   1      38.494  33.316  38.298  1.00  0.00     0.134 A 
ATOM     88  C   UNL A   1      39.775  35.186  37.525  1.00  0.00     0.134 A 
ATOM     89  F   UNL A   1      37.972  32.092  38.130  1.00  0.00    -0.206 F 
ATOM     90  C   UNL A   1      38.205  33.997  39.482  1.00  0.00     0.040 A 
ATOM     91  C   UNL A   1      39.515  35.866  38.715  1.00  0.00     0.040 A 
ATOM     92  F   UNL A   1      40.536  35.799  36.604  1.00  0.00    -0.206 F 
ATOM     93  C   UNL A   1      38.721  35.274  39.694  1.00  0.00     0.006 A 
ENDBRANCH  69  86
ENDBRANCH  43  44
ENDBRANCH  35  38
ENDBRANCH  33  34
ENDBRANCH  32  33
ENDBRANCH  31  32
ENDBRANCH  29  31
ENDBRANCH  25  27
ENDBRANCH   4  25
TORSDOF 19
ENDMDL
MODEL 3
REMARK VINA RESULT:     -11.2      4.513      6.855
REMARK SMILES CCCCCCNC(=O)Oc1cccc(-c2ccc([C@@H](C)C(=O)NCCCNC(=O)c3ccc(-c4c5nc(c(-c6c(F)cccc6F)c6ccc([nH]6)c(-c6c(F)cccc6F)c6nc(c(-c7c(F)cccc7F)c7ccc4[nH]7)C=C6)C=C5)cc3)cc2Cl)c1
REMARK SMILES IDX 16 1 17 2 18 3 19 4 85 5 86 6 87 7 15 8 11 9 12 10 88 11
REMARK SMILES IDX 13 12 14 13 10 14 8 15 7 16 9 18 6 19 5 20 4 21 3 22 2 23
REMARK SMILES IDX 1 24 20 25 21 26 22 27 23 28 24 29 25 31 26 32 27 33 28 34
REMARK SMILES IDX 29 35 30 37 31 38 32 39 84 40 33 41 83 42 34 43 35 44 36 45
REMARK SMILES IDX 77 46 37 47 82 48 76 49 78 50 38 51 81 52 75 53 74 54 39 56
REMARK SMILES IDX 65 57 48 58 64 59 49 60 52 61 63 62 79 63 50 64 51 65 62 67
REMARK SMILES IDX 80 68 53 69 40 70 41 71 46 72 42 73 43 74 45 75 47 76 44 77
REMARK SMILES IDX 66 78 67 79 72 80 68 81 69 82 71 83 73 84 70 85 54 86 55 87
REMARK SMILES IDX 60 88 56 89 57 90 59 91 61 92 58 93
REMARK H PARENT 7 17 24 30 28 36 78 55 52 66
REMARK Flexibility Score: inf
ROOT
ATOM      1  C   UNL A   1      39.213  27.762  28.457  1.00  0.00     0.000 A 
ATOM      2  C   UNL A   1      39.270  26.620  29.279  1.00  0.00     0.010 A 
ATOM      3  C   UNL A   1      40.210  25.603  29.078  1.00  0.00     0.005 A 
ATOM      4  C   UNL A   1      41.079  25.636  27.990  1.00  0.00    -0.034 A 
ATOM      5  C   UNL A   1      41.074  26.791  27.194  1.00  0.00     0.025 A 
ATOM      6  C   UNL A   1      40.186  27.852  27.442  1.00  0.00     0.049 A 
ATOM      7  Cl  UNL A   1      40.405  29.271  26.470  1.00  0.00    -0.084 Cl
ENDROOT
BRANCH   1   8
ATOM      8  C   UNL A   1      38.133  28.756  28.688  1.00  0.00    -0.013 A 
ATOM      9  C   UNL A   1      36.620  29.954  30.173  1.00  0.00     0.133 A 
ATOM     10  C   UNL A   1      36.129  30.714  29.117  1.00  0.00     0.047 A 
ATOM     11  C   UNL A   1      37.615  28.996  29.972  1.00  0.00     0.056 A 
ATOM     12  C   UNL A   1      36.647  30.516  27.842  1.00  0.00     0.004 A 
ATOM     13  C   UNL A   1      37.626  29.539  27.630  1.00  0.00     0.009 A 
BRANCH   9  14
ATOM     14  O   UNL A   1      35.966  30.093  31.409  1.00  0.00    -0.410 OA
BRANCH  14  15
ATOM     15  C   UNL A   1      35.799  31.357  31.956  1.00  0.00     0.412 C 
ATOM     16  N   UNL A   1      36.799  31.698  32.825  1.00  0.00    -0.321 N 
ATOM     17  H   UNL A   1      36.717  32.571  33.272  1.00  0.00     0.167 HD
ATOM     18  O   UNL A   1      34.870  32.123  31.728  1.00  0.00    -0.224 OA
BRANCH  16  19
ATOM     19  C   UNL A   1      37.970  30.906  33.154  1.00  0.00     0.119 C 
BRANCH  19  20
ATOM     20  C   UNL A   1      39.263  31.578  32.694  1.00  0.00     0.021 C 
BRANCH  20  21
ATOM     21  C   UNL A   1      39.774  31.123  31.320  1.00  0.00     0.002 C 
BRANCH  21  22
ATOM     22  C   UNL A   1      39.858  32.217  30.251  1.00  0.00    -0.000 C 
BRANCH  22  23
ATOM     23  C   UNL A   1      38.619  33.107  30.120  1.00  0.00    -0.003 C 
ATOM     24  C   UNL A   1      38.907  34.580  30.366  1.00  0.00     0.004 C 
ENDBRANCH  22  23
ENDBRANCH  21  22
ENDBRANCH  20  21
ENDBRANCH  19  20
ENDBRANCH  16  19
ENDBRANCH  14  15
ENDBRANCH   9  14
ENDBRANCH   1   8
BRANCH   4  25
ATOM     25  C   UNL A   1      41.983  24.473  27.617  1.00  0.00     0.105 C 
ATOM     26  C   UNL A   1      42.649  23.749  28.786  1.00  0.00     0.023 C 
BRANCH  25  27
ATOM     27  C   UNL A   1      41.375  23.547  26.550  1.00  0.00     0.227 C 
ATOM     28  O   UNL A   1      40.212  23.143  26.678  1.00  0.00    -0.274 OA
ATOM     29  N   UNL A   1      42.036  23.121  25.441  1.00  0.00    -0.356 N 
ATOM     30  H   UNL A   1      41.485  22.582  24.828  1.00  0.00     0.163 HD
BRANCH  29  31
ATOM     31  C   UNL A   1      43.400  23.311  24.990  1.00  0.00     0.117 C 
BRANCH  31  32
ATOM     32  C   UNL A   1      44.393  22.454  25.771  1.00  0.00     0.042 C 
BRANCH  32  33
ATOM     33  C   UNL A   1      45.494  23.246  26.459  1.00  0.00     0.118 C 
BRANCH  33  34
ATOM     34  N   UNL A   1      46.340  23.949  25.508  1.00  0.00    -0.352 N 
ATOM     35  C   UNL A   1      46.499  25.288  25.260  1.00  0.00     0.251 C 
ATOM     36  H   UNL A   1      46.894  23.362  24.943  1.00  0.00     0.163 HD
ATOM     37  O   UNL A   1      47.114  25.630  24.251  1.00  0.00    -0.269 OA
BRANCH  35  38
ATOM     38  C   UNL A   1      45.960  26.328  26.171  1.00  0.00     0.039 A 
ATOM     39  C   UNL A   1      46.832  26.909  27.100  1.00  0.00     0.014 A 
ATOM     40  C   UNL A   1      44.606  26.669  26.199  1.00  0.00     0.014 A 
ATOM     41  C   UNL A   1      46.352  27.820  28.044  1.00  0.00     0.010 A 
ATOM     42  C   UNL A   1      44.144  27.647  27.079  1.00  0.00     0.010 A 
ATOM     43  C   UNL A   1      45.001  28.200  28.038  1.00  0.00    -0.014 A 
BRANCH  43  44
ATOM     44  C   UNL A   1      44.457  29.102  29.086  1.00  0.00     0.031 A 
ATOM     45  C   UNL A   1      44.098  28.547  30.441  1.00  0.00     0.074 A 
ATOM     46  C   UNL A   1      44.267  30.408  28.821  1.00  0.00     0.049 A 
ATOM     47  N   UNL A   1      43.592  29.159  31.482  1.00  0.00    -0.248 NA
ATOM     48  C   UNL A   1      44.310  27.104  30.644  1.00  0.00     0.031 C 
ATOM     49  C   UNL A   1      44.532  31.060  27.538  1.00  0.00     0.029 A 
ATOM     50  N   UNL A   1      43.805  31.423  29.620  1.00  0.00    -0.354 N 
ATOM     51  C   UNL A   1      43.407  28.177  32.447  1.00  0.00     0.074 A 
ATOM     52  C   UNL A   1      43.800  26.919  31.852  1.00  0.00     0.031 C 
ATOM     53  C   UNL A   1      44.256  32.369  27.645  1.00  0.00     0.029 A 
ATOM     54  C   UNL A   1      43.770  32.645  28.994  1.00  0.00     0.049 A 
ATOM     55  H   UNL A   1      43.524  31.288  30.555  1.00  0.00     0.167 HD
ATOM     56  C   UNL A   1      42.977  28.310  33.725  1.00  0.00     0.037 A 
ATOM     57  C   UNL A   1      43.394  33.850  29.460  1.00  0.00     0.037 A 
ATOM     58  C   UNL A   1      42.622  29.567  34.328  1.00  0.00     0.049 A 
ATOM     59  C   UNL A   1      42.950  33.979  30.890  1.00  0.00     0.074 A 
ATOM     60  C   UNL A   1      42.219  29.819  35.627  1.00  0.00     0.029 A 
ATOM     61  N   UNL A   1      42.638  30.787  33.669  1.00  0.00    -0.354 N 
ATOM     62  N   UNL A   1      42.835  33.051  31.809  1.00  0.00    -0.248 NA
ATOM     63  C   UNL A   1      42.599  35.329  31.354  1.00  0.00     0.031 C 
ATOM     64  C   UNL A   1      41.961  31.189  35.748  1.00  0.00     0.029 A 
ATOM     65  C   UNL A   1      42.247  31.795  34.535  1.00  0.00     0.049 A 
ATOM     66  H   UNL A   1      42.889  30.918  32.727  1.00  0.00     0.167 HD
ATOM     67  C   UNL A   1      42.435  33.707  32.966  1.00  0.00     0.074 A 
ATOM     68  C   UNL A   1      42.337  35.113  32.635  1.00  0.00     0.031 C 
ATOM     69  C   UNL A   1      42.175  33.192  34.193  1.00  0.00     0.037 A 
BRANCH  56  70
ATOM     70  C   UNL A   1      42.876  27.061  34.553  1.00  0.00     0.057 A 
ATOM     71  C   UNL A   1      41.660  26.383  34.720  1.00  0.00     0.134 A 
ATOM     72  C   UNL A   1      44.006  26.520  35.175  1.00  0.00     0.134 A 
ATOM     73  F   UNL A   1      40.535  26.856  34.162  1.00  0.00    -0.206 F 
ATOM     74  C   UNL A   1      41.568  25.230  35.501  1.00  0.00     0.040 A 
ATOM     75  C   UNL A   1      43.932  25.350  35.936  1.00  0.00     0.040 A 
ATOM     76  F   UNL A   1      45.203  27.113  35.052  1.00  0.00    -0.206 F 
ATOM     77  C   UNL A   1      42.708  24.707  36.107  1.00  0.00     0.006 A 
ENDBRANCH  56  70
BRANCH  57  78
ATOM     78  C   UNL A   1      43.469  35.043  28.578  1.00  0.00     0.057 A 
ATOM     79  C   UNL A   1      42.322  35.555  27.961  1.00  0.00     0.134 A 
ATOM     80  C   UNL A   1      44.682  35.691  28.324  1.00  0.00     0.134 A 
ATOM     81  F   UNL A   1      41.133  34.965  28.152  1.00  0.00    -0.206 F 
ATOM     82  C   UNL A   1      42.381  36.656  27.106  1.00  0.00     0.040 A 
ATOM     83  C   UNL A   1      44.752  36.809  27.491  1.00  0.00     0.040 A 
ATOM     84  F   UNL A   1      45.816  35.255  28.892  1.00  0.00    -0.206 F 
ATOM     85  C   UNL A   1      43.600  37.289  26.872  1.00  0.00     0.006 A 
ENDBRANCH  57  78
BRANCH  69  86
ATOM     86  C   UNL A   1      41.814  34.162  35.278  1.00  0.00     0.057 A 
ATOM     87  C   UNL A   1      42.778  34.726  36.121  1.00  0.00     0.134 A 
ATOM     88  C   UNL A   1      40.482  34.557  35.461  1.00  0.00     0.134 A 
ATOM     89  F   UNL A   1      44.069  34.381  36.005  1.00  0.00    -0.206 F 
ATOM     90  C   UNL A   1      42.427  35.628  37.128  1.00  0.00     0.040 A 
ATOM     91  C   UNL A   1      40.122  35.476  36.446  1.00  0.00     0.040 A 
ATOM     92  F   UNL A   1      39.510  34.061  34.679  1.00  0.00    -0.206 F 
ATOM     93  C   UNL A   1      41.096  36.008  37.288  1.00  0.00     0.006 A 
ENDBRANCH  69  86
ENDBRANCH  43  44
ENDBRANCH  35  38
ENDBRANCH  33  34
ENDBRANCH  32  33
ENDBRANCH  31  32
ENDBRANCH  29  31
ENDBRANCH  25  27
ENDBRANCH   4  25
TORSDOF 19
ENDMDL
