MODEL 1
REMARK VINA RESULT:     -10.6      0.000      0.000
REMARK SMILES C[C@H]([C@H](C)C(=O)NCCCNC(=O)c1ccc(-c2c3nc(c(-c4c(F)cccc4F)c4ccc([nH]4)c(-c4c(F)cccc4F)c4nc(c(-c5c(F)cccc5F)c5ccc2[nH]5)C=C4)C=C3)cc1)[C@H](O)c1cncn1C1CC1
REMARK SMILES IDX 8 1 7 2 5 3 6 4 3 6 4 7 2 8 1 9 68 10 70 11 71 12 74 13
REMARK SMILES IDX 72 14 73 15 75 16 76 17 77 18 69 19 9 21 10 22 11 23 12 24
REMARK SMILES IDX 13 26 14 27 15 28 67 29 16 30 66 31 17 32 18 33 19 34 60 35
REMARK SMILES IDX 20 36 65 37 59 38 61 39 21 40 64 41 58 42 57 43 22 45 48 46
REMARK SMILES IDX 31 47 47 48 32 49 35 50 46 51 62 52 33 53 34 54 45 56 63 57
REMARK SMILES IDX 36 58 23 59 24 60 29 61 25 62 26 63 28 64 30 65 27 66 49 67
REMARK SMILES IDX 50 68 55 69 51 70 52 71 54 72 56 73 53 74 37 75 38 76 43 77
REMARK SMILES IDX 39 78 40 79 42 80 44 81 41 82
REMARK H PARENT 7 5 69 20 11 25 61 44 35 55
REMARK Flexibility Score: inf
ROOT
ATOM      1  C   UNL A   1      31.050  30.235  25.218  1.00  0.00     0.117 C 
ENDROOT
BRANCH   1   2
ATOM      2  N   UNL A   1      32.260  29.908  24.522  1.00  0.00    -0.356 N 
ATOM      3  C   UNL A   1      33.142  28.908  24.721  1.00  0.00     0.223 C 
ATOM      4  O   UNL A   1      33.958  28.755  23.801  1.00  0.00    -0.275 OA
ATOM      5  H   UNL A   1      32.483  30.510  23.777  1.00  0.00     0.163 HD
BRANCH   3   6
ATOM      6  C   UNL A   1      33.265  28.026  25.976  1.00  0.00     0.081 C 
ATOM      7  C   UNL A   1      34.150  28.827  26.955  1.00  0.00     0.018 C 
BRANCH   6   8
ATOM      8  C   UNL A   1      32.114  27.252  26.726  1.00  0.00     0.033 C 
ATOM      9  C   UNL A   1      31.491  28.012  27.908  1.00  0.00     0.011 C 
BRANCH   8  10
ATOM     10  C   UNL A   1      31.194  26.274  25.894  1.00  0.00     0.166 C 
BRANCH  10  11
ATOM     11  C   UNL A   1      31.591  25.805  24.511  1.00  0.00     0.067 A 
ATOM     12  C   UNL A   1      30.897  25.972  23.309  1.00  0.00     0.137 A 
ATOM     13  N   UNL A   1      32.649  24.985  24.104  1.00  0.00    -0.329 N 
ATOM     14  N   UNL A   1      31.581  25.515  22.224  1.00  0.00    -0.245 NA
ATOM     15  C   UNL A   1      32.636  24.935  22.731  1.00  0.00     0.199 A 
BRANCH  13  16
ATOM     16  C   UNL A   1      33.624  24.154  24.792  1.00  0.00     0.088 C 
ATOM     17  C   UNL A   1      34.900  23.573  24.235  1.00  0.00     0.027 C 
ATOM     18  C   UNL A   1      34.970  24.659  25.260  1.00  0.00     0.027 C 
ENDBRANCH  13  16
ENDBRANCH  10  11
BRANCH  10  19
ATOM     19  O   UNL A   1      30.936  25.154  26.715  1.00  0.00    -0.387 OA
ATOM     20  H   UNL A   1      30.642  25.454  27.589  1.00  0.00     0.211 HD
ENDBRANCH  10  19
ENDBRANCH   8  10
ENDBRANCH   6   8
ENDBRANCH   3   6
ENDBRANCH   1   2
BRANCH   1  21
ATOM     21  C   UNL A   1      30.973  31.646  25.757  1.00  0.00     0.042 C 
BRANCH  21  22
ATOM     22  C   UNL A   1      32.025  31.928  26.816  1.00  0.00     0.118 C 
BRANCH  22  23
ATOM     23  N   UNL A   1      32.091  33.335  27.207  1.00  0.00    -0.352 N 
ATOM     24  C   UNL A   1      32.953  34.030  28.027  1.00  0.00     0.251 C 
ATOM     25  H   UNL A   1      31.384  33.892  26.808  1.00  0.00     0.163 HD
ATOM     26  O   UNL A   1      32.660  35.174  28.360  1.00  0.00    -0.269 OA
BRANCH  24  27
ATOM     27  C   UNL A   1      34.200  33.411  28.537  1.00  0.00     0.039 A 
ATOM     28  C   UNL A   1      35.393  34.142  28.512  1.00  0.00     0.014 A 
ATOM     29  C   UNL A   1      34.216  32.108  29.023  1.00  0.00     0.014 A 
ATOM     30  C   UNL A   1      36.557  33.600  29.070  1.00  0.00     0.010 A 
ATOM     31  C   UNL A   1      35.322  31.635  29.716  1.00  0.00     0.010 A 
ATOM     32  C   UNL A   1      36.517  32.366  29.738  1.00  0.00    -0.014 A 
BRANCH  32  33
ATOM     33  C   UNL A   1      37.692  31.796  30.450  1.00  0.00     0.031 A 
ATOM     34  C   UNL A   1      38.558  30.763  29.769  1.00  0.00     0.074 A 
ATOM     35  C   UNL A   1      37.918  32.109  31.742  1.00  0.00     0.049 A 
ATOM     36  N   UNL A   1      39.504  30.009  30.272  1.00  0.00    -0.248 NA
ATOM     37  C   UNL A   1      38.281  30.500  28.347  1.00  0.00     0.031 C 
ATOM     38  C   UNL A   1      37.119  33.037  32.546  1.00  0.00     0.029 A 
ATOM     39  N   UNL A   1      38.883  31.667  32.613  1.00  0.00    -0.354 N 
ATOM     40  C   UNL A   1      39.889  29.152  29.246  1.00  0.00     0.074 A 
ATOM     41  C   UNL A   1      39.034  29.436  28.115  1.00  0.00     0.031 C 
ATOM     42  C   UNL A   1      37.649  33.124  33.776  1.00  0.00     0.029 A 
ATOM     43  C   UNL A   1      38.793  32.223  33.865  1.00  0.00     0.049 A 
ATOM     44  H   UNL A   1      39.574  31.012  32.363  1.00  0.00     0.167 HD
ATOM     45  C   UNL A   1      40.884  28.235  29.233  1.00  0.00     0.037 A 
ATOM     46  C   UNL A   1      39.544  32.026  34.965  1.00  0.00     0.037 A 
ATOM     47  C   UNL A   1      41.787  28.013  30.331  1.00  0.00     0.049 A 
ATOM     48  C   UNL A   1      40.684  31.050  34.908  1.00  0.00     0.074 A 
ATOM     49  C   UNL A   1      42.889  27.179  30.388  1.00  0.00     0.029 A 
ATOM     50  N   UNL A   1      41.698  28.646  31.561  1.00  0.00    -0.354 N 
ATOM     51  N   UNL A   1      41.072  30.290  33.915  1.00  0.00    -0.248 NA
ATOM     52  C   UNL A   1      41.493  30.907  36.127  1.00  0.00     0.031 C 
ATOM     53  C   UNL A   1      43.453  27.287  31.663  1.00  0.00     0.029 A 
ATOM     54  C   UNL A   1      42.722  28.215  32.388  1.00  0.00     0.049 A 
ATOM     55  H   UNL A   1      41.009  29.304  31.811  1.00  0.00     0.167 HD
ATOM     56  C   UNL A   1      42.182  29.596  34.377  1.00  0.00     0.074 A 
ATOM     57  C   UNL A   1      42.414  30.036  35.737  1.00  0.00     0.031 C 
ATOM     58  C   UNL A   1      42.941  28.675  33.735  1.00  0.00     0.037 A 
BRANCH  45  59
ATOM     59  C   UNL A   1      41.059  27.421  27.983  1.00  0.00     0.057 A 
ATOM     60  C   UNL A   1      40.377  26.212  27.782  1.00  0.00     0.134 A 
ATOM     61  C   UNL A   1      41.911  27.857  26.959  1.00  0.00     0.134 A 
ATOM     62  F   UNL A   1      39.555  25.732  28.727  1.00  0.00    -0.206 F 
ATOM     63  C   UNL A   1      40.567  25.448  26.629  1.00  0.00     0.040 A 
ATOM     64  C   UNL A   1      42.085  27.116  25.789  1.00  0.00     0.040 A 
ATOM     65  F   UNL A   1      42.588  29.008  27.080  1.00  0.00    -0.206 F 
ATOM     66  C   UNL A   1      41.420  25.902  25.627  1.00  0.00     0.006 A 
ENDBRANCH  45  59
BRANCH  46  67
ATOM     67  C   UNL A   1      39.268  32.802  36.200  1.00  0.00     0.057 A 
ATOM     68  C   UNL A   1      39.850  34.060  36.399  1.00  0.00     0.134 A 
ATOM     69  C   UNL A   1      38.417  32.318  37.201  1.00  0.00     0.134 A 
ATOM     70  F   UNL A   1      40.687  34.567  35.482  1.00  0.00    -0.206 F 
ATOM     71  C   UNL A   1      39.610  34.802  37.555  1.00  0.00     0.040 A 
ATOM     72  C   UNL A   1      38.151  33.061  38.352  1.00  0.00     0.040 A 
ATOM     73  F   UNL A   1      37.821  31.125  37.065  1.00  0.00    -0.206 F 
ATOM     74  C   UNL A   1      38.753  34.304  38.535  1.00  0.00     0.006 A 
ENDBRANCH  46  67
BRANCH  58  75
ATOM     75  C   UNL A   1      44.110  28.109  34.482  1.00  0.00     0.057 A 
ATOM     76  C   UNL A   1      45.360  28.739  34.482  1.00  0.00     0.134 A 
ATOM     77  C   UNL A   1      43.970  26.942  35.244  1.00  0.00     0.134 A 
ATOM     78  F   UNL A   1      45.560  29.853  33.761  1.00  0.00    -0.206 F 
ATOM     79  C   UNL A   1      46.437  28.219  35.201  1.00  0.00     0.040 A 
ATOM     80  C   UNL A   1      45.032  26.426  35.987  1.00  0.00     0.040 A 
ATOM     81  F   UNL A   1      42.796  26.295  35.292  1.00  0.00    -0.206 F 
ATOM     82  C   UNL A   1      46.272  27.063  35.962  1.00  0.00     0.006 A 
ENDBRANCH  58  75
ENDBRANCH  32  33
ENDBRANCH  24  27
ENDBRANCH  22  23
ENDBRANCH  21  22
ENDBRANCH   1  21
TORSDOF 15
ENDMDL
MODEL 2
REMARK VINA RESULT:     -10.6      4.607      9.282
REMARK SMILES C[C@H]([C@H](C)C(=O)NCCCNC(=O)c1ccc(-c2c3nc(c(-c4c(F)cccc4F)c4ccc([nH]4)c(-c4c(F)cccc4F)c4nc(c(-c5c(F)cccc5F)c5ccc2[nH]5)C=C4)C=C3)cc1)[C@H](O)c1cncn1C1CC1
REMARK SMILES IDX 8 1 7 2 5 3 6 4 3 6 4 7 2 8 1 9 68 10 70 11 71 12 74 13
REMARK SMILES IDX 72 14 73 15 75 16 76 17 77 18 69 19 9 21 10 22 11 23 12 24
REMARK SMILES IDX 13 26 14 27 15 28 67 29 16 30 66 31 17 32 18 33 19 34 60 35
REMARK SMILES IDX 20 36 65 37 59 38 61 39 21 40 64 41 58 42 57 43 22 45 48 46
REMARK SMILES IDX 31 47 47 48 32 49 35 50 46 51 62 52 33 53 34 54 45 56 63 57
REMARK SMILES IDX 36 58 23 59 24 60 29 61 25 62 26 63 28 64 30 65 27 66 49 67
REMARK SMILES IDX 50 68 55 69 51 70 52 71 54 72 56 73 53 74 37 75 38 76 43 77
REMARK SMILES IDX 39 78 40 79 42 80 44 81 41 82
REMARK H PARENT 7 5 69 20 11 25 61 44 35 55
REMARK Flexibility Score: inf
ROOT
ATOM      1  C   UNL A   1      36.041  20.804  25.163  1.00  0.00     0.117 C 
ENDROOT
BRANCH   1   2
ATOM      2  N   UNL A   1      35.101  19.733  25.319  1.00  0.00    -0.356 N 
ATOM      3  C   UNL A   1      33.977  19.445  24.631  1.00  0.00     0.223 C 
ATOM      4  O   UNL A   1      33.516  18.316  24.855  1.00  0.00    -0.275 OA
ATOM      5  H   UNL A   1      35.310  19.104  26.046  1.00  0.00     0.163 HD
BRANCH   3   6
ATOM      6  C   UNL A   1      33.209  20.388  23.688  1.00  0.00     0.081 C 
ATOM      7  C   UNL A   1      32.124  19.511  23.027  1.00  0.00     0.018 C 
BRANCH   6   8
ATOM      8  C   UNL A   1      32.680  21.840  24.000  1.00  0.00     0.033 C 
ATOM      9  C   UNL A   1      31.860  22.483  22.871  1.00  0.00     0.011 C 
BRANCH   8  10
ATOM     10  C   UNL A   1      32.318  22.208  25.493  1.00  0.00     0.166 C 
BRANCH  10  11
ATOM     11  C   UNL A   1      31.895  23.609  25.880  1.00  0.00     0.067 A 
ATOM     12  C   UNL A   1      30.606  24.081  26.142  1.00  0.00     0.137 A 
ATOM     13  N   UNL A   1      32.637  24.793  25.936  1.00  0.00    -0.329 N 
ATOM     14  N   UNL A   1      30.583  25.376  26.563  1.00  0.00    -0.245 NA
ATOM     15  C   UNL A   1      31.819  25.777  26.438  1.00  0.00     0.199 A 
BRANCH  13  16
ATOM     16  C   UNL A   1      33.969  25.189  25.507  1.00  0.00     0.088 C 
ATOM     17  C   UNL A   1      35.233  24.365  25.537  1.00  0.00     0.027 C 
ATOM     18  C   UNL A   1      34.610  24.713  24.223  1.00  0.00     0.027 C 
ENDBRANCH  13  16
ENDBRANCH  10  11
BRANCH  10  19
ATOM     19  O   UNL A   1      31.336  21.286  25.918  1.00  0.00    -0.387 OA
ATOM     20  H   UNL A   1      31.206  20.612  25.232  1.00  0.00     0.211 HD
ENDBRANCH  10  19
ENDBRANCH   8  10
ENDBRANCH   6   8
ENDBRANCH   3   6
ENDBRANCH   1   2
BRANCH   1  21
ATOM     21  C   UNL A   1      37.407  20.401  24.654  1.00  0.00     0.042 C 
BRANCH  21  22
ATOM     22  C   UNL A   1      38.522  20.752  25.624  1.00  0.00     0.118 C 
BRANCH  22  23
ATOM     23  N   UNL A   1      39.567  19.732  25.699  1.00  0.00    -0.352 N 
ATOM     24  C   UNL A   1      40.905  19.797  26.020  1.00  0.00     0.251 C 
ATOM     25  H   UNL A   1      39.254  18.826  25.477  1.00  0.00     0.163 HD
ATOM     26  O   UNL A   1      41.616  18.821  25.799  1.00  0.00    -0.269 OA
BRANCH  24  27
ATOM     27  C   UNL A   1      41.502  21.029  26.592  1.00  0.00     0.039 A 
ATOM     28  C   UNL A   1      41.954  22.038  25.734  1.00  0.00     0.014 A 
ATOM     29  C   UNL A   1      41.641  21.197  27.965  1.00  0.00     0.014 A 
ATOM     30  C   UNL A   1      42.439  23.240  26.263  1.00  0.00     0.010 A 
ATOM     31  C   UNL A   1      41.969  22.441  28.486  1.00  0.00     0.010 A 
ATOM     32  C   UNL A   1      42.389  23.479  27.646  1.00  0.00    -0.014 A 
BRANCH  32  33
ATOM     33  C   UNL A   1      42.781  24.780  28.254  1.00  0.00     0.031 A 
ATOM     34  C   UNL A   1      41.734  25.837  28.512  1.00  0.00     0.074 A 
ATOM     35  C   UNL A   1      44.082  25.063  28.465  1.00  0.00     0.049 A 
ATOM     36  N   UNL A   1      41.887  27.092  28.853  1.00  0.00    -0.248 NA
ATOM     37  C   UNL A   1      40.331  25.445  28.299  1.00  0.00     0.031 C 
ATOM     38  C   UNL A   1      45.205  24.163  28.193  1.00  0.00     0.029 A 
ATOM     39  N   UNL A   1      44.682  26.201  28.945  1.00  0.00    -0.354 N 
ATOM     40  C   UNL A   1      40.611  27.645  28.839  1.00  0.00     0.074 A 
ATOM     41  C   UNL A   1      39.706  26.609  28.396  1.00  0.00     0.031 C 
ATOM     42  C   UNL A   1      46.350  24.766  28.547  1.00  0.00     0.029 A 
ATOM     43  C   UNL A   1      46.050  26.112  29.023  1.00  0.00     0.049 A 
ATOM     44  H   UNL A   1      44.178  27.005  29.208  1.00  0.00     0.167 HD
ATOM     45  C   UNL A   1      40.221  28.892  29.192  1.00  0.00     0.037 A 
ATOM     46  C   UNL A   1      46.962  27.016  29.428  1.00  0.00     0.037 A 
ATOM     47  C   UNL A   1      41.111  29.896  29.711  1.00  0.00     0.049 A 
ATOM     48  C   UNL A   1      46.501  28.373  29.878  1.00  0.00     0.074 A 
ATOM     49  C   UNL A   1      40.805  31.156  30.191  1.00  0.00     0.029 A 
ATOM     50  N   UNL A   1      42.484  29.741  29.834  1.00  0.00    -0.354 N 
ATOM     51  N   UNL A   1      45.286  28.862  29.913  1.00  0.00    -0.248 NA
ATOM     52  C   UNL A   1      47.538  29.303  30.346  1.00  0.00     0.031 C 
ATOM     53  C   UNL A   1      41.998  31.776  30.580  1.00  0.00     0.029 A 
ATOM     54  C   UNL A   1      43.041  30.887  30.375  1.00  0.00     0.049 A 
ATOM     55  H   UNL A   1      42.987  28.936  29.574  1.00  0.00     0.167 HD
ATOM     56  C   UNL A   1      45.408  30.145  30.429  1.00  0.00     0.074 A 
ATOM     57  C   UNL A   1      46.814  30.354  30.704  1.00  0.00     0.031 C 
ATOM     58  C   UNL A   1      44.442  31.069  30.651  1.00  0.00     0.037 A 
BRANCH  45  59
ATOM     59  C   UNL A   1      38.764  29.228  29.049  1.00  0.00     0.057 A 
ATOM     60  C   UNL A   1      37.887  29.211  30.143  1.00  0.00     0.134 A 
ATOM     61  C   UNL A   1      38.231  29.585  27.803  1.00  0.00     0.134 A 
ATOM     62  F   UNL A   1      38.330  28.866  31.362  1.00  0.00    -0.206 F 
ATOM     63  C   UNL A   1      36.529  29.497  29.997  1.00  0.00     0.040 A 
ATOM     64  C   UNL A   1      36.880  29.903  27.651  1.00  0.00     0.040 A 
ATOM     65  F   UNL A   1      39.013  29.631  26.715  1.00  0.00    -0.206 F 
ATOM     66  C   UNL A   1      36.023  29.848  28.748  1.00  0.00     0.006 A 
ENDBRANCH  45  59
BRANCH  46  67
ATOM     67  C   UNL A   1      48.401  26.650  29.468  1.00  0.00     0.057 A 
ATOM     68  C   UNL A   1      48.936  25.975  30.571  1.00  0.00     0.134 A 
ATOM     69  C   UNL A   1      49.268  26.954  28.412  1.00  0.00     0.134 A 
ATOM     70  F   UNL A   1      48.156  25.674  31.620  1.00  0.00    -0.206 F 
ATOM     71  C   UNL A   1      50.286  25.630  30.633  1.00  0.00     0.040 A 
ATOM     72  C   UNL A   1      50.616  26.593  28.452  1.00  0.00     0.040 A 
ATOM     73  F   UNL A   1      48.815  27.590  27.323  1.00  0.00    -0.206 F 
ATOM     74  C   UNL A   1      51.130  25.935  29.567  1.00  0.00     0.006 A 
ENDBRANCH  46  67
BRANCH  58  75
ATOM     75  C   UNL A   1      44.869  32.374  31.252  1.00  0.00     0.057 A 
ATOM     76  C   UNL A   1      44.940  32.560  32.637  1.00  0.00     0.134 A 
ATOM     77  C   UNL A   1      45.254  33.443  30.432  1.00  0.00     0.134 A 
ATOM     78  F   UNL A   1      44.572  31.578  33.475  1.00  0.00    -0.206 F 
ATOM     79  C   UNL A   1      45.363  33.771  33.189  1.00  0.00     0.040 A 
ATOM     80  C   UNL A   1      45.701  34.650  30.972  1.00  0.00     0.040 A 
ATOM     81  F   UNL A   1      45.216  33.326  29.096  1.00  0.00    -0.206 F 
ATOM     82  C   UNL A   1      45.751  34.817  32.354  1.00  0.00     0.006 A 
ENDBRANCH  58  75
ENDBRANCH  32  33
ENDBRANCH  24  27
ENDBRANCH  22  23
ENDBRANCH  21  22
ENDBRANCH   1  21
TORSDOF 15
ENDMDL
MODEL 3
REMARK VINA RESULT:     -10.6      1.663      3.218
REMARK SMILES C[C@H]([C@H](C)C(=O)NCCCNC(=O)c1ccc(-c2c3nc(c(-c4c(F)cccc4F)c4ccc([nH]4)c(-c4c(F)cccc4F)c4nc(c(-c5c(F)cccc5F)c5ccc2[nH]5)C=C4)C=C3)cc1)[C@H](O)c1cncn1C1CC1
REMARK SMILES IDX 8 1 7 2 5 3 6 4 3 6 4 7 2 8 1 9 68 10 70 11 71 12 74 13
REMARK SMILES IDX 72 14 73 15 75 16 76 17 77 18 69 19 9 21 10 22 11 23 12 24
REMARK SMILES IDX 13 26 14 27 15 28 67 29 16 30 66 31 17 32 18 33 19 34 60 35
REMARK SMILES IDX 20 36 65 37 59 38 61 39 21 40 64 41 58 42 57 43 22 45 48 46
REMARK SMILES IDX 31 47 47 48 32 49 35 50 46 51 62 52 33 53 34 54 45 56 63 57
REMARK SMILES IDX 36 58 23 59 24 60 29 61 25 62 26 63 28 64 30 65 27 66 49 67
REMARK SMILES IDX 50 68 55 69 51 70 52 71 54 72 56 73 53 74 37 75 38 76 43 77
REMARK SMILES IDX 39 78 40 79 42 80 44 81 41 82
REMARK H PARENT 7 5 69 20 11 25 61 44 35 55
REMARK Flexibility Score: inf
ROOT
ATOM      1  C   UNL A   1      31.018  31.103  25.560  1.00  0.00     0.117 C 
ENDROOT
BRANCH   1   2
ATOM      2  N   UNL A   1      32.047  30.202  25.990  1.00  0.00    -0.356 N 
ATOM      3  C   UNL A   1      32.842  29.375  25.281  1.00  0.00     0.223 C 
ATOM      4  O   UNL A   1      33.793  28.906  25.922  1.00  0.00    -0.275 OA
ATOM      5  H   UNL A   1      32.199  30.183  26.962  1.00  0.00     0.163 HD
BRANCH   3   6
ATOM      6  C   UNL A   1      32.634  28.925  23.824  1.00  0.00     0.081 C 
ATOM      7  C   UNL A   1      34.012  28.416  23.351  1.00  0.00     0.018 C 
BRANCH   6   8
ATOM      8  C   UNL A   1      31.456  28.050  23.246  1.00  0.00     0.033 C 
ATOM      9  C   UNL A   1      30.907  26.990  24.213  1.00  0.00     0.011 C 
BRANCH   8  10
ATOM     10  C   UNL A   1      30.461  28.710  22.212  1.00  0.00     0.166 C 
BRANCH  10  11
ATOM     11  C   UNL A   1      29.087  29.184  22.632  1.00  0.00     0.067 A 
ATOM     12  C   UNL A   1      27.983  28.412  23.004  1.00  0.00     0.137 A 
ATOM     13  N   UNL A   1      28.533  30.469  22.624  1.00  0.00    -0.329 N 
ATOM     14  N   UNL A   1      26.922  29.157  23.425  1.00  0.00    -0.245 NA
ATOM     15  C   UNL A   1      27.285  30.390  23.194  1.00  0.00     0.199 A 
BRANCH  13  16
ATOM     16  C   UNL A   1      28.938  31.756  22.082  1.00  0.00     0.088 C 
ATOM     17  C   UNL A   1      28.050  32.859  21.561  1.00  0.00     0.027 C 
ATOM     18  C   UNL A   1      28.805  33.060  22.835  1.00  0.00     0.027 C 
ENDBRANCH  13  16
ENDBRANCH  10  11
BRANCH  10  19
ATOM     19  O   UNL A   1      31.156  29.774  21.594  1.00  0.00    -0.387 OA
ATOM     20  H   UNL A   1      31.193  29.623  20.636  1.00  0.00     0.211 HD
ENDBRANCH  10  19
ENDBRANCH   8  10
ENDBRANCH   6   8
ENDBRANCH   3   6
ENDBRANCH   1   2
BRANCH   1  21
ATOM     21  C   UNL A   1      31.036  32.467  26.212  1.00  0.00     0.042 C 
BRANCH  21  22
ATOM     22  C   UNL A   1      32.326  32.740  26.967  1.00  0.00     0.118 C 
BRANCH  22  23
ATOM     23  N   UNL A   1      32.341  34.038  27.638  1.00  0.00    -0.352 N 
ATOM     24  C   UNL A   1      33.132  34.555  28.642  1.00  0.00     0.251 C 
ATOM     25  H   UNL A   1      31.654  34.663  27.311  1.00  0.00     0.163 HD
ATOM     26  O   UNL A   1      32.797  35.607  29.178  1.00  0.00    -0.269 OA
BRANCH  24  27
ATOM     27  C   UNL A   1      34.351  33.848  29.104  1.00  0.00     0.039 A 
ATOM     28  C   UNL A   1      35.610  34.382  28.809  1.00  0.00     0.014 A 
ATOM     29  C   UNL A   1      34.272  32.653  29.809  1.00  0.00     0.014 A 
ATOM     30  C   UNL A   1      36.765  33.771  29.314  1.00  0.00     0.010 A 
ATOM     31  C   UNL A   1      35.397  32.139  30.440  1.00  0.00     0.010 A 
ATOM     32  C   UNL A   1      36.664  32.679  30.191  1.00  0.00    -0.014 A 
BRANCH  32  33
ATOM     33  C   UNL A   1      37.848  32.063  30.850  1.00  0.00     0.031 A 
ATOM     34  C   UNL A   1      38.638  30.994  30.134  1.00  0.00     0.074 A 
ATOM     35  C   UNL A   1      38.146  32.371  32.128  1.00  0.00     0.049 A 
ATOM     36  N   UNL A   1      39.575  30.204  30.596  1.00  0.00    -0.248 NA
ATOM     37  C   UNL A   1      38.285  30.739  28.728  1.00  0.00     0.031 C 
ATOM     38  C   UNL A   1      37.424  33.332  32.965  1.00  0.00     0.029 A 
ATOM     39  N   UNL A   1      39.131  31.891  32.956  1.00  0.00    -0.354 N 
ATOM     40  C   UNL A   1      39.877  29.330  29.557  1.00  0.00     0.074 A 
ATOM     41  C   UNL A   1      38.982  29.645  28.466  1.00  0.00     0.031 C 
ATOM     42  C   UNL A   1      38.013  33.401  34.168  1.00  0.00     0.029 A 
ATOM     43  C   UNL A   1      39.123  32.454  34.208  1.00  0.00     0.049 A 
ATOM     44  H   UNL A   1      39.784  31.208  32.677  1.00  0.00     0.167 HD
ATOM     45  C   UNL A   1      40.832  28.372  29.502  1.00  0.00     0.037 A 
ATOM     46  C   UNL A   1      39.916  32.229  35.273  1.00  0.00     0.037 A 
ATOM     47  C   UNL A   1      41.775  28.116  30.557  1.00  0.00     0.049 A 
ATOM     48  C   UNL A   1      41.012  31.207  35.168  1.00  0.00     0.074 A 
ATOM     49  C   UNL A   1      42.844  27.239  30.567  1.00  0.00     0.029 A 
ATOM     50  N   UNL A   1      41.769  28.756  31.788  1.00  0.00    -0.354 N 
ATOM     51  N   UNL A   1      41.321  30.429  34.160  1.00  0.00    -0.248 NA
ATOM     52  C   UNL A   1      41.869  31.034  36.349  1.00  0.00     0.031 C 
ATOM     53  C   UNL A   1      43.471  27.327  31.814  1.00  0.00     0.029 A 
ATOM     54  C   UNL A   1      42.812  28.286  32.568  1.00  0.00     0.049 A 
ATOM     55  H   UNL A   1      41.120  29.441  32.066  1.00  0.00     0.167 HD
ATOM     56  C   UNL A   1      42.423  29.692  34.574  1.00  0.00     0.074 A 
ATOM     57  C   UNL A   1      42.735  30.126  35.920  1.00  0.00     0.031 C 
ATOM     58  C   UNL A   1      43.112  28.740  33.901  1.00  0.00     0.037 A 
BRANCH  45  59
ATOM     59  C   UNL A   1      40.915  27.549  28.248  1.00  0.00     0.057 A 
ATOM     60  C   UNL A   1      41.714  27.931  27.161  1.00  0.00     0.134 A 
ATOM     61  C   UNL A   1      40.197  26.352  28.130  1.00  0.00     0.134 A 
ATOM     62  F   UNL A   1      42.418  29.073  27.204  1.00  0.00    -0.206 F 
ATOM     63  C   UNL A   1      41.764  27.176  25.989  1.00  0.00     0.040 A 
ATOM     64  C   UNL A   1      40.264  25.572  26.973  1.00  0.00     0.040 A 
ATOM     65  F   UNL A   1      39.420  25.921  29.133  1.00  0.00    -0.206 F 
ATOM     66  C   UNL A   1      41.041  25.990  25.894  1.00  0.00     0.006 A 
ENDBRANCH  45  59
BRANCH  46  67
ATOM     67  C   UNL A   1      39.729  33.019  36.516  1.00  0.00     0.057 A 
ATOM     68  C   UNL A   1      38.814  32.608  37.493  1.00  0.00     0.134 A 
ATOM     69  C   UNL A   1      40.457  34.189  36.764  1.00  0.00     0.134 A 
ATOM     70  F   UNL A   1      38.075  31.505  37.302  1.00  0.00    -0.206 F 
ATOM     71  C   UNL A   1      38.616  33.339  38.664  1.00  0.00     0.040 A 
ATOM     72  C   UNL A   1      40.285  34.917  37.942  1.00  0.00     0.040 A 
ATOM     73  F   UNL A   1      41.355  34.630  35.872  1.00  0.00    -0.206 F 
ATOM     74  C   UNL A   1      39.358  34.496  38.894  1.00  0.00     0.006 A 
ENDBRANCH  46  67
BRANCH  58  75
ATOM     75  C   UNL A   1      44.291  28.128  34.596  1.00  0.00     0.057 A 
ATOM     76  C   UNL A   1      45.566  28.702  34.528  1.00  0.00     0.134 A 
ATOM     77  C   UNL A   1      44.138  26.975  35.376  1.00  0.00     0.134 A 
ATOM     78  F   UNL A   1      45.779  29.800  33.787  1.00  0.00    -0.206 F 
ATOM     79  C   UNL A   1      46.654  28.141  35.199  1.00  0.00     0.040 A 
ATOM     80  C   UNL A   1      45.212  26.418  36.070  1.00  0.00     0.040 A 
ATOM     81  F   UNL A   1      42.941  26.381  35.487  1.00  0.00    -0.206 F 
ATOM     82  C   UNL A   1      46.476  26.999  35.978  1.00  0.00     0.006 A 
ENDBRANCH  58  75
ENDBRANCH  32  33
ENDBRANCH  24  27
ENDBRANCH  22  23
ENDBRANCH  21  22
ENDBRANCH   1  21
TORSDOF 15
ENDMDL
