MODEL 1
REMARK VINA RESULT:     -11.6      0.000      0.000
REMARK SMILES O=C(NCCCNC(=O)[C@H]1CC[C@@H]2CCCC[C@H]2N1C(=O)N1CCSCC1)c1ccc(-c2c3nc(c(-c4c(F)cccc4F)c4ccc([nH]4)c(-c4c(F)cccc4F)c4nc(c(-c5c(F)cccc5F)c5ccc2[nH]5)C=C4)C=C3)cc1
REMARK SMILES IDX 4 1 3 2 1 3 2 4 28 6 29 7 81 8 30 9 80 10 31 11 32 12 33 13
REMARK SMILES IDX 74 14 34 15 79 16 73 17 75 18 35 19 78 20 72 21 71 22 36 24
REMARK SMILES IDX 62 25 45 26 61 27 46 28 49 29 60 30 76 31 47 32 48 33 59 35
REMARK SMILES IDX 77 36 50 37 37 38 38 39 43 40 39 41 40 42 42 43 44 44 41 45
REMARK SMILES IDX 63 46 64 47 69 48 65 49 66 50 68 51 70 52 67 53 51 54 52 55
REMARK SMILES IDX 57 56 53 57 54 58 56 59 58 60 55 61 5 62 6 63 7 64 8 65 9 67
REMARK SMILES IDX 10 68 11 69 19 70 12 71 18 72 13 73 17 74 14 75 16 76 15 77
REMARK SMILES IDX 20 78 21 79 22 80 23 81 27 82 24 83 26 84 25 85
REMARK H PARENT 3 5 75 23 49 34 7 66
REMARK Flexibility Score: inf
ROOT
ATOM      1  C   UNL A   1      33.528  28.493  27.270  1.00  0.00     0.118 C 
ENDROOT
BRANCH   1   2
ATOM      2  N   UNL A   1      33.454  29.888  27.681  1.00  0.00    -0.352 N 
ATOM      3  O   UNL A   1      34.262  31.812  28.566  1.00  0.00    -0.269 OA
ATOM      4  C   UNL A   1      34.467  30.663  28.196  1.00  0.00     0.251 C 
ATOM      5  H   UNL A   1      32.578  30.327  27.580  1.00  0.00     0.163 HD
BRANCH   4   6
ATOM      6  C   UNL A   1      35.799  30.047  28.345  1.00  0.00     0.039 A 
ATOM      7  C   UNL A   1      36.181  29.508  29.576  1.00  0.00     0.014 A 
ATOM      8  C   UNL A   1      36.703  30.131  27.285  1.00  0.00     0.014 A 
ATOM      9  C   UNL A   1      37.515  29.197  29.796  1.00  0.00     0.010 A 
ATOM     10  C   UNL A   1      38.027  29.741  27.486  1.00  0.00     0.010 A 
ATOM     11  C   UNL A   1      38.451  29.312  28.754  1.00  0.00    -0.014 A 
BRANCH  11  12
ATOM     12  C   UNL A   1      39.865  28.947  29.003  1.00  0.00     0.031 A 
ATOM     13  C   UNL A   1      40.794  29.880  29.725  1.00  0.00     0.074 A 
ATOM     14  C   UNL A   1      40.295  27.741  28.588  1.00  0.00     0.049 A 
ATOM     15  N   UNL A   1      42.061  29.721  30.010  1.00  0.00    -0.248 NA
ATOM     16  C   UNL A   1      40.233  31.161  30.182  1.00  0.00     0.031 C 
ATOM     17  C   UNL A   1      39.477  26.755  27.879  1.00  0.00     0.029 A 
ATOM     18  N   UNL A   1      41.515  27.133  28.718  1.00  0.00    -0.354 N 
ATOM     19  C   UNL A   1      42.459  30.888  30.650  1.00  0.00     0.074 A 
ATOM     20  C   UNL A   1      41.299  31.753  30.704  1.00  0.00     0.031 C 
ATOM     21  C   UNL A   1      40.203  25.647  27.677  1.00  0.00     0.029 A 
ATOM     22  C   UNL A   1      41.551  25.868  28.187  1.00  0.00     0.049 A 
ATOM     23  H   UNL A   1      42.289  27.560  29.150  1.00  0.00     0.167 HD
ATOM     24  C   UNL A   1      43.679  31.204  31.145  1.00  0.00     0.037 A 
ATOM     25  C   UNL A   1      42.563  24.988  28.103  1.00  0.00     0.037 A 
ATOM     26  C   UNL A   1      44.820  30.325  31.111  1.00  0.00     0.049 A 
ATOM     27  C   UNL A   1      43.904  25.366  28.652  1.00  0.00     0.074 A 
ATOM     28  C   UNL A   1      46.091  30.537  31.619  1.00  0.00     0.029 A 
ATOM     29  N   UNL A   1      44.827  29.064  30.533  1.00  0.00    -0.354 N 
ATOM     30  N   UNL A   1      44.263  26.471  29.259  1.00  0.00    -0.248 NA
ATOM     31  C   UNL A   1      44.982  24.383  28.494  1.00  0.00     0.031 C 
ATOM     32  C   UNL A   1      46.875  29.417  31.321  1.00  0.00     0.029 A 
ATOM     33  C   UNL A   1      46.084  28.494  30.656  1.00  0.00     0.049 A 
ATOM     34  H   UNL A   1      44.054  28.637  30.099  1.00  0.00     0.167 HD
ATOM     35  C   UNL A   1      45.608  26.317  29.559  1.00  0.00     0.074 A 
ATOM     36  C   UNL A   1      45.994  25.002  29.086  1.00  0.00     0.031 C 
ATOM     37  C   UNL A   1      46.448  27.189  30.167  1.00  0.00     0.037 A 
BRANCH  24  38
ATOM     38  C   UNL A   1      43.851  32.567  31.748  1.00  0.00     0.057 A 
ATOM     39  C   UNL A   1      44.240  33.673  30.984  1.00  0.00     0.134 A 
ATOM     40  C   UNL A   1      43.585  32.781  33.106  1.00  0.00     0.134 A 
ATOM     41  F   UNL A   1      44.521  33.534  29.679  1.00  0.00    -0.206 F 
ATOM     42  C   UNL A   1      44.377  34.942  31.552  1.00  0.00     0.040 A 
ATOM     43  C   UNL A   1      43.699  34.047  33.683  1.00  0.00     0.040 A 
ATOM     44  F   UNL A   1      43.204  31.764  33.894  1.00  0.00    -0.206 F 
ATOM     45  C   UNL A   1      44.100  35.133  32.906  1.00  0.00     0.006 A 
ENDBRANCH  24  38
BRANCH  25  46
ATOM     46  C   UNL A   1      42.327  23.669  27.472  1.00  0.00     0.057 A 
ATOM     47  C   UNL A   1      42.430  23.506  26.088  1.00  0.00     0.134 A 
ATOM     48  C   UNL A   1      42.049  22.533  28.242  1.00  0.00     0.134 A 
ATOM     49  F   UNL A   1      42.682  24.562  25.300  1.00  0.00    -0.206 F 
ATOM     50  C   UNL A   1      42.268  22.257  25.488  1.00  0.00     0.040 A 
ATOM     51  C   UNL A   1      41.906  21.275  27.659  1.00  0.00     0.040 A 
ATOM     52  F   UNL A   1      41.951  22.628  29.576  1.00  0.00    -0.206 F 
ATOM     53  C   UNL A   1      42.014  21.135  26.276  1.00  0.00     0.006 A 
ENDBRANCH  25  46
BRANCH  37  54
ATOM     54  C   UNL A   1      47.863  26.735  30.356  1.00  0.00     0.057 A 
ATOM     55  C   UNL A   1      48.852  27.013  29.405  1.00  0.00     0.134 A 
ATOM     56  C   UNL A   1      48.240  26.026  31.503  1.00  0.00     0.134 A 
ATOM     57  F   UNL A   1      48.547  27.675  28.279  1.00  0.00    -0.206 F 
ATOM     58  C   UNL A   1      50.168  26.583  29.580  1.00  0.00     0.040 A 
ATOM     59  C   UNL A   1      49.556  25.607  31.697  1.00  0.00     0.040 A 
ATOM     60  F   UNL A   1      47.337  25.732  32.449  1.00  0.00    -0.206 F 
ATOM     61  C   UNL A   1      50.523  25.881  30.731  1.00  0.00     0.006 A 
ENDBRANCH  37  54
ENDBRANCH  11  12
ENDBRANCH   4   6
ENDBRANCH   1   2
BRANCH   1  62
ATOM     62  C   UNL A   1      32.268  27.695  27.563  1.00  0.00     0.042 C 
BRANCH  62  63
ATOM     63  C   UNL A   1      31.432  27.405  26.331  1.00  0.00     0.117 C 
BRANCH  63  64
ATOM     64  N   UNL A   1      30.816  26.094  26.385  1.00  0.00    -0.354 N 
ATOM     65  C   UNL A   1      31.412  24.871  26.327  1.00  0.00     0.242 C 
ATOM     66  H   UNL A   1      29.835  26.087  26.476  1.00  0.00     0.163 HD
ATOM     67  O   UNL A   1      30.674  23.878  26.323  1.00  0.00    -0.273 OA
BRANCH  65  68
ATOM     68  C   UNL A   1      32.921  24.715  26.053  1.00  0.00     0.176 C 
ATOM     69  C   UNL A   1      33.339  23.732  27.179  1.00  0.00     0.036 C 
ATOM     70  N   UNL A   1      33.381  24.323  24.686  1.00  0.00    -0.309 N 
ATOM     71  C   UNL A   1      34.726  23.149  27.056  1.00  0.00     0.008 C 
ATOM     72  C   UNL A   1      34.785  23.765  24.632  1.00  0.00     0.091 C 
ATOM     73  C   UNL A   1      34.947  22.607  25.647  1.00  0.00     0.012 C 
ATOM     74  C   UNL A   1      35.336  23.342  23.251  1.00  0.00     0.025 C 
ATOM     75  C   UNL A   1      36.314  21.907  25.613  1.00  0.00     0.006 C 
ATOM     76  C   UNL A   1      36.728  22.726  23.308  1.00  0.00     0.002 C 
ATOM     77  C   UNL A   1      36.737  21.508  24.211  1.00  0.00     0.000 C 
BRANCH  70  78
ATOM     78  C   UNL A   1      32.776  24.766  23.500  1.00  0.00     0.321 C 
ATOM     79  O   UNL A   1      32.338  23.996  22.645  1.00  0.00    -0.248 OA
ATOM     80  N   UNL A   1      32.499  26.120  23.342  1.00  0.00    -0.323 N 
ATOM     81  C   UNL A   1      31.260  26.393  22.589  1.00  0.00     0.132 C 
ATOM     82  C   UNL A   1      33.591  27.061  23.057  1.00  0.00     0.132 C 
ATOM     83  C   UNL A   1      30.652  27.764  22.856  1.00  0.00     0.091 C 
ATOM     84  C   UNL A   1      33.236  28.537  23.290  1.00  0.00     0.091 C 
ATOM     85  S   UNL A   1      31.782  29.086  22.337  1.00  0.00    -0.158 SA
ENDBRANCH  70  78
ENDBRANCH  65  68
ENDBRANCH  63  64
ENDBRANCH  62  63
ENDBRANCH   1  62
TORSDOF 11
ENDMDL
MODEL 2
REMARK VINA RESULT:     -11.5      3.175      7.993
REMARK SMILES O=C(NCCCNC(=O)[C@H]1CC[C@@H]2CCCC[C@H]2N1C(=O)N1CCSCC1)c1ccc(-c2c3nc(c(-c4c(F)cccc4F)c4ccc([nH]4)c(-c4c(F)cccc4F)c4nc(c(-c5c(F)cccc5F)c5ccc2[nH]5)C=C4)C=C3)cc1
REMARK SMILES IDX 4 1 3 2 1 3 2 4 28 6 29 7 81 8 30 9 80 10 31 11 32 12 33 13
REMARK SMILES IDX 74 14 34 15 79 16 73 17 75 18 35 19 78 20 72 21 71 22 36 24
REMARK SMILES IDX 62 25 45 26 61 27 46 28 49 29 60 30 76 31 47 32 48 33 59 35
REMARK SMILES IDX 77 36 50 37 37 38 38 39 43 40 39 41 40 42 42 43 44 44 41 45
REMARK SMILES IDX 63 46 64 47 69 48 65 49 66 50 68 51 70 52 67 53 51 54 52 55
REMARK SMILES IDX 57 56 53 57 54 58 56 59 58 60 55 61 5 62 6 63 7 64 8 65 9 67
REMARK SMILES IDX 10 68 11 69 19 70 12 71 18 72 13 73 17 74 14 75 16 76 15 77
REMARK SMILES IDX 20 78 21 79 22 80 23 81 27 82 24 83 26 84 25 85
REMARK H PARENT 3 5 75 23 49 34 7 66
REMARK Flexibility Score: inf
ROOT
ATOM      1  C   UNL A   1      39.398  20.247  25.787  1.00  0.00     0.118 C 
ENDROOT
BRANCH   1   2
ATOM      2  N   UNL A   1      40.288  19.094  25.794  1.00  0.00    -0.352 N 
ATOM      3  O   UNL A   1      42.288  18.047  25.999  1.00  0.00    -0.269 OA
ATOM      4  C   UNL A   1      41.632  19.077  26.091  1.00  0.00     0.251 C 
ATOM      5  H   UNL A   1      39.883  18.228  25.560  1.00  0.00     0.163 HD
BRANCH   4   6
ATOM      6  C   UNL A   1      42.273  20.351  26.465  1.00  0.00     0.039 A 
ATOM      7  C   UNL A   1      42.239  20.783  27.793  1.00  0.00     0.014 A 
ATOM      8  C   UNL A   1      42.791  21.166  25.457  1.00  0.00     0.014 A 
ATOM      9  C   UNL A   1      42.580  22.095  28.089  1.00  0.00     0.010 A 
ATOM     10  C   UNL A   1      43.210  22.459  25.773  1.00  0.00     0.010 A 
ATOM     11  C   UNL A   1      43.066  22.946  27.081  1.00  0.00    -0.014 A 
BRANCH  11  12
ATOM     12  C   UNL A   1      43.451  24.334  27.427  1.00  0.00     0.031 A 
ATOM     13  C   UNL A   1      44.877  24.794  27.324  1.00  0.00     0.074 A 
ATOM     14  C   UNL A   1      42.485  25.187  27.813  1.00  0.00     0.049 A 
ATOM     15  N   UNL A   1      45.384  25.967  27.603  1.00  0.00    -0.248 NA
ATOM     16  C   UNL A   1      45.865  23.810  26.853  1.00  0.00     0.031 C 
ATOM     17  C   UNL A   1      41.067  24.847  27.946  1.00  0.00     0.029 A 
ATOM     18  N   UNL A   1      42.543  26.514  28.146  1.00  0.00    -0.354 N 
ATOM     19  C   UNL A   1      46.750  25.858  27.374  1.00  0.00     0.074 A 
ATOM     20  C   UNL A   1      46.995  24.499  26.940  1.00  0.00     0.031 C 
ATOM     21  C   UNL A   1      40.382  25.947  28.287  1.00  0.00     0.029 A 
ATOM     22  C   UNL A   1      41.319  27.051  28.455  1.00  0.00     0.049 A 
ATOM     23  H   UNL A   1      43.381  27.032  28.162  1.00  0.00     0.167 HD
ATOM     24  C   UNL A   1      47.707  26.806  27.513  1.00  0.00     0.037 A 
ATOM     25  C   UNL A   1      40.988  28.293  28.848  1.00  0.00     0.037 A 
ATOM     26  C   UNL A   1      47.449  28.165  27.919  1.00  0.00     0.049 A 
ATOM     27  C   UNL A   1      42.066  29.320  29.001  1.00  0.00     0.074 A 
ATOM     28  C   UNL A   1      48.345  29.212  28.053  1.00  0.00     0.029 A 
ATOM     29  N   UNL A   1      46.199  28.663  28.257  1.00  0.00    -0.354 N 
ATOM     30  N   UNL A   1      43.352  29.203  28.775  1.00  0.00    -0.248 NA
ATOM     31  C   UNL A   1      41.652  30.646  29.474  1.00  0.00     0.031 C 
ATOM     32  C   UNL A   1      47.641  30.336  28.503  1.00  0.00     0.029 A 
ATOM     33  C   UNL A   1      46.303  29.996  28.617  1.00  0.00     0.049 A 
ATOM     34  H   UNL A   1      45.362  28.145  28.243  1.00  0.00     0.167 HD
ATOM     35  C   UNL A   1      43.903  30.440  29.076  1.00  0.00     0.074 A 
ATOM     36  C   UNL A   1      42.806  31.298  29.479  1.00  0.00     0.031 C 
ATOM     37  C   UNL A   1      45.200  30.828  29.026  1.00  0.00     0.037 A 
BRANCH  24  38
ATOM     38  C   UNL A   1      49.127  26.403  27.245  1.00  0.00     0.057 A 
ATOM     39  C   UNL A   1      49.971  25.939  28.260  1.00  0.00     0.134 A 
ATOM     40  C   UNL A   1      49.643  26.444  25.943  1.00  0.00     0.134 A 
ATOM     41  F   UNL A   1      49.543  25.886  29.531  1.00  0.00    -0.206 F 
ATOM     42  C   UNL A   1      51.286  25.547  27.995  1.00  0.00     0.040 A 
ATOM     43  C   UNL A   1      50.949  26.037  25.662  1.00  0.00     0.040 A 
ATOM     44  F   UNL A   1      48.885  26.875  24.924  1.00  0.00    -0.206 F 
ATOM     45  C   UNL A   1      51.776  25.590  26.690  1.00  0.00     0.006 A 
ENDBRANCH  24  38
BRANCH  25  46
ATOM     46  C   UNL A   1      39.568  28.613  29.120  1.00  0.00     0.057 A 
ATOM     47  C   UNL A   1      39.014  28.409  30.386  1.00  0.00     0.134 A 
ATOM     48  C   UNL A   1      38.749  29.182  28.136  1.00  0.00     0.134 A 
ATOM     49  F   UNL A   1      39.748  27.855  31.363  1.00  0.00    -0.206 F 
ATOM     50  C   UNL A   1      37.694  28.762  30.669  1.00  0.00     0.040 A 
ATOM     51  C   UNL A   1      37.435  29.559  28.410  1.00  0.00     0.040 A 
ATOM     52  F   UNL A   1      39.231  29.411  26.905  1.00  0.00    -0.206 F 
ATOM     53  C   UNL A   1      36.904  29.347  29.682  1.00  0.00     0.006 A 
ENDBRANCH  25  46
BRANCH  37  54
ATOM     54  C   UNL A   1      45.491  32.245  29.414  1.00  0.00     0.057 A 
ATOM     55  C   UNL A   1      45.829  32.588  30.728  1.00  0.00     0.134 A 
ATOM     56  C   UNL A   1      45.446  33.271  28.463  1.00  0.00     0.134 A 
ATOM     57  F   UNL A   1      45.873  31.650  31.686  1.00  0.00    -0.206 F 
ATOM     58  C   UNL A   1      46.093  33.909  31.088  1.00  0.00     0.040 A 
ATOM     59  C   UNL A   1      45.725  34.593  28.807  1.00  0.00     0.040 A 
ATOM     60  F   UNL A   1      45.130  33.002  27.187  1.00  0.00    -0.206 F 
ATOM     61  C   UNL A   1      46.045  34.916  30.124  1.00  0.00     0.006 A 
ENDBRANCH  37  54
ENDBRANCH  11  12
ENDBRANCH   4   6
ENDBRANCH   1   2
BRANCH   1  62
ATOM     62  C   UNL A   1      38.104  20.023  25.023  1.00  0.00     0.042 C 
BRANCH  62  63
ATOM     63  C   UNL A   1      37.087  21.132  25.213  1.00  0.00     0.117 C 
BRANCH  63  64
ATOM     64  N   UNL A   1      36.762  21.795  23.965  1.00  0.00    -0.354 N 
ATOM     65  C   UNL A   1      35.810  22.738  23.726  1.00  0.00     0.242 C 
ATOM     66  H   UNL A   1      37.304  21.527  23.186  1.00  0.00     0.163 HD
ATOM     67  O   UNL A   1      35.665  23.116  22.557  1.00  0.00    -0.273 OA
BRANCH  65  68
ATOM     68  C   UNL A   1      34.798  23.163  24.808  1.00  0.00     0.176 C 
ATOM     69  C   UNL A   1      35.214  24.637  25.058  1.00  0.00     0.036 C 
ATOM     70  N   UNL A   1      33.337  22.965  24.564  1.00  0.00    -0.309 N 
ATOM     71  C   UNL A   1      34.256  25.455  25.889  1.00  0.00     0.008 C 
ATOM     72  C   UNL A   1      32.434  23.801  25.443  1.00  0.00     0.091 C 
ATOM     73  C   UNL A   1      32.833  25.295  25.364  1.00  0.00     0.012 C 
ATOM     74  C   UNL A   1      30.907  23.647  25.254  1.00  0.00     0.025 C 
ATOM     75  C   UNL A   1      31.922  26.247  26.154  1.00  0.00     0.006 C 
ATOM     76  C   UNL A   1      30.084  24.580  26.133  1.00  0.00     0.002 C 
ATOM     77  C   UNL A   1      30.448  26.027  25.864  1.00  0.00     0.000 C 
BRANCH  70  78
ATOM     78  C   UNL A   1      32.799  21.859  23.888  1.00  0.00     0.321 C 
ATOM     79  O   UNL A   1      32.291  21.940  22.770  1.00  0.00    -0.248 OA
ATOM     80  N   UNL A   1      32.988  20.585  24.413  1.00  0.00    -0.323 N 
ATOM     81  C   UNL A   1      33.153  19.535  23.389  1.00  0.00     0.132 C 
ATOM     82  C   UNL A   1      32.219  20.156  25.589  1.00  0.00     0.132 C 
ATOM     83  C   UNL A   1      33.879  18.288  23.878  1.00  0.00     0.091 C 
ATOM     84  C   UNL A   1      32.779  18.915  26.299  1.00  0.00     0.091 C 
ATOM     85  S   UNL A   1      32.942  17.470  25.200  1.00  0.00    -0.158 SA
ENDBRANCH  70  78
ENDBRANCH  65  68
ENDBRANCH  63  64
ENDBRANCH  62  63
ENDBRANCH   1  62
TORSDOF 11
ENDMDL
MODEL 3
REMARK VINA RESULT:     -11.5      3.521      4.868
REMARK SMILES O=C(NCCCNC(=O)[C@H]1CC[C@@H]2CCCC[C@H]2N1C(=O)N1CCSCC1)c1ccc(-c2c3nc(c(-c4c(F)cccc4F)c4ccc([nH]4)c(-c4c(F)cccc4F)c4nc(c(-c5c(F)cccc5F)c5ccc2[nH]5)C=C4)C=C3)cc1
REMARK SMILES IDX 4 1 3 2 1 3 2 4 28 6 29 7 81 8 30 9 80 10 31 11 32 12 33 13
REMARK SMILES IDX 74 14 34 15 79 16 73 17 75 18 35 19 78 20 72 21 71 22 36 24
REMARK SMILES IDX 62 25 45 26 61 27 46 28 49 29 60 30 76 31 47 32 48 33 59 35
REMARK SMILES IDX 77 36 50 37 37 38 38 39 43 40 39 41 40 42 42 43 44 44 41 45
REMARK SMILES IDX 63 46 64 47 69 48 65 49 66 50 68 51 70 52 67 53 51 54 52 55
REMARK SMILES IDX 57 56 53 57 54 58 56 59 58 60 55 61 5 62 6 63 7 64 8 65 9 67
REMARK SMILES IDX 10 68 11 69 19 70 12 71 18 72 13 73 17 74 14 75 16 76 15 77
REMARK SMILES IDX 20 78 21 79 22 80 23 81 27 82 24 83 26 84 25 85
REMARK H PARENT 3 5 75 23 49 34 7 66
REMARK Flexibility Score: inf
ROOT
ATOM      1  C   UNL A   1      32.924  32.516  27.267  1.00  0.00     0.118 C 
ENDROOT
BRANCH   1   2
ATOM      2  N   UNL A   1      32.517  33.876  27.590  1.00  0.00    -0.352 N 
ATOM      3  O   UNL A   1      32.597  35.821  28.751  1.00  0.00    -0.269 OA
ATOM      4  C   UNL A   1      33.074  34.716  28.527  1.00  0.00     0.251 C 
ATOM      5  H   UNL A   1      31.756  34.237  27.080  1.00  0.00     0.163 HD
BRANCH   4   6
ATOM      6  C   UNL A   1      34.229  34.220  29.299  1.00  0.00     0.039 A 
ATOM      7  C   UNL A   1      35.527  34.493  28.861  1.00  0.00     0.014 A 
ATOM      8  C   UNL A   1      33.999  33.375  30.386  1.00  0.00     0.014 A 
ATOM      9  C   UNL A   1      36.590  33.794  29.413  1.00  0.00     0.010 A 
ATOM     10  C   UNL A   1      35.081  32.735  30.992  1.00  0.00     0.010 A 
ATOM     11  C   UNL A   1      36.377  32.907  30.482  1.00  0.00    -0.014 A 
BRANCH  11  12
ATOM     12  C   UNL A   1      37.532  32.194  31.075  1.00  0.00     0.031 A 
ATOM     13  C   UNL A   1      38.022  32.520  32.457  1.00  0.00     0.074 A 
ATOM     14  C   UNL A   1      38.122  31.224  30.353  1.00  0.00     0.049 A 
ATOM     15  N   UNL A   1      39.028  32.003  33.116  1.00  0.00    -0.248 NA
ATOM     16  C   UNL A   1      37.295  33.565  33.194  1.00  0.00     0.031 C 
ATOM     17  C   UNL A   1      37.727  30.823  29.002  1.00  0.00     0.029 A 
ATOM     18  N   UNL A   1      39.162  30.387  30.659  1.00  0.00    -0.354 N 
ATOM     19  C   UNL A   1      39.076  32.678  34.330  1.00  0.00     0.074 A 
ATOM     20  C   UNL A   1      38.003  33.649  34.313  1.00  0.00     0.031 C 
ATOM     21  C   UNL A   1      38.483  29.788  28.612  1.00  0.00     0.029 A 
ATOM     22  C   UNL A   1      39.453  29.493  29.660  1.00  0.00     0.049 A 
ATOM     23  H   UNL A   1      39.652  30.423  31.512  1.00  0.00     0.167 HD
ATOM     24  C   UNL A   1      39.938  32.499  35.359  1.00  0.00     0.037 A 
ATOM     25  C   UNL A   1      40.408  28.550  29.586  1.00  0.00     0.037 A 
ATOM     26  C   UNL A   1      40.985  31.510  35.377  1.00  0.00     0.049 A 
ATOM     27  C   UNL A   1      41.352  28.379  30.735  1.00  0.00     0.074 A 
ATOM     28  C   UNL A   1      41.887  31.224  36.388  1.00  0.00     0.029 A 
ATOM     29  N   UNL A   1      41.271  30.645  34.331  1.00  0.00    -0.354 N 
ATOM     30  N   UNL A   1      41.382  29.020  31.878  1.00  0.00    -0.248 NA
ATOM     31  C   UNL A   1      42.401  27.364  30.582  1.00  0.00     0.031 C 
ATOM     32  C   UNL A   1      42.739  30.207  35.941  1.00  0.00     0.029 A 
ATOM     33  C   UNL A   1      42.347  29.838  34.665  1.00  0.00     0.049 A 
ATOM     34  H   UNL A   1      40.783  30.611  33.477  1.00  0.00     0.167 HD
ATOM     35  C   UNL A   1      42.450  28.486  32.583  1.00  0.00     0.074 A 
ATOM     36  C   UNL A   1      43.028  27.453  31.746  1.00  0.00     0.031 C 
ATOM     37  C   UNL A   1      42.912  28.824  33.811  1.00  0.00     0.037 A 
BRANCH  24  38
ATOM     38  C   UNL A   1      39.798  33.407  36.546  1.00  0.00     0.057 A 
ATOM     39  C   UNL A   1      40.507  34.609  36.647  1.00  0.00     0.134 A 
ATOM     40  C   UNL A   1      38.911  33.088  37.582  1.00  0.00     0.134 A 
ATOM     41  F   UNL A   1      41.381  34.967  35.694  1.00  0.00    -0.206 F 
ATOM     42  C   UNL A   1      40.353  35.457  37.748  1.00  0.00     0.040 A 
ATOM     43  C   UNL A   1      38.735  33.936  38.678  1.00  0.00     0.040 A 
ATOM     44  F   UNL A   1      38.199  31.953  37.544  1.00  0.00    -0.206 F 
ATOM     45  C   UNL A   1      39.459  35.122  38.765  1.00  0.00     0.006 A 
ENDBRANCH  24  38
BRANCH  25  46
ATOM     46  C   UNL A   1      40.502  27.707  28.372  1.00  0.00     0.057 A 
ATOM     47  C   UNL A   1      41.257  28.116  27.270  1.00  0.00     0.134 A 
ATOM     48  C   UNL A   1      39.887  26.450  28.310  1.00  0.00     0.134 A 
ATOM     49  F   UNL A   1      41.858  29.315  27.269  1.00  0.00    -0.206 F 
ATOM     50  C   UNL A   1      41.401  27.303  26.145  1.00  0.00     0.040 A 
ATOM     51  C   UNL A   1      40.040  25.618  27.202  1.00  0.00     0.040 A 
ATOM     52  F   UNL A   1      39.160  26.001  29.344  1.00  0.00    -0.206 F 
ATOM     53  C   UNL A   1      40.799  26.046  26.113  1.00  0.00     0.006 A 
ENDBRANCH  25  46
BRANCH  37  54
ATOM     54  C   UNL A   1      44.097  28.060  34.315  1.00  0.00     0.057 A 
ATOM     55  C   UNL A   1      45.404  28.523  34.118  1.00  0.00     0.134 A 
ATOM     56  C   UNL A   1      43.930  26.858  35.013  1.00  0.00     0.134 A 
ATOM     57  F   UNL A   1      45.627  29.660  33.443  1.00  0.00    -0.206 F 
ATOM     58  C   UNL A   1      46.506  27.806  34.582  1.00  0.00     0.040 A 
ATOM     59  C   UNL A   1      45.023  26.141  35.498  1.00  0.00     0.040 A 
ATOM     60  F   UNL A   1      42.702  26.365  35.235  1.00  0.00    -0.206 F 
ATOM     61  C   UNL A   1      46.316  26.612  35.278  1.00  0.00     0.006 A 
ENDBRANCH  37  54
ENDBRANCH  11  12
ENDBRANCH   4   6
ENDBRANCH   1   2
BRANCH   1  62
ATOM     62  C   UNL A   1      31.778  31.611  26.848  1.00  0.00     0.042 C 
BRANCH  62  63
ATOM     63  C   UNL A   1      32.229  30.255  26.337  1.00  0.00     0.117 C 
BRANCH  63  64
ATOM     64  N   UNL A   1      31.481  29.169  26.939  1.00  0.00    -0.354 N 
ATOM     65  C   UNL A   1      31.535  27.839  26.651  1.00  0.00     0.242 C 
ATOM     66  H   UNL A   1      30.851  29.428  27.650  1.00  0.00     0.163 HD
ATOM     67  O   UNL A   1      30.748  27.096  27.251  1.00  0.00    -0.273 OA
BRANCH  65  68
ATOM     68  C   UNL A   1      32.372  27.295  25.477  1.00  0.00     0.176 C 
ATOM     69  C   UNL A   1      33.521  26.570  26.227  1.00  0.00     0.036 C 
ATOM     70  N   UNL A   1      31.706  26.472  24.421  1.00  0.00    -0.309 N 
ATOM     71  C   UNL A   1      34.403  25.689  25.376  1.00  0.00     0.008 C 
ATOM     72  C   UNL A   1      32.649  25.629  23.594  1.00  0.00     0.091 C 
ATOM     73  C   UNL A   1      33.550  24.766  24.512  1.00  0.00     0.012 C 
ATOM     74  C   UNL A   1      32.035  24.754  22.477  1.00  0.00     0.025 C 
ATOM     75  C   UNL A   1      34.489  23.802  23.770  1.00  0.00     0.006 C 
ATOM     76  C   UNL A   1      33.055  23.887  21.747  1.00  0.00     0.002 C 
ATOM     77  C   UNL A   1      33.772  22.973  22.720  1.00  0.00     0.000 C 
BRANCH  70  78
ATOM     78  C   UNL A   1      30.408  26.713  23.945  1.00  0.00     0.321 C 
ATOM     79  O   UNL A   1      29.467  25.946  24.149  1.00  0.00    -0.248 OA
ATOM     80  N   UNL A   1      30.115  27.941  23.360  1.00  0.00    -0.323 N 
ATOM     81  C   UNL A   1      28.746  28.419  23.629  1.00  0.00     0.132 C 
ATOM     82  C   UNL A   1      30.596  28.238  22.004  1.00  0.00     0.132 C 
ATOM     83  C   UNL A   1      28.568  29.926  23.491  1.00  0.00     0.091 C 
ATOM     84  C   UNL A   1      30.554  29.726  21.626  1.00  0.00     0.091 C 
ATOM     85  S   UNL A   1      28.896  30.463  21.788  1.00  0.00    -0.158 SA
ENDBRANCH  70  78
ENDBRANCH  65  68
ENDBRANCH  63  64
ENDBRANCH  62  63
ENDBRANCH   1  62
TORSDOF 11
ENDMDL
