MODEL 1
REMARK VINA RESULT:     -11.6      0.000      0.000
REMARK SMILES C[C@H]1C[C@H]1CN(C)c1cccc(F)c1C(=O)NCCCNC(=O)c1ccc(-c2c3nc(c(-c4c(F)cccc4F)c4ccc([nH]4)c(-c4c(F)cccc4F)c4nc(c(-c5c(F)cccc5F)c5ccc2[nH]5)C=C4)C=C3)cc1
REMARK SMILES IDX 18 1 17 2 15 3 16 4 14 6 8 7 9 8 10 9 12 10 11 11 13 12 6 13
REMARK SMILES IDX 7 14 5 15 4 16 1 17 2 18 3 19 19 20 20 21 21 22 22 23 23 25
REMARK SMILES IDX 24 26 25 27 77 28 26 29 76 30 27 31 28 32 29 33 70 34 30 35
REMARK SMILES IDX 75 36 69 37 71 38 31 39 74 40 68 41 67 42 32 44 58 45 41 46
REMARK SMILES IDX 57 47 42 48 45 49 56 50 72 51 43 52 44 53 55 55 73 56 46 57
REMARK SMILES IDX 33 58 34 59 39 60 35 61 36 62 38 63 40 64 37 65 59 66 60 67
REMARK SMILES IDX 65 68 61 69 62 70 64 71 66 72 63 73 47 74 48 75 53 76 49 77
REMARK SMILES IDX 50 78 52 79 54 80 51 81
REMARK H PARENT 17 5 21 24 71 43 45 54
REMARK Flexibility Score: inf
ROOT
ATOM      1  C   UNL A   1      31.064  30.950  26.092  1.00  0.00     0.118 C 
ENDROOT
BRANCH   1   2
ATOM      2  N   UNL A   1      32.283  30.321  25.592  1.00  0.00    -0.352 N 
ATOM      3  C   UNL A   1      32.496  29.101  24.966  1.00  0.00     0.256 C 
ATOM      4  O   UNL A   1      33.589  28.926  24.430  1.00  0.00    -0.269 OA
ATOM      5  H   UNL A   1      33.097  30.858  25.720  1.00  0.00     0.163 HD
BRANCH   3   6
ATOM      6  C   UNL A   1      31.479  28.012  25.014  1.00  0.00     0.098 A 
ATOM      7  C   UNL A   1      30.582  27.769  23.948  1.00  0.00     0.052 A 
ATOM      8  C   UNL A   1      29.872  26.552  23.949  1.00  0.00     0.027 A 
ATOM      9  C   UNL A   1      29.926  25.667  25.022  1.00  0.00     0.005 A 
ATOM     10  C   UNL A   1      31.396  27.196  26.145  1.00  0.00     0.138 A 
ATOM     11  C   UNL A   1      30.650  26.020  26.150  1.00  0.00     0.040 A 
ATOM     12  F   UNL A   1      32.023  27.531  27.285  1.00  0.00    -0.206 F 
BRANCH   7  13
ATOM     13  N   UNL A   1      30.209  28.702  22.989  1.00  0.00    -0.374 N 
ATOM     14  C   UNL A   1      31.181  29.285  22.086  1.00  0.00     0.143 C 
BRANCH  13  15
ATOM     15  C   UNL A   1      28.863  29.272  23.103  1.00  0.00     0.120 C 
BRANCH  15  16
ATOM     16  C   UNL A   1      28.948  30.761  23.324  1.00  0.00     0.011 C 
ATOM     17  C   UNL A   1      28.104  31.537  20.905  1.00  0.00     0.008 C 
ATOM     18  C   UNL A   1      28.611  31.821  22.280  1.00  0.00    -0.009 C 
ATOM     19  C   UNL A   1      27.691  31.586  23.451  1.00  0.00     0.009 C 
ENDBRANCH  15  16
ENDBRANCH  13  15
ENDBRANCH   7  13
ENDBRANCH   3   6
ENDBRANCH   1   2
BRANCH   1  20
ATOM     20  C   UNL A   1      31.194  32.413  26.489  1.00  0.00     0.042 C 
BRANCH  20  21
ATOM     21  C   UNL A   1      32.507  32.810  27.140  1.00  0.00     0.118 C 
BRANCH  21  22
ATOM     22  N   UNL A   1      32.557  34.206  27.557  1.00  0.00    -0.352 N 
ATOM     23  C   UNL A   1      33.341  34.855  28.485  1.00  0.00     0.251 C 
ATOM     24  H   UNL A   1      31.915  34.790  27.092  1.00  0.00     0.163 HD
ATOM     25  O   UNL A   1      33.103  36.025  28.763  1.00  0.00    -0.269 OA
BRANCH  23  26
ATOM     26  C   UNL A   1      34.447  34.154  29.177  1.00  0.00     0.039 A 
ATOM     27  C   UNL A   1      34.140  33.142  30.094  1.00  0.00     0.014 A 
ATOM     28  C   UNL A   1      35.781  34.497  28.956  1.00  0.00     0.014 A 
ATOM     29  C   UNL A   1      35.168  32.419  30.710  1.00  0.00     0.010 A 
ATOM     30  C   UNL A   1      36.800  33.712  29.484  1.00  0.00     0.010 A 
ATOM     31  C   UNL A   1      36.507  32.664  30.371  1.00  0.00    -0.014 A 
BRANCH  31  32
ATOM     32  C   UNL A   1      37.623  31.859  30.934  1.00  0.00     0.031 A 
ATOM     33  C   UNL A   1      38.107  32.124  32.336  1.00  0.00     0.074 A 
ATOM     34  C   UNL A   1      38.247  30.941  30.168  1.00  0.00     0.049 A 
ATOM     35  N   UNL A   1      39.142  31.624  32.962  1.00  0.00    -0.248 NA
ATOM     36  C   UNL A   1      37.343  33.101  33.132  1.00  0.00     0.031 C 
ATOM     37  C   UNL A   1      37.894  30.607  28.786  1.00  0.00     0.029 A 
ATOM     38  N   UNL A   1      39.317  30.123  30.439  1.00  0.00    -0.354 N 
ATOM     39  C   UNL A   1      39.158  32.231  34.212  1.00  0.00     0.074 A 
ATOM     40  C   UNL A   1      38.069  33.181  34.238  1.00  0.00     0.031 C 
ATOM     41  C   UNL A   1      38.707  29.633  28.346  1.00  0.00     0.029 A 
ATOM     42  C   UNL A   1      39.673  29.308  29.390  1.00  0.00     0.049 A 
ATOM     43  H   UNL A   1      39.786  30.121  31.305  1.00  0.00     0.167 HD
ATOM     44  C   UNL A   1      39.985  31.994  35.255  1.00  0.00     0.037 A 
ATOM     45  C   UNL A   1      40.670  28.409  29.279  1.00  0.00     0.037 A 
ATOM     46  C   UNL A   1      41.042  31.020  35.242  1.00  0.00     0.049 A 
ATOM     47  C   UNL A   1      41.598  28.195  30.444  1.00  0.00     0.074 A 
ATOM     48  C   UNL A   1      41.911  30.684  36.266  1.00  0.00     0.029 A 
ATOM     49  N   UNL A   1      41.365  30.217  34.160  1.00  0.00    -0.354 N 
ATOM     50  N   UNL A   1      41.578  28.754  31.629  1.00  0.00    -0.248 NA
ATOM     51  C   UNL A   1      42.688  27.225  30.258  1.00  0.00     0.031 C 
ATOM     52  C   UNL A   1      42.786  29.706  35.791  1.00  0.00     0.029 A 
ATOM     53  C   UNL A   1      42.428  29.396  34.489  1.00  0.00     0.049 A 
ATOM     54  H   UNL A   1      40.907  30.230  33.289  1.00  0.00     0.167 HD
ATOM     55  C   UNL A   1      42.622  28.176  32.341  1.00  0.00     0.074 A 
ATOM     56  C   UNL A   1      43.252  27.219  31.458  1.00  0.00     0.031 C 
ATOM     57  C   UNL A   1      43.024  28.421  33.611  1.00  0.00     0.037 A 
BRANCH  44  58
ATOM     58  C   UNL A   1      39.768  32.769  36.522  1.00  0.00     0.057 A 
ATOM     59  C   UNL A   1      38.739  32.426  37.407  1.00  0.00     0.134 A 
ATOM     60  C   UNL A   1      40.512  33.920  36.808  1.00  0.00     0.134 A 
ATOM     61  F   UNL A   1      37.985  31.338  37.188  1.00  0.00    -0.206 F 
ATOM     62  C   UNL A   1      38.439  33.217  38.518  1.00  0.00     0.040 A 
ATOM     63  C   UNL A   1      40.239  34.705  37.929  1.00  0.00     0.040 A 
ATOM     64  F   UNL A   1      41.520  34.297  36.005  1.00  0.00    -0.206 F 
ATOM     65  C   UNL A   1      39.190  34.361  38.779  1.00  0.00     0.006 A 
ENDBRANCH  44  58
BRANCH  45  66
ATOM     66  C   UNL A   1      40.833  27.618  28.031  1.00  0.00     0.057 A 
ATOM     67  C   UNL A   1      41.606  28.078  26.957  1.00  0.00     0.134 A 
ATOM     68  C   UNL A   1      40.227  26.362  27.893  1.00  0.00     0.134 A 
ATOM     69  F   UNL A   1      42.210  29.274  27.021  1.00  0.00    -0.206 F 
ATOM     70  C   UNL A   1      41.767  27.324  25.793  1.00  0.00     0.040 A 
ATOM     71  C   UNL A   1      40.403  25.584  26.746  1.00  0.00     0.040 A 
ATOM     72  F   UNL A   1      39.490  25.855  28.892  1.00  0.00    -0.206 F 
ATOM     73  C   UNL A   1      41.170  26.068  25.689  1.00  0.00     0.006 A 
ENDBRANCH  45  66
BRANCH  57  74
ATOM     74  C   UNL A   1      44.162  27.612  34.158  1.00  0.00     0.057 A 
ATOM     75  C   UNL A   1      43.919  26.387  34.795  1.00  0.00     0.134 A 
ATOM     76  C   UNL A   1      45.478  28.088  34.146  1.00  0.00     0.134 A 
ATOM     77  F   UNL A   1      42.677  25.883  34.851  1.00  0.00    -0.206 F 
ATOM     78  C   UNL A   1      44.942  25.676  35.420  1.00  0.00     0.040 A 
ATOM     79  C   UNL A   1      46.515  27.370  34.745  1.00  0.00     0.040 A 
ATOM     80  F   UNL A   1      45.777  29.249  33.545  1.00  0.00    -0.206 F 
ATOM     81  C   UNL A   1      46.245  26.167  35.396  1.00  0.00     0.006 A 
ENDBRANCH  57  74
ENDBRANCH  31  32
ENDBRANCH  23  26
ENDBRANCH  21  22
ENDBRANCH  20  21
ENDBRANCH   1  20
TORSDOF 13
ENDMDL
MODEL 2
REMARK VINA RESULT:     -11.5      2.669      7.643
REMARK SMILES C[C@H]1C[C@H]1CN(C)c1cccc(F)c1C(=O)NCCCNC(=O)c1ccc(-c2c3nc(c(-c4c(F)cccc4F)c4ccc([nH]4)c(-c4c(F)cccc4F)c4nc(c(-c5c(F)cccc5F)c5ccc2[nH]5)C=C4)C=C3)cc1
REMARK SMILES IDX 18 1 17 2 15 3 16 4 14 6 8 7 9 8 10 9 12 10 11 11 13 12 6 13
REMARK SMILES IDX 7 14 5 15 4 16 1 17 2 18 3 19 19 20 20 21 21 22 22 23 23 25
REMARK SMILES IDX 24 26 25 27 77 28 26 29 76 30 27 31 28 32 29 33 70 34 30 35
REMARK SMILES IDX 75 36 69 37 71 38 31 39 74 40 68 41 67 42 32 44 58 45 41 46
REMARK SMILES IDX 57 47 42 48 45 49 56 50 72 51 43 52 44 53 55 55 73 56 46 57
REMARK SMILES IDX 33 58 34 59 39 60 35 61 36 62 38 63 40 64 37 65 59 66 60 67
REMARK SMILES IDX 65 68 61 69 62 70 64 71 66 72 63 73 47 74 48 75 53 76 49 77
REMARK SMILES IDX 50 78 52 79 54 80 51 81
REMARK H PARENT 17 5 21 24 71 43 45 54
REMARK Flexibility Score: inf
ROOT
ATOM      1  C   UNL A   1      32.283  26.450  26.058  1.00  0.00     0.118 C 
ENDROOT
BRANCH   1   2
ATOM      2  N   UNL A   1      31.347  25.495  26.644  1.00  0.00    -0.352 N 
ATOM      3  C   UNL A   1      31.181  24.131  26.445  1.00  0.00     0.256 C 
ATOM      4  O   UNL A   1      30.476  23.526  27.251  1.00  0.00    -0.269 OA
ATOM      5  H   UNL A   1      30.725  25.887  27.298  1.00  0.00     0.163 HD
BRANCH   3   6
ATOM      6  C   UNL A   1      31.759  23.441  25.257  1.00  0.00     0.098 A 
ATOM      7  C   UNL A   1      32.902  22.614  25.346  1.00  0.00     0.052 A 
ATOM      8  C   UNL A   1      33.195  21.774  24.253  1.00  0.00     0.027 A 
ATOM      9  C   UNL A   1      32.482  21.841  23.059  1.00  0.00     0.005 A 
ATOM     10  C   UNL A   1      31.162  23.609  24.005  1.00  0.00     0.138 A 
ATOM     11  C   UNL A   1      31.495  22.804  22.918  1.00  0.00     0.040 A 
ATOM     12  F   UNL A   1      30.251  24.574  23.799  1.00  0.00    -0.206 F 
BRANCH   7  13
ATOM     13  N   UNL A   1      33.862  22.683  26.347  1.00  0.00    -0.374 N 
ATOM     14  C   UNL A   1      33.667  22.031  27.626  1.00  0.00     0.143 C 
BRANCH  13  15
ATOM     15  C   UNL A   1      34.945  23.656  26.166  1.00  0.00     0.120 C 
BRANCH  15  16
ATOM     16  C   UNL A   1      36.275  22.948  26.123  1.00  0.00     0.011 C 
ATOM     17  C   UNL A   1      36.598  22.943  23.466  1.00  0.00     0.008 C 
ATOM     18  C   UNL A   1      37.038  22.597  24.849  1.00  0.00    -0.009 C 
ATOM     19  C   UNL A   1      37.527  23.703  25.749  1.00  0.00     0.009 C 
ENDBRANCH  15  16
ENDBRANCH  13  15
ENDBRANCH   7  13
ENDBRANCH   3   6
ENDBRANCH   1   2
BRANCH   1  20
ATOM     20  C   UNL A   1      31.730  27.844  25.808  1.00  0.00     0.042 C 
BRANCH  20  21
ATOM     21  C   UNL A   1      32.758  28.922  25.509  1.00  0.00     0.118 C 
BRANCH  21  22
ATOM     22  N   UNL A   1      32.353  30.255  25.938  1.00  0.00    -0.352 N 
ATOM     23  C   UNL A   1      32.903  31.128  26.849  1.00  0.00     0.251 C 
ATOM     24  H   UNL A   1      31.539  30.591  25.497  1.00  0.00     0.163 HD
ATOM     25  O   UNL A   1      32.298  32.152  27.145  1.00  0.00    -0.269 OA
BRANCH  23  26
ATOM     26  C   UNL A   1      34.200  30.835  27.503  1.00  0.00     0.039 A 
ATOM     27  C   UNL A   1      35.110  31.880  27.699  1.00  0.00     0.014 A 
ATOM     28  C   UNL A   1      34.542  29.543  27.900  1.00  0.00     0.014 A 
ATOM     29  C   UNL A   1      36.313  31.642  28.375  1.00  0.00     0.010 A 
ATOM     30  C   UNL A   1      35.685  29.328  28.663  1.00  0.00     0.010 A 
ATOM     31  C   UNL A   1      36.587  30.373  28.908  1.00  0.00    -0.014 A 
BRANCH  31  32
ATOM     32  C   UNL A   1      37.810  30.102  29.709  1.00  0.00     0.031 A 
ATOM     33  C   UNL A   1      38.886  29.204  29.156  1.00  0.00     0.074 A 
ATOM     34  C   UNL A   1      37.926  30.604  30.956  1.00  0.00     0.049 A 
ATOM     35  N   UNL A   1      39.962  28.744  29.743  1.00  0.00    -0.248 NA
ATOM     36  C   UNL A   1      38.719  28.739  27.768  1.00  0.00     0.031 C 
ATOM     37  C   UNL A   1      36.944  31.465  31.619  1.00  0.00     0.029 A 
ATOM     38  N   UNL A   1      38.917  30.454  31.895  1.00  0.00    -0.354 N 
ATOM     39  C   UNL A   1      40.586  27.931  28.805  1.00  0.00     0.074 A 
ATOM     40  C   UNL A   1      39.743  27.910  27.631  1.00  0.00     0.031 C 
ATOM     41  C   UNL A   1      37.398  31.795  32.839  1.00  0.00     0.029 A 
ATOM     42  C   UNL A   1      38.675  31.129  33.069  1.00  0.00     0.049 A 
ATOM     43  H   UNL A   1      39.726  29.915  31.742  1.00  0.00     0.167 HD
ATOM     44  C   UNL A   1      41.771  27.288  28.901  1.00  0.00     0.037 A 
ATOM     45  C   UNL A   1      39.397  31.195  34.205  1.00  0.00     0.037 A 
ATOM     46  C   UNL A   1      42.629  27.342  30.054  1.00  0.00     0.049 A 
ATOM     47  C   UNL A   1      40.694  30.436  34.296  1.00  0.00     0.074 A 
ATOM     48  C   UNL A   1      43.868  26.751  30.229  1.00  0.00     0.029 A 
ATOM     49  N   UNL A   1      42.346  28.038  31.218  1.00  0.00    -0.354 N 
ATOM     50  N   UNL A   1      41.286  29.700  33.387  1.00  0.00    -0.248 NA
ATOM     51  C   UNL A   1      41.426  30.518  35.570  1.00  0.00     0.031 C 
ATOM     52  C   UNL A   1      44.317  27.055  31.516  1.00  0.00     0.029 A 
ATOM     53  C   UNL A   1      43.381  27.879  32.121  1.00  0.00     0.049 A 
ATOM     54  H   UNL A   1      41.530  28.565  31.378  1.00  0.00     0.167 HD
ATOM     55  C   UNL A   1      42.473  29.265  33.963  1.00  0.00     0.074 A 
ATOM     56  C   UNL A   1      42.522  29.824  35.296  1.00  0.00     0.031 C 
ATOM     57  C   UNL A   1      43.434  28.471  33.433  1.00  0.00     0.037 A 
BRANCH  44  58
ATOM     58  C   UNL A   1      42.245  26.493  27.719  1.00  0.00     0.057 A 
ATOM     59  C   UNL A   1      42.970  27.103  26.687  1.00  0.00     0.134 A 
ATOM     60  C   UNL A   1      41.888  25.150  27.554  1.00  0.00     0.134 A 
ATOM     61  F   UNL A   1      43.338  28.389  26.780  1.00  0.00    -0.206 F 
ATOM     62  C   UNL A   1      43.298  26.410  25.520  1.00  0.00     0.040 A 
ATOM     63  C   UNL A   1      42.233  24.439  26.404  1.00  0.00     0.040 A 
ATOM     64  F   UNL A   1      41.204  24.505  28.512  1.00  0.00    -0.206 F 
ATOM     65  C   UNL A   1      42.928  25.075  25.377  1.00  0.00     0.006 A 
ENDBRANCH  44  58
BRANCH  45  66
ATOM     66  C   UNL A   1      38.931  32.029  35.345  1.00  0.00     0.057 A 
ATOM     67  C   UNL A   1      38.201  31.487  36.410  1.00  0.00     0.134 A 
ATOM     68  C   UNL A   1      39.227  33.397  35.400  1.00  0.00     0.134 A 
ATOM     69  F   UNL A   1      37.879  30.185  36.417  1.00  0.00    -0.206 F 
ATOM     70  C   UNL A   1      37.777  32.273  37.483  1.00  0.00     0.040 A 
ATOM     71  C   UNL A   1      38.835  34.190  36.481  1.00  0.00     0.040 A 
ATOM     72  F   UNL A   1      39.940  33.973  34.421  1.00  0.00    -0.206 F 
ATOM     73  C   UNL A   1      38.103  33.628  37.525  1.00  0.00     0.006 A 
ENDBRANCH  45  66
BRANCH  57  74
ATOM     74  C   UNL A   1      44.653  28.193  34.261  1.00  0.00     0.057 A 
ATOM     75  C   UNL A   1      44.677  27.105  35.145  1.00  0.00     0.134 A 
ATOM     76  C   UNL A   1      45.756  29.054  34.263  1.00  0.00     0.134 A 
ATOM     77  F   UNL A   1      43.643  26.250  35.201  1.00  0.00    -0.206 F 
ATOM     78  C   UNL A   1      45.745  26.897  36.015  1.00  0.00     0.040 A 
ATOM     79  C   UNL A   1      46.844  28.839  35.111  1.00  0.00     0.040 A 
ATOM     80  F   UNL A   1      45.797  30.109  33.435  1.00  0.00    -0.206 F 
ATOM     81  C   UNL A   1      46.834  27.766  35.999  1.00  0.00     0.006 A 
ENDBRANCH  57  74
ENDBRANCH  31  32
ENDBRANCH  23  26
ENDBRANCH  21  22
ENDBRANCH  20  21
ENDBRANCH   1  20
TORSDOF 13
ENDMDL
MODEL 3
REMARK VINA RESULT:     -11.5      4.319      6.322
REMARK SMILES C[C@H]1C[C@H]1CN(C)c1cccc(F)c1C(=O)NCCCNC(=O)c1ccc(-c2c3nc(c(-c4c(F)cccc4F)c4ccc([nH]4)c(-c4c(F)cccc4F)c4nc(c(-c5c(F)cccc5F)c5ccc2[nH]5)C=C4)C=C3)cc1
REMARK SMILES IDX 18 1 17 2 15 3 16 4 14 6 8 7 9 8 10 9 12 10 11 11 13 12 6 13
REMARK SMILES IDX 7 14 5 15 4 16 1 17 2 18 3 19 19 20 20 21 21 22 22 23 23 25
REMARK SMILES IDX 24 26 25 27 77 28 26 29 76 30 27 31 28 32 29 33 70 34 30 35
REMARK SMILES IDX 75 36 69 37 71 38 31 39 74 40 68 41 67 42 32 44 58 45 41 46
REMARK SMILES IDX 57 47 42 48 45 49 56 50 72 51 43 52 44 53 55 55 73 56 46 57
REMARK SMILES IDX 33 58 34 59 39 60 35 61 36 62 38 63 40 64 37 65 59 66 60 67
REMARK SMILES IDX 65 68 61 69 62 70 64 71 66 72 63 73 47 74 48 75 53 76 49 77
REMARK SMILES IDX 50 78 52 79 54 80 51 81
REMARK H PARENT 17 5 21 24 71 43 45 54
REMARK Flexibility Score: inf
ROOT
ATOM      1  C   UNL A   1      32.928  26.117  26.072  1.00  0.00     0.118 C 
ENDROOT
BRANCH   1   2
ATOM      2  N   UNL A   1      31.867  25.312  26.669  1.00  0.00    -0.352 N 
ATOM      3  C   UNL A   1      31.519  23.980  26.497  1.00  0.00     0.256 C 
ATOM      4  O   UNL A   1      30.732  23.494  27.309  1.00  0.00    -0.269 OA
ATOM      5  H   UNL A   1      31.300  25.799  27.308  1.00  0.00     0.163 HD
BRANCH   3   6
ATOM      6  C   UNL A   1      32.005  23.192  25.330  1.00  0.00     0.098 A 
ATOM      7  C   UNL A   1      33.088  22.288  25.426  1.00  0.00     0.052 A 
ATOM      8  C   UNL A   1      33.283  21.376  24.370  1.00  0.00     0.027 A 
ATOM      9  C   UNL A   1      32.536  21.436  23.197  1.00  0.00     0.005 A 
ATOM     10  C   UNL A   1      31.379  23.340  24.089  1.00  0.00     0.138 A 
ATOM     11  C   UNL A   1      31.616  22.460  23.035  1.00  0.00     0.040 A 
ATOM     12  F   UNL A   1      30.533  24.358  23.861  1.00  0.00    -0.206 F 
BRANCH   7  13
ATOM     13  N   UNL A   1      34.084  22.336  26.393  1.00  0.00    -0.374 N 
ATOM     14  C   UNL A   1      33.927  21.675  27.672  1.00  0.00     0.143 C 
BRANCH  13  15
ATOM     15  C   UNL A   1      35.172  23.297  26.182  1.00  0.00     0.120 C 
BRANCH  15  16
ATOM     16  C   UNL A   1      36.457  22.568  25.884  1.00  0.00     0.011 C 
ATOM     17  C   UNL A   1      36.529  23.019  23.247  1.00  0.00     0.008 C 
ATOM     18  C   UNL A   1      37.080  22.422  24.499  1.00  0.00    -0.009 C 
ATOM     19  C   UNL A   1      37.703  23.338  25.521  1.00  0.00     0.009 C 
ENDBRANCH  15  16
ENDBRANCH  13  15
ENDBRANCH   7  13
ENDBRANCH   3   6
ENDBRANCH   1   2
BRANCH   1  20
ATOM     20  C   UNL A   1      32.814  27.619  26.285  1.00  0.00     0.042 C 
BRANCH  20  21
ATOM     21  C   UNL A   1      34.057  28.311  26.816  1.00  0.00     0.118 C 
BRANCH  21  22
ATOM     22  N   UNL A   1      33.801  29.634  27.371  1.00  0.00    -0.352 N 
ATOM     23  C   UNL A   1      34.589  30.478  28.122  1.00  0.00     0.251 C 
ATOM     24  H   UNL A   1      32.904  29.988  27.173  1.00  0.00     0.163 HD
ATOM     25  O   UNL A   1      34.099  31.498  28.594  1.00  0.00    -0.269 OA
BRANCH  23  26
ATOM     26  C   UNL A   1      36.009  30.159  28.396  1.00  0.00     0.039 A 
ATOM     27  C   UNL A   1      36.359  29.652  29.652  1.00  0.00     0.014 A 
ATOM     28  C   UNL A   1      37.003  30.377  27.442  1.00  0.00     0.014 A 
ATOM     29  C   UNL A   1      37.683  29.279  29.912  1.00  0.00     0.010 A 
ATOM     30  C   UNL A   1      38.295  29.909  27.662  1.00  0.00     0.010 A 
ATOM     31  C   UNL A   1      38.653  29.357  28.900  1.00  0.00    -0.014 A 
BRANCH  31  32
ATOM     32  C   UNL A   1      40.048  28.887  29.108  1.00  0.00     0.031 A 
ATOM     33  C   UNL A   1      41.072  29.816  29.708  1.00  0.00     0.074 A 
ATOM     34  C   UNL A   1      40.414  27.655  28.697  1.00  0.00     0.049 A 
ATOM     35  N   UNL A   1      42.361  29.643  29.852  1.00  0.00    -0.248 NA
ATOM     36  C   UNL A   1      40.588  31.124  30.184  1.00  0.00     0.031 C 
ATOM     37  C   UNL A   1      39.526  26.668  28.078  1.00  0.00     0.029 A 
ATOM     38  N   UNL A   1      41.634  27.024  28.730  1.00  0.00    -0.354 N 
ATOM     39  C   UNL A   1      42.839  30.817  30.420  1.00  0.00     0.074 A 
ATOM     40  C   UNL A   1      41.716  31.720  30.540  1.00  0.00     0.031 C 
ATOM     41  C   UNL A   1      40.222  25.548  27.823  1.00  0.00     0.029 A 
ATOM     42  C   UNL A   1      41.614  25.751  28.210  1.00  0.00     0.049 A 
ATOM     43  H   UNL A   1      42.447  27.444  29.093  1.00  0.00     0.167 HD
ATOM     44  C   UNL A   1      44.093  31.105  30.835  1.00  0.00     0.037 A 
ATOM     45  C   UNL A   1      42.606  24.853  28.054  1.00  0.00     0.037 A 
ATOM     46  C   UNL A   1      45.200  30.192  30.753  1.00  0.00     0.049 A 
ATOM     47  C   UNL A   1      44.000  25.217  28.491  1.00  0.00     0.074 A 
ATOM     48  C   UNL A   1      46.502  30.383  31.182  1.00  0.00     0.029 A 
ATOM     49  N   UNL A   1      45.135  28.914  30.221  1.00  0.00    -0.354 N 
ATOM     50  N   UNL A   1      44.427  26.320  29.056  1.00  0.00    -0.248 NA
ATOM     51  C   UNL A   1      45.051  24.213  28.268  1.00  0.00     0.031 C 
ATOM     52  C   UNL A   1      47.235  29.235  30.873  1.00  0.00     0.029 A 
ATOM     53  C   UNL A   1      46.376  28.311  30.300  1.00  0.00     0.049 A 
ATOM     54  H   UNL A   1      44.325  28.500  29.845  1.00  0.00     0.167 HD
ATOM     55  C   UNL A   1      45.782  26.126  29.293  1.00  0.00     0.074 A 
ATOM     56  C   UNL A   1      46.106  24.800  28.816  1.00  0.00     0.031 C 
ATOM     57  C   UNL A   1      46.677  26.975  29.853  1.00  0.00     0.037 A 
BRANCH  44  58
ATOM     58  C   UNL A   1      44.344  32.449  31.455  1.00  0.00     0.057 A 
ATOM     59  C   UNL A   1      44.158  32.653  32.828  1.00  0.00     0.134 A 
ATOM     60  C   UNL A   1      44.666  33.564  30.672  1.00  0.00     0.134 A 
ATOM     61  F   UNL A   1      43.842  31.629  33.633  1.00  0.00    -0.206 F 
ATOM     62  C   UNL A   1      44.254  33.926  33.395  1.00  0.00     0.040 A 
ATOM     63  C   UNL A   1      44.791  34.836  31.231  1.00  0.00     0.040 A 
ATOM     64  F   UNL A   1      44.869  33.433  29.352  1.00  0.00    -0.206 F 
ATOM     65  C   UNL A   1      44.571  35.021  32.594  1.00  0.00     0.006 A 
ENDBRANCH  44  58
BRANCH  45  66
ATOM     66  C   UNL A   1      42.323  23.510  27.482  1.00  0.00     0.057 A 
ATOM     67  C   UNL A   1      42.018  22.409  28.292  1.00  0.00     0.134 A 
ATOM     68  C   UNL A   1      42.333  23.303  26.096  1.00  0.00     0.134 A 
ATOM     69  F   UNL A   1      41.995  22.536  29.627  1.00  0.00    -0.206 F 
ATOM     70  C   UNL A   1      41.739  21.154  27.749  1.00  0.00     0.040 A 
ATOM     71  C   UNL A   1      42.028  22.061  25.537  1.00  0.00     0.040 A 
ATOM     72  F   UNL A   1      42.599  24.321  25.265  1.00  0.00    -0.206 F 
ATOM     73  C   UNL A   1      41.735  20.979  26.366  1.00  0.00     0.006 A 
ENDBRANCH  45  66
BRANCH  57  74
ATOM     74  C   UNL A   1      48.085  26.491  30.039  1.00  0.00     0.057 A 
ATOM     75  C   UNL A   1      49.015  26.603  28.997  1.00  0.00     0.134 A 
ATOM     76  C   UNL A   1      48.489  25.826  31.202  1.00  0.00     0.134 A 
ATOM     77  F   UNL A   1      48.684  27.218  27.850  1.00  0.00    -0.206 F 
ATOM     78  C   UNL A   1      50.291  26.051  29.097  1.00  0.00     0.040 A 
ATOM     79  C   UNL A   1      49.773  25.294  31.324  1.00  0.00     0.040 A 
ATOM     80  F   UNL A   1      47.648  25.694  32.238  1.00  0.00    -0.206 F 
ATOM     81  C   UNL A   1      50.674  25.394  30.265  1.00  0.00     0.006 A 
ENDBRANCH  57  74
ENDBRANCH  31  32
ENDBRANCH  23  26
ENDBRANCH  21  22
ENDBRANCH  20  21
ENDBRANCH   1  20
TORSDOF 13
ENDMDL
