MODEL 1
REMARK VINA RESULT:     -11.9      0.000      0.000
REMARK SMILES C[C@H](Sc1ccccn1)C(=O)N[C@H](C(=O)NCCCNC(=O)c1ccc(-c2c3nc(c(-c4c(F)cccc4F)c4ccc([nH]4)c(-c4c(F)cccc4F)c4nc(c(-c5c(F)cccc5F)c5ccc2[nH]5)C=C4)C=C3)cc1)c1ccc(F)cc1
REMARK SMILES IDX 17 1 16 2 14 3 15 4 13 6 12 7 10 8 11 9 2 11 1 12 3 13 4 14
REMARK SMILES IDX 5 15 9 16 6 17 8 18 7 19 77 20 78 21 83 22 79 23 82 24 80 25
REMARK SMILES IDX 81 26 18 27 19 28 20 29 21 30 22 32 23 33 24 34 76 35 25 36
REMARK SMILES IDX 75 37 26 38 27 39 28 40 69 41 29 42 74 43 68 44 70 45 30 46
REMARK SMILES IDX 73 47 67 48 66 49 31 51 57 52 40 53 56 54 41 55 44 56 55 57
REMARK SMILES IDX 71 58 42 59 43 60 54 62 72 63 45 64 32 65 33 66 38 67 34 68
REMARK SMILES IDX 35 69 37 70 39 71 36 72 58 73 59 74 64 75 60 76 61 77 63 78
REMARK SMILES IDX 65 79 62 80 46 81 47 82 52 83 48 84 49 85 51 86 53 87 50 88
REMARK H PARENT 16 5 12 10 20 31 70 50 44 61
REMARK Flexibility Score: inf
ROOT
ATOM      1  C   UNL A   1      33.020  27.082  25.160  1.00  0.00     0.117 C 
ENDROOT
BRANCH   1   2
ATOM      2  N   UNL A   1      33.364  26.804  23.777  1.00  0.00    -0.354 N 
ATOM      3  C   UNL A   1      33.736  25.629  23.169  1.00  0.00     0.247 C 
ATOM      4  O   UNL A   1      33.924  25.685  21.954  1.00  0.00    -0.272 OA
ATOM      5  H   UNL A   1      33.324  27.584  23.177  1.00  0.00     0.163 HD
BRANCH   3   6
ATOM      6  C   UNL A   1      33.770  24.321  24.010  1.00  0.00     0.202 C 
BRANCH   6   7
ATOM      7  N   UNL A   1      32.759  23.411  23.421  1.00  0.00    -0.340 N 
ATOM      8  C   UNL A   1      32.221  22.190  23.620  1.00  0.00     0.234 C 
ATOM      9  O   UNL A   1      31.809  21.662  22.569  1.00  0.00    -0.274 OA
ATOM     10  H   UNL A   1      32.348  23.832  22.631  1.00  0.00     0.164 HD
BRANCH   8  11
ATOM     11  C   UNL A   1      31.884  21.482  24.929  1.00  0.00     0.139 C 
ATOM     12  C   UNL A   1      30.966  22.302  25.830  1.00  0.00     0.030 C 
BRANCH  11  13
ATOM     13  S   UNL A   1      33.270  20.721  25.800  1.00  0.00    -0.093 SA
BRANCH  13  14
ATOM     14  C   UNL A   1      33.246  19.057  25.167  1.00  0.00     0.097 A 
ATOM     15  C   UNL A   1      33.853  18.674  23.975  1.00  0.00     0.035 A 
ATOM     16  N   UNL A   1      32.561  18.183  25.934  1.00  0.00    -0.250 NA
ATOM     17  C   UNL A   1      33.802  17.338  23.586  1.00  0.00     0.004 A 
ATOM     18  C   UNL A   1      32.529  16.893  25.539  1.00  0.00     0.112 A 
ATOM     19  C   UNL A   1      33.131  16.425  24.385  1.00  0.00     0.020 A 
ENDBRANCH  13  14
ENDBRANCH  11  13
ENDBRANCH   8  11
ENDBRANCH   6   7
BRANCH   6  20
ATOM     20  C   UNL A   1      35.124  23.777  24.410  1.00  0.00    -0.016 A 
ATOM     21  C   UNL A   1      35.751  24.291  25.557  1.00  0.00     0.009 A 
ATOM     22  C   UNL A   1      35.841  22.842  23.642  1.00  0.00     0.009 A 
ATOM     23  C   UNL A   1      36.958  23.765  26.022  1.00  0.00     0.039 A 
ATOM     24  C   UNL A   1      37.079  22.353  24.075  1.00  0.00     0.039 A 
ATOM     25  C   UNL A   1      37.605  22.789  25.280  1.00  0.00     0.123 A 
ATOM     26  F   UNL A   1      38.760  22.279  25.725  1.00  0.00    -0.207 F 
ENDBRANCH   6  20
ENDBRANCH   3   6
ENDBRANCH   1   2
BRANCH   1  27
ATOM     27  C   UNL A   1      33.879  28.193  25.757  1.00  0.00     0.042 C 
BRANCH  27  28
ATOM     28  C   UNL A   1      33.599  28.470  27.233  1.00  0.00     0.118 C 
BRANCH  28  29
ATOM     29  N   UNL A   1      33.640  29.890  27.562  1.00  0.00    -0.352 N 
ATOM     30  C   UNL A   1      34.638  30.645  28.124  1.00  0.00     0.251 C 
ATOM     31  H   UNL A   1      32.818  30.387  27.347  1.00  0.00     0.163 HD
ATOM     32  O   UNL A   1      34.400  31.799  28.477  1.00  0.00    -0.269 OA
BRANCH  30  33
ATOM     33  C   UNL A   1      35.986  30.079  28.331  1.00  0.00     0.039 A 
ATOM     34  C   UNL A   1      36.913  30.143  27.287  1.00  0.00     0.014 A 
ATOM     35  C   UNL A   1      36.336  29.471  29.540  1.00  0.00     0.014 A 
ATOM     36  C   UNL A   1      38.212  29.667  27.481  1.00  0.00     0.010 A 
ATOM     37  C   UNL A   1      37.651  29.072  29.759  1.00  0.00     0.010 A 
ATOM     38  C   UNL A   1      38.603  29.168  28.734  1.00  0.00    -0.014 A 
BRANCH  38  39
ATOM     39  C   UNL A   1      40.008  28.764  28.998  1.00  0.00     0.031 A 
ATOM     40  C   UNL A   1      40.961  29.714  29.664  1.00  0.00     0.074 A 
ATOM     41  C   UNL A   1      40.443  27.565  28.569  1.00  0.00     0.049 A 
ATOM     42  N   UNL A   1      42.236  29.564  29.923  1.00  0.00    -0.248 NA
ATOM     43  C   UNL A   1      40.416  31.018  30.071  1.00  0.00     0.031 C 
ATOM     44  C   UNL A   1      39.627  26.566  27.875  1.00  0.00     0.029 A 
ATOM     45  N   UNL A   1      41.684  26.983  28.646  1.00  0.00    -0.354 N 
ATOM     46  C   UNL A   1      42.647  30.755  30.505  1.00  0.00     0.074 A 
ATOM     47  C   UNL A   1      41.501  31.638  30.509  1.00  0.00     0.031 C 
ATOM     48  C   UNL A   1      40.377  25.482  27.626  1.00  0.00     0.029 A 
ATOM     49  C   UNL A   1      41.737  25.726  28.097  1.00  0.00     0.049 A 
ATOM     50  H   UNL A   1      42.462  27.425  29.056  1.00  0.00     0.167 HD
ATOM     51  C   UNL A   1      43.863  31.078  31.011  1.00  0.00     0.037 A 
ATOM     52  C   UNL A   1      42.766  24.866  27.982  1.00  0.00     0.037 A 
ATOM     53  C   UNL A   1      44.999  30.192  31.010  1.00  0.00     0.049 A 
ATOM     54  C   UNL A   1      44.117  25.261  28.509  1.00  0.00     0.074 A 
ATOM     55  C   UNL A   1      46.255  30.398  31.552  1.00  0.00     0.029 A 
ATOM     56  N   UNL A   1      45.019  28.933  30.424  1.00  0.00    -0.354 N 
ATOM     57  N   UNL A   1      44.476  26.362  29.125  1.00  0.00    -0.248 NA
ATOM     58  C   UNL A   1      45.207  24.294  28.321  1.00  0.00     0.031 C 
ATOM     59  C   UNL A   1      47.053  29.291  31.241  1.00  0.00     0.029 A 
ATOM     60  C   UNL A   1      46.277  28.368  30.559  1.00  0.00     0.049 A 
ATOM     61  H   UNL A   1      44.253  28.505  29.979  1.00  0.00     0.167 HD
ATOM     62  C   UNL A   1      45.822  26.208  29.428  1.00  0.00     0.074 A 
ATOM     63  C   UNL A   1      46.213  24.903  28.934  1.00  0.00     0.031 C 
ATOM     64  C   UNL A   1      46.657  27.068  30.062  1.00  0.00     0.037 A 
BRANCH  51  65
ATOM     65  C   UNL A   1      44.022  32.456  31.587  1.00  0.00     0.057 A 
ATOM     66  C   UNL A   1      43.759  32.735  32.936  1.00  0.00     0.134 A 
ATOM     67  C   UNL A   1      44.441  33.523  30.782  1.00  0.00     0.134 A 
ATOM     68  F   UNL A   1      43.345  31.761  33.763  1.00  0.00    -0.206 F 
ATOM     69  C   UNL A   1      43.860  34.028  33.451  1.00  0.00     0.040 A 
ATOM     70  C   UNL A   1      44.578  34.816  31.292  1.00  0.00     0.040 A 
ATOM     71  F   UNL A   1      44.721  33.331  29.485  1.00  0.00    -0.206 F 
ATOM     72  C   UNL A   1      44.274  35.073  32.628  1.00  0.00     0.006 A 
ENDBRANCH  51  65
BRANCH  52  73
ATOM     73  C   UNL A   1      42.548  23.527  27.378  1.00  0.00     0.057 A 
ATOM     74  C   UNL A   1      42.689  23.336  26.000  1.00  0.00     0.134 A 
ATOM     75  C   UNL A   1      42.212  22.412  28.154  1.00  0.00     0.134 A 
ATOM     76  F   UNL A   1      42.994  24.369  25.203  1.00  0.00    -0.206 F 
ATOM     77  C   UNL A   1      42.493  22.085  25.411  1.00  0.00     0.040 A 
ATOM     78  C   UNL A   1      42.036  21.151  27.582  1.00  0.00     0.040 A 
ATOM     79  F   UNL A   1      42.070  22.528  29.483  1.00  0.00    -0.206 F 
ATOM     80  C   UNL A   1      42.172  20.987  26.205  1.00  0.00     0.006 A 
ENDBRANCH  52  73
BRANCH  64  81
ATOM     81  C   UNL A   1      48.070  26.613  30.290  1.00  0.00     0.057 A 
ATOM     82  C   UNL A   1      48.445  25.901  31.436  1.00  0.00     0.134 A 
ATOM     83  C   UNL A   1      49.061  26.861  29.331  1.00  0.00     0.134 A 
ATOM     84  F   UNL A   1      47.549  25.643  32.401  1.00  0.00    -0.206 F 
ATOM     85  C   UNL A   1      49.759  25.470  31.630  1.00  0.00     0.040 A 
ATOM     86  C   UNL A   1      50.370  26.409  29.499  1.00  0.00     0.040 A 
ATOM     87  F   UNL A   1      48.769  27.532  28.206  1.00  0.00    -0.206 F 
ATOM     88  C   UNL A   1      50.725  25.718  30.655  1.00  0.00     0.006 A 
ENDBRANCH  64  81
ENDBRANCH  38  39
ENDBRANCH  30  33
ENDBRANCH  28  29
ENDBRANCH  27  28
ENDBRANCH   1  27
TORSDOF 15
ENDMDL
MODEL 2
REMARK VINA RESULT:     -11.8      3.550      8.613
REMARK SMILES C[C@H](Sc1ccccn1)C(=O)N[C@H](C(=O)NCCCNC(=O)c1ccc(-c2c3nc(c(-c4c(F)cccc4F)c4ccc([nH]4)c(-c4c(F)cccc4F)c4nc(c(-c5c(F)cccc5F)c5ccc2[nH]5)C=C4)C=C3)cc1)c1ccc(F)cc1
REMARK SMILES IDX 17 1 16 2 14 3 15 4 13 6 12 7 10 8 11 9 2 11 1 12 3 13 4 14
REMARK SMILES IDX 5 15 9 16 6 17 8 18 7 19 77 20 78 21 83 22 79 23 82 24 80 25
REMARK SMILES IDX 81 26 18 27 19 28 20 29 21 30 22 32 23 33 24 34 76 35 25 36
REMARK SMILES IDX 75 37 26 38 27 39 28 40 69 41 29 42 74 43 68 44 70 45 30 46
REMARK SMILES IDX 73 47 67 48 66 49 31 51 57 52 40 53 56 54 41 55 44 56 55 57
REMARK SMILES IDX 71 58 42 59 43 60 54 62 72 63 45 64 32 65 33 66 38 67 34 68
REMARK SMILES IDX 35 69 37 70 39 71 36 72 58 73 59 74 64 75 60 76 61 77 63 78
REMARK SMILES IDX 65 79 62 80 46 81 47 82 52 83 48 84 49 85 51 86 53 87 50 88
REMARK H PARENT 16 5 12 10 20 31 70 50 44 61
REMARK Flexibility Score: inf
ROOT
ATOM      1  C   UNL A   1      34.454  23.757  25.282  1.00  0.00     0.117 C 
ENDROOT
BRANCH   1   2
ATOM      2  N   UNL A   1      33.318  23.735  26.187  1.00  0.00    -0.354 N 
ATOM      3  C   UNL A   1      32.308  24.648  26.374  1.00  0.00     0.247 C 
ATOM      4  O   UNL A   1      31.441  24.336  27.190  1.00  0.00    -0.272 OA
ATOM      5  H   UNL A   1      33.262  22.935  26.759  1.00  0.00     0.163 HD
BRANCH   3   6
ATOM      6  C   UNL A   1      32.263  25.919  25.479  1.00  0.00     0.202 C 
BRANCH   6   7
ATOM      7  N   UNL A   1      30.993  25.857  24.716  1.00  0.00    -0.340 N 
ATOM      8  C   UNL A   1      30.352  26.494  23.715  1.00  0.00     0.234 C 
ATOM      9  O   UNL A   1      29.112  26.410  23.799  1.00  0.00    -0.274 OA
ATOM     10  H   UNL A   1      30.440  25.112  25.046  1.00  0.00     0.164 HD
BRANCH   8  11
ATOM     11  C   UNL A   1      30.919  27.110  22.439  1.00  0.00     0.139 C 
ATOM     12  C   UNL A   1      31.868  26.173  21.697  1.00  0.00     0.030 C 
BRANCH  11  13
ATOM     13  S   UNL A   1      31.527  28.804  22.577  1.00  0.00    -0.093 SA
BRANCH  13  14
ATOM     14  C   UNL A   1      30.018  29.747  22.595  1.00  0.00     0.097 A 
ATOM     15  C   UNL A   1      29.538  30.419  23.715  1.00  0.00     0.035 A 
ATOM     16  N   UNL A   1      29.349  29.742  21.423  1.00  0.00    -0.250 NA
ATOM     17  C   UNL A   1      28.361  31.155  23.614  1.00  0.00     0.004 A 
ATOM     18  C   UNL A   1      28.211  30.467  21.347  1.00  0.00     0.112 A 
ATOM     19  C   UNL A   1      27.684  31.186  22.404  1.00  0.00     0.020 A 
ENDBRANCH  13  14
ENDBRANCH  11  13
ENDBRANCH   8  11
ENDBRANCH   6   7
BRANCH   6  20
ATOM     20  C   UNL A   1      32.704  27.230  26.093  1.00  0.00    -0.016 A 
ATOM     21  C   UNL A   1      31.727  28.118  26.572  1.00  0.00     0.009 A 
ATOM     22  C   UNL A   1      34.043  27.656  26.131  1.00  0.00     0.009 A 
ATOM     23  C   UNL A   1      32.079  29.300  27.227  1.00  0.00     0.039 A 
ATOM     24  C   UNL A   1      34.397  28.867  26.737  1.00  0.00     0.039 A 
ATOM     25  C   UNL A   1      33.416  29.657  27.314  1.00  0.00     0.123 A 
ATOM     26  F   UNL A   1      33.757  30.787  27.946  1.00  0.00    -0.207 F 
ENDBRANCH   6  20
ENDBRANCH   3   6
ENDBRANCH   1   2
BRANCH   1  27
ATOM     27  C   UNL A   1      35.784  23.652  26.021  1.00  0.00     0.042 C 
BRANCH  27  28
ATOM     28  C   UNL A   1      37.009  23.749  25.115  1.00  0.00     0.118 C 
BRANCH  28  29
ATOM     29  N   UNL A   1      38.074  22.831  25.498  1.00  0.00    -0.352 N 
ATOM     30  C   UNL A   1      39.223  23.049  26.216  1.00  0.00     0.251 C 
ATOM     31  H   UNL A   1      37.949  21.903  25.192  1.00  0.00     0.163 HD
ATOM     32  O   UNL A   1      40.076  22.166  26.279  1.00  0.00    -0.269 OA
BRANCH  30  33
ATOM     33  C   UNL A   1      39.455  24.342  26.892  1.00  0.00     0.039 A 
ATOM     34  C   UNL A   1      38.956  24.526  28.185  1.00  0.00     0.014 A 
ATOM     35  C   UNL A   1      40.142  25.377  26.254  1.00  0.00     0.014 A 
ATOM     36  C   UNL A   1      39.215  25.718  28.866  1.00  0.00     0.010 A 
ATOM     37  C   UNL A   1      40.469  26.531  26.961  1.00  0.00     0.010 A 
ATOM     38  C   UNL A   1      40.011  26.713  28.275  1.00  0.00    -0.014 A 
BRANCH  38  39
ATOM     39  C   UNL A   1      40.395  27.937  29.021  1.00  0.00     0.031 A 
ATOM     40  C   UNL A   1      41.752  28.049  29.654  1.00  0.00     0.074 A 
ATOM     41  C   UNL A   1      39.490  28.920  29.192  1.00  0.00     0.049 A 
ATOM     42  N   UNL A   1      42.245  29.011  30.394  1.00  0.00    -0.248 NA
ATOM     43  C   UNL A   1      42.670  26.918  29.452  1.00  0.00     0.031 C 
ATOM     44  C   UNL A   1      38.126  28.916  28.660  1.00  0.00     0.029 A 
ATOM     45  N   UNL A   1      39.579  30.111  29.867  1.00  0.00    -0.354 N 
ATOM     46  C   UNL A   1      43.519  28.595  30.756  1.00  0.00     0.074 A 
ATOM     47  C   UNL A   1      43.701  27.270  30.204  1.00  0.00     0.031 C 
ATOM     48  C   UNL A   1      37.520  30.065  28.995  1.00  0.00     0.029 A 
ATOM     49  C   UNL A   1      38.433  30.865  29.805  1.00  0.00     0.049 A 
ATOM     50  H   UNL A   1      40.387  30.398  30.350  1.00  0.00     0.167 HD
ATOM     51  C   UNL A   1      44.460  29.264  31.467  1.00  0.00     0.037 A 
ATOM     52  C   UNL A   1      38.148  32.065  30.344  1.00  0.00     0.037 A 
ATOM     53  C   UNL A   1      44.276  30.586  32.008  1.00  0.00     0.049 A 
ATOM     54  C   UNL A   1      39.190  32.769  31.166  1.00  0.00     0.074 A 
ATOM     55  C   UNL A   1      45.187  31.375  32.687  1.00  0.00     0.029 A 
ATOM     56  N   UNL A   1      43.093  31.308  31.944  1.00  0.00    -0.354 N 
ATOM     57  N   UNL A   1      40.418  32.399  31.439  1.00  0.00    -0.248 NA
ATOM     58  C   UNL A   1      38.805  34.058  31.756  1.00  0.00     0.031 C 
ATOM     59  C   UNL A   1      44.537  32.548  33.087  1.00  0.00     0.029 A 
ATOM     60  C   UNL A   1      43.238  32.518  32.604  1.00  0.00     0.049 A 
ATOM     61  H   UNL A   1      42.270  31.006  31.494  1.00  0.00     0.167 HD
ATOM     62  C   UNL A   1      40.963  33.421  32.205  1.00  0.00     0.074 A 
ATOM     63  C   UNL A   1      39.934  34.431  32.344  1.00  0.00     0.031 C 
ATOM     64  C   UNL A   1      42.206  33.516  32.738  1.00  0.00     0.037 A 
BRANCH  51  65
ATOM     65  C   UNL A   1      45.765  28.559  31.710  1.00  0.00     0.057 A 
ATOM     66  C   UNL A   1      46.843  28.657  30.818  1.00  0.00     0.134 A 
ATOM     67  C   UNL A   1      45.948  27.766  32.850  1.00  0.00     0.134 A 
ATOM     68  F   UNL A   1      46.735  29.392  29.699  1.00  0.00    -0.206 F 
ATOM     69  C   UNL A   1      48.032  27.957  31.025  1.00  0.00     0.040 A 
ATOM     70  C   UNL A   1      47.145  27.088  33.087  1.00  0.00     0.040 A 
ATOM     71  F   UNL A   1      44.965  27.634  33.754  1.00  0.00    -0.206 F 
ATOM     72  C   UNL A   1      48.187  27.172  32.166  1.00  0.00     0.006 A 
ENDBRANCH  51  65
BRANCH  52  73
ATOM     73  C   UNL A   1      36.829  32.697  30.087  1.00  0.00     0.057 A 
ATOM     74  C   UNL A   1      35.737  32.430  30.920  1.00  0.00     0.134 A 
ATOM     75  C   UNL A   1      36.629  33.585  29.024  1.00  0.00     0.134 A 
ATOM     76  F   UNL A   1      35.863  31.575  31.944  1.00  0.00    -0.206 F 
ATOM     77  C   UNL A   1      34.489  33.015  30.699  1.00  0.00     0.040 A 
ATOM     78  C   UNL A   1      35.393  34.196  28.806  1.00  0.00     0.040 A 
ATOM     79  F   UNL A   1      37.638  33.888  28.195  1.00  0.00    -0.206 F 
ATOM     80  C   UNL A   1      34.317  33.907  29.643  1.00  0.00     0.006 A 
ENDBRANCH  52  73
BRANCH  64  81
ATOM     81  C   UNL A   1      42.536  34.771  33.496  1.00  0.00     0.057 A 
ATOM     82  C   UNL A   1      42.358  34.870  34.881  1.00  0.00     0.134 A 
ATOM     83  C   UNL A   1      43.072  35.883  32.832  1.00  0.00     0.134 A 
ATOM     84  F   UNL A   1      41.834  33.848  35.576  1.00  0.00    -0.206 F 
ATOM     85  C   UNL A   1      42.682  36.037  35.577  1.00  0.00     0.040 A 
ATOM     86  C   UNL A   1      43.429  37.043  33.521  1.00  0.00     0.040 A 
ATOM     87  F   UNL A   1      43.275  35.853  31.506  1.00  0.00    -0.206 F 
ATOM     88  C   UNL A   1      43.227  37.125  34.896  1.00  0.00     0.006 A 
ENDBRANCH  64  81
ENDBRANCH  38  39
ENDBRANCH  30  33
ENDBRANCH  28  29
ENDBRANCH  27  28
ENDBRANCH   1  27
TORSDOF 15
ENDMDL
MODEL 3
REMARK VINA RESULT:     -11.8      3.595      8.485
REMARK SMILES C[C@H](Sc1ccccn1)C(=O)N[C@H](C(=O)NCCCNC(=O)c1ccc(-c2c3nc(c(-c4c(F)cccc4F)c4ccc([nH]4)c(-c4c(F)cccc4F)c4nc(c(-c5c(F)cccc5F)c5ccc2[nH]5)C=C4)C=C3)cc1)c1ccc(F)cc1
REMARK SMILES IDX 17 1 16 2 14 3 15 4 13 6 12 7 10 8 11 9 2 11 1 12 3 13 4 14
REMARK SMILES IDX 5 15 9 16 6 17 8 18 7 19 77 20 78 21 83 22 79 23 82 24 80 25
REMARK SMILES IDX 81 26 18 27 19 28 20 29 21 30 22 32 23 33 24 34 76 35 25 36
REMARK SMILES IDX 75 37 26 38 27 39 28 40 69 41 29 42 74 43 68 44 70 45 30 46
REMARK SMILES IDX 73 47 67 48 66 49 31 51 57 52 40 53 56 54 41 55 44 56 55 57
REMARK SMILES IDX 71 58 42 59 43 60 54 62 72 63 45 64 32 65 33 66 38 67 34 68
REMARK SMILES IDX 35 69 37 70 39 71 36 72 58 73 59 74 64 75 60 76 61 77 63 78
REMARK SMILES IDX 65 79 62 80 46 81 47 82 52 83 48 84 49 85 51 86 53 87 50 88
REMARK H PARENT 16 5 12 10 20 31 70 50 44 61
REMARK Flexibility Score: inf
ROOT
ATOM      1  C   UNL A   1      34.553  23.943  25.624  1.00  0.00     0.117 C 
ENDROOT
BRANCH   1   2
ATOM      2  N   UNL A   1      33.341  23.832  26.416  1.00  0.00    -0.354 N 
ATOM      3  C   UNL A   1      32.244  24.656  26.490  1.00  0.00     0.247 C 
ATOM      4  O   UNL A   1      31.333  24.278  27.226  1.00  0.00    -0.272 OA
ATOM      5  H   UNL A   1      33.299  23.036  26.995  1.00  0.00     0.163 HD
BRANCH   3   6
ATOM      6  C   UNL A   1      32.178  25.910  25.572  1.00  0.00     0.202 C 
BRANCH   6   7
ATOM      7  N   UNL A   1      30.928  25.792  24.782  1.00  0.00    -0.340 N 
ATOM      8  C   UNL A   1      30.268  26.417  23.786  1.00  0.00     0.234 C 
ATOM      9  O   UNL A   1      29.034  26.254  23.843  1.00  0.00    -0.274 OA
ATOM     10  H   UNL A   1      30.417  25.005  25.080  1.00  0.00     0.164 HD
BRANCH   8  11
ATOM     11  C   UNL A   1      30.819  27.103  22.540  1.00  0.00     0.139 C 
ATOM     12  C   UNL A   1      31.756  26.208  21.733  1.00  0.00     0.030 C 
BRANCH  11  13
ATOM     13  S   UNL A   1      31.434  28.785  22.766  1.00  0.00    -0.093 SA
BRANCH  13  14
ATOM     14  C   UNL A   1      29.940  29.748  22.674  1.00  0.00     0.097 A 
ATOM     15  C   UNL A   1      29.418  30.471  23.742  1.00  0.00     0.035 A 
ATOM     16  N   UNL A   1      29.328  29.706  21.472  1.00  0.00    -0.250 NA
ATOM     17  C   UNL A   1      28.258  31.218  23.555  1.00  0.00     0.004 A 
ATOM     18  C   UNL A   1      28.207  30.442  21.312  1.00  0.00     0.112 A 
ATOM     19  C   UNL A   1      27.640  31.210  22.314  1.00  0.00     0.020 A 
ENDBRANCH  13  14
ENDBRANCH  11  13
ENDBRANCH   8  11
ENDBRANCH   6   7
BRANCH   6  20
ATOM     20  C   UNL A   1      32.560  27.245  26.174  1.00  0.00    -0.016 A 
ATOM     21  C   UNL A   1      33.917  27.602  26.228  1.00  0.00     0.009 A 
ATOM     22  C   UNL A   1      31.634  28.117  26.773  1.00  0.00     0.009 A 
ATOM     23  C   UNL A   1      34.319  28.856  26.692  1.00  0.00     0.039 A 
ATOM     24  C   UNL A   1      32.039  29.353  27.290  1.00  0.00     0.039 A 
ATOM     25  C   UNL A   1      33.371  29.727  27.208  1.00  0.00     0.123 A 
ATOM     26  F   UNL A   1      33.753  30.932  27.648  1.00  0.00    -0.207 F 
ENDBRANCH   6  20
ENDBRANCH   3   6
ENDBRANCH   1   2
BRANCH   1  27
ATOM     27  C   UNL A   1      35.678  23.064  26.160  1.00  0.00     0.042 C 
BRANCH  27  28
ATOM     28  C   UNL A   1      36.975  23.155  25.358  1.00  0.00     0.118 C 
BRANCH  28  29
ATOM     29  N   UNL A   1      38.028  22.292  25.881  1.00  0.00    -0.352 N 
ATOM     30  C   UNL A   1      39.211  22.607  26.500  1.00  0.00     0.251 C 
ATOM     31  H   UNL A   1      37.863  21.328  25.772  1.00  0.00     0.163 HD
ATOM     32  O   UNL A   1      40.040  21.724  26.709  1.00  0.00    -0.269 OA
BRANCH  30  33
ATOM     33  C   UNL A   1      39.508  24.000  26.894  1.00  0.00     0.039 A 
ATOM     34  C   UNL A   1      39.215  24.409  28.198  1.00  0.00     0.014 A 
ATOM     35  C   UNL A   1      40.056  24.906  25.984  1.00  0.00     0.014 A 
ATOM     36  C   UNL A   1      39.542  25.702  28.610  1.00  0.00     0.010 A 
ATOM     37  C   UNL A   1      40.456  26.167  26.417  1.00  0.00     0.010 A 
ATOM     38  C   UNL A   1      40.205  26.578  27.735  1.00  0.00    -0.014 A 
BRANCH  38  39
ATOM     39  C   UNL A   1      40.666  27.916  28.185  1.00  0.00     0.031 A 
ATOM     40  C   UNL A   1      42.130  28.249  28.209  1.00  0.00     0.074 A 
ATOM     41  C   UNL A   1      39.765  28.806  28.644  1.00  0.00     0.049 A 
ATOM     42  N   UNL A   1      42.725  29.339  28.626  1.00  0.00    -0.248 NA
ATOM     43  C   UNL A   1      43.051  27.210  27.725  1.00  0.00     0.031 C 
ATOM     44  C   UNL A   1      38.319  28.590  28.709  1.00  0.00     0.029 A 
ATOM     45  N   UNL A   1      39.935  30.070  29.151  1.00  0.00    -0.354 N 
ATOM     46  C   UNL A   1      44.086  29.110  28.468  1.00  0.00     0.074 A 
ATOM     47  C   UNL A   1      44.230  27.758  27.974  1.00  0.00     0.031 C 
ATOM     48  C   UNL A   1      37.730  29.696  29.188  1.00  0.00     0.029 A 
ATOM     49  C   UNL A   1      38.759  30.681  29.509  1.00  0.00     0.049 A 
ATOM     50  H   UNL A   1      40.816  30.498  29.248  1.00  0.00     0.167 HD
ATOM     51  C   UNL A   1      45.120  29.956  28.696  1.00  0.00     0.037 A 
ATOM     52  C   UNL A   1      38.533  31.897  30.041  1.00  0.00     0.037 A 
ATOM     53  C   UNL A   1      44.970  31.304  29.182  1.00  0.00     0.049 A 
ATOM     54  C   UNL A   1      39.698  32.802  30.327  1.00  0.00     0.074 A 
ATOM     55  C   UNL A   1      45.946  32.262  29.385  1.00  0.00     0.029 A 
ATOM     56  N   UNL A   1      43.763  31.880  29.555  1.00  0.00    -0.354 N 
ATOM     57  N   UNL A   1      40.975  32.603  30.105  1.00  0.00    -0.248 NA
ATOM     58  C   UNL A   1      39.389  34.101  30.940  1.00  0.00     0.031 C 
ATOM     59  C   UNL A   1      45.339  33.395  29.939  1.00  0.00     0.029 A 
ATOM     60  C   UNL A   1      43.975  33.166  30.023  1.00  0.00     0.049 A 
ATOM     61  H   UNL A   1      42.884  31.439  29.495  1.00  0.00     0.167 HD
ATOM     62  C   UNL A   1      41.619  33.761  30.520  1.00  0.00     0.074 A 
ATOM     63  C   UNL A   1      40.589  34.661  30.999  1.00  0.00     0.031 C 
ATOM     64  C   UNL A   1      42.943  34.054  30.500  1.00  0.00     0.037 A 
BRANCH  51  65
ATOM     65  C   UNL A   1      46.504  29.433  28.436  1.00  0.00     0.057 A 
ATOM     66  C   UNL A   1      47.265  28.810  29.437  1.00  0.00     0.134 A 
ATOM     67  C   UNL A   1      47.089  29.555  27.170  1.00  0.00     0.134 A 
ATOM     68  F   UNL A   1      46.770  28.666  30.677  1.00  0.00    -0.206 F 
ATOM     69  C   UNL A   1      48.569  28.373  29.201  1.00  0.00     0.040 A 
ATOM     70  C   UNL A   1      48.381  29.092  26.911  1.00  0.00     0.040 A 
ATOM     71  F   UNL A   1      46.418  30.130  26.160  1.00  0.00    -0.206 F 
ATOM     72  C   UNL A   1      49.129  28.511  27.932  1.00  0.00     0.006 A 
ENDBRANCH  51  65
BRANCH  52  73
ATOM     73  C   UNL A   1      37.141  32.345  30.298  1.00  0.00     0.057 A 
ATOM     74  C   UNL A   1      36.437  33.072  29.333  1.00  0.00     0.134 A 
ATOM     75  C   UNL A   1      36.479  32.050  31.496  1.00  0.00     0.134 A 
ATOM     76  F   UNL A   1      37.024  33.399  28.173  1.00  0.00    -0.206 F 
ATOM     77  C   UNL A   1      35.127  33.500  29.552  1.00  0.00     0.040 A 
ATOM     78  C   UNL A   1      35.161  32.450  31.718  1.00  0.00     0.040 A 
ATOM     79  F   UNL A   1      37.097  31.349  32.457  1.00  0.00    -0.206 F 
ATOM     80  C   UNL A   1      34.482  33.183  30.746  1.00  0.00     0.006 A 
ENDBRANCH  52  73
BRANCH  64  81
ATOM     81  C   UNL A   1      43.354  35.416  30.980  1.00  0.00     0.057 A 
ATOM     82  C   UNL A   1      43.606  35.683  32.332  1.00  0.00     0.134 A 
ATOM     83  C   UNL A   1      43.534  36.467  30.070  1.00  0.00     0.134 A 
ATOM     84  F   UNL A   1      43.437  34.726  33.257  1.00  0.00    -0.206 F 
ATOM     85  C   UNL A   1      44.002  36.950  32.764  1.00  0.00     0.040 A 
ATOM     86  C   UNL A   1      43.959  37.729  30.487  1.00  0.00     0.040 A 
ATOM     87  F   UNL A   1      43.316  36.280  28.760  1.00  0.00    -0.206 F 
ATOM     88  C   UNL A   1      44.187  37.976  31.838  1.00  0.00     0.006 A 
ENDBRANCH  64  81
ENDBRANCH  38  39
ENDBRANCH  30  33
ENDBRANCH  28  29
ENDBRANCH  27  28
ENDBRANCH   1  27
TORSDOF 15
ENDMDL
