MODEL 1
REMARK VINA RESULT:     -12.3      0.000      0.000
REMARK SMILES CCOc1cc(C(=O)N2CCC(C(=O)NCCCNC(=O)c3ccc(-c4c5nc(c(-c6c(F)cccc6F)c6ccc([nH]6)c(-c6c(F)cccc6F)c6nc(c(-c7c(F)cccc7F)c7ccc4[nH]7)C=C6)C=C5)cc3)(c3ccccc3)CC2)ccc1OC
REMARK SMILES IDX 16 1 15 2 13 3 14 4 12 6 7 7 8 8 9 9 10 10 83 11 11 12 82 13
REMARK SMILES IDX 6 14 4 15 5 16 86 17 85 18 84 19 3 20 2 21 1 22 87 23 88 24
REMARK SMILES IDX 76 25 77 26 81 27 78 28 80 29 79 30 17 31 18 32 19 33 20 34
REMARK SMILES IDX 21 36 22 37 23 38 75 39 24 40 74 41 25 42 26 43 27 44 68 45
REMARK SMILES IDX 28 46 73 47 67 48 69 49 29 50 72 51 66 52 65 53 30 55 56 56
REMARK SMILES IDX 39 57 55 58 40 59 43 60 54 61 70 62 41 63 42 64 53 66 71 67
REMARK SMILES IDX 44 68 31 69 32 70 37 71 33 72 34 73 36 74 38 75 35 76 57 77
REMARK SMILES IDX 58 78 63 79 59 80 60 81 62 82 64 83 61 84 45 85 46 86 51 87
REMARK SMILES IDX 47 88 48 89 50 90 52 91 49 92
REMARK H PARENT 15 5 19 35 69 54 43 65
REMARK Flexibility Score: inf
ROOT
ATOM      1  C   UNL A   1      31.662  29.560  25.782  1.00  0.00     0.117 C 
ENDROOT
BRANCH   1   2
ATOM      2  N   UNL A   1      32.507  29.631  24.599  1.00  0.00    -0.355 N 
ATOM      3  C   UNL A   1      32.715  28.798  23.536  1.00  0.00     0.230 C 
ATOM      4  O   UNL A   1      33.606  29.202  22.785  1.00  0.00    -0.274 OA
ATOM      5  H   UNL A   1      33.044  30.455  24.556  1.00  0.00     0.163 HD
BRANCH   3   6
ATOM      6  C   UNL A   1      31.901  27.464  23.336  1.00  0.00     0.077 C 
ATOM      7  C   UNL A   1      33.499  23.469  22.516  1.00  0.00     0.253 C 
ATOM      8  O   UNL A   1      34.219  23.332  21.530  1.00  0.00    -0.269 OA
ATOM      9  N   UNL A   1      32.880  24.695  22.838  1.00  0.00    -0.339 N 
ATOM     10  C   UNL A   1      32.360  25.457  21.715  1.00  0.00     0.121 C 
ATOM     11  C   UNL A   1      32.399  25.031  24.176  1.00  0.00     0.121 C 
ATOM     12  C   UNL A   1      32.282  26.961  21.917  1.00  0.00     0.043 C 
ATOM     13  C   UNL A   1      32.342  26.520  24.495  1.00  0.00     0.043 C 
BRANCH   7  14
ATOM     14  C   UNL A   1      33.184  22.253  23.327  1.00  0.00     0.043 A 
ATOM     15  C   UNL A   1      33.469  20.881  25.319  1.00  0.00     0.161 A 
ATOM     16  C   UNL A   1      33.757  22.053  24.591  1.00  0.00     0.064 A 
ATOM     17  C   UNL A   1      32.557  19.943  24.818  1.00  0.00     0.160 A 
ATOM     18  C   UNL A   1      32.073  20.113  23.520  1.00  0.00     0.051 A 
ATOM     19  C   UNL A   1      32.418  21.230  22.766  1.00  0.00     0.018 A 
BRANCH  15  20
ATOM     20  O   UNL A   1      34.055  20.703  26.545  1.00  0.00    -0.490 OA
BRANCH  20  21
ATOM     21  C   UNL A   1      34.281  21.942  27.233  1.00  0.00     0.226 C 
ATOM     22  C   UNL A   1      33.011  22.329  27.978  1.00  0.00     0.049 C 
ENDBRANCH  20  21
ENDBRANCH  15  20
BRANCH  17  23
ATOM     23  O   UNL A   1      32.066  18.811  25.402  1.00  0.00    -0.493 OA
ATOM     24  C   UNL A   1      32.492  17.542  24.934  1.00  0.00     0.278 C 
ENDBRANCH  17  23
ENDBRANCH   7  14
BRANCH   6  25
ATOM     25  C   UNL A   1      30.333  27.590  23.404  1.00  0.00    -0.032 A 
ATOM     26  C   UNL A   1      29.478  26.616  23.951  1.00  0.00     0.005 A 
ATOM     27  C   UNL A   1      29.688  28.734  22.882  1.00  0.00     0.005 A 
ATOM     28  C   UNL A   1      28.083  26.766  23.961  1.00  0.00     0.000 A 
ATOM     29  C   UNL A   1      28.296  28.885  22.881  1.00  0.00     0.000 A 
ATOM     30  C   UNL A   1      27.490  27.896  23.420  1.00  0.00     0.000 A 
ENDBRANCH   6  25
ENDBRANCH   3   6
ENDBRANCH   1   2
BRANCH   1  31
ATOM     31  C   UNL A   1      32.373  28.913  26.962  1.00  0.00     0.042 C 
BRANCH  31  32
ATOM     32  C   UNL A   1      33.766  29.461  27.237  1.00  0.00     0.118 C 
BRANCH  32  33
ATOM     33  N   UNL A   1      33.753  30.855  27.654  1.00  0.00    -0.352 N 
ATOM     34  C   UNL A   1      34.610  31.542  28.475  1.00  0.00     0.251 C 
ATOM     35  H   UNL A   1      33.011  31.390  27.288  1.00  0.00     0.163 HD
ATOM     36  O   UNL A   1      34.311  32.672  28.848  1.00  0.00    -0.269 OA
BRANCH  34  37
ATOM     37  C   UNL A   1      35.881  30.932  28.926  1.00  0.00     0.039 A 
ATOM     38  C   UNL A   1      37.083  31.460  28.448  1.00  0.00     0.014 A 
ATOM     39  C   UNL A   1      35.899  29.820  29.773  1.00  0.00     0.014 A 
ATOM     40  C   UNL A   1      38.298  30.902  28.851  1.00  0.00     0.010 A 
ATOM     41  C   UNL A   1      37.110  29.326  30.250  1.00  0.00     0.010 A 
ATOM     42  C   UNL A   1      38.323  29.843  29.774  1.00  0.00    -0.014 A 
BRANCH  42  43
ATOM     43  C   UNL A   1      39.608  29.247  30.217  1.00  0.00     0.031 A 
ATOM     44  C   UNL A   1      40.300  29.767  31.448  1.00  0.00     0.074 A 
ATOM     45  C   UNL A   1      40.178  28.270  29.488  1.00  0.00     0.049 A 
ATOM     46  N   UNL A   1      41.431  29.386  31.986  1.00  0.00    -0.248 NA
ATOM     47  C   UNL A   1      39.654  30.888  32.150  1.00  0.00     0.031 C 
ATOM     48  C   UNL A   1      39.647  27.728  28.236  1.00  0.00     0.029 A 
ATOM     49  N   UNL A   1      41.335  27.562  29.693  1.00  0.00    -0.354 N 
ATOM     50  C   UNL A   1      41.640  30.231  33.069  1.00  0.00     0.074 A 
ATOM     51  C   UNL A   1      40.551  31.182  33.079  1.00  0.00     0.031 C 
ATOM     52  C   UNL A   1      40.463  26.755  27.798  1.00  0.00     0.029 A 
ATOM     53  C   UNL A   1      41.585  26.623  28.721  1.00  0.00     0.049 A 
ATOM     54  H   UNL A   1      41.930  27.712  30.463  1.00  0.00     0.167 HD
ATOM     55  C   UNL A   1      42.635  30.203  33.987  1.00  0.00     0.037 A 
ATOM     56  C   UNL A   1      42.602  25.751  28.593  1.00  0.00     0.037 A 
ATOM     57  C   UNL A   1      43.697  29.233  33.997  1.00  0.00     0.049 A 
ATOM     58  C   UNL A   1      43.667  25.703  29.651  1.00  0.00     0.074 A 
ATOM     59  C   UNL A   1      44.703  29.064  34.932  1.00  0.00     0.029 A 
ATOM     60  N   UNL A   1      43.890  28.266  33.022  1.00  0.00    -0.354 N 
ATOM     61  N   UNL A   1      43.801  26.446  30.723  1.00  0.00    -0.248 NA
ATOM     62  C   UNL A   1      44.710  24.680  29.493  1.00  0.00     0.031 C 
ATOM     63  C   UNL A   1      45.531  28.023  34.499  1.00  0.00     0.029 A 
ATOM     64  C   UNL A   1      45.012  27.510  33.320  1.00  0.00     0.049 A 
ATOM     65  H   UNL A   1      43.315  28.136  32.233  1.00  0.00     0.167 HD
ATOM     66  C   UNL A   1      44.930  25.970  31.377  1.00  0.00     0.074 A 
ATOM     67  C   UNL A   1      45.432  24.861  30.591  1.00  0.00     0.031 C 
ATOM     68  C   UNL A   1      45.500  26.411  32.526  1.00  0.00     0.037 A 
BRANCH  55  69
ATOM     69  C   UNL A   1      42.616  31.258  35.058  1.00  0.00     0.057 A 
ATOM     70  C   UNL A   1      42.000  31.046  36.298  1.00  0.00     0.134 A 
ATOM     71  C   UNL A   1      43.231  32.498  34.848  1.00  0.00     0.134 A 
ATOM     72  F   UNL A   1      41.380  29.885  36.560  1.00  0.00    -0.206 F 
ATOM     73  C   UNL A   1      41.964  32.040  37.278  1.00  0.00     0.040 A 
ATOM     74  C   UNL A   1      43.229  33.490  35.831  1.00  0.00     0.040 A 
ATOM     75  F   UNL A   1      43.845  32.768  33.686  1.00  0.00    -0.206 F 
ATOM     76  C   UNL A   1      42.585  33.266  37.046  1.00  0.00     0.006 A 
ENDBRANCH  55  69
BRANCH  56  77
ATOM     77  C   UNL A   1      42.634  24.827  27.432  1.00  0.00     0.057 A 
ATOM     78  C   UNL A   1      42.079  23.544  27.512  1.00  0.00     0.134 A 
ATOM     79  C   UNL A   1      43.203  25.209  26.212  1.00  0.00     0.134 A 
ATOM     80  F   UNL A   1      41.533  23.116  28.660  1.00  0.00    -0.206 F 
ATOM     81  C   UNL A   1      42.102  22.669  26.425  1.00  0.00     0.040 A 
ATOM     82  C   UNL A   1      43.212  24.354  25.109  1.00  0.00     0.040 A 
ATOM     83  F   UNL A   1      43.742  26.429  26.069  1.00  0.00    -0.206 F 
ATOM     84  C   UNL A   1      42.664  23.076  25.217  1.00  0.00     0.006 A 
ENDBRANCH  56  77
BRANCH  68  85
ATOM     85  C   UNL A   1      46.713  25.675  33.013  1.00  0.00     0.057 A 
ATOM     86  C   UNL A   1      48.006  26.027  32.605  1.00  0.00     0.134 A 
ATOM     87  C   UNL A   1      46.588  24.618  33.924  1.00  0.00     0.134 A 
ATOM     88  F   UNL A   1      48.195  27.023  31.726  1.00  0.00    -0.206 F 
ATOM     89  C   UNL A   1      49.129  25.334  33.062  1.00  0.00     0.040 A 
ATOM     90  C   UNL A   1      47.703  23.936  34.408  1.00  0.00     0.040 A 
ATOM     91  F   UNL A   1      45.379  24.236  34.363  1.00  0.00    -0.206 F 
ATOM     92  C   UNL A   1      48.979  24.288  33.971  1.00  0.00     0.006 A 
ENDBRANCH  68  85
ENDBRANCH  42  43
ENDBRANCH  34  37
ENDBRANCH  32  33
ENDBRANCH  31  32
ENDBRANCH   1  31
TORSDOF 15
ENDMDL
MODEL 2
REMARK VINA RESULT:     -12.2      3.693      6.946
REMARK SMILES CCOc1cc(C(=O)N2CCC(C(=O)NCCCNC(=O)c3ccc(-c4c5nc(c(-c6c(F)cccc6F)c6ccc([nH]6)c(-c6c(F)cccc6F)c6nc(c(-c7c(F)cccc7F)c7ccc4[nH]7)C=C6)C=C5)cc3)(c3ccccc3)CC2)ccc1OC
REMARK SMILES IDX 16 1 15 2 13 3 14 4 12 6 7 7 8 8 9 9 10 10 83 11 11 12 82 13
REMARK SMILES IDX 6 14 4 15 5 16 86 17 85 18 84 19 3 20 2 21 1 22 87 23 88 24
REMARK SMILES IDX 76 25 77 26 81 27 78 28 80 29 79 30 17 31 18 32 19 33 20 34
REMARK SMILES IDX 21 36 22 37 23 38 75 39 24 40 74 41 25 42 26 43 27 44 68 45
REMARK SMILES IDX 28 46 73 47 67 48 69 49 29 50 72 51 66 52 65 53 30 55 56 56
REMARK SMILES IDX 39 57 55 58 40 59 43 60 54 61 70 62 41 63 42 64 53 66 71 67
REMARK SMILES IDX 44 68 31 69 32 70 37 71 33 72 34 73 36 74 38 75 35 76 57 77
REMARK SMILES IDX 58 78 63 79 59 80 60 81 62 82 64 83 61 84 45 85 46 86 51 87
REMARK SMILES IDX 47 88 48 89 50 90 52 91 49 92
REMARK H PARENT 15 5 19 35 69 54 43 65
REMARK Flexibility Score: inf
ROOT
ATOM      1  C   UNL A   1      33.536  29.865  26.724  1.00  0.00     0.117 C 
ENDROOT
BRANCH   1   2
ATOM      2  N   UNL A   1      32.564  29.108  27.500  1.00  0.00    -0.355 N 
ATOM      3  C   UNL A   1      31.871  27.952  27.274  1.00  0.00     0.230 C 
ATOM      4  O   UNL A   1      31.061  27.704  28.170  1.00  0.00    -0.274 OA
ATOM      5  H   UNL A   1      32.364  29.516  28.373  1.00  0.00     0.163 HD
BRANCH   3   6
ATOM      6  C   UNL A   1      32.093  27.071  25.987  1.00  0.00     0.077 C 
ATOM      7  C   UNL A   1      34.118  23.196  25.732  1.00  0.00     0.253 C 
ATOM      8  O   UNL A   1      35.275  23.127  26.139  1.00  0.00    -0.269 OA
ATOM      9  N   UNL A   1      33.394  24.406  25.708  1.00  0.00    -0.339 N 
ATOM     10  C   UNL A   1      34.145  25.586  25.315  1.00  0.00     0.121 C 
ATOM     11  C   UNL A   1      31.935  24.474  25.662  1.00  0.00     0.121 C 
ATOM     12  C   UNL A   1      33.632  26.908  25.863  1.00  0.00     0.043 C 
ATOM     13  C   UNL A   1      31.322  25.741  26.245  1.00  0.00     0.043 C 
BRANCH   7  14
ATOM     14  C   UNL A   1      33.512  21.966  25.136  1.00  0.00     0.043 A 
ATOM     15  C   UNL A   1      32.776  19.650  25.304  1.00  0.00     0.161 A 
ATOM     16  C   UNL A   1      33.318  20.807  25.900  1.00  0.00     0.064 A 
ATOM     17  C   UNL A   1      32.364  19.671  23.966  1.00  0.00     0.160 A 
ATOM     18  C   UNL A   1      32.652  20.801  23.198  1.00  0.00     0.051 A 
ATOM     19  C   UNL A   1      33.261  21.917  23.764  1.00  0.00     0.018 A 
BRANCH  15  20
ATOM     20  O   UNL A   1      32.612  18.526  26.070  1.00  0.00    -0.490 OA
BRANCH  20  21
ATOM     21  C   UNL A   1      33.417  17.427  25.617  1.00  0.00     0.226 C 
ATOM     22  C   UNL A   1      32.577  16.159  25.642  1.00  0.00     0.049 C 
ENDBRANCH  20  21
ENDBRANCH  15  20
BRANCH  17  23
ATOM     23  O   UNL A   1      31.728  18.708  23.237  1.00  0.00    -0.493 OA
ATOM     24  C   UNL A   1      32.362  18.165  22.092  1.00  0.00     0.278 C 
ENDBRANCH  17  23
ENDBRANCH   7  14
BRANCH   6  25
ATOM     25  C   UNL A   1      31.555  27.670  24.634  1.00  0.00    -0.032 A 
ATOM     26  C   UNL A   1      32.332  28.411  23.726  1.00  0.00     0.005 A 
ATOM     27  C   UNL A   1      30.203  27.492  24.265  1.00  0.00     0.005 A 
ATOM     28  C   UNL A   1      31.796  28.947  22.545  1.00  0.00     0.000 A 
ATOM     29  C   UNL A   1      29.659  28.033  23.094  1.00  0.00     0.000 A 
ATOM     30  C   UNL A   1      30.458  28.766  22.231  1.00  0.00     0.000 A 
ENDBRANCH   6  25
ENDBRANCH   3   6
ENDBRANCH   1   2
BRANCH   1  31
ATOM     31  C   UNL A   1      34.951  29.718  27.269  1.00  0.00     0.042 C 
BRANCH  31  32
ATOM     32  C   UNL A   1      35.486  30.955  27.975  1.00  0.00     0.118 C 
BRANCH  32  33
ATOM     33  N   UNL A   1      35.388  30.866  29.424  1.00  0.00    -0.352 N 
ATOM     34  C   UNL A   1      36.263  30.341  30.341  1.00  0.00     0.251 C 
ATOM     35  H   UNL A   1      34.562  31.241  29.807  1.00  0.00     0.163 HD
ATOM     36  O   UNL A   1      35.902  30.196  31.505  1.00  0.00    -0.269 OA
BRANCH  34  37
ATOM     37  C   UNL A   1      37.629  29.936  29.940  1.00  0.00     0.039 A 
ATOM     38  C   UNL A   1      38.501  29.463  30.925  1.00  0.00     0.014 A 
ATOM     39  C   UNL A   1      38.073  30.062  28.622  1.00  0.00     0.014 A 
ATOM     40  C   UNL A   1      39.799  29.078  30.578  1.00  0.00     0.010 A 
ATOM     41  C   UNL A   1      39.331  29.590  28.260  1.00  0.00     0.010 A 
ATOM     42  C   UNL A   1      40.218  29.118  29.238  1.00  0.00    -0.014 A 
BRANCH  42  43
ATOM     43  C   UNL A   1      41.591  28.703  28.856  1.00  0.00     0.031 A 
ATOM     44  C   UNL A   1      41.857  27.296  28.395  1.00  0.00     0.074 A 
ATOM     45  C   UNL A   1      42.608  29.578  28.967  1.00  0.00     0.049 A 
ATOM     46  N   UNL A   1      42.987  26.744  28.030  1.00  0.00    -0.248 NA
ATOM     47  C   UNL A   1      40.709  26.376  28.371  1.00  0.00     0.031 C 
ATOM     48  C   UNL A   1      42.496  30.949  29.471  1.00  0.00     0.029 A 
ATOM     49  N   UNL A   1      43.940  29.442  28.669  1.00  0.00    -0.354 N 
ATOM     50  C   UNL A   1      42.689  25.414  27.760  1.00  0.00     0.074 A 
ATOM     51  C   UNL A   1      41.286  25.227  28.055  1.00  0.00     0.031 C 
ATOM     52  C   UNL A   1      43.703  31.534  29.423  1.00  0.00     0.029 A 
ATOM     53  C   UNL A   1      44.677  30.576  28.911  1.00  0.00     0.049 A 
ATOM     54  H   UNL A   1      44.331  28.610  28.315  1.00  0.00     0.167 HD
ATOM     55  C   UNL A   1      43.503  24.442  27.284  1.00  0.00     0.037 A 
ATOM     56  C   UNL A   1      45.990  30.816  28.735  1.00  0.00     0.037 A 
ATOM     57  C   UNL A   1      44.889  24.640  26.954  1.00  0.00     0.049 A 
ATOM     58  C   UNL A   1      46.863  29.740  28.157  1.00  0.00     0.074 A 
ATOM     59  C   UNL A   1      45.777  23.745  26.384  1.00  0.00     0.029 A 
ATOM     60  N   UNL A   1      45.589  25.817  27.169  1.00  0.00    -0.354 N 
ATOM     61  N   UNL A   1      46.548  28.514  27.815  1.00  0.00    -0.248 NA
ATOM     62  C   UNL A   1      48.272  30.086  27.920  1.00  0.00     0.031 C 
ATOM     63  C   UNL A   1      47.027  24.367  26.294  1.00  0.00     0.029 A 
ATOM     64  C   UNL A   1      46.906  25.666  26.762  1.00  0.00     0.049 A 
ATOM     65  H   UNL A   1      45.208  26.640  27.554  1.00  0.00     0.167 HD
ATOM     66  C   UNL A   1      47.710  27.950  27.305  1.00  0.00     0.074 A 
ATOM     67  C   UNL A   1      48.732  28.974  27.365  1.00  0.00     0.031 C 
ATOM     68  C   UNL A   1      47.912  26.695  26.830  1.00  0.00     0.037 A 
BRANCH  55  69
ATOM     69  C   UNL A   1      42.907  23.076  27.091  1.00  0.00     0.057 A 
ATOM     70  C   UNL A   1      42.657  22.215  28.169  1.00  0.00     0.134 A 
ATOM     71  C   UNL A   1      42.570  22.618  25.811  1.00  0.00     0.134 A 
ATOM     72  F   UNL A   1      42.969  22.586  29.421  1.00  0.00    -0.206 F 
ATOM     73  C   UNL A   1      42.127  20.938  27.978  1.00  0.00     0.040 A 
ATOM     74  C   UNL A   1      42.011  21.355  25.610  1.00  0.00     0.040 A 
ATOM     75  F   UNL A   1      42.777  23.391  24.734  1.00  0.00    -0.206 F 
ATOM     76  C   UNL A   1      41.798  20.506  26.695  1.00  0.00     0.006 A 
ENDBRANCH  55  69
BRANCH  56  77
ATOM     77  C   UNL A   1      46.544  32.150  29.078  1.00  0.00     0.057 A 
ATOM     78  C   UNL A   1      47.061  32.413  30.352  1.00  0.00     0.134 A 
ATOM     79  C   UNL A   1      46.587  33.185  28.137  1.00  0.00     0.134 A 
ATOM     80  F   UNL A   1      47.033  31.464  31.300  1.00  0.00    -0.206 F 
ATOM     81  C   UNL A   1      47.587  33.662  30.683  1.00  0.00     0.040 A 
ATOM     82  C   UNL A   1      47.132  34.432  28.447  1.00  0.00     0.040 A 
ATOM     83  F   UNL A   1      46.116  32.992  26.896  1.00  0.00    -0.206 F 
ATOM     84  C   UNL A   1      47.629  34.674  29.727  1.00  0.00     0.006 A 
ENDBRANCH  56  77
BRANCH  68  85
ATOM     85  C   UNL A   1      49.283  26.374  26.313  1.00  0.00     0.057 A 
ATOM     86  C   UNL A   1      49.702  26.761  25.034  1.00  0.00     0.134 A 
ATOM     87  C   UNL A   1      50.206  25.690  27.116  1.00  0.00     0.134 A 
ATOM     88  F   UNL A   1      48.863  27.409  24.211  1.00  0.00    -0.206 F 
ATOM     89  C   UNL A   1      50.979  26.456  24.560  1.00  0.00     0.040 A 
ATOM     90  C   UNL A   1      51.493  25.403  26.665  1.00  0.00     0.040 A 
ATOM     91  F   UNL A   1      49.872  25.298  28.355  1.00  0.00    -0.206 F 
ATOM     92  C   UNL A   1      51.881  25.778  25.379  1.00  0.00     0.006 A 
ENDBRANCH  68  85
ENDBRANCH  42  43
ENDBRANCH  34  37
ENDBRANCH  32  33
ENDBRANCH  31  32
ENDBRANCH   1  31
TORSDOF 15
ENDMDL
MODEL 3
REMARK VINA RESULT:     -12.0      2.104      2.664
REMARK SMILES CCOc1cc(C(=O)N2CCC(C(=O)NCCCNC(=O)c3ccc(-c4c5nc(c(-c6c(F)cccc6F)c6ccc([nH]6)c(-c6c(F)cccc6F)c6nc(c(-c7c(F)cccc7F)c7ccc4[nH]7)C=C6)C=C5)cc3)(c3ccccc3)CC2)ccc1OC
REMARK SMILES IDX 16 1 15 2 13 3 14 4 12 6 7 7 8 8 9 9 10 10 83 11 11 12 82 13
REMARK SMILES IDX 6 14 4 15 5 16 86 17 85 18 84 19 3 20 2 21 1 22 87 23 88 24
REMARK SMILES IDX 76 25 77 26 81 27 78 28 80 29 79 30 17 31 18 32 19 33 20 34
REMARK SMILES IDX 21 36 22 37 23 38 75 39 24 40 74 41 25 42 26 43 27 44 68 45
REMARK SMILES IDX 28 46 73 47 67 48 69 49 29 50 72 51 66 52 65 53 30 55 56 56
REMARK SMILES IDX 39 57 55 58 40 59 43 60 54 61 70 62 41 63 42 64 53 66 71 67
REMARK SMILES IDX 44 68 31 69 32 70 37 71 33 72 34 73 36 74 38 75 35 76 57 77
REMARK SMILES IDX 58 78 63 79 59 80 60 81 62 82 64 83 61 84 45 85 46 86 51 87
REMARK SMILES IDX 47 88 48 89 50 90 52 91 49 92
REMARK H PARENT 15 5 19 35 69 54 43 65
REMARK Flexibility Score: inf
ROOT
ATOM      1  C   UNL A   1      31.840  29.307  25.968  1.00  0.00     0.117 C 
ENDROOT
BRANCH   1   2
ATOM      2  N   UNL A   1      32.528  29.493  24.698  1.00  0.00    -0.355 N 
ATOM      3  C   UNL A   1      32.608  28.755  23.551  1.00  0.00     0.230 C 
ATOM      4  O   UNL A   1      33.391  29.239  22.731  1.00  0.00    -0.274 OA
ATOM      5  H   UNL A   1      33.045  30.330  24.658  1.00  0.00     0.163 HD
BRANCH   3   6
ATOM      6  C   UNL A   1      31.790  27.424  23.343  1.00  0.00     0.077 C 
ATOM      7  C   UNL A   1      33.374  23.441  22.448  1.00  0.00     0.253 C 
ATOM      8  O   UNL A   1      34.082  23.316  21.451  1.00  0.00    -0.269 OA
ATOM      9  N   UNL A   1      32.760  24.662  22.794  1.00  0.00    -0.339 N 
ATOM     10  C   UNL A   1      32.227  25.439  21.688  1.00  0.00     0.121 C 
ATOM     11  C   UNL A   1      32.297  24.980  24.143  1.00  0.00     0.121 C 
ATOM     12  C   UNL A   1      32.152  26.941  21.913  1.00  0.00     0.043 C 
ATOM     13  C   UNL A   1      32.245  26.464  24.483  1.00  0.00     0.043 C 
BRANCH   7  14
ATOM     14  C   UNL A   1      33.069  22.214  23.245  1.00  0.00     0.043 A 
ATOM     15  C   UNL A   1      33.262  20.883  25.276  1.00  0.00     0.161 A 
ATOM     16  C   UNL A   1      33.536  22.065  24.559  1.00  0.00     0.064 A 
ATOM     17  C   UNL A   1      32.465  19.880  24.709  1.00  0.00     0.160 A 
ATOM     18  C   UNL A   1      32.090  20.005  23.370  1.00  0.00     0.051 A 
ATOM     19  C   UNL A   1      32.428  21.136  22.633  1.00  0.00     0.018 A 
BRANCH  15  20
ATOM     20  O   UNL A   1      33.744  20.757  26.552  1.00  0.00    -0.490 OA
BRANCH  20  21
ATOM     21  C   UNL A   1      34.456  21.924  26.991  1.00  0.00     0.226 C 
ATOM     22  C   UNL A   1      33.676  22.578  28.122  1.00  0.00     0.049 C 
ENDBRANCH  20  21
ENDBRANCH  15  20
BRANCH  17  23
ATOM     23  O   UNL A   1      31.999  18.723  25.264  1.00  0.00    -0.493 OA
ATOM     24  C   UNL A   1      32.400  17.477  24.720  1.00  0.00     0.278 C 
ENDBRANCH  17  23
ENDBRANCH   7  14
BRANCH   6  25
ATOM     25  C   UNL A   1      30.224  27.550  23.433  1.00  0.00    -0.032 A 
ATOM     26  C   UNL A   1      29.373  26.559  23.954  1.00  0.00     0.005 A 
ATOM     27  C   UNL A   1      29.575  28.713  22.959  1.00  0.00     0.005 A 
ATOM     28  C   UNL A   1      27.978  26.711  23.985  1.00  0.00     0.000 A 
ATOM     29  C   UNL A   1      28.183  28.866  22.978  1.00  0.00     0.000 A 
ATOM     30  C   UNL A   1      27.381  27.860  23.491  1.00  0.00     0.000 A 
ENDBRANCH   6  25
ENDBRANCH   3   6
ENDBRANCH   1   2
BRANCH   1  31
ATOM     31  C   UNL A   1      32.690  28.548  26.978  1.00  0.00     0.042 C 
BRANCH  31  32
ATOM     32  C   UNL A   1      34.041  29.183  27.270  1.00  0.00     0.118 C 
BRANCH  32  33
ATOM     33  N   UNL A   1      33.933  30.420  28.029  1.00  0.00    -0.352 N 
ATOM     34  C   UNL A   1      34.841  31.038  28.850  1.00  0.00     0.251 C 
ATOM     35  H   UNL A   1      33.070  30.887  27.940  1.00  0.00     0.163 HD
ATOM     36  O   UNL A   1      34.480  31.982  29.546  1.00  0.00    -0.269 OA
BRANCH  34  37
ATOM     37  C   UNL A   1      36.245  30.571  28.916  1.00  0.00     0.039 A 
ATOM     38  C   UNL A   1      36.736  30.102  30.137  1.00  0.00     0.014 A 
ATOM     39  C   UNL A   1      37.090  30.636  27.805  1.00  0.00     0.014 A 
ATOM     40  C   UNL A   1      38.058  29.661  30.231  1.00  0.00     0.010 A 
ATOM     41  C   UNL A   1      38.376  30.107  27.875  1.00  0.00     0.010 A 
ATOM     42  C   UNL A   1      38.883  29.638  29.095  1.00  0.00    -0.014 A 
BRANCH  42  43
ATOM     43  C   UNL A   1      40.287  29.162  29.181  1.00  0.00     0.031 A 
ATOM     44  C   UNL A   1      41.367  30.076  29.693  1.00  0.00     0.074 A 
ATOM     45  C   UNL A   1      40.599  27.924  28.755  1.00  0.00     0.049 A 
ATOM     46  N   UNL A   1      42.649  29.847  29.831  1.00  0.00    -0.248 NA
ATOM     47  C   UNL A   1      40.962  31.439  30.069  1.00  0.00     0.031 C 
ATOM     48  C   UNL A   1      39.658  26.967  28.169  1.00  0.00     0.029 A 
ATOM     49  N   UNL A   1      41.799  27.260  28.743  1.00  0.00    -0.354 N 
ATOM     50  C   UNL A   1      43.201  31.039  30.283  1.00  0.00     0.074 A 
ATOM     51  C   UNL A   1      42.127  32.005  30.344  1.00  0.00     0.031 C 
ATOM     52  C   UNL A   1      40.312  25.831  27.879  1.00  0.00     0.029 A 
ATOM     53  C   UNL A   1      41.719  25.986  28.234  1.00  0.00     0.049 A 
ATOM     54  H   UNL A   1      42.639  27.657  29.070  1.00  0.00     0.167 HD
ATOM     55  C   UNL A   1      44.480  31.299  30.642  1.00  0.00     0.037 A 
ATOM     56  C   UNL A   1      42.671  25.049  28.074  1.00  0.00     0.037 A 
ATOM     57  C   UNL A   1      45.539  30.325  30.618  1.00  0.00     0.049 A 
ATOM     58  C   UNL A   1      44.073  25.342  28.527  1.00  0.00     0.074 A 
ATOM     59  C   UNL A   1      46.849  30.463  31.043  1.00  0.00     0.029 A 
ATOM     60  N   UNL A   1      45.408  29.031  30.139  1.00  0.00    -0.354 N 
ATOM     61  N   UNL A   1      44.562  26.444  29.043  1.00  0.00    -0.248 NA
ATOM     62  C   UNL A   1      45.052  24.255  28.394  1.00  0.00     0.031 C 
ATOM     63  C   UNL A   1      47.522  29.265  30.780  1.00  0.00     0.029 A 
ATOM     64  C   UNL A   1      46.619  28.364  30.238  1.00  0.00     0.049 A 
ATOM     65  H   UNL A   1      44.577  28.642  29.781  1.00  0.00     0.167 HD
ATOM     66  C   UNL A   1      45.898  26.177  29.315  1.00  0.00     0.074 A 
ATOM     67  C   UNL A   1      46.137  24.803  28.925  1.00  0.00     0.031 C 
ATOM     68  C   UNL A   1      46.841  26.997  29.842  1.00  0.00     0.037 A 
BRANCH  55  69
ATOM     69  C   UNL A   1      44.800  32.697  31.092  1.00  0.00     0.057 A 
ATOM     70  C   UNL A   1      44.684  33.092  32.431  1.00  0.00     0.134 A 
ATOM     71  C   UNL A   1      45.240  33.659  30.174  1.00  0.00     0.134 A 
ATOM     72  F   UNL A   1      44.254  32.223  33.361  1.00  0.00    -0.206 F 
ATOM     73  C   UNL A   1      44.959  34.399  32.837  1.00  0.00     0.040 A 
ATOM     74  C   UNL A   1      45.548  34.961  30.571  1.00  0.00     0.040 A 
ATOM     75  F   UNL A   1      45.381  33.349  28.876  1.00  0.00    -0.206 F 
ATOM     76  C   UNL A   1      45.397  35.337  31.905  1.00  0.00     0.006 A 
ENDBRANCH  55  69
BRANCH  56  77
ATOM     77  C   UNL A   1      42.315  23.732  27.491  1.00  0.00     0.057 A 
ATOM     78  C   UNL A   1      42.366  23.515  26.109  1.00  0.00     0.134 A 
ATOM     79  C   UNL A   1      41.933  22.656  28.300  1.00  0.00     0.134 A 
ATOM     80  F   UNL A   1      42.711  24.512  25.282  1.00  0.00    -0.206 F 
ATOM     81  C   UNL A   1      42.036  22.279  25.551  1.00  0.00     0.040 A 
ATOM     82  C   UNL A   1      41.623  21.408  27.759  1.00  0.00     0.040 A 
ATOM     83  F   UNL A   1      41.875  22.799  29.633  1.00  0.00    -0.206 F 
ATOM     84  C   UNL A   1      41.669  21.219  26.378  1.00  0.00     0.006 A 
ENDBRANCH  56  77
BRANCH  68  85
ATOM     85  C   UNL A   1      48.210  26.418  30.050  1.00  0.00     0.057 A 
ATOM     86  C   UNL A   1      49.210  26.513  29.074  1.00  0.00     0.134 A 
ATOM     87  C   UNL A   1      48.539  25.780  31.253  1.00  0.00     0.134 A 
ATOM     88  F   UNL A   1      48.957  27.102  27.895  1.00  0.00    -0.206 F 
ATOM     89  C   UNL A   1      50.480  25.969  29.276  1.00  0.00     0.040 A 
ATOM     90  C   UNL A   1      49.811  25.256  31.477  1.00  0.00     0.040 A 
ATOM     91  F   UNL A   1      47.629  25.663  32.233  1.00  0.00    -0.206 F 
ATOM     92  C   UNL A   1      50.785  25.342  30.483  1.00  0.00     0.006 A 
ENDBRANCH  68  85
ENDBRANCH  42  43
ENDBRANCH  34  37
ENDBRANCH  32  33
ENDBRANCH  31  32
ENDBRANCH   1  31
TORSDOF 15
ENDMDL
