MODEL 1
REMARK VINA RESULT:      -9.0      0.000      0.000
REMARK SMILES CCC[C@](C)(CC(F)(F)F)C(=O)NCCCNC(=O)c1ccc(-c2c3nc(c(-c4c(F)cccc4F)c4ccc([nH]4)c(-c4c(F)cccc4F)c4nc(c(-c5c(F)cccc5F)c5ccc2[nH]5)C=C4)C=C3)cc1
REMARK SMILES IDX 15 1 14 2 13 3 11 4 12 5 4 7 5 8 3 9 2 10 1 11 6 12 7 13
REMARK SMILES IDX 8 14 9 15 10 16 16 17 17 18 18 19 19 21 20 22 21 23 73 24
REMARK SMILES IDX 22 25 72 26 23 27 24 28 25 29 66 30 26 31 71 32 65 33 67 34
REMARK SMILES IDX 27 35 70 36 64 37 63 38 28 40 54 41 37 42 53 43 38 44 41 45
REMARK SMILES IDX 52 46 68 47 39 48 40 49 51 51 69 52 42 53 29 54 30 55 35 56
REMARK SMILES IDX 31 57 32 58 34 59 36 60 33 61 55 62 56 63 61 64 57 65 58 66
REMARK SMILES IDX 60 67 62 68 59 69 43 70 44 71 49 72 45 73 46 74 48 75 50 76
REMARK SMILES IDX 47 77
REMARK H PARENT 13 6 17 20 67 39 41 50
REMARK Flexibility Score: inf
ROOT
ATOM      1  C   UNL A   1      33.697  34.374  28.723  1.00  0.00     0.042 C 
ENDROOT
BRANCH   1   2
ATOM      2  C   UNL A   1      34.176  34.860  30.085  1.00  0.00     0.117 C 
BRANCH   2   3
ATOM      3  N   UNL A   1      33.737  34.002  31.171  1.00  0.00    -0.356 N 
ATOM      4  C   UNL A   1      34.380  33.324  32.156  1.00  0.00     0.226 C 
ATOM      5  O   UNL A   1      33.654  32.703  32.938  1.00  0.00    -0.274 OA
ATOM      6  H   UNL A   1      32.760  33.887  31.200  1.00  0.00     0.163 HD
BRANCH   4   7
ATOM      7  C   UNL A   1      35.922  33.317  32.315  1.00  0.00     0.055 C 
ATOM      8  C   UNL A   1      36.343  34.714  32.835  1.00  0.00     0.022 C 
BRANCH   7   9
ATOM      9  C   UNL A   1      36.553  33.105  30.900  1.00  0.00     0.017 C 
BRANCH   9  10
ATOM     10  C   UNL A   1      37.790  33.915  30.487  1.00  0.00    -0.002 C 
ATOM     11  C   UNL A   1      38.362  33.552  29.128  1.00  0.00     0.004 C 
ENDBRANCH   9  10
ENDBRANCH   7   9
BRANCH   7  12
ATOM     12  C   UNL A   1      36.350  32.234  33.336  1.00  0.00     0.132 C 
BRANCH  12  13
ATOM     13  C   UNL A   1      37.190  32.711  34.512  1.00  0.00     0.390 C 
ATOM     14  F   UNL A   1      36.504  33.518  35.343  1.00  0.00    -0.171 F 
ATOM     15  F   UNL A   1      37.585  31.639  35.241  1.00  0.00    -0.171 F 
ATOM     16  F   UNL A   1      38.306  33.351  34.114  1.00  0.00    -0.171 F 
ENDBRANCH  12  13
ENDBRANCH   7  12
ENDBRANCH   4   7
ENDBRANCH   2   3
ENDBRANCH   1   2
BRANCH   1  17
ATOM     17  C   UNL A   1      34.599  33.330  28.080  1.00  0.00     0.118 C 
BRANCH  17  18
ATOM     18  N   UNL A   1      33.870  32.143  27.654  1.00  0.00    -0.352 N 
ATOM     19  C   UNL A   1      34.263  30.833  27.573  1.00  0.00     0.251 C 
ATOM     20  H   UNL A   1      32.940  32.310  27.378  1.00  0.00     0.163 HD
ATOM     21  O   UNL A   1      33.536  30.021  26.995  1.00  0.00    -0.269 OA
BRANCH  19  22
ATOM     22  C   UNL A   1      35.548  30.379  28.147  1.00  0.00     0.039 A 
ATOM     23  C   UNL A   1      35.549  29.785  29.414  1.00  0.00     0.014 A 
ATOM     24  C   UNL A   1      36.757  30.571  27.473  1.00  0.00     0.014 A 
ATOM     25  C   UNL A   1      36.745  29.328  29.970  1.00  0.00     0.010 A 
ATOM     26  C   UNL A   1      37.936  30.037  27.988  1.00  0.00     0.010 A 
ATOM     27  C   UNL A   1      37.945  29.419  29.246  1.00  0.00    -0.014 A 
BRANCH  27  28
ATOM     28  C   UNL A   1      39.217  28.880  29.791  1.00  0.00     0.031 A 
ATOM     29  C   UNL A   1      39.843  29.502  31.009  1.00  0.00     0.074 A 
ATOM     30  C   UNL A   1      39.840  27.870  29.155  1.00  0.00     0.049 A 
ATOM     31  N   UNL A   1      40.979  29.215  31.593  1.00  0.00    -0.248 NA
ATOM     32  C   UNL A   1      39.110  30.614  31.637  1.00  0.00     0.031 C 
ATOM     33  C   UNL A   1      39.364  27.214  27.935  1.00  0.00     0.029 A 
ATOM     34  N   UNL A   1      41.015  27.222  29.442  1.00  0.00    -0.354 N 
ATOM     35  C   UNL A   1      41.103  30.118  32.642  1.00  0.00     0.074 A 
ATOM     36  C   UNL A   1      39.954  30.995  32.584  1.00  0.00     0.031 C 
ATOM     37  C   UNL A   1      40.224  26.241  27.596  1.00  0.00     0.029 A 
ATOM     38  C   UNL A   1      41.328  26.226  28.549  1.00  0.00     0.049 A 
ATOM     39  H   UNL A   1      41.581  27.452  30.214  1.00  0.00     0.167 HD
ATOM     40  C   UNL A   1      42.074  30.195  33.584  1.00  0.00     0.037 A 
ATOM     41  C   UNL A   1      42.386  25.396  28.504  1.00  0.00     0.037 A 
ATOM     42  C   UNL A   1      43.201  29.302  33.662  1.00  0.00     0.049 A 
ATOM     43  C   UNL A   1      43.444  25.493  29.567  1.00  0.00     0.074 A 
ATOM     44  C   UNL A   1      44.206  29.261  34.612  1.00  0.00     0.029 A 
ATOM     45  N   UNL A   1      43.468  28.290  32.751  1.00  0.00    -0.354 N 
ATOM     46  N   UNL A   1      43.517  26.312  30.588  1.00  0.00    -0.248 NA
ATOM     47  C   UNL A   1      44.563  24.546  29.475  1.00  0.00     0.031 C 
ATOM     48  C   UNL A   1      45.101  28.246  34.258  1.00  0.00     0.029 A 
ATOM     49  C   UNL A   1      44.630  27.628  33.111  1.00  0.00     0.049 A 
ATOM     50  H   UNL A   1      42.914  28.074  31.967  1.00  0.00     0.167 HD
ATOM     51  C   UNL A   1      44.673  25.963  31.274  1.00  0.00     0.074 A 
ATOM     52  C   UNL A   1      45.261  24.848  30.561  1.00  0.00     0.031 C 
ATOM     53  C   UNL A   1      45.199  26.516  32.393  1.00  0.00     0.037 A 
BRANCH  40  54
ATOM     54  C   UNL A   1      41.951  31.279  34.615  1.00  0.00     0.057 A 
ATOM     55  C   UNL A   1      42.652  32.486  34.502  1.00  0.00     0.134 A 
ATOM     56  C   UNL A   1      41.102  31.125  35.719  1.00  0.00     0.134 A 
ATOM     57  F   UNL A   1      43.492  32.691  33.476  1.00  0.00    -0.206 F 
ATOM     58  C   UNL A   1      42.534  33.491  35.463  1.00  0.00     0.040 A 
ATOM     59  C   UNL A   1      40.956  32.134  36.672  1.00  0.00     0.040 A 
ATOM     60  F   UNL A   1      40.397  29.996  35.885  1.00  0.00    -0.206 F 
ATOM     61  C   UNL A   1      41.678  33.319  36.549  1.00  0.00     0.006 A 
ENDBRANCH  40  54
BRANCH  41  62
ATOM     62  C   UNL A   1      42.482  24.374  27.433  1.00  0.00     0.057 A 
ATOM     63  C   UNL A   1      43.093  24.670  26.209  1.00  0.00     0.134 A 
ATOM     64  C   UNL A   1      41.964  23.084  27.601  1.00  0.00     0.134 A 
ATOM     65  F   UNL A   1      43.592  25.894  25.984  1.00  0.00    -0.206 F 
ATOM     66  C   UNL A   1      43.171  23.727  25.183  1.00  0.00     0.040 A 
ATOM     67  C   UNL A   1      42.055  22.125  26.592  1.00  0.00     0.040 A 
ATOM     68  F   UNL A   1      41.373  22.737  28.753  1.00  0.00    -0.206 F 
ATOM     69  C   UNL A   1      42.654  22.448  25.376  1.00  0.00     0.006 A 
ENDBRANCH  41  62
BRANCH  53  70
ATOM     70  C   UNL A   1      46.457  25.902  32.931  1.00  0.00     0.057 A 
ATOM     71  C   UNL A   1      46.430  24.866  33.872  1.00  0.00     0.134 A 
ATOM     72  C   UNL A   1      47.710  26.335  32.479  1.00  0.00     0.134 A 
ATOM     73  F   UNL A   1      45.261  24.416  34.354  1.00  0.00    -0.206 F 
ATOM     74  C   UNL A   1      47.605  24.298  34.365  1.00  0.00     0.040 A 
ATOM     75  C   UNL A   1      48.892  25.758  32.945  1.00  0.00     0.040 A 
ATOM     76  F   UNL A   1      47.805  27.319  31.572  1.00  0.00    -0.206 F 
ATOM     77  C   UNL A   1      48.841  24.740  33.896  1.00  0.00     0.006 A 
ENDBRANCH  53  70
ENDBRANCH  27  28
ENDBRANCH  19  22
ENDBRANCH  17  18
ENDBRANCH   1  17
TORSDOF 14
ENDMDL
MODEL 2
REMARK VINA RESULT:      -9.0      2.942      4.946
REMARK SMILES CCC[C@](C)(CC(F)(F)F)C(=O)NCCCNC(=O)c1ccc(-c2c3nc(c(-c4c(F)cccc4F)c4ccc([nH]4)c(-c4c(F)cccc4F)c4nc(c(-c5c(F)cccc5F)c5ccc2[nH]5)C=C4)C=C3)cc1
REMARK SMILES IDX 15 1 14 2 13 3 11 4 12 5 4 7 5 8 3 9 2 10 1 11 6 12 7 13
REMARK SMILES IDX 8 14 9 15 10 16 16 17 17 18 18 19 19 21 20 22 21 23 73 24
REMARK SMILES IDX 22 25 72 26 23 27 24 28 25 29 66 30 26 31 71 32 65 33 67 34
REMARK SMILES IDX 27 35 70 36 64 37 63 38 28 40 54 41 37 42 53 43 38 44 41 45
REMARK SMILES IDX 52 46 68 47 39 48 40 49 51 51 69 52 42 53 29 54 30 55 35 56
REMARK SMILES IDX 31 57 32 58 34 59 36 60 33 61 55 62 56 63 61 64 57 65 58 66
REMARK SMILES IDX 60 67 62 68 59 69 43 70 44 71 49 72 45 73 46 74 48 75 50 76
REMARK SMILES IDX 47 77
REMARK H PARENT 13 6 17 20 67 39 41 50
REMARK Flexibility Score: inf
ROOT
ATOM      1  C   UNL A   1      31.323  32.263  26.130  1.00  0.00     0.042 C 
ENDROOT
BRANCH   1   2
ATOM      2  C   UNL A   1      31.049  30.797  25.824  1.00  0.00     0.117 C 
BRANCH   2   3
ATOM      3  N   UNL A   1      32.072  30.200  24.983  1.00  0.00    -0.356 N 
ATOM      4  C   UNL A   1      32.873  29.109  25.103  1.00  0.00     0.226 C 
ATOM      5  O   UNL A   1      33.625  28.893  24.148  1.00  0.00    -0.274 OA
ATOM      6  H   UNL A   1      32.218  30.693  24.144  1.00  0.00     0.163 HD
BRANCH   4   7
ATOM      7  C   UNL A   1      32.861  28.179  26.342  1.00  0.00     0.055 C 
ATOM      8  C   UNL A   1      33.814  26.995  26.044  1.00  0.00     0.022 C 
BRANCH   7   9
ATOM      9  C   UNL A   1      31.412  27.617  26.513  1.00  0.00     0.017 C 
BRANCH   9  10
ATOM     10  C   UNL A   1      30.750  26.849  25.360  1.00  0.00    -0.002 C 
ATOM     11  C   UNL A   1      30.217  25.478  25.734  1.00  0.00     0.004 C 
ENDBRANCH   9  10
ENDBRANCH   7   9
BRANCH   7  12
ATOM     12  C   UNL A   1      33.363  28.945  27.592  1.00  0.00     0.132 C 
BRANCH  12  13
ATOM     13  C   UNL A   1      34.795  29.458  27.537  1.00  0.00     0.390 C 
ATOM     14  F   UNL A   1      35.442  29.313  28.709  1.00  0.00    -0.171 F 
ATOM     15  F   UNL A   1      35.488  28.747  26.614  1.00  0.00    -0.171 F 
ATOM     16  F   UNL A   1      34.859  30.751  27.166  1.00  0.00    -0.171 F 
ENDBRANCH  12  13
ENDBRANCH   7  12
ENDBRANCH   4   7
ENDBRANCH   2   3
ENDBRANCH   1   2
BRANCH   1  17
ATOM     17  C   UNL A   1      32.154  32.494  27.384  1.00  0.00     0.118 C 
BRANCH  17  18
ATOM     18  N   UNL A   1      32.523  33.893  27.564  1.00  0.00    -0.352 N 
ATOM     19  C   UNL A   1      33.556  34.463  28.259  1.00  0.00     0.251 C 
ATOM     20  H   UNL A   1      31.930  34.534  27.109  1.00  0.00     0.163 HD
ATOM     21  O   UNL A   1      33.561  35.683  28.437  1.00  0.00    -0.269 OA
BRANCH  19  22
ATOM     22  C   UNL A   1      34.654  33.642  28.816  1.00  0.00     0.039 A 
ATOM     23  C   UNL A   1      35.947  33.816  28.313  1.00  0.00     0.014 A 
ATOM     24  C   UNL A   1      34.415  32.674  29.795  1.00  0.00     0.014 A 
ATOM     25  C   UNL A   1      37.005  33.069  28.836  1.00  0.00     0.010 A 
ATOM     26  C   UNL A   1      35.482  31.994  30.378  1.00  0.00     0.010 A 
ATOM     27  C   UNL A   1      36.787  32.176  29.899  1.00  0.00    -0.014 A 
BRANCH  27  28
ATOM     28  C   UNL A   1      37.908  31.421  30.513  1.00  0.00     0.031 A 
ATOM     29  C   UNL A   1      38.299  31.675  31.943  1.00  0.00     0.074 A 
ATOM     30  C   UNL A   1      38.614  30.551  29.766  1.00  0.00     0.049 A 
ATOM     31  N   UNL A   1      39.288  31.164  32.633  1.00  0.00    -0.248 NA
ATOM     32  C   UNL A   1      37.492  32.654  32.688  1.00  0.00     0.031 C 
ATOM     33  C   UNL A   1      38.368  30.253  28.353  1.00  0.00     0.029 A 
ATOM     34  N   UNL A   1      39.688  29.761  30.089  1.00  0.00    -0.354 N 
ATOM     35  C   UNL A   1      39.230  31.770  33.882  1.00  0.00     0.074 A 
ATOM     36  C   UNL A   1      38.143  32.724  33.840  1.00  0.00     0.031 C 
ATOM     37  C   UNL A   1      39.248  29.326  27.941  1.00  0.00     0.029 A 
ATOM     38  C   UNL A   1      40.140  28.991  29.045  1.00  0.00     0.049 A 
ATOM     39  H   UNL A   1      40.097  29.748  30.985  1.00  0.00     0.167 HD
ATOM     40  C   UNL A   1      39.996  31.537  34.975  1.00  0.00     0.037 A 
ATOM     41  C   UNL A   1      41.161  28.115  28.986  1.00  0.00     0.037 A 
ATOM     42  C   UNL A   1      41.057  30.565  35.027  1.00  0.00     0.049 A 
ATOM     43  C   UNL A   1      41.989  27.865  30.214  1.00  0.00     0.074 A 
ATOM     44  C   UNL A   1      41.852  30.214  36.104  1.00  0.00     0.029 A 
ATOM     45  N   UNL A   1      41.468  29.788  33.954  1.00  0.00    -0.354 N 
ATOM     46  N   UNL A   1      41.883  28.401  31.405  1.00  0.00    -0.248 NA
ATOM     47  C   UNL A   1      43.074  26.882  30.091  1.00  0.00     0.031 C 
ATOM     48  C   UNL A   1      42.768  29.247  35.674  1.00  0.00     0.029 A 
ATOM     49  C   UNL A   1      42.515  28.968  34.341  1.00  0.00     0.049 A 
ATOM     50  H   UNL A   1      41.074  29.815  33.053  1.00  0.00     0.167 HD
ATOM     51  C   UNL A   1      42.869  27.804  32.180  1.00  0.00     0.074 A 
ATOM     52  C   UNL A   1      43.553  26.854  31.327  1.00  0.00     0.031 C 
ATOM     53  C   UNL A   1      43.180  28.023  33.480  1.00  0.00     0.037 A 
BRANCH  40  54
ATOM     54  C   UNL A   1      39.705  32.342  36.207  1.00  0.00     0.057 A 
ATOM     55  C   UNL A   1      40.455  33.478  36.540  1.00  0.00     0.134 A 
ATOM     56  C   UNL A   1      38.647  31.996  37.056  1.00  0.00     0.134 A 
ATOM     57  F   UNL A   1      41.492  33.855  35.776  1.00  0.00    -0.206 F 
ATOM     58  C   UNL A   1      40.181  34.224  37.687  1.00  0.00     0.040 A 
ATOM     59  C   UNL A   1      38.346  32.750  38.192  1.00  0.00     0.040 A 
ATOM     60  F   UNL A   1      37.884  30.924  36.793  1.00  0.00    -0.206 F 
ATOM     61  C   UNL A   1      39.118  33.864  38.513  1.00  0.00     0.006 A 
ENDBRANCH  40  54
BRANCH  41  62
ATOM     62  C   UNL A   1      41.435  27.381  27.725  1.00  0.00     0.057 A 
ATOM     63  C   UNL A   1      40.883  26.116  27.495  1.00  0.00     0.134 A 
ATOM     64  C   UNL A   1      42.255  27.920  26.727  1.00  0.00     0.134 A 
ATOM     65  F   UNL A   1      40.104  25.541  28.423  1.00  0.00    -0.206 F 
ATOM     66  C   UNL A   1      41.150  25.403  26.325  1.00  0.00     0.040 A 
ATOM     67  C   UNL A   1      42.512  27.229  25.543  1.00  0.00     0.040 A 
ATOM     68  F   UNL A   1      42.807  29.132  26.885  1.00  0.00    -0.206 F 
ATOM     69  C   UNL A   1      41.964  25.963  25.342  1.00  0.00     0.006 A 
ENDBRANCH  41  62
BRANCH  53  70
ATOM     70  C   UNL A   1      44.288  27.198  34.065  1.00  0.00     0.057 A 
ATOM     71  C   UNL A   1      44.050  25.940  34.632  1.00  0.00     0.134 A 
ATOM     72  C   UNL A   1      45.610  27.657  34.035  1.00  0.00     0.134 A 
ATOM     73  F   UNL A   1      42.803  25.450  34.703  1.00  0.00    -0.206 F 
ATOM     74  C   UNL A   1      45.087  25.177  35.171  1.00  0.00     0.040 A 
ATOM     75  C   UNL A   1      46.658  26.893  34.548  1.00  0.00     0.040 A 
ATOM     76  F   UNL A   1      45.905  28.851  33.499  1.00  0.00    -0.206 F 
ATOM     77  C   UNL A   1      46.397  25.651  35.125  1.00  0.00     0.006 A 
ENDBRANCH  53  70
ENDBRANCH  27  28
ENDBRANCH  19  22
ENDBRANCH  17  18
ENDBRANCH   1  17
TORSDOF 14
ENDMDL
MODEL 3
REMARK VINA RESULT:      -8.9      2.312      3.095
REMARK SMILES CCC[C@](C)(CC(F)(F)F)C(=O)NCCCNC(=O)c1ccc(-c2c3nc(c(-c4c(F)cccc4F)c4ccc([nH]4)c(-c4c(F)cccc4F)c4nc(c(-c5c(F)cccc5F)c5ccc2[nH]5)C=C4)C=C3)cc1
REMARK SMILES IDX 15 1 14 2 13 3 11 4 12 5 4 7 5 8 3 9 2 10 1 11 6 12 7 13
REMARK SMILES IDX 8 14 9 15 10 16 16 17 17 18 18 19 19 21 20 22 21 23 73 24
REMARK SMILES IDX 22 25 72 26 23 27 24 28 25 29 66 30 26 31 71 32 65 33 67 34
REMARK SMILES IDX 27 35 70 36 64 37 63 38 28 40 54 41 37 42 53 43 38 44 41 45
REMARK SMILES IDX 52 46 68 47 39 48 40 49 51 51 69 52 42 53 29 54 30 55 35 56
REMARK SMILES IDX 31 57 32 58 34 59 36 60 33 61 55 62 56 63 61 64 57 65 58 66
REMARK SMILES IDX 60 67 62 68 59 69 43 70 44 71 49 72 45 73 46 74 48 75 50 76
REMARK SMILES IDX 47 77
REMARK H PARENT 13 6 17 20 67 39 41 50
REMARK Flexibility Score: inf
ROOT
ATOM      1  C   UNL A   1      34.392  33.509  29.762  1.00  0.00     0.042 C 
ENDROOT
BRANCH   1   2
ATOM      2  C   UNL A   1      34.735  32.911  31.119  1.00  0.00     0.117 C 
BRANCH   2   3
ATOM      3  N   UNL A   1      35.269  33.895  32.045  1.00  0.00    -0.356 N 
ATOM      4  C   UNL A   1      36.405  33.976  32.784  1.00  0.00     0.226 C 
ATOM      5  O   UNL A   1      36.533  35.005  33.454  1.00  0.00    -0.274 OA
ATOM      6  H   UNL A   1      34.678  34.673  32.163  1.00  0.00     0.163 HD
BRANCH   4   7
ATOM      7  C   UNL A   1      37.489  32.868  32.800  1.00  0.00     0.055 C 
ATOM      8  C   UNL A   1      38.585  33.303  33.805  1.00  0.00     0.022 C 
BRANCH   7   9
ATOM      9  C   UNL A   1      38.126  32.793  31.374  1.00  0.00     0.017 C 
BRANCH   9  10
ATOM     10  C   UNL A   1      38.443  34.086  30.610  1.00  0.00    -0.002 C 
ATOM     11  C   UNL A   1      38.419  33.954  29.098  1.00  0.00     0.004 C 
ENDBRANCH   9  10
ENDBRANCH   7   9
BRANCH   7  12
ATOM     12  C   UNL A   1      36.872  31.523  33.258  1.00  0.00     0.132 C 
BRANCH  12  13
ATOM     13  C   UNL A   1      37.840  30.360  33.422  1.00  0.00     0.390 C 
ATOM     14  F   UNL A   1      38.958  30.509  32.687  1.00  0.00    -0.171 F 
ATOM     15  F   UNL A   1      38.229  30.285  34.719  1.00  0.00    -0.171 F 
ATOM     16  F   UNL A   1      37.274  29.178  33.112  1.00  0.00    -0.171 F 
ENDBRANCH  12  13
ENDBRANCH   7  12
ENDBRANCH   4   7
ENDBRANCH   2   3
ENDBRANCH   1   2
BRANCH   1  17
ATOM     17  C   UNL A   1      34.960  32.738  28.578  1.00  0.00     0.118 C 
BRANCH  17  18
ATOM     18  N   UNL A   1      34.267  31.477  28.344  1.00  0.00    -0.352 N 
ATOM     19  C   UNL A   1      34.755  30.212  28.149  1.00  0.00     0.251 C 
ATOM     20  H   UNL A   1      33.286  31.547  28.323  1.00  0.00     0.163 HD
ATOM     21  O   UNL A   1      33.988  29.323  27.772  1.00  0.00    -0.269 OA
BRANCH  19  22
ATOM     22  C   UNL A   1      36.184  29.897  28.363  1.00  0.00     0.039 A 
ATOM     23  C   UNL A   1      36.596  29.452  29.623  1.00  0.00     0.014 A 
ATOM     24  C   UNL A   1      37.130  30.078  27.350  1.00  0.00     0.014 A 
ATOM     25  C   UNL A   1      37.936  29.127  29.846  1.00  0.00     0.010 A 
ATOM     26  C   UNL A   1      38.448  29.671  27.545  1.00  0.00     0.010 A 
ATOM     27  C   UNL A   1      38.867  29.201  28.797  1.00  0.00    -0.014 A 
BRANCH  27  28
ATOM     28  C   UNL A   1      40.283  28.798  28.995  1.00  0.00     0.031 A 
ATOM     29  C   UNL A   1      41.268  29.762  29.598  1.00  0.00     0.074 A 
ATOM     30  C   UNL A   1      40.696  27.587  28.575  1.00  0.00     0.049 A 
ATOM     31  N   UNL A   1      42.555  29.617  29.790  1.00  0.00    -0.248 NA
ATOM     32  C   UNL A   1      40.743  31.073  30.015  1.00  0.00     0.031 C 
ATOM     33  C   UNL A   1      39.852  26.580  27.928  1.00  0.00     0.029 A 
ATOM     34  N   UNL A   1      41.935  26.999  28.624  1.00  0.00    -0.354 N 
ATOM     35  C   UNL A   1      42.993  30.819  30.332  1.00  0.00     0.074 A 
ATOM     36  C   UNL A   1      41.848  31.701  30.390  1.00  0.00     0.031 C 
ATOM     37  C   UNL A   1      40.591  25.491  27.666  1.00  0.00     0.029 A 
ATOM     38  C   UNL A   1      41.965  25.733  28.091  1.00  0.00     0.049 A 
ATOM     39  H   UNL A   1      42.727  27.443  29.004  1.00  0.00     0.167 HD
ATOM     40  C   UNL A   1      44.234  31.152  30.764  1.00  0.00     0.037 A 
ATOM     41  C   UNL A   1      42.987  24.865  27.961  1.00  0.00     0.037 A 
ATOM     42  C   UNL A   1      45.367  30.265  30.736  1.00  0.00     0.049 A 
ATOM     43  C   UNL A   1      44.350  25.254  28.459  1.00  0.00     0.074 A 
ATOM     44  C   UNL A   1      46.650  30.489  31.204  1.00  0.00     0.029 A 
ATOM     45  N   UNL A   1      45.350  28.981  30.210  1.00  0.00    -0.354 N 
ATOM     46  N   UNL A   1      44.736  26.372  29.024  1.00  0.00    -0.248 NA
ATOM     47  C   UNL A   1      45.418  24.257  28.306  1.00  0.00     0.031 C 
ATOM     48  C   UNL A   1      47.419  29.352  30.931  1.00  0.00     0.029 A 
ATOM     49  C   UNL A   1      46.604  28.406  30.331  1.00  0.00     0.049 A 
ATOM     50  H   UNL A   1      44.563  28.544  29.811  1.00  0.00     0.167 HD
ATOM     51  C   UNL A   1      46.083  26.204  29.318  1.00  0.00     0.074 A 
ATOM     52  C   UNL A   1      46.443  24.870  28.882  1.00  0.00     0.031 C 
ATOM     53  C   UNL A   1      46.944  27.075  29.897  1.00  0.00     0.037 A 
BRANCH  40  54
ATOM     54  C   UNL A   1      44.424  32.535  31.316  1.00  0.00     0.057 A 
ATOM     55  C   UNL A   1      44.231  32.820  32.674  1.00  0.00     0.134 A 
ATOM     56  C   UNL A   1      44.832  33.588  30.487  1.00  0.00     0.134 A 
ATOM     57  F   UNL A   1      43.827  31.859  33.519  1.00  0.00    -0.206 F 
ATOM     58  C   UNL A   1      44.410  34.107  33.183  1.00  0.00     0.040 A 
ATOM     59  C   UNL A   1      45.040  34.873  30.990  1.00  0.00     0.040 A 
ATOM     60  F   UNL A   1      45.041  33.383  29.177  1.00  0.00    -0.206 F 
ATOM     61  C   UNL A   1      44.823  35.137  32.340  1.00  0.00     0.006 A 
ENDBRANCH  40  54
BRANCH  41  62
ATOM     62  C   UNL A   1      42.752  23.528  27.362  1.00  0.00     0.057 A 
ATOM     63  C   UNL A   1      42.886  23.324  25.984  1.00  0.00     0.134 A 
ATOM     64  C   UNL A   1      42.384  22.428  28.146  1.00  0.00     0.134 A 
ATOM     65  F   UNL A   1      43.220  24.344  25.181  1.00  0.00    -0.206 F 
ATOM     66  C   UNL A   1      42.647  22.078  25.403  1.00  0.00     0.040 A 
ATOM     67  C   UNL A   1      42.163  21.172  27.581  1.00  0.00     0.040 A 
ATOM     68  F   UNL A   1      42.246  22.559  29.473  1.00  0.00    -0.206 F 
ATOM     69  C   UNL A   1      42.288  20.996  26.204  1.00  0.00     0.006 A 
ENDBRANCH  41  62
BRANCH  53  70
ATOM     70  C   UNL A   1      48.349  26.600  30.120  1.00  0.00     0.057 A 
ATOM     71  C   UNL A   1      49.364  26.835  29.185  1.00  0.00     0.134 A 
ATOM     72  C   UNL A   1      48.693  25.924  31.296  1.00  0.00     0.134 A 
ATOM     73  F   UNL A   1      49.095  27.466  28.032  1.00  0.00    -0.206 F 
ATOM     74  C   UNL A   1      50.670  26.393  29.402  1.00  0.00     0.040 A 
ATOM     75  C   UNL A   1      50.000  25.499  31.536  1.00  0.00     0.040 A 
ATOM     76  F   UNL A   1      47.768  25.674  32.235  1.00  0.00    -0.206 F 
ATOM     77  C   UNL A   1      50.992  25.728  30.584  1.00  0.00     0.006 A 
ENDBRANCH  53  70
ENDBRANCH  27  28
ENDBRANCH  19  22
ENDBRANCH  17  18
ENDBRANCH   1  17
TORSDOF 14
ENDMDL
